MODEL 1
REMARK VINA RESULT:     -12.4      0.000      0.000
REMARK SMILES O=C(NCCCNC(=O)c1ccccc1-n1ccnn1)c1ccc(-c2c3nc(c(-c4c(F)cc(S(=O)(=O)[O-])cc4F)c4ccc([nH]4)c(-c4c(F)cc(S(=O)(=O)[O-])cc4F)c4nc(c(-c5c(F)cc(S(=O)(=O)[O-])cc5F)c5ccc2[nH]5)C=C4)C=C3)cc1
REMARK SMILES IDX 4 1 3 2 1 3 2 4 21 6 22 7 86 8 23 9 85 10 24 11 25 12 26 13
REMARK SMILES IDX 79 14 27 15 84 16 78 17 80 18 28 19 83 20 77 21 76 22 29 24
REMARK SMILES IDX 63 25 42 26 62 27 43 28 46 29 61 30 81 31 44 32 45 33 60 35
REMARK SMILES IDX 82 36 47 37 30 38 31 39 40 40 32 41 33 42 39 43 41 44 34 45
REMARK SMILES IDX 35 46 36 47 37 48 38 49 64 50 65 51 74 52 66 53 67 54 73 55
REMARK SMILES IDX 75 56 68 57 69 58 70 59 71 60 72 61 48 62 49 63 58 64 50 65
REMARK SMILES IDX 51 66 57 67 59 68 52 69 53 70 54 71 55 72 56 73 5 74 6 75
REMARK SMILES IDX 7 76 8 77 9 79 10 80 11 81 15 82 12 83 14 84 13 85 16 86
REMARK SMILES IDX 17 87 20 88 18 89 19 90
REMARK H PARENT 3 5 80 23 46 34 7 78
REMARK Flexibility Score: inf
ROOT
ATOM      1  C   UNL A   1      33.219  29.277  27.457  1.00  0.00     0.118 C 
ENDROOT
BRANCH   1   2
ATOM      2  N   UNL A   1      33.509  30.610  27.946  1.00  0.00    -0.352 N 
ATOM      3  O   UNL A   1      34.495  32.544  28.330  1.00  0.00    -0.269 OA
ATOM      4  C   UNL A   1      34.652  31.330  28.163  1.00  0.00     0.251 C 
ATOM      5  H   UNL A   1      32.696  31.114  28.177  1.00  0.00     0.163 HD
BRANCH   4   6
ATOM      6  C   UNL A   1      36.021  30.760  28.286  1.00  0.00     0.039 A 
ATOM      7  C   UNL A   1      36.389  29.444  28.008  1.00  0.00     0.014 A 
ATOM      8  C   UNL A   1      37.007  31.643  28.770  1.00  0.00     0.014 A 
ATOM      9  C   UNL A   1      37.678  28.995  28.294  1.00  0.00     0.010 A 
ATOM     10  C   UNL A   1      38.298  31.205  29.042  1.00  0.00     0.010 A 
ATOM     11  C   UNL A   1      38.624  29.868  28.837  1.00  0.00    -0.014 A 
BRANCH  11  12
ATOM     12  C   UNL A   1      39.991  29.388  29.039  1.00  0.00     0.031 A 
ATOM     13  C   UNL A   1      40.411  29.267  30.467  1.00  0.00     0.074 A 
ATOM     14  C   UNL A   1      40.766  28.906  28.045  1.00  0.00     0.049 A 
ATOM     15  N   UNL A   1      41.386  29.859  31.077  1.00  0.00    -0.248 NA
ATOM     16  C   UNL A   1      39.567  28.449  31.354  1.00  0.00     0.031 C 
ATOM     17  C   UNL A   1      40.384  28.657  26.653  1.00  0.00     0.029 A 
ATOM     18  N   UNL A   1      42.039  28.421  28.103  1.00  0.00    -0.354 N 
ATOM     19  C   UNL A   1      41.404  29.341  32.374  1.00  0.00     0.074 A 
ATOM     20  C   UNL A   1      40.180  28.599  32.529  1.00  0.00     0.031 C 
ATOM     21  C   UNL A   1      41.314  27.866  26.071  1.00  0.00     0.029 A 
ATOM     22  C   UNL A   1      42.412  27.658  27.001  1.00  0.00     0.049 A 
ATOM     23  H   UNL A   1      42.644  28.597  28.861  1.00  0.00     0.167 HD
ATOM     24  C   UNL A   1      42.513  29.390  33.163  1.00  0.00     0.037 A 
ATOM     25  C   UNL A   1      43.502  26.855  26.895  1.00  0.00     0.037 A 
ATOM     26  C   UNL A   1      43.471  30.343  32.669  1.00  0.00     0.049 A 
ATOM     27  C   UNL A   1      44.475  27.283  27.934  1.00  0.00     0.074 A 
ATOM     28  C   UNL A   1      43.466  31.706  32.445  1.00  0.00     0.029 A 
ATOM     29  N   UNL A   1      44.572  29.861  32.005  1.00  0.00    -0.354 N 
ATOM     30  N   UNL A   1      45.102  28.426  27.927  1.00  0.00    -0.248 NA
ATOM     31  C   UNL A   1      44.434  26.604  29.220  1.00  0.00     0.031 C 
ATOM     32  C   UNL A   1      44.255  31.889  31.273  1.00  0.00     0.029 A 
ATOM     33  C   UNL A   1      44.734  30.636  30.886  1.00  0.00     0.049 A 
ATOM     34  H   UNL A   1      45.137  29.103  32.280  1.00  0.00     0.167 HD
ATOM     35  C   UNL A   1      45.154  28.811  29.259  1.00  0.00     0.074 A 
ATOM     36  C   UNL A   1      44.814  27.607  30.014  1.00  0.00     0.031 C 
ATOM     37  C   UNL A   1      45.197  30.127  29.615  1.00  0.00     0.037 A 
BRANCH  24  38
ATOM     38  C   UNL A   1      42.891  28.344  34.187  1.00  0.00     0.058 A 
ATOM     39  C   UNL A   1      43.109  28.729  35.528  1.00  0.00     0.135 A 
ATOM     40  C   UNL A   1      43.333  27.045  33.850  1.00  0.00     0.135 A 
ATOM     41  F   UNL A   1      42.732  29.942  35.961  1.00  0.00    -0.206 F 
ATOM     42  C   UNL A   1      43.792  27.920  36.438  1.00  0.00     0.059 A 
ATOM     43  C   UNL A   1      43.965  26.201  34.756  1.00  0.00     0.059 A 
ATOM     44  F   UNL A   1      43.264  26.573  32.599  1.00  0.00    -0.206 F 
ATOM     45  C   UNL A   1      44.232  26.664  36.034  1.00  0.00     0.060 A 
BRANCH  45  46
ATOM     46  S   UNL A   1      45.221  25.669  37.165  1.00  0.00     0.124 S 
ATOM     47  O   UNL A   1      46.121  26.672  37.722  1.00  0.00    -0.237 OA
ATOM     48  O   UNL A   1      44.208  25.143  38.072  1.00  0.00    -0.237 OA
ATOM     49  O   UNL A   1      45.841  24.680  36.287  1.00  0.00    -0.744 OA
ENDBRANCH  45  46
ENDBRANCH  24  38
BRANCH  25  50
ATOM     50  C   UNL A   1      43.618  25.546  26.194  1.00  0.00     0.058 A 
ATOM     51  C   UNL A   1      44.670  25.283  25.296  1.00  0.00     0.135 A 
ATOM     52  C   UNL A   1      42.866  24.426  26.607  1.00  0.00     0.135 A 
ATOM     53  F   UNL A   1      45.457  26.282  24.868  1.00  0.00    -0.206 F 
ATOM     54  C   UNL A   1      44.985  23.986  24.870  1.00  0.00     0.059 A 
ATOM     55  C   UNL A   1      43.153  23.128  26.186  1.00  0.00     0.059 A 
ATOM     56  F   UNL A   1      41.884  24.547  27.510  1.00  0.00    -0.206 F 
ATOM     57  C   UNL A   1      44.232  22.911  25.339  1.00  0.00     0.060 A 
BRANCH  57  58
ATOM     58  S   UNL A   1      44.741  21.221  24.940  1.00  0.00     0.124 S 
ATOM     59  O   UNL A   1      44.643  21.211  23.485  1.00  0.00    -0.237 OA
ATOM     60  O   UNL A   1      46.092  21.166  25.488  1.00  0.00    -0.237 OA
ATOM     61  O   UNL A   1      43.756  20.396  25.637  1.00  0.00    -0.744 OA
ENDBRANCH  57  58
ENDBRANCH  25  50
BRANCH  37  62
ATOM     62  C   UNL A   1      45.509  31.150  28.554  1.00  0.00     0.058 A 
ATOM     63  C   UNL A   1      44.565  31.676  27.655  1.00  0.00     0.135 A 
ATOM     64  C   UNL A   1      46.784  31.735  28.561  1.00  0.00     0.135 A 
ATOM     65  F   UNL A   1      43.295  31.247  27.657  1.00  0.00    -0.206 F 
ATOM     66  C   UNL A   1      44.888  32.712  26.776  1.00  0.00     0.059 A 
ATOM     67  C   UNL A   1      47.118  32.789  27.717  1.00  0.00     0.059 A 
ATOM     68  F   UNL A   1      47.711  31.318  29.440  1.00  0.00    -0.206 F 
ATOM     69  C   UNL A   1      46.167  33.266  26.818  1.00  0.00     0.060 A 
BRANCH  69  70
ATOM     70  S   UNL A   1      46.557  34.667  25.747  1.00  0.00     0.124 S 
ATOM     71  O   UNL A   1      45.582  34.510  24.670  1.00  0.00    -0.237 OA
ATOM     72  O   UNL A   1      46.343  35.811  26.632  1.00  0.00    -0.237 OA
ATOM     73  O   UNL A   1      47.946  34.435  25.371  1.00  0.00    -0.744 OA
ENDBRANCH  69  70
ENDBRANCH  37  62
ENDBRANCH  11  12
ENDBRANCH   4   6
ENDBRANCH   1   2
BRANCH   1  74
ATOM     74  C   UNL A   1      31.844  29.075  26.820  1.00  0.00     0.042 C 
BRANCH  74  75
ATOM     75  C   UNL A   1      31.487  30.033  25.689  1.00  0.00     0.118 C 
BRANCH  75  76
ATOM     76  N   UNL A   1      32.154  29.743  24.427  1.00  0.00    -0.352 N 
ATOM     77  C   UNL A   1      31.754  28.965  23.365  1.00  0.00     0.253 C 
ATOM     78  H   UNL A   1      33.033  30.172  24.316  1.00  0.00     0.163 HD
ATOM     79  O   UNL A   1      32.452  28.900  22.362  1.00  0.00    -0.269 OA
BRANCH  77  80
ATOM     80  C   UNL A   1      30.507  28.166  23.423  1.00  0.00     0.065 A 
ATOM     81  C   UNL A   1      30.674  26.839  23.858  1.00  0.00     0.016 A 
ATOM     82  C   UNL A   1      29.219  28.642  23.134  1.00  0.00     0.079 A 
ATOM     83  C   UNL A   1      29.568  26.013  24.062  1.00  0.00     0.001 A 
ATOM     84  C   UNL A   1      28.108  27.819  23.399  1.00  0.00     0.029 A 
ATOM     85  C   UNL A   1      28.285  26.510  23.853  1.00  0.00     0.002 A 
BRANCH  82  86
ATOM     86  N   UNL A   1      28.982  29.917  22.570  1.00  0.00    -0.220 N 
ATOM     87  C   UNL A   1      28.857  31.143  23.184  1.00  0.00     0.137 A 
ATOM     88  N   UNL A   1      28.835  30.075  21.232  1.00  0.00    -0.062 NA
ATOM     89  C   UNL A   1      28.466  31.994  22.181  1.00  0.00     0.157 A 
ATOM     90  N   UNL A   1      28.452  31.323  20.998  1.00  0.00    -0.139 NA
ENDBRANCH  82  86
ENDBRANCH  77  80
ENDBRANCH  75  76
ENDBRANCH  74  75
ENDBRANCH   1  74
TORSDOF 14
ENDMDL
MODEL 2
REMARK VINA RESULT:     -12.3      3.719      9.584
REMARK SMILES O=C(NCCCNC(=O)c1ccccc1-n1ccnn1)c1ccc(-c2c3nc(c(-c4c(F)cc(S(=O)(=O)[O-])cc4F)c4ccc([nH]4)c(-c4c(F)cc(S(=O)(=O)[O-])cc4F)c4nc(c(-c5c(F)cc(S(=O)(=O)[O-])cc5F)c5ccc2[nH]5)C=C4)C=C3)cc1
REMARK SMILES IDX 4 1 3 2 1 3 2 4 21 6 22 7 86 8 23 9 85 10 24 11 25 12 26 13
REMARK SMILES IDX 79 14 27 15 84 16 78 17 80 18 28 19 83 20 77 21 76 22 29 24
REMARK SMILES IDX 63 25 42 26 62 27 43 28 46 29 61 30 81 31 44 32 45 33 60 35
REMARK SMILES IDX 82 36 47 37 30 38 31 39 40 40 32 41 33 42 39 43 41 44 34 45
REMARK SMILES IDX 35 46 36 47 37 48 38 49 64 50 65 51 74 52 66 53 67 54 73 55
REMARK SMILES IDX 75 56 68 57 69 58 70 59 71 60 72 61 48 62 49 63 58 64 50 65
REMARK SMILES IDX 51 66 57 67 59 68 52 69 53 70 54 71 55 72 56 73 5 74 6 75
REMARK SMILES IDX 7 76 8 77 9 79 10 80 11 81 15 82 12 83 14 84 13 85 16 86
REMARK SMILES IDX 17 87 20 88 18 89 19 90
REMARK H PARENT 3 5 80 23 46 34 7 78
REMARK Flexibility Score: inf
ROOT
ATOM      1  C   UNL A   1      37.323  21.960  25.317  1.00  0.00     0.118 C 
ENDROOT
BRANCH   1   2
ATOM      2  N   UNL A   1      38.676  21.459  25.451  1.00  0.00    -0.352 N 
ATOM      3  O   UNL A   1      40.671  20.972  26.251  1.00  0.00    -0.269 OA
ATOM      4  C   UNL A   1      39.763  21.809  26.205  1.00  0.00     0.251 C 
ATOM      5  H   UNL A   1      38.854  20.690  24.864  1.00  0.00     0.163 HD
BRANCH   4   6
ATOM      6  C   UNL A   1      39.956  23.117  26.886  1.00  0.00     0.039 A 
ATOM      7  C   UNL A   1      39.140  24.240  26.752  1.00  0.00     0.014 A 
ATOM      8  C   UNL A   1      41.100  23.214  27.704  1.00  0.00     0.014 A 
ATOM      9  C   UNL A   1      39.504  25.453  27.337  1.00  0.00     0.010 A 
ATOM     10  C   UNL A   1      41.460  24.417  28.303  1.00  0.00     0.010 A 
ATOM     11  C   UNL A   1      40.678  25.548  28.089  1.00  0.00    -0.014 A 
BRANCH  11  12
ATOM     12  C   UNL A   1      40.981  26.809  28.764  1.00  0.00     0.031 A 
ATOM     13  C   UNL A   1      42.133  27.568  28.191  1.00  0.00     0.074 A 
ATOM     14  C   UNL A   1      40.187  27.361  29.706  1.00  0.00     0.049 A 
ATOM     15  N   UNL A   1      43.235  27.924  28.767  1.00  0.00    -0.248 NA
ATOM     16  C   UNL A   1      42.087  27.887  26.754  1.00  0.00     0.031 C 
ATOM     17  C   UNL A   1      38.865  26.904  30.140  1.00  0.00     0.029 A 
ATOM     18  N   UNL A   1      40.350  28.526  30.395  1.00  0.00    -0.354 N 
ATOM     19  C   UNL A   1      43.938  28.681  27.828  1.00  0.00     0.074 A 
ATOM     20  C   UNL A   1      43.258  28.498  26.572  1.00  0.00     0.031 C 
ATOM     21  C   UNL A   1      38.259  27.894  30.835  1.00  0.00     0.029 A 
ATOM     22  C   UNL A   1      39.190  28.998  31.002  1.00  0.00     0.049 A 
ATOM     23  H   UNL A   1      41.214  28.994  30.459  1.00  0.00     0.167 HD
ATOM     24  C   UNL A   1      44.910  29.566  28.185  1.00  0.00     0.037 A 
ATOM     25  C   UNL A   1      38.989  30.233  31.531  1.00  0.00     0.037 A 
ATOM     26  C   UNL A   1      45.369  29.333  29.528  1.00  0.00     0.049 A 
ATOM     27  C   UNL A   1      40.325  30.829  31.793  1.00  0.00     0.074 A 
ATOM     28  C   UNL A   1      45.968  28.277  30.186  1.00  0.00     0.029 A 
ATOM     29  N   UNL A   1      44.927  30.182  30.512  1.00  0.00    -0.354 N 
ATOM     30  N   UNL A   1      41.162  30.390  32.692  1.00  0.00    -0.248 NA
ATOM     31  C   UNL A   1      40.911  31.663  30.755  1.00  0.00     0.031 C 
ATOM     32  C   UNL A   1      45.420  28.304  31.501  1.00  0.00     0.029 A 
ATOM     33  C   UNL A   1      44.562  29.402  31.579  1.00  0.00     0.049 A 
ATOM     34  H   UNL A   1      44.882  31.165  30.463  1.00  0.00     0.167 HD
ATOM     35  C   UNL A   1      42.413  30.524  32.108  1.00  0.00     0.074 A 
ATOM     36  C   UNL A   1      42.203  31.401  30.959  1.00  0.00     0.031 C 
ATOM     37  C   UNL A   1      43.445  29.698  32.448  1.00  0.00     0.037 A 
BRANCH  24  38
ATOM     38  C   UNL A   1      45.216  30.855  27.454  1.00  0.00     0.058 A 
ATOM     39  C   UNL A   1      46.505  31.062  26.919  1.00  0.00     0.135 A 
ATOM     40  C   UNL A   1      44.394  32.001  27.518  1.00  0.00     0.135 A 
ATOM     41  F   UNL A   1      47.374  30.043  26.812  1.00  0.00    -0.206 F 
ATOM     42  C   UNL A   1      46.972  32.327  26.557  1.00  0.00     0.059 A 
ATOM     43  C   UNL A   1      44.819  33.261  27.111  1.00  0.00     0.059 A 
ATOM     44  F   UNL A   1      43.177  31.974  28.073  1.00  0.00    -0.206 F 
ATOM     45  C   UNL A   1      46.125  33.423  26.676  1.00  0.00     0.060 A 
BRANCH  45  46
ATOM     46  S   UNL A   1      46.761  35.073  26.329  1.00  0.00     0.124 S 
ATOM     47  O   UNL A   1      47.464  34.854  25.071  1.00  0.00    -0.237 OA
ATOM     48  O   UNL A   1      45.536  35.860  26.250  1.00  0.00    -0.237 OA
ATOM     49  O   UNL A   1      47.607  35.355  27.486  1.00  0.00    -0.744 OA
ENDBRANCH  45  46
ENDBRANCH  24  38
BRANCH  25  50
ATOM     50  C   UNL A   1      37.748  31.056  31.508  1.00  0.00     0.058 A 
ATOM     51  C   UNL A   1      37.036  31.345  32.687  1.00  0.00     0.135 A 
ATOM     52  C   UNL A   1      37.392  31.812  30.372  1.00  0.00     0.135 A 
ATOM     53  F   UNL A   1      37.323  30.694  33.825  1.00  0.00    -0.206 F 
ATOM     54  C   UNL A   1      36.066  32.354  32.749  1.00  0.00     0.059 A 
ATOM     55  C   UNL A   1      36.420  32.812  30.406  1.00  0.00     0.059 A 
ATOM     56  F   UNL A   1      38.047  31.669  29.212  1.00  0.00    -0.206 F 
ATOM     57  C   UNL A   1      35.780  33.097  31.604  1.00  0.00     0.060 A 
BRANCH  57  58
ATOM     58  S   UNL A   1      34.663  34.517  31.716  1.00  0.00     0.124 S 
ATOM     59  O   UNL A   1      35.428  35.438  32.549  1.00  0.00    -0.237 OA
ATOM     60  O   UNL A   1      34.509  34.901  30.317  1.00  0.00    -0.237 OA
ATOM     61  O   UNL A   1      33.466  33.958  32.340  1.00  0.00    -0.744 OA
ENDBRANCH  57  58
ENDBRANCH  25  50
BRANCH  37  62
ATOM     62  C   UNL A   1      43.311  28.848  33.683  1.00  0.00     0.058 A 
ATOM     63  C   UNL A   1      43.559  29.300  34.991  1.00  0.00     0.135 A 
ATOM     64  C   UNL A   1      42.750  27.570  33.543  1.00  0.00     0.135 A 
ATOM     65  F   UNL A   1      43.994  30.548  35.219  1.00  0.00    -0.206 F 
ATOM     66  C   UNL A   1      43.298  28.502  36.106  1.00  0.00     0.059 A 
ATOM     67  C   UNL A   1      42.452  26.769  34.641  1.00  0.00     0.059 A 
ATOM     68  F   UNL A   1      42.432  27.104  32.323  1.00  0.00    -0.206 F 
ATOM     69  C   UNL A   1      42.740  27.237  35.920  1.00  0.00     0.060 A 
BRANCH  69  70
ATOM     70  S   UNL A   1      42.315  26.241  37.365  1.00  0.00     0.124 S 
ATOM     71  O   UNL A   1      40.930  26.633  37.612  1.00  0.00    -0.237 OA
ATOM     72  O   UNL A   1      42.508  24.876  36.877  1.00  0.00    -0.237 OA
ATOM     73  O   UNL A   1      43.275  26.671  38.374  1.00  0.00    -0.744 OA
ENDBRANCH  69  70
ENDBRANCH  37  62
ENDBRANCH  11  12
ENDBRANCH   4   6
ENDBRANCH   1   2
BRANCH   1  74
ATOM     74  C   UNL A   1      36.859  22.286  23.897  1.00  0.00     0.042 C 
BRANCH  74  75
ATOM     75  C   UNL A   1      36.128  23.612  23.723  1.00  0.00     0.118 C 
BRANCH  75  76
ATOM     76  N   UNL A   1      35.182  23.916  24.789  1.00  0.00    -0.352 N 
ATOM     77  C   UNL A   1      33.968  23.345  25.093  1.00  0.00     0.253 C 
ATOM     78  H   UNL A   1      35.456  24.648  25.388  1.00  0.00     0.163 HD
ATOM     79  O   UNL A   1      33.350  23.721  26.081  1.00  0.00    -0.269 OA
BRANCH  77  80
ATOM     80  C   UNL A   1      33.365  22.308  24.224  1.00  0.00     0.065 A 
ATOM     81  C   UNL A   1      33.482  20.991  24.705  1.00  0.00     0.016 A 
ATOM     82  C   UNL A   1      32.670  22.547  23.030  1.00  0.00     0.079 A 
ATOM     83  C   UNL A   1      32.864  19.932  24.039  1.00  0.00     0.001 A 
ATOM     84  C   UNL A   1      32.001  21.481  22.398  1.00  0.00     0.029 A 
ATOM     85  C   UNL A   1      32.106  20.181  22.898  1.00  0.00     0.002 A 
BRANCH  82  86
ATOM     86  N   UNL A   1      32.619  23.820  22.414  1.00  0.00    -0.220 N 
ATOM     87  C   UNL A   1      31.786  24.887  22.664  1.00  0.00     0.137 A 
ATOM     88  N   UNL A   1      33.470  24.148  21.412  1.00  0.00    -0.062 NA
ATOM     89  C   UNL A   1      32.066  25.786  21.665  1.00  0.00     0.157 A 
ATOM     90  N   UNL A   1      33.092  25.315  20.907  1.00  0.00    -0.139 NA
ENDBRANCH  82  86
ENDBRANCH  77  80
ENDBRANCH  75  76
ENDBRANCH  74  75
ENDBRANCH   1  74
TORSDOF 14
ENDMDL
MODEL 3
REMARK VINA RESULT:     -12.2      1.625      2.535
REMARK SMILES O=C(NCCCNC(=O)c1ccccc1-n1ccnn1)c1ccc(-c2c3nc(c(-c4c(F)cc(S(=O)(=O)[O-])cc4F)c4ccc([nH]4)c(-c4c(F)cc(S(=O)(=O)[O-])cc4F)c4nc(c(-c5c(F)cc(S(=O)(=O)[O-])cc5F)c5ccc2[nH]5)C=C4)C=C3)cc1
REMARK SMILES IDX 4 1 3 2 1 3 2 4 21 6 22 7 86 8 23 9 85 10 24 11 25 12 26 13
REMARK SMILES IDX 79 14 27 15 84 16 78 17 80 18 28 19 83 20 77 21 76 22 29 24
REMARK SMILES IDX 63 25 42 26 62 27 43 28 46 29 61 30 81 31 44 32 45 33 60 35
REMARK SMILES IDX 82 36 47 37 30 38 31 39 40 40 32 41 33 42 39 43 41 44 34 45
REMARK SMILES IDX 35 46 36 47 37 48 38 49 64 50 65 51 74 52 66 53 67 54 73 55
REMARK SMILES IDX 75 56 68 57 69 58 70 59 71 60 72 61 48 62 49 63 58 64 50 65
REMARK SMILES IDX 51 66 57 67 59 68 52 69 53 70 54 71 55 72 56 73 5 74 6 75
REMARK SMILES IDX 7 76 8 77 9 79 10 80 11 81 15 82 12 83 14 84 13 85 16 86
REMARK SMILES IDX 17 87 20 88 18 89 19 90
REMARK H PARENT 3 5 80 23 46 34 7 78
REMARK Flexibility Score: inf
ROOT
ATOM      1  C   UNL A   1      33.073  29.983  26.852  1.00  0.00     0.118 C 
ENDROOT
BRANCH   1   2
ATOM      2  N   UNL A   1      33.252  31.163  27.675  1.00  0.00    -0.352 N 
ATOM      3  O   UNL A   1      34.116  32.946  28.639  1.00  0.00    -0.269 OA
ATOM      4  C   UNL A   1      34.331  31.804  28.220  1.00  0.00     0.251 C 
ATOM      5  H   UNL A   1      32.399  31.604  27.894  1.00  0.00     0.163 HD
BRANCH   4   6
ATOM      6  C   UNL A   1      35.683  31.212  28.407  1.00  0.00     0.039 A 
ATOM      7  C   UNL A   1      36.002  29.857  28.328  1.00  0.00     0.014 A 
ATOM      8  C   UNL A   1      36.706  32.124  28.733  1.00  0.00     0.014 A 
ATOM      9  C   UNL A   1      37.282  29.412  28.660  1.00  0.00     0.010 A 
ATOM     10  C   UNL A   1      37.989  31.688  29.049  1.00  0.00     0.010 A 
ATOM     11  C   UNL A   1      38.266  30.324  29.047  1.00  0.00    -0.014 A 
BRANCH  11  12
ATOM     12  C   UNL A   1      39.621  29.834  29.298  1.00  0.00     0.031 A 
ATOM     13  C   UNL A   1      39.972  29.664  30.740  1.00  0.00     0.074 A 
ATOM     14  C   UNL A   1      40.442  29.381  28.327  1.00  0.00     0.049 A 
ATOM     15  N   UNL A   1      40.918  30.233  31.415  1.00  0.00    -0.248 NA
ATOM     16  C   UNL A   1      39.086  28.820  31.558  1.00  0.00     0.031 C 
ATOM     17  C   UNL A   1      40.127  29.179  26.911  1.00  0.00     0.029 A 
ATOM     18  N   UNL A   1      41.711  28.891  28.430  1.00  0.00    -0.354 N 
ATOM     19  C   UNL A   1      40.873  29.673  32.694  1.00  0.00     0.074 A 
ATOM     20  C   UNL A   1      39.641  28.930  32.765  1.00  0.00     0.031 C 
ATOM     21  C   UNL A   1      41.083  28.405  26.349  1.00  0.00     0.029 A 
ATOM     22  C   UNL A   1      42.134  28.163  27.323  1.00  0.00     0.049 A 
ATOM     23  H   UNL A   1      42.279  29.039  29.221  1.00  0.00     0.167 HD
ATOM     24  C   UNL A   1      41.943  29.693  33.536  1.00  0.00     0.037 A 
ATOM     25  C   UNL A   1      43.227  27.360  27.243  1.00  0.00     0.037 A 
ATOM     26  C   UNL A   1      42.925  30.658  33.121  1.00  0.00     0.049 A 
ATOM     27  C   UNL A   1      44.149  27.750  28.341  1.00  0.00     0.074 A 
ATOM     28  C   UNL A   1      42.933  32.027  32.941  1.00  0.00     0.029 A 
ATOM     29  N   UNL A   1      44.055  30.194  32.494  1.00  0.00    -0.354 N 
ATOM     30  N   UNL A   1      44.778  28.891  28.401  1.00  0.00    -0.248 NA
ATOM     31  C   UNL A   1      44.046  27.030  29.600  1.00  0.00     0.031 C 
ATOM     32  C   UNL A   1      43.778  32.245  31.815  1.00  0.00     0.029 A 
ATOM     33  C   UNL A   1      44.273  31.004  31.410  1.00  0.00     0.049 A 
ATOM     34  H   UNL A   1      44.605  29.426  32.771  1.00  0.00     0.167 HD
ATOM     35  C   UNL A   1      44.767  29.231  29.746  1.00  0.00     0.074 A 
ATOM     36  C   UNL A   1      44.389  28.005  30.445  1.00  0.00     0.031 C 
ATOM     37  C   UNL A   1      44.795  30.536  30.147  1.00  0.00     0.037 A 
BRANCH  24  38
ATOM     38  C   UNL A   1      42.269  28.612  34.543  1.00  0.00     0.058 A 
ATOM     39  C   UNL A   1      42.358  28.941  35.912  1.00  0.00     0.135 A 
ATOM     40  C   UNL A   1      42.784  27.345  34.188  1.00  0.00     0.135 A 
ATOM     41  F   UNL A   1      41.903  30.120  36.364  1.00  0.00    -0.206 F 
ATOM     42  C   UNL A   1      42.989  28.112  36.842  1.00  0.00     0.059 A 
ATOM     43  C   UNL A   1      43.366  26.480  35.108  1.00  0.00     0.059 A 
ATOM     44  F   UNL A   1      42.838  26.929  32.917  1.00  0.00    -0.206 F 
ATOM     45  C   UNL A   1      43.507  26.891  36.424  1.00  0.00     0.060 A 
BRANCH  45  46
ATOM     46  S   UNL A   1      44.431  25.876  37.591  1.00  0.00     0.124 S 
ATOM     47  O   UNL A   1      45.803  26.271  37.296  1.00  0.00    -0.237 OA
ATOM     48  O   UNL A   1      43.896  26.324  38.872  1.00  0.00    -0.237 OA
ATOM     49  O   UNL A   1      44.068  24.513  37.210  1.00  0.00    -0.744 OA
ENDBRANCH  45  46
ENDBRANCH  24  38
BRANCH  25  50
ATOM     50  C   UNL A   1      43.374  26.074  26.506  1.00  0.00     0.058 A 
ATOM     51  C   UNL A   1      44.342  25.911  25.497  1.00  0.00     0.135 A 
ATOM     52  C   UNL A   1      42.763  24.890  26.971  1.00  0.00     0.135 A 
ATOM     53  F   UNL A   1      44.995  26.977  25.011  1.00  0.00    -0.206 F 
ATOM     54  C   UNL A   1      44.715  24.650  25.013  1.00  0.00     0.059 A 
ATOM     55  C   UNL A   1      43.109  23.626  26.495  1.00  0.00     0.059 A 
ATOM     56  F   UNL A   1      41.876  24.917  27.975  1.00  0.00    -0.206 F 
ATOM     57  C   UNL A   1      44.105  23.510  25.535  1.00  0.00     0.060 A 
BRANCH  57  58
ATOM     58  S   UNL A   1      44.705  21.874  25.049  1.00  0.00     0.124 S 
ATOM     59  O   UNL A   1      46.046  21.860  25.622  1.00  0.00    -0.237 OA
ATOM     60  O   UNL A   1      43.733  20.987  25.680  1.00  0.00    -0.237 OA
ATOM     61  O   UNL A   1      44.651  21.912  23.589  1.00  0.00    -0.744 OA
ENDBRANCH  57  58
ENDBRANCH  25  50
BRANCH  37  62
ATOM     62  C   UNL A   1      45.159  31.591  29.137  1.00  0.00     0.058 A 
ATOM     63  C   UNL A   1      46.476  31.932  28.780  1.00  0.00     0.135 A 
ATOM     64  C   UNL A   1      44.123  32.165  28.384  1.00  0.00     0.135 A 
ATOM     65  F   UNL A   1      47.526  31.348  29.377  1.00  0.00    -0.206 F 
ATOM     66  C   UNL A   1      46.747  32.831  27.748  1.00  0.00     0.059 A 
ATOM     67  C   UNL A   1      44.371  33.039  27.331  1.00  0.00     0.059 A 
ATOM     68  F   UNL A   1      42.845  31.833  28.635  1.00  0.00    -0.206 F 
ATOM     69  C   UNL A   1      45.687  33.377  27.025  1.00  0.00     0.060 A 
BRANCH  69  70
ATOM     70  S   UNL A   1      46.040  34.468  25.630  1.00  0.00     0.124 S 
ATOM     71  O   UNL A   1      45.671  35.777  26.163  1.00  0.00    -0.237 OA
ATOM     72  O   UNL A   1      47.470  34.254  25.413  1.00  0.00    -0.237 OA
ATOM     73  O   UNL A   1      45.178  33.960  24.570  1.00  0.00    -0.744 OA
ENDBRANCH  69  70
ENDBRANCH  37  62
ENDBRANCH  11  12
ENDBRANCH   4   6
ENDBRANCH   1   2
BRANCH   1  74
ATOM     74  C   UNL A   1      31.956  29.028  27.273  1.00  0.00     0.042 C 
BRANCH  74  75
ATOM     75  C   UNL A   1      32.291  27.542  27.206  1.00  0.00     0.118 C 
BRANCH  75  76
ATOM     76  N   UNL A   1      33.017  27.147  26.006  1.00  0.00    -0.352 N 
ATOM     77  C   UNL A   1      32.581  26.995  24.710  1.00  0.00     0.253 C 
ATOM     78  H   UNL A   1      33.973  26.958  26.145  1.00  0.00     0.163 HD
ATOM     79  O   UNL A   1      33.381  26.705  23.830  1.00  0.00    -0.269 OA
BRANCH  77  80
ATOM     80  C   UNL A   1      31.149  27.136  24.358  1.00  0.00     0.065 A 
ATOM     81  C   UNL A   1      30.814  28.337  23.705  1.00  0.00     0.016 A 
ATOM     82  C   UNL A   1      30.156  26.170  24.577  1.00  0.00     0.079 A 
ATOM     83  C   UNL A   1      29.523  28.548  23.222  1.00  0.00     0.001 A 
ATOM     84  C   UNL A   1      28.872  26.368  24.034  1.00  0.00     0.029 A 
ATOM     85  C   UNL A   1      28.559  27.555  23.368  1.00  0.00     0.002 A 
BRANCH  82  86
ATOM     86  N   UNL A   1      30.382  24.999  25.337  1.00  0.00    -0.220 N 
ATOM     87  C   UNL A   1      30.974  23.811  24.972  1.00  0.00     0.137 A 
ATOM     88  N   UNL A   1      29.994  24.919  26.633  1.00  0.00    -0.062 NA
ATOM     89  C   UNL A   1      30.769  22.978  26.043  1.00  0.00     0.157 A 
ATOM     90  N   UNL A   1      30.164  23.670  27.045  1.00  0.00    -0.139 NA
ENDBRANCH  82  86
ENDBRANCH  77  80
ENDBRANCH  75  76
ENDBRANCH  74  75
ENDBRANCH   1  74
TORSDOF 14
ENDMDL
