MODEL 1
REMARK VINA RESULT:     -11.7      0.000      0.000
REMARK SMILES CCOC(=O)c1ccc(NC(=O)[C@H]2CC(C)=C(C)C[C@@H]2C(=O)NCCCNC(=O)c2ccc(-c3c4nc(c(-c5c(F)cc(S(=O)(=O)[O-])cc5F)c5ccc([nH]5)c(-c5c(F)cc(S(=O)(=O)[O-])cc5F)c5nc(c(-c6c(F)cc(S(=O)(=O)[O-])cc6F)c6ccc3[nH]6)C=C5)C=C4)cc2)cc1
REMARK SMILES IDX 24 1 23 2 21 3 22 4 20 6 13 7 14 8 15 9 19 10 16 11 17 12
REMARK SMILES IDX 18 13 11 14 10 15 12 17 9 18 6 19 7 20 97 21 8 22 96 23 4 24
REMARK SMILES IDX 5 25 3 26 2 27 1 28 25 29 26 30 27 31 28 32 29 34 30 35
REMARK SMILES IDX 31 36 95 37 32 38 94 39 33 40 34 41 35 42 88 43 36 44 93 45
REMARK SMILES IDX 87 46 89 47 37 48 92 49 86 50 85 51 38 53 72 54 51 55 71 56
REMARK SMILES IDX 52 57 55 58 70 59 90 60 53 61 54 62 69 64 91 65 56 66 39 67
REMARK SMILES IDX 40 68 49 69 41 70 42 71 48 72 50 73 43 74 44 75 45 76 46 77
REMARK SMILES IDX 47 78 73 79 74 80 83 81 75 82 76 83 82 84 84 85 77 86 78 87
REMARK SMILES IDX 79 88 80 89 81 90 57 91 58 92 67 93 59 94 60 95 66 96 68 97
REMARK SMILES IDX 61 98 62 99 63 100 64 101 65 102
REMARK H PARENT 23 5 10 16 27 33 89 52 55 63
REMARK Flexibility Score: inf
ROOT
ATOM      1  C   UNL A   1      33.314  27.756  25.271  1.00  0.00     0.117 C 
ENDROOT
BRANCH   1   2
ATOM      2  N   UNL A   1      32.344  26.893  25.911  1.00  0.00    -0.356 N 
ATOM      3  C   UNL A   1      32.195  25.543  25.877  1.00  0.00     0.224 C 
ATOM      4  O   UNL A   1      31.297  25.066  26.580  1.00  0.00    -0.275 OA
ATOM      5  H   UNL A   1      31.680  27.365  26.464  1.00  0.00     0.163 HD
BRANCH   3   6
ATOM      6  C   UNL A   1      33.033  24.637  24.969  1.00  0.00     0.095 C 
ATOM      7  C   UNL A   1      32.206  23.987  23.824  1.00  0.00     0.095 C 
ATOM      8  C   UNL A   1      32.277  22.451  23.822  1.00  0.00     0.045 C 
ATOM      9  C   UNL A   1      32.874  21.672  24.946  1.00  0.00    -0.074 C 
ATOM     10  C   UNL A   1      33.920  23.731  25.856  1.00  0.00     0.045 C 
ATOM     11  C   UNL A   1      32.519  20.205  24.893  1.00  0.00     0.039 C 
ATOM     12  C   UNL A   1      33.655  22.252  25.867  1.00  0.00    -0.074 C 
ATOM     13  C   UNL A   1      34.354  21.451  26.932  1.00  0.00     0.039 C 
BRANCH   7  14
ATOM     14  C   UNL A   1      32.525  24.590  22.428  1.00  0.00     0.228 C 
ATOM     15  N   UNL A   1      32.018  25.793  21.988  1.00  0.00    -0.326 N 
ATOM     16  H   UNL A   1      32.339  26.073  21.101  1.00  0.00     0.169 HD
ATOM     17  O   UNL A   1      33.277  24.010  21.638  1.00  0.00    -0.274 OA
BRANCH  15  18
ATOM     18  C   UNL A   1      31.120  26.686  22.595  1.00  0.00     0.041 A 
ATOM     19  C   UNL A   1      29.083  28.536  23.130  1.00  0.00     0.060 A 
ATOM     20  C   UNL A   1      28.935  27.192  23.497  1.00  0.00     0.018 A 
ATOM     21  C   UNL A   1      30.317  28.974  22.634  1.00  0.00     0.018 A 
ATOM     22  C   UNL A   1      29.961  26.270  23.248  1.00  0.00     0.027 A 
ATOM     23  C   UNL A   1      31.345  28.052  22.395  1.00  0.00     0.027 A 
BRANCH  19  24
ATOM     24  C   UNL A   1      27.905  29.435  23.259  1.00  0.00     0.338 C 
ATOM     25  O   UNL A   1      26.755  29.050  23.102  1.00  0.00    -0.246 OA
BRANCH  24  26
ATOM     26  O   UNL A   1      28.291  30.710  23.518  1.00  0.00    -0.462 OA
BRANCH  26  27
ATOM     27  C   UNL A   1      28.163  31.633  22.421  1.00  0.00     0.230 C 
ATOM     28  C   UNL A   1      28.761  32.992  22.748  1.00  0.00     0.049 C 
ENDBRANCH  26  27
ENDBRANCH  24  26
ENDBRANCH  19  24
ENDBRANCH  15  18
ENDBRANCH   7  14
ENDBRANCH   3   6
ENDBRANCH   1   2
BRANCH   1  29
ATOM     29  C   UNL A   1      34.279  28.407  26.242  1.00  0.00     0.042 C 
BRANCH  29  30
ATOM     30  C   UNL A   1      33.677  28.653  27.616  1.00  0.00     0.118 C 
BRANCH  30  31
ATOM     31  N   UNL A   1      33.665  30.067  27.979  1.00  0.00    -0.352 N 
ATOM     32  C   UNL A   1      34.638  30.847  28.555  1.00  0.00     0.251 C 
ATOM     33  H   UNL A   1      32.825  30.538  27.779  1.00  0.00     0.163 HD
ATOM     34  O   UNL A   1      34.348  31.968  28.965  1.00  0.00    -0.269 OA
BRANCH  32  35
ATOM     35  C   UNL A   1      36.017  30.336  28.698  1.00  0.00     0.039 A 
ATOM     36  C   UNL A   1      36.903  30.454  27.624  1.00  0.00     0.014 A 
ATOM     37  C   UNL A   1      36.437  29.735  29.886  1.00  0.00     0.014 A 
ATOM     38  C   UNL A   1      38.228  30.038  27.772  1.00  0.00     0.010 A 
ATOM     39  C   UNL A   1      37.779  29.423  30.068  1.00  0.00     0.010 A 
ATOM     40  C   UNL A   1      38.688  29.562  29.010  1.00  0.00    -0.014 A 
BRANCH  40  41
ATOM     41  C   UNL A   1      40.112  29.197  29.222  1.00  0.00     0.031 A 
ATOM     42  C   UNL A   1      41.082  30.217  29.755  1.00  0.00     0.074 A 
ATOM     43  C   UNL A   1      40.543  27.969  28.869  1.00  0.00     0.049 A 
ATOM     44  N   UNL A   1      42.373  30.113  29.938  1.00  0.00    -0.248 NA
ATOM     45  C   UNL A   1      40.535  31.541  30.096  1.00  0.00     0.031 C 
ATOM     46  C   UNL A   1      39.710  26.912  28.291  1.00  0.00     0.029 A 
ATOM     47  N   UNL A   1      41.793  27.404  28.934  1.00  0.00    -0.354 N 
ATOM     48  C   UNL A   1      42.792  31.355  30.401  1.00  0.00     0.074 A 
ATOM     49  C   UNL A   1      41.631  32.217  30.409  1.00  0.00     0.031 C 
ATOM     50  C   UNL A   1      40.462  25.820  28.083  1.00  0.00     0.029 A 
ATOM     51  C   UNL A   1      41.840  26.111  28.467  1.00  0.00     0.049 A 
ATOM     52  H   UNL A   1      42.580  27.879  29.283  1.00  0.00     0.167 HD
ATOM     53  C   UNL A   1      44.026  31.734  30.809  1.00  0.00     0.037 A 
ATOM     54  C   UNL A   1      42.877  25.259  28.350  1.00  0.00     0.037 A 
ATOM     55  C   UNL A   1      45.171  30.861  30.818  1.00  0.00     0.049 A 
ATOM     56  C   UNL A   1      44.241  25.707  28.800  1.00  0.00     0.074 A 
ATOM     57  C   UNL A   1      46.452  31.128  31.268  1.00  0.00     0.029 A 
ATOM     58  N   UNL A   1      45.175  29.554  30.351  1.00  0.00    -0.354 N 
ATOM     59  N   UNL A   1      44.606  26.863  29.303  1.00  0.00    -0.248 NA
ATOM     60  C   UNL A   1      45.335  24.736  28.672  1.00  0.00     0.031 C 
ATOM     61  C   UNL A   1      47.244  30.002  31.021  1.00  0.00     0.029 A 
ATOM     62  C   UNL A   1      46.444  29.011  30.475  1.00  0.00     0.049 A 
ATOM     63  H   UNL A   1      44.393  29.083  29.985  1.00  0.00     0.167 HD
ATOM     64  C   UNL A   1      45.964  26.748  29.578  1.00  0.00     0.074 A 
ATOM     65  C   UNL A   1      46.351  25.404  29.198  1.00  0.00     0.031 C 
ATOM     66  C   UNL A   1      46.813  27.670  30.096  1.00  0.00     0.037 A 
BRANCH  53  67
ATOM     67  C   UNL A   1      44.202  33.153  31.281  1.00  0.00     0.058 A 
ATOM     68  C   UNL A   1      44.022  33.513  32.627  1.00  0.00     0.135 A 
ATOM     69  C   UNL A   1      44.587  34.162  30.383  1.00  0.00     0.135 A 
ATOM     70  F   UNL A   1      43.639  32.594  33.528  1.00  0.00    -0.206 F 
ATOM     71  C   UNL A   1      44.186  34.825  33.059  1.00  0.00     0.059 A 
ATOM     72  C   UNL A   1      44.788  35.475  30.799  1.00  0.00     0.059 A 
ATOM     73  F   UNL A   1      44.771  33.877  29.084  1.00  0.00    -0.206 F 
ATOM     74  C   UNL A   1      44.571  35.799  32.137  1.00  0.00     0.060 A 
BRANCH  74  75
ATOM     75  S   UNL A   1      44.786  37.494  32.717  1.00  0.00     0.124 S 
ATOM     76  O   UNL A   1      45.606  37.293  33.909  1.00  0.00    -0.237 OA
ATOM     77  O   UNL A   1      45.458  38.128  31.587  1.00  0.00    -0.237 OA
ATOM     78  O   UNL A   1      43.421  37.946  32.966  1.00  0.00    -0.744 OA
ENDBRANCH  74  75
ENDBRANCH  53  67
BRANCH  54  79
ATOM     79  C   UNL A   1      42.660  23.893  27.802  1.00  0.00     0.058 A 
ATOM     80  C   UNL A   1      42.517  22.786  28.654  1.00  0.00     0.135 A 
ATOM     81  C   UNL A   1      42.576  23.666  26.419  1.00  0.00     0.135 A 
ATOM     82  F   UNL A   1      42.595  22.949  29.983  1.00  0.00    -0.206 F 
ATOM     83  C   UNL A   1      42.317  21.503  28.156  1.00  0.00     0.059 A 
ATOM     84  C   UNL A   1      42.348  22.396  25.898  1.00  0.00     0.059 A 
ATOM     85  F   UNL A   1      42.689  24.691  25.561  1.00  0.00    -0.206 F 
ATOM     86  C   UNL A   1      42.229  21.319  26.775  1.00  0.00     0.060 A 
BRANCH  86  87
ATOM     87  S   UNL A   1      41.920  19.656  26.140  1.00  0.00     0.124 S 
ATOM     88  O   UNL A   1      40.498  19.722  25.825  1.00  0.00    -0.237 OA
ATOM     89  O   UNL A   1      42.827  19.593  24.998  1.00  0.00    -0.237 OA
ATOM     90  O   UNL A   1      42.278  18.796  27.263  1.00  0.00    -0.744 OA
ENDBRANCH  86  87
ENDBRANCH  54  79
BRANCH  66  91
ATOM     91  C   UNL A   1      48.241  27.251  30.316  1.00  0.00     0.058 A 
ATOM     92  C   UNL A   1      49.235  27.467  29.348  1.00  0.00     0.135 A 
ATOM     93  C   UNL A   1      48.631  26.672  31.536  1.00  0.00     0.135 A 
ATOM     94  F   UNL A   1      48.916  28.011  28.162  1.00  0.00    -0.206 F 
ATOM     95  C   UNL A   1      50.558  27.104  29.571  1.00  0.00     0.059 A 
ATOM     96  C   UNL A   1      49.955  26.330  31.792  1.00  0.00     0.059 A 
ATOM     97  F   UNL A   1      47.725  26.453  32.501  1.00  0.00    -0.206 F 
ATOM     98  C   UNL A   1      50.909  26.539  30.798  1.00  0.00     0.060 A 
BRANCH  98  99
ATOM     99  S   UNL A   1      52.638  26.102  31.086  1.00  0.00     0.124 S 
ATOM    100  O   UNL A   1      52.508  24.810  31.749  1.00  0.00    -0.237 OA
ATOM    101  O   UNL A   1      53.179  26.069  29.731  1.00  0.00    -0.237 OA
ATOM    102  O   UNL A   1      53.129  27.192  31.925  1.00  0.00    -0.744 OA
ENDBRANCH  98  99
ENDBRANCH  66  91
ENDBRANCH  40  41
ENDBRANCH  32  35
ENDBRANCH  30  31
ENDBRANCH  29  30
ENDBRANCH   1  29
TORSDOF 18
ENDMDL
MODEL 2
REMARK VINA RESULT:     -11.5      2.875      3.490
REMARK SMILES CCOC(=O)c1ccc(NC(=O)[C@H]2CC(C)=C(C)C[C@@H]2C(=O)NCCCNC(=O)c2ccc(-c3c4nc(c(-c5c(F)cc(S(=O)(=O)[O-])cc5F)c5ccc([nH]5)c(-c5c(F)cc(S(=O)(=O)[O-])cc5F)c5nc(c(-c6c(F)cc(S(=O)(=O)[O-])cc6F)c6ccc3[nH]6)C=C5)C=C4)cc2)cc1
REMARK SMILES IDX 24 1 23 2 21 3 22 4 20 6 13 7 14 8 15 9 19 10 16 11 17 12
REMARK SMILES IDX 18 13 11 14 10 15 12 17 9 18 6 19 7 20 97 21 8 22 96 23 4 24
REMARK SMILES IDX 5 25 3 26 2 27 1 28 25 29 26 30 27 31 28 32 29 34 30 35
REMARK SMILES IDX 31 36 95 37 32 38 94 39 33 40 34 41 35 42 88 43 36 44 93 45
REMARK SMILES IDX 87 46 89 47 37 48 92 49 86 50 85 51 38 53 72 54 51 55 71 56
REMARK SMILES IDX 52 57 55 58 70 59 90 60 53 61 54 62 69 64 91 65 56 66 39 67
REMARK SMILES IDX 40 68 49 69 41 70 42 71 48 72 50 73 43 74 44 75 45 76 46 77
REMARK SMILES IDX 47 78 73 79 74 80 83 81 75 82 76 83 82 84 84 85 77 86 78 87
REMARK SMILES IDX 79 88 80 89 81 90 57 91 58 92 67 93 59 94 60 95 66 96 68 97
REMARK SMILES IDX 61 98 62 99 63 100 64 101 65 102
REMARK H PARENT 23 5 10 16 27 33 89 52 55 63
REMARK Flexibility Score: inf
ROOT
ATOM      1  C   UNL A   1      33.225  26.655  26.468  1.00  0.00     0.117 C 
ENDROOT
BRANCH   1   2
ATOM      2  N   UNL A   1      32.098  25.747  26.455  1.00  0.00    -0.356 N 
ATOM      3  C   UNL A   1      31.891  24.597  25.761  1.00  0.00     0.224 C 
ATOM      4  O   UNL A   1      30.842  23.988  25.996  1.00  0.00    -0.275 OA
ATOM      5  H   UNL A   1      31.358  26.006  27.049  1.00  0.00     0.163 HD
BRANCH   3   6
ATOM      6  C   UNL A   1      32.856  24.092  24.683  1.00  0.00     0.095 C 
ATOM      7  C   UNL A   1      32.357  24.373  23.237  1.00  0.00     0.095 C 
ATOM      8  C   UNL A   1      32.238  23.103  22.380  1.00  0.00     0.045 C 
ATOM      9  C   UNL A   1      32.354  21.730  22.955  1.00  0.00    -0.074 C 
ATOM     10  C   UNL A   1      33.303  22.657  25.052  1.00  0.00     0.045 C 
ATOM     11  C   UNL A   1      31.859  20.658  22.012  1.00  0.00     0.039 C 
ATOM     12  C   UNL A   1      32.872  21.519  24.171  1.00  0.00    -0.074 C 
ATOM     13  C   UNL A   1      33.099  20.131  24.707  1.00  0.00     0.039 C 
BRANCH   7  14
ATOM     14  C   UNL A   1      33.168  25.488  22.522  1.00  0.00     0.228 C 
ATOM     15  N   UNL A   1      32.744  26.797  22.438  1.00  0.00    -0.326 N 
ATOM     16  H   UNL A   1      33.379  27.405  21.994  1.00  0.00     0.169 HD
ATOM     17  O   UNL A   1      34.261  25.250  21.998  1.00  0.00    -0.274 OA
BRANCH  15  18
ATOM     18  C   UNL A   1      31.560  27.408  22.879  1.00  0.00     0.041 A 
ATOM     19  C   UNL A   1      29.068  28.682  23.052  1.00  0.00     0.060 A 
ATOM     20  C   UNL A   1      29.190  27.318  23.350  1.00  0.00     0.018 A 
ATOM     21  C   UNL A   1      30.227  29.433  22.817  1.00  0.00     0.018 A 
ATOM     22  C   UNL A   1      30.438  26.685  23.283  1.00  0.00     0.027 A 
ATOM     23  C   UNL A   1      31.475  28.799  22.761  1.00  0.00     0.027 A 
BRANCH  19  24
ATOM     24  C   UNL A   1      27.703  29.266  22.970  1.00  0.00     0.338 C 
ATOM     25  O   UNL A   1      26.700  28.665  23.329  1.00  0.00    -0.246 OA
BRANCH  24  26
ATOM     26  O   UNL A   1      27.734  30.502  22.411  1.00  0.00    -0.462 OA
BRANCH  26  27
ATOM     27  C   UNL A   1      27.880  31.598  23.334  1.00  0.00     0.230 C 
ATOM     28  C   UNL A   1      28.447  32.837  22.661  1.00  0.00     0.049 C 
ENDBRANCH  26  27
ENDBRANCH  24  26
ENDBRANCH  19  24
ENDBRANCH  15  18
ENDBRANCH   7  14
ENDBRANCH   3   6
ENDBRANCH   1   2
BRANCH   1  29
ATOM     29  C   UNL A   1      32.826  28.117  26.397  1.00  0.00     0.042 C 
BRANCH  29  30
ATOM     30  C   UNL A   1      33.991  29.046  26.100  1.00  0.00     0.118 C 
BRANCH  30  31
ATOM     31  N   UNL A   1      33.778  30.396  26.614  1.00  0.00    -0.352 N 
ATOM     32  C   UNL A   1      34.431  31.084  27.607  1.00  0.00     0.251 C 
ATOM     33  H   UNL A   1      33.049  30.893  26.178  1.00  0.00     0.163 HD
ATOM     34  O   UNL A   1      33.956  32.138  28.022  1.00  0.00    -0.269 OA
BRANCH  32  35
ATOM     35  C   UNL A   1      35.683  30.553  28.185  1.00  0.00     0.039 A 
ATOM     36  C   UNL A   1      36.907  30.936  27.630  1.00  0.00     0.014 A 
ATOM     37  C   UNL A   1      35.653  29.673  29.268  1.00  0.00     0.014 A 
ATOM     38  C   UNL A   1      38.098  30.496  28.212  1.00  0.00     0.010 A 
ATOM     39  C   UNL A   1      36.835  29.324  29.910  1.00  0.00     0.010 A 
ATOM     40  C   UNL A   1      38.071  29.724  29.384  1.00  0.00    -0.014 A 
BRANCH  40  41
ATOM     41  C   UNL A   1      39.322  29.316  30.074  1.00  0.00     0.031 A 
ATOM     42  C   UNL A   1      39.774  30.045  31.312  1.00  0.00     0.074 A 
ATOM     43  C   UNL A   1      40.083  28.336  29.547  1.00  0.00     0.049 A 
ATOM     44  N   UNL A   1      40.867  29.887  32.010  1.00  0.00    -0.248 NA
ATOM     45  C   UNL A   1      38.895  31.117  31.811  1.00  0.00     0.031 C 
ATOM     46  C   UNL A   1      39.779  27.594  28.321  1.00  0.00     0.029 A 
ATOM     47  N   UNL A   1      41.277  27.804  29.967  1.00  0.00    -0.354 N 
ATOM     48  C   UNL A   1      40.815  30.842  33.019  1.00  0.00     0.074 A 
ATOM     49  C   UNL A   1      39.614  31.619  32.804  1.00  0.00     0.031 C 
ATOM     50  C   UNL A   1      40.741  26.683  28.106  1.00  0.00     0.029 A 
ATOM     51  C   UNL A   1      41.756  26.807  29.149  1.00  0.00     0.049 A 
ATOM     52  H   UNL A   1      41.745  28.105  30.778  1.00  0.00     0.167 HD
ATOM     53  C   UNL A   1      41.675  31.036  34.047  1.00  0.00     0.037 A 
ATOM     54  C   UNL A   1      42.889  26.082  29.222  1.00  0.00     0.037 A 
ATOM     55  C   UNL A   1      42.856  30.243  34.264  1.00  0.00     0.049 A 
ATOM     56  C   UNL A   1      43.834  26.323  30.368  1.00  0.00     0.074 A 
ATOM     57  C   UNL A   1      43.761  30.318  35.309  1.00  0.00     0.029 A 
ATOM     58  N   UNL A   1      43.300  29.233  33.423  1.00  0.00    -0.354 N 
ATOM     59  N   UNL A   1      43.733  27.184  31.354  1.00  0.00    -0.248 NA
ATOM     60  C   UNL A   1      45.045  25.495  30.416  1.00  0.00     0.031 C 
ATOM     61  C   UNL A   1      44.782  29.392  35.068  1.00  0.00     0.029 A 
ATOM     62  C   UNL A   1      44.481  28.696  33.907  1.00  0.00     0.049 A 
ATOM     63  H   UNL A   1      42.842  28.942  32.601  1.00  0.00     0.167 HD
ATOM     64  C   UNL A   1      44.851  26.980  32.154  1.00  0.00     0.074 A 
ATOM     65  C   UNL A   1      45.607  25.904  31.544  1.00  0.00     0.031 C 
ATOM     66  C   UNL A   1      45.220  27.623  33.290  1.00  0.00     0.037 A 
BRANCH  53  67
ATOM     67  C   UNL A   1      41.368  32.148  35.015  1.00  0.00     0.058 A 
ATOM     68  C   UNL A   1      41.976  33.411  34.908  1.00  0.00     0.135 A 
ATOM     69  C   UNL A   1      40.431  31.960  36.044  1.00  0.00     0.135 A 
ATOM     70  F   UNL A   1      42.891  33.644  33.954  1.00  0.00    -0.206 F 
ATOM     71  C   UNL A   1      41.688  34.435  35.805  1.00  0.00     0.059 A 
ATOM     72  C   UNL A   1      40.105  32.981  36.932  1.00  0.00     0.059 A 
ATOM     73  F   UNL A   1      39.822  30.774  36.196  1.00  0.00    -0.206 F 
ATOM     74  C   UNL A   1      40.750  34.211  36.813  1.00  0.00     0.060 A 
BRANCH  74  75
ATOM     75  S   UNL A   1      40.385  35.554  37.962  1.00  0.00     0.124 S 
ATOM     76  O   UNL A   1      39.405  34.925  38.843  1.00  0.00    -0.237 OA
ATOM     77  O   UNL A   1      41.692  35.819  38.556  1.00  0.00    -0.237 OA
ATOM     78  O   UNL A   1      39.865  36.610  37.099  1.00  0.00    -0.744 OA
ENDBRANCH  74  75
ENDBRANCH  53  67
BRANCH  54  79
ATOM     79  C   UNL A   1      43.180  25.049  28.192  1.00  0.00     0.058 A 
ATOM     80  C   UNL A   1      42.773  23.717  28.368  1.00  0.00     0.135 A 
ATOM     81  C   UNL A   1      43.858  25.371  27.006  1.00  0.00     0.135 A 
ATOM     82  F   UNL A   1      42.127  23.357  29.487  1.00  0.00    -0.206 F 
ATOM     83  C   UNL A   1      43.040  22.740  27.415  1.00  0.00     0.059 A 
ATOM     84  C   UNL A   1      44.112  24.418  26.025  1.00  0.00     0.059 A 
ATOM     85  F   UNL A   1      44.254  26.633  26.779  1.00  0.00    -0.206 F 
ATOM     86  C   UNL A   1      43.707  23.102  26.244  1.00  0.00     0.060 A 
BRANCH  86  87
ATOM     87  S   UNL A   1      44.007  21.835  24.991  1.00  0.00     0.124 S 
ATOM     88  O   UNL A   1      45.423  21.553  25.190  1.00  0.00    -0.237 OA
ATOM     89  O   UNL A   1      43.081  20.782  25.395  1.00  0.00    -0.237 OA
ATOM     90  O   UNL A   1      43.667  22.511  23.742  1.00  0.00    -0.744 OA
ENDBRANCH  86  87
ENDBRANCH  54  79
BRANCH  66  91
ATOM     91  C   UNL A   1      46.481  27.163  33.970  1.00  0.00     0.058 A 
ATOM     92  C   UNL A   1      47.729  27.743  33.689  1.00  0.00     0.135 A 
ATOM     93  C   UNL A   1      46.432  26.163  34.956  1.00  0.00     0.135 A 
ATOM     94  F   UNL A   1      47.834  28.698  32.751  1.00  0.00    -0.206 F 
ATOM     95  C   UNL A   1      48.884  27.332  34.343  1.00  0.00     0.059 A 
ATOM     96  C   UNL A   1      47.570  25.759  35.645  1.00  0.00     0.059 A 
ATOM     97  F   UNL A   1      45.264  25.582  35.272  1.00  0.00    -0.206 F 
ATOM     98  C   UNL A   1      48.795  26.341  35.323  1.00  0.00     0.060 A 
BRANCH  98  99
ATOM     99  S   UNL A   1      50.299  25.842  36.187  1.00  0.00     0.124 S 
ATOM    100  O   UNL A   1      51.317  26.598  35.466  1.00  0.00    -0.237 OA
ATOM    101  O   UNL A   1      50.033  26.280  37.554  1.00  0.00    -0.237 OA
ATOM    102  O   UNL A   1      50.338  24.395  35.994  1.00  0.00    -0.744 OA
ENDBRANCH  98  99
ENDBRANCH  66  91
ENDBRANCH  40  41
ENDBRANCH  32  35
ENDBRANCH  30  31
ENDBRANCH  29  30
ENDBRANCH   1  29
TORSDOF 18
ENDMDL
MODEL 3
REMARK VINA RESULT:     -11.4      2.499      8.415
REMARK SMILES CCOC(=O)c1ccc(NC(=O)[C@H]2CC(C)=C(C)C[C@@H]2C(=O)NCCCNC(=O)c2ccc(-c3c4nc(c(-c5c(F)cc(S(=O)(=O)[O-])cc5F)c5ccc([nH]5)c(-c5c(F)cc(S(=O)(=O)[O-])cc5F)c5nc(c(-c6c(F)cc(S(=O)(=O)[O-])cc6F)c6ccc3[nH]6)C=C5)C=C4)cc2)cc1
REMARK SMILES IDX 24 1 23 2 21 3 22 4 20 6 13 7 14 8 15 9 19 10 16 11 17 12
REMARK SMILES IDX 18 13 11 14 10 15 12 17 9 18 6 19 7 20 97 21 8 22 96 23 4 24
REMARK SMILES IDX 5 25 3 26 2 27 1 28 25 29 26 30 27 31 28 32 29 34 30 35
REMARK SMILES IDX 31 36 95 37 32 38 94 39 33 40 34 41 35 42 88 43 36 44 93 45
REMARK SMILES IDX 87 46 89 47 37 48 92 49 86 50 85 51 38 53 72 54 51 55 71 56
REMARK SMILES IDX 52 57 55 58 70 59 90 60 53 61 54 62 69 64 91 65 56 66 39 67
REMARK SMILES IDX 40 68 49 69 41 70 42 71 48 72 50 73 43 74 44 75 45 76 46 77
REMARK SMILES IDX 47 78 73 79 74 80 83 81 75 82 76 83 82 84 84 85 77 86 78 87
REMARK SMILES IDX 79 88 80 89 81 90 57 91 58 92 67 93 59 94 60 95 66 96 68 97
REMARK SMILES IDX 61 98 62 99 63 100 64 101 65 102
REMARK H PARENT 23 5 10 16 27 33 89 52 55 63
REMARK Flexibility Score: inf
ROOT
ATOM      1  C   UNL A   1      33.364  28.819  26.336  1.00  0.00     0.117 C 
ENDROOT
BRANCH   1   2
ATOM      2  N   UNL A   1      32.287  27.873  26.537  1.00  0.00    -0.356 N 
ATOM      3  C   UNL A   1      32.142  26.588  26.120  1.00  0.00     0.224 C 
ATOM      4  O   UNL A   1      31.126  25.993  26.496  1.00  0.00    -0.275 OA
ATOM      5  H   UNL A   1      31.532  28.220  27.066  1.00  0.00     0.163 HD
BRANCH   3   6
ATOM      6  C   UNL A   1      33.134  25.906  25.172  1.00  0.00     0.095 C 
ATOM      7  C   UNL A   1      32.492  25.472  23.824  1.00  0.00     0.095 C 
ATOM      8  C   UNL A   1      32.646  23.970  23.535  1.00  0.00     0.045 C 
ATOM      9  C   UNL A   1      33.141  23.001  24.557  1.00  0.00    -0.074 C 
ATOM     10  C   UNL A   1      33.953  24.868  25.976  1.00  0.00     0.045 C 
ATOM     11  C   UNL A   1      32.876  21.563  24.174  1.00  0.00     0.039 C 
ATOM     12  C   UNL A   1      33.771  23.409  25.666  1.00  0.00    -0.074 C 
ATOM     13  C   UNL A   1      34.376  22.433  26.639  1.00  0.00     0.039 C 
BRANCH   7  14
ATOM     14  C   UNL A   1      32.946  26.349  22.626  1.00  0.00     0.228 C 
ATOM     15  N   UNL A   1      32.307  27.511  22.252  1.00  0.00    -0.326 N 
ATOM     16  H   UNL A   1      32.730  27.987  21.501  1.00  0.00     0.169 HD
ATOM     17  O   UNL A   1      33.933  26.044  21.948  1.00  0.00    -0.274 OA
BRANCH  15  18
ATOM     18  C   UNL A   1      31.154  28.128  22.762  1.00  0.00     0.041 A 
ATOM     19  C   UNL A   1      28.938  29.788  23.205  1.00  0.00     0.060 A 
ATOM     20  C   UNL A   1      28.762  28.481  22.732  1.00  0.00     0.018 A 
ATOM     21  C   UNL A   1      30.217  30.203  23.598  1.00  0.00     0.018 A 
ATOM     22  C   UNL A   1      29.868  27.644  22.529  1.00  0.00     0.027 A 
ATOM     23  C   UNL A   1      31.319  29.360  23.403  1.00  0.00     0.027 A 
BRANCH  19  24
ATOM     24  C   UNL A   1      27.756  30.689  23.241  1.00  0.00     0.338 C 
ATOM     25  O   UNL A   1      27.168  30.973  24.275  1.00  0.00    -0.246 OA
BRANCH  24  26
ATOM     26  O   UNL A   1      27.412  31.093  21.991  1.00  0.00    -0.462 OA
BRANCH  26  27
ATOM     27  C   UNL A   1      28.190  32.178  21.453  1.00  0.00     0.230 C 
ATOM     28  C   UNL A   1      27.912  32.399  19.976  1.00  0.00     0.049 C 
ENDBRANCH  26  27
ENDBRANCH  24  26
ENDBRANCH  19  24
ENDBRANCH  15  18
ENDBRANCH   7  14
ENDBRANCH   3   6
ENDBRANCH   1   2
BRANCH   1  29
ATOM     29  C   UNL A   1      34.526  28.626  27.290  1.00  0.00     0.042 C 
BRANCH  29  30
ATOM     30  C   UNL A   1      35.261  29.917  27.614  1.00  0.00     0.118 C 
BRANCH  30  31
ATOM     31  N   UNL A   1      35.302  30.195  29.047  1.00  0.00    -0.352 N 
ATOM     32  C   UNL A   1      36.290  29.963  29.972  1.00  0.00     0.251 C 
ATOM     33  H   UNL A   1      34.490  30.618  29.409  1.00  0.00     0.163 HD
ATOM     34  O   UNL A   1      36.038  30.088  31.167  1.00  0.00    -0.269 OA
BRANCH  32  35
ATOM     35  C   UNL A   1      37.640  29.550  29.534  1.00  0.00     0.039 A 
ATOM     36  C   UNL A   1      38.000  29.706  28.193  1.00  0.00     0.014 A 
ATOM     37  C   UNL A   1      38.549  29.002  30.441  1.00  0.00     0.014 A 
ATOM     38  C   UNL A   1      39.296  29.384  27.783  1.00  0.00     0.010 A 
ATOM     39  C   UNL A   1      39.866  28.785  30.056  1.00  0.00     0.010 A 
ATOM     40  C   UNL A   1      40.253  28.965  28.720  1.00  0.00    -0.014 A 
BRANCH  40  41
ATOM     41  C   UNL A   1      41.660  28.701  28.329  1.00  0.00     0.031 A 
ATOM     42  C   UNL A   1      42.087  27.311  27.936  1.00  0.00     0.074 A 
ATOM     43  C   UNL A   1      42.567  29.696  28.394  1.00  0.00     0.049 A 
ATOM     44  N   UNL A   1      43.279  26.867  27.635  1.00  0.00    -0.248 NA
ATOM     45  C   UNL A   1      41.040  26.275  27.910  1.00  0.00     0.031 C 
ATOM     46  C   UNL A   1      42.286  31.071  28.813  1.00  0.00     0.029 A 
ATOM     47  N   UNL A   1      43.912  29.704  28.119  1.00  0.00    -0.354 N 
ATOM     48  C   UNL A   1      43.129  25.505  27.397  1.00  0.00     0.074 A 
ATOM     49  C   UNL A   1      41.743  25.182  27.653  1.00  0.00     0.031 C 
ATOM     50  C   UNL A   1      43.414  31.795  28.738  1.00  0.00     0.029 A 
ATOM     51  C   UNL A   1      44.509  30.928  28.313  1.00  0.00     0.049 A 
ATOM     52  H   UNL A   1      44.403  28.909  27.812  1.00  0.00     0.167 HD
ATOM     53  C   UNL A   1      44.056  24.612  26.978  1.00  0.00     0.037 A 
ATOM     54  C   UNL A   1      45.794  31.308  28.176  1.00  0.00     0.037 A 
ATOM     55  C   UNL A   1      45.429  24.949  26.705  1.00  0.00     0.049 A 
ATOM     56  C   UNL A   1      46.808  30.294  27.718  1.00  0.00     0.074 A 
ATOM     57  C   UNL A   1      46.434  24.131  26.218  1.00  0.00     0.029 A 
ATOM     58  N   UNL A   1      45.991  26.202  26.899  1.00  0.00    -0.354 N 
ATOM     59  N   UNL A   1      46.633  29.025  27.430  1.00  0.00    -0.248 NA
ATOM     60  C   UNL A   1      48.191  30.761  27.563  1.00  0.00     0.031 C 
ATOM     61  C   UNL A   1      47.617  24.876  26.172  1.00  0.00     0.029 A 
ATOM     62  C   UNL A   1      47.337  26.174  26.570  1.00  0.00     0.049 A 
ATOM     63  H   UNL A   1      45.506  26.995  27.224  1.00  0.00     0.167 HD
ATOM     64  C   UNL A   1      47.878  28.551  27.031  1.00  0.00     0.074 A 
ATOM     65  C   UNL A   1      48.793  29.673  27.103  1.00  0.00     0.031 C 
ATOM     66  C   UNL A   1      48.233  27.301  26.643  1.00  0.00     0.037 A 
BRANCH  53  67
ATOM     67  C   UNL A   1      43.615  23.185  26.787  1.00  0.00     0.058 A 
ATOM     68  C   UNL A   1      43.375  22.332  27.877  1.00  0.00     0.135 A 
ATOM     69  C   UNL A   1      43.398  22.672  25.498  1.00  0.00     0.135 A 
ATOM     70  F   UNL A   1      43.581  22.763  29.132  1.00  0.00    -0.206 F 
ATOM     71  C   UNL A   1      42.968  21.014  27.695  1.00  0.00     0.059 A 
ATOM     72  C   UNL A   1      42.959  21.366  25.294  1.00  0.00     0.059 A 
ATOM     73  F   UNL A   1      43.614  23.440  24.418  1.00  0.00    -0.206 F 
ATOM     74  C   UNL A   1      42.760  20.541  26.399  1.00  0.00     0.060 A 
BRANCH  74  75
ATOM     75  S   UNL A   1      42.224  18.831  26.183  1.00  0.00     0.124 S 
ATOM     76  O   UNL A   1      42.300  18.327  27.552  1.00  0.00    -0.237 OA
ATOM     77  O   UNL A   1      40.878  18.993  25.643  1.00  0.00    -0.237 OA
ATOM     78  O   UNL A   1      43.207  18.280  25.257  1.00  0.00    -0.744 OA
ENDBRANCH  74  75
ENDBRANCH  53  67
BRANCH  54  79
ATOM     79  C   UNL A   1      46.188  32.715  28.455  1.00  0.00     0.058 A 
ATOM     80  C   UNL A   1      46.678  33.092  29.715  1.00  0.00     0.135 A 
ATOM     81  C   UNL A   1      46.097  33.708  27.467  1.00  0.00     0.135 A 
ATOM     82  F   UNL A   1      46.780  32.182  30.695  1.00  0.00    -0.206 F 
ATOM     83  C   UNL A   1      47.048  34.405  29.991  1.00  0.00     0.059 A 
ATOM     84  C   UNL A   1      46.487  35.021  27.710  1.00  0.00     0.059 A 
ATOM     85  F   UNL A   1      45.651  33.398  26.240  1.00  0.00    -0.206 F 
ATOM     86  C   UNL A   1      46.952  35.362  28.980  1.00  0.00     0.060 A 
BRANCH  86  87
ATOM     87  S   UNL A   1      47.480  37.053  29.334  1.00  0.00     0.124 S 
ATOM     88  O   UNL A   1      46.247  37.798  29.114  1.00  0.00    -0.237 OA
ATOM     89  O   UNL A   1      47.927  36.948  30.720  1.00  0.00    -0.237 OA
ATOM     90  O   UNL A   1      48.541  37.285  28.359  1.00  0.00    -0.744 OA
ENDBRANCH  86  87
ENDBRANCH  54  79
BRANCH  66  91
ATOM     91  C   UNL A   1      49.664  27.082  26.232  1.00  0.00     0.058 A 
ATOM     92  C   UNL A   1      50.084  27.236  24.900  1.00  0.00     0.135 A 
ATOM     93  C   UNL A   1      50.639  26.766  27.193  1.00  0.00     0.135 A 
ATOM     94  F   UNL A   1      49.192  27.531  23.941  1.00  0.00    -0.206 F 
ATOM     95  C   UNL A   1      51.413  27.060  24.533  1.00  0.00     0.059 A 
ATOM     96  C   UNL A   1      51.979  26.617  26.853  1.00  0.00     0.059 A 
ATOM     97  F   UNL A   1      50.295  26.617  28.481  1.00  0.00    -0.206 F 
ATOM     98  C   UNL A   1      52.355  26.754  25.518  1.00  0.00     0.060 A 
BRANCH  98  99
ATOM     99  S   UNL A   1      54.083  26.563  25.030  1.00  0.00     0.124 S 
ATOM    100  O   UNL A   1      54.157  25.130  24.768  1.00  0.00    -0.237 OA
ATOM    101  O   UNL A   1      54.173  27.428  23.858  1.00  0.00    -0.237 OA
ATOM    102  O   UNL A   1      54.820  27.026  26.202  1.00  0.00    -0.744 OA
ENDBRANCH  98  99
ENDBRANCH  66  91
ENDBRANCH  40  41
ENDBRANCH  32  35
ENDBRANCH  30  31
ENDBRANCH  29  30
ENDBRANCH   1  29
TORSDOF 18
ENDMDL
