MODEL 1
REMARK VINA RESULT:     -10.2      0.000      0.000
REMARK SMILES CCN(CC)C(=O)[C@H](C)SCC(=O)NCCCNC(=O)c1ccc(-c2c3nc(c(-c4c(F)cc(S(=O)(=O)[O-])cc4F)c4ccc([nH]4)c(-c4c(F)cc(S(=O)(=O)[O-])cc4F)c4nc(c(-c5c(F)cc(S(=O)(=O)[O-])cc5F)c5ccc2[nH]5)C=C4)C=C3)cc1
REMARK SMILES IDX 15 1 14 2 12 3 13 4 11 6 10 7 8 8 9 9 6 10 3 11 7 12 2 13
REMARK SMILES IDX 1 14 4 15 5 16 16 17 17 18 18 19 19 20 20 22 21 23 22 24
REMARK SMILES IDX 86 25 23 26 85 27 24 28 25 29 26 30 79 31 27 32 84 33 78 34
REMARK SMILES IDX 80 35 28 36 83 37 77 38 76 39 29 41 63 42 42 43 62 44 43 45
REMARK SMILES IDX 46 46 61 47 81 48 44 49 45 50 60 52 82 53 47 54 30 55 31 56
REMARK SMILES IDX 40 57 32 58 33 59 39 60 41 61 34 62 35 63 36 64 37 65 38 66
REMARK SMILES IDX 64 67 65 68 74 69 66 70 67 71 73 72 75 73 68 74 69 75 70 76
REMARK SMILES IDX 71 77 72 78 48 79 49 80 58 81 50 82 51 83 57 84 59 85 52 86
REMARK SMILES IDX 53 87 54 88 55 89 56 90
REMARK H PARENT 14 5 18 21 80 40 46 51
REMARK Flexibility Score: inf
ROOT
ATOM      1  C   UNL A   1      33.379  30.442  27.340  1.00  0.00     0.117 C 
ENDROOT
BRANCH   1   2
ATOM      2  N   UNL A   1      32.600  29.242  27.588  1.00  0.00    -0.355 N 
ATOM      3  C   UNL A   1      31.781  28.538  26.754  1.00  0.00     0.230 C 
ATOM      4  O   UNL A   1      31.273  27.495  27.180  1.00  0.00    -0.274 OA
ATOM      5  H   UNL A   1      32.674  28.880  28.501  1.00  0.00     0.163 HD
BRANCH   3   6
ATOM      6  C   UNL A   1      31.591  28.939  25.304  1.00  0.00     0.170 C 
BRANCH   6   7
ATOM      7  S   UNL A   1      32.875  28.380  24.136  1.00  0.00    -0.139 SA
BRANCH   7   8
ATOM      8  C   UNL A   1      32.132  26.863  23.372  1.00  0.00     0.133 C 
ATOM      9  C   UNL A   1      31.076  27.277  22.349  1.00  0.00     0.030 C 
BRANCH   8  10
ATOM     10  C   UNL A   1      33.206  25.913  22.805  1.00  0.00     0.235 C 
ATOM     11  N   UNL A   1      33.529  24.778  23.548  1.00  0.00    -0.342 N 
ATOM     12  O   UNL A   1      33.785  26.127  21.738  1.00  0.00    -0.274 OA
BRANCH  11  13
ATOM     13  C   UNL A   1      34.112  23.649  22.819  1.00  0.00     0.116 C 
ATOM     14  C   UNL A   1      33.059  22.579  22.557  1.00  0.00     0.027 C 
ENDBRANCH  11  13
BRANCH  11  15
ATOM     15  C   UNL A   1      33.710  24.816  24.998  1.00  0.00     0.116 C 
ATOM     16  C   UNL A   1      34.863  23.923  25.439  1.00  0.00     0.027 C 
ENDBRANCH  11  15
ENDBRANCH   8  10
ENDBRANCH   7   8
ENDBRANCH   6   7
ENDBRANCH   3   6
ENDBRANCH   1   2
BRANCH   1  17
ATOM     17  C   UNL A   1      34.889  30.257  27.508  1.00  0.00     0.042 C 
BRANCH  17  18
ATOM     18  C   UNL A   1      35.585  31.312  28.364  1.00  0.00     0.118 C 
BRANCH  18  19
ATOM     19  N   UNL A   1      35.539  30.998  29.785  1.00  0.00    -0.352 N 
ATOM     20  C   UNL A   1      36.445  30.359  30.595  1.00  0.00     0.251 C 
ATOM     21  H   UNL A   1      34.719  31.295  30.243  1.00  0.00     0.163 HD
ATOM     22  O   UNL A   1      36.097  30.035  31.730  1.00  0.00    -0.269 OA
BRANCH  20  23
ATOM     23  C   UNL A   1      37.816  30.039  30.132  1.00  0.00     0.039 A 
ATOM     24  C   UNL A   1      38.801  29.779  31.093  1.00  0.00     0.014 A 
ATOM     25  C   UNL A   1      38.165  30.059  28.780  1.00  0.00     0.014 A 
ATOM     26  C   UNL A   1      40.110  29.484  30.698  1.00  0.00     0.010 A 
ATOM     27  C   UNL A   1      39.457  29.702  28.382  1.00  0.00     0.010 A 
ATOM     28  C   UNL A   1      40.443  29.411  29.336  1.00  0.00    -0.014 A 
BRANCH  28  29
ATOM     29  C   UNL A   1      41.811  29.021  28.898  1.00  0.00     0.031 A 
ATOM     30  C   UNL A   1      42.913  30.044  28.821  1.00  0.00     0.074 A 
ATOM     31  C   UNL A   1      42.049  27.751  28.510  1.00  0.00     0.049 A 
ATOM     32  N   UNL A   1      44.143  29.905  28.394  1.00  0.00    -0.248 NA
ATOM     33  C   UNL A   1      42.584  31.409  29.264  1.00  0.00     0.031 C 
ATOM     34  C   UNL A   1      41.060  26.672  28.498  1.00  0.00     0.029 A 
ATOM     35  N   UNL A   1      43.194  27.155  28.038  1.00  0.00    -0.354 N 
ATOM     36  C   UNL A   1      44.729  31.162  28.497  1.00  0.00     0.074 A 
ATOM     37  C   UNL A   1      43.707  32.060  28.992  1.00  0.00     0.031 C 
ATOM     38  C   UNL A   1      41.641  25.545  28.055  1.00  0.00     0.029 A 
ATOM     39  C   UNL A   1      43.033  25.828  27.717  1.00  0.00     0.049 A 
ATOM     40  H   UNL A   1      44.048  27.634  27.940  1.00  0.00     0.167 HD
ATOM     41  C   UNL A   1      46.004  31.530  28.223  1.00  0.00     0.037 A 
ATOM     42  C   UNL A   1      43.902  24.939  27.196  1.00  0.00     0.037 A 
ATOM     43  C   UNL A   1      47.026  30.628  27.756  1.00  0.00     0.049 A 
ATOM     44  C   UNL A   1      45.312  25.370  26.903  1.00  0.00     0.074 A 
ATOM     45  C   UNL A   1      48.361  30.896  27.508  1.00  0.00     0.029 A 
ATOM     46  N   UNL A   1      46.829  29.286  27.465  1.00  0.00    -0.354 N 
ATOM     47  N   UNL A   1      45.863  26.550  27.061  1.00  0.00    -0.248 NA
ATOM     48  C   UNL A   1      46.223  24.350  26.365  1.00  0.00     0.031 C 
ATOM     49  C   UNL A   1      48.962  29.727  27.029  1.00  0.00     0.029 A 
ATOM     50  C   UNL A   1      48.012  28.718  27.021  1.00  0.00     0.049 A 
ATOM     51  H   UNL A   1      45.974  28.808  27.559  1.00  0.00     0.167 HD
ATOM     52  C   UNL A   1      47.189  26.407  26.666  1.00  0.00     0.074 A 
ATOM     53  C   UNL A   1      47.360  25.025  26.272  1.00  0.00     0.031 C 
ATOM     54  C   UNL A   1      48.174  27.338  26.635  1.00  0.00     0.037 A 
BRANCH  41  55
ATOM     55  C   UNL A   1      46.371  32.976  28.422  1.00  0.00     0.058 A 
ATOM     56  C   UNL A   1      46.873  33.447  29.645  1.00  0.00     0.135 A 
ATOM     57  C   UNL A   1      46.259  33.893  27.364  1.00  0.00     0.135 A 
ATOM     58  F   UNL A   1      46.990  32.616  30.693  1.00  0.00    -0.206 F 
ATOM     59  C   UNL A   1      47.222  34.783  29.823  1.00  0.00     0.059 A 
ATOM     60  C   UNL A   1      46.627  35.228  27.511  1.00  0.00     0.059 A 
ATOM     61  F   UNL A   1      45.789  33.496  26.172  1.00  0.00    -0.206 F 
ATOM     62  C   UNL A   1      47.094  35.665  28.750  1.00  0.00     0.060 A 
BRANCH  62  63
ATOM     63  S   UNL A   1      47.552  37.394  28.996  1.00  0.00     0.124 S 
ATOM     64  O   UNL A   1      46.801  38.048  27.929  1.00  0.00    -0.237 OA
ATOM     65  O   UNL A   1      47.083  37.655  30.353  1.00  0.00    -0.237 OA
ATOM     66  O   UNL A   1      49.003  37.389  28.829  1.00  0.00    -0.744 OA
ENDBRANCH  62  63
ENDBRANCH  41  55
BRANCH  42  67
ATOM     67  C   UNL A   1      43.463  23.542  26.935  1.00  0.00     0.058 A 
ATOM     68  C   UNL A   1      43.271  22.637  27.989  1.00  0.00     0.135 A 
ATOM     69  C   UNL A   1      43.212  23.090  25.630  1.00  0.00     0.135 A 
ATOM     70  F   UNL A   1      43.506  23.020  29.253  1.00  0.00    -0.206 F 
ATOM     71  C   UNL A   1      42.859  21.328  27.760  1.00  0.00     0.059 A 
ATOM     72  C   UNL A   1      42.775  21.794  25.377  1.00  0.00     0.059 A 
ATOM     73  F   UNL A   1      43.366  23.922  24.589  1.00  0.00    -0.206 F 
ATOM     74  C   UNL A   1      42.611  20.917  26.449  1.00  0.00     0.060 A 
BRANCH  74  75
ATOM     75  S   UNL A   1      42.027  19.232  26.165  1.00  0.00     0.124 S 
ATOM     76  O   UNL A   1      42.389  18.580  27.419  1.00  0.00    -0.237 OA
ATOM     77  O   UNL A   1      40.599  19.434  25.940  1.00  0.00    -0.237 OA
ATOM     78  O   UNL A   1      42.784  18.808  24.992  1.00  0.00    -0.744 OA
ENDBRANCH  74  75
ENDBRANCH  42  67
BRANCH  54  79
ATOM     79  C   UNL A   1      49.537  26.889  26.187  1.00  0.00     0.058 A 
ATOM     80  C   UNL A   1      49.936  26.970  24.844  1.00  0.00     0.135 A 
ATOM     81  C   UNL A   1      50.473  26.418  27.122  1.00  0.00     0.135 A 
ATOM     82  F   UNL A   1      49.077  27.407  23.909  1.00  0.00    -0.206 F 
ATOM     83  C   UNL A   1      51.209  26.580  24.440  1.00  0.00     0.059 A 
ATOM     84  C   UNL A   1      51.759  26.046  26.745  1.00  0.00     0.059 A 
ATOM     85  F   UNL A   1      50.145  26.331  28.422  1.00  0.00    -0.206 F 
ATOM     86  C   UNL A   1      52.115  26.120  25.398  1.00  0.00     0.060 A 
BRANCH  86  87
ATOM     87  S   UNL A   1      53.775  25.650  24.867  1.00  0.00     0.124 S 
ATOM     88  O   UNL A   1      54.592  26.179  25.954  1.00  0.00    -0.237 OA
ATOM     89  O   UNL A   1      53.682  24.194  24.796  1.00  0.00    -0.237 OA
ATOM     90  O   UNL A   1      53.924  26.325  23.582  1.00  0.00    -0.744 OA
ENDBRANCH  86  87
ENDBRANCH  54  79
ENDBRANCH  28  29
ENDBRANCH  20  23
ENDBRANCH  18  19
ENDBRANCH  17  18
ENDBRANCH   1  17
TORSDOF 18
ENDMDL
MODEL 2
REMARK VINA RESULT:      -9.9      2.361      9.022
REMARK SMILES CCN(CC)C(=O)[C@H](C)SCC(=O)NCCCNC(=O)c1ccc(-c2c3nc(c(-c4c(F)cc(S(=O)(=O)[O-])cc4F)c4ccc([nH]4)c(-c4c(F)cc(S(=O)(=O)[O-])cc4F)c4nc(c(-c5c(F)cc(S(=O)(=O)[O-])cc5F)c5ccc2[nH]5)C=C4)C=C3)cc1
REMARK SMILES IDX 15 1 14 2 12 3 13 4 11 6 10 7 8 8 9 9 6 10 3 11 7 12 2 13
REMARK SMILES IDX 1 14 4 15 5 16 16 17 17 18 18 19 19 20 20 22 21 23 22 24
REMARK SMILES IDX 86 25 23 26 85 27 24 28 25 29 26 30 79 31 27 32 84 33 78 34
REMARK SMILES IDX 80 35 28 36 83 37 77 38 76 39 29 41 63 42 42 43 62 44 43 45
REMARK SMILES IDX 46 46 61 47 81 48 44 49 45 50 60 52 82 53 47 54 30 55 31 56
REMARK SMILES IDX 40 57 32 58 33 59 39 60 41 61 34 62 35 63 36 64 37 65 38 66
REMARK SMILES IDX 64 67 65 68 74 69 66 70 67 71 73 72 75 73 68 74 69 75 70 76
REMARK SMILES IDX 71 77 72 78 48 79 49 80 58 81 50 82 51 83 57 84 59 85 52 86
REMARK SMILES IDX 53 87 54 88 55 89 56 90
REMARK H PARENT 14 5 18 21 80 40 46 51
REMARK Flexibility Score: inf
ROOT
ATOM      1  C   UNL A   1      37.067  20.634  24.717  1.00  0.00     0.117 C 
ENDROOT
BRANCH   1   2
ATOM      2  N   UNL A   1      35.745  20.168  25.092  1.00  0.00    -0.355 N 
ATOM      3  C   UNL A   1      34.633  20.874  25.450  1.00  0.00     0.230 C 
ATOM      4  O   UNL A   1      33.589  20.248  25.662  1.00  0.00    -0.274 OA
ATOM      5  H   UNL A   1      35.633  19.190  25.088  1.00  0.00     0.163 HD
BRANCH   3   6
ATOM      6  C   UNL A   1      34.627  22.390  25.466  1.00  0.00     0.170 C 
BRANCH   6   7
ATOM      7  S   UNL A   1      33.371  23.182  26.525  1.00  0.00    -0.139 SA
BRANCH   7   8
ATOM      8  C   UNL A   1      32.266  24.044  25.311  1.00  0.00     0.133 C 
ATOM      9  C   UNL A   1      31.225  23.058  24.783  1.00  0.00     0.030 C 
BRANCH   8  10
ATOM     10  C   UNL A   1      31.657  25.334  25.896  1.00  0.00     0.235 C 
ATOM     11  N   UNL A   1      32.127  26.554  25.411  1.00  0.00    -0.342 N 
ATOM     12  O   UNL A   1      30.788  25.321  26.771  1.00  0.00    -0.274 OA
BRANCH  11  13
ATOM     13  C   UNL A   1      31.238  27.711  25.545  1.00  0.00     0.116 C 
ATOM     14  C   UNL A   1      30.926  28.309  24.179  1.00  0.00     0.027 C 
ENDBRANCH  11  13
BRANCH  11  15
ATOM     15  C   UNL A   1      33.548  26.814  25.187  1.00  0.00     0.116 C 
ATOM     16  C   UNL A   1      34.115  27.759  26.238  1.00  0.00     0.027 C 
ENDBRANCH  11  15
ENDBRANCH   8  10
ENDBRANCH   7   8
ENDBRANCH   6   7
ENDBRANCH   3   6
ENDBRANCH   1   2
BRANCH   1  17
ATOM     17  C   UNL A   1      38.197  19.656  25.045  1.00  0.00     0.042 C 
BRANCH  17  18
ATOM     18  C   UNL A   1      39.309  20.213  25.930  1.00  0.00     0.118 C 
BRANCH  18  19
ATOM     19  N   UNL A   1      40.408  19.275  26.104  1.00  0.00    -0.352 N 
ATOM     20  C   UNL A   1      41.755  19.488  26.267  1.00  0.00     0.251 C 
ATOM     21  H   UNL A   1      40.140  18.328  26.107  1.00  0.00     0.163 HD
ATOM     22  O   UNL A   1      42.518  18.525  26.199  1.00  0.00    -0.269 OA
BRANCH  20  23
ATOM     23  C   UNL A   1      42.307  20.843  26.505  1.00  0.00     0.039 A 
ATOM     24  C   UNL A   1      42.641  21.631  25.396  1.00  0.00     0.014 A 
ATOM     25  C   UNL A   1      42.567  21.323  27.790  1.00  0.00     0.014 A 
ATOM     26  C   UNL A   1      43.174  22.911  25.577  1.00  0.00     0.010 A 
ATOM     27  C   UNL A   1      43.041  22.625  27.972  1.00  0.00     0.010 A 
ATOM     28  C   UNL A   1      43.350  23.434  26.869  1.00  0.00    -0.014 A 
BRANCH  28  29
ATOM     29  C   UNL A   1      43.843  24.823  27.077  1.00  0.00     0.031 A 
ATOM     30  C   UNL A   1      45.298  25.157  26.883  1.00  0.00     0.074 A 
ATOM     31  C   UNL A   1      42.987  25.776  27.501  1.00  0.00     0.049 A 
ATOM     32  N   UNL A   1      45.920  26.291  27.089  1.00  0.00    -0.248 NA
ATOM     33  C   UNL A   1      46.173  24.071  26.415  1.00  0.00     0.031 C 
ATOM     34  C   UNL A   1      41.562  25.574  27.765  1.00  0.00     0.029 A 
ATOM     35  N   UNL A   1      43.194  27.101  27.797  1.00  0.00    -0.354 N 
ATOM     36  C   UNL A   1      47.258  26.052  26.795  1.00  0.00     0.074 A 
ATOM     37  C   UNL A   1      47.363  24.654  26.434  1.00  0.00     0.031 C 
ATOM     38  C   UNL A   1      41.020  26.734  28.172  1.00  0.00     0.029 A 
ATOM     39  C   UNL A   1      42.064  27.752  28.232  1.00  0.00     0.049 A 
ATOM     40  H   UNL A   1      44.069  27.543  27.706  1.00  0.00     0.167 HD
ATOM     41  C   UNL A   1      48.299  26.920  26.809  1.00  0.00     0.037 A 
ATOM     42  C   UNL A   1      41.887  29.023  28.645  1.00  0.00     0.037 A 
ATOM     43  C   UNL A   1      48.186  28.317  27.143  1.00  0.00     0.049 A 
ATOM     44  C   UNL A   1      43.056  29.968  28.648  1.00  0.00     0.074 A 
ATOM     45  C   UNL A   1      49.173  29.287  27.126  1.00  0.00     0.029 A 
ATOM     46  N   UNL A   1      47.019  28.943  27.556  1.00  0.00    -0.354 N 
ATOM     47  N   UNL A   1      44.303  29.737  28.313  1.00  0.00    -0.248 NA
ATOM     48  C   UNL A   1      42.796  31.348  29.081  1.00  0.00     0.031 C 
ATOM     49  C   UNL A   1      48.612  30.491  27.566  1.00  0.00     0.029 A 
ATOM     50  C   UNL A   1      47.266  30.282  27.815  1.00  0.00     0.049 A 
ATOM     51  H   UNL A   1      46.145  28.502  27.650  1.00  0.00     0.167 HD
ATOM     52  C   UNL A   1      44.969  30.948  28.470  1.00  0.00     0.074 A 
ATOM     53  C   UNL A   1      43.986  31.910  28.920  1.00  0.00     0.031 C 
ATOM     54  C   UNL A   1      46.278  31.234  28.258  1.00  0.00     0.037 A 
BRANCH  41  55
ATOM     55  C   UNL A   1      49.658  26.384  26.448  1.00  0.00     0.058 A 
ATOM     56  C   UNL A   1      50.169  26.486  25.144  1.00  0.00     0.135 A 
ATOM     57  C   UNL A   1      50.478  25.800  27.427  1.00  0.00     0.135 A 
ATOM     58  F   UNL A   1      49.424  27.025  24.166  1.00  0.00    -0.206 F 
ATOM     59  C   UNL A   1      51.431  26.000  24.817  1.00  0.00     0.059 A 
ATOM     60  C   UNL A   1      51.755  25.331  27.128  1.00  0.00     0.059 A 
ATOM     61  F   UNL A   1      50.042  25.681  28.691  1.00  0.00    -0.206 F 
ATOM     62  C   UNL A   1      52.215  25.423  25.815  1.00  0.00     0.060 A 
BRANCH  62  63
ATOM     63  S   UNL A   1      53.851  24.798  25.375  1.00  0.00     0.124 S 
ATOM     64  O   UNL A   1      54.183  25.636  24.228  1.00  0.00    -0.237 OA
ATOM     65  O   UNL A   1      54.621  25.052  26.588  1.00  0.00    -0.237 OA
ATOM     66  O   UNL A   1      53.609  23.390  25.074  1.00  0.00    -0.744 OA
ENDBRANCH  62  63
ENDBRANCH  41  55
BRANCH  42  67
ATOM     67  C   UNL A   1      40.538  29.479  29.077  1.00  0.00     0.058 A 
ATOM     68  C   UNL A   1      39.517  29.698  28.141  1.00  0.00     0.135 A 
ATOM     69  C   UNL A   1      40.240  29.689  30.432  1.00  0.00     0.135 A 
ATOM     70  F   UNL A   1      39.757  29.518  26.833  1.00  0.00    -0.206 F 
ATOM     71  C   UNL A   1      38.251  30.122  28.529  1.00  0.00     0.059 A 
ATOM     72  C   UNL A   1      38.974  30.089  30.848  1.00  0.00     0.059 A 
ATOM     73  F   UNL A   1      41.178  29.478  31.368  1.00  0.00    -0.206 F 
ATOM     74  C   UNL A   1      37.989  30.313  29.887  1.00  0.00     0.060 A 
BRANCH  74  75
ATOM     75  S   UNL A   1      36.327  30.814  30.387  1.00  0.00     0.124 S 
ATOM     76  O   UNL A   1      35.620  30.801  29.111  1.00  0.00    -0.237 OA
ATOM     77  O   UNL A   1      35.959  29.764  31.331  1.00  0.00    -0.237 OA
ATOM     78  O   UNL A   1      36.539  32.132  30.978  1.00  0.00    -0.744 OA
ENDBRANCH  74  75
ENDBRANCH  42  67
BRANCH  54  79
ATOM     79  C   UNL A   1      46.721  32.653  28.482  1.00  0.00     0.058 A 
ATOM     80  C   UNL A   1      46.654  33.616  27.462  1.00  0.00     0.135 A 
ATOM     81  C   UNL A   1      47.171  33.067  29.746  1.00  0.00     0.135 A 
ATOM     82  F   UNL A   1      46.238  33.271  26.234  1.00  0.00    -0.206 F 
ATOM     83  C   UNL A   1      47.039  34.935  27.683  1.00  0.00     0.059 A 
ATOM     84  C   UNL A   1      47.536  34.386  29.996  1.00  0.00     0.059 A 
ATOM     85  F   UNL A   1      47.244  32.187  30.758  1.00  0.00    -0.206 F 
ATOM     86  C   UNL A   1      47.478  35.311  28.955  1.00  0.00     0.060 A 
BRANCH  86  87
ATOM     87  S   UNL A   1      47.940  37.033  29.238  1.00  0.00     0.124 S 
ATOM     88  O   UNL A   1      48.743  36.926  30.452  1.00  0.00    -0.237 OA
ATOM     89  O   UNL A   1      48.674  37.366  28.021  1.00  0.00    -0.237 OA
ATOM     90  O   UNL A   1      46.655  37.709  29.392  1.00  0.00    -0.744 OA
ENDBRANCH  86  87
ENDBRANCH  54  79
ENDBRANCH  28  29
ENDBRANCH  20  23
ENDBRANCH  18  19
ENDBRANCH  17  18
ENDBRANCH   1  17
TORSDOF 18
ENDMDL
MODEL 3
REMARK VINA RESULT:      -9.9      6.552     12.265
REMARK SMILES CCN(CC)C(=O)[C@H](C)SCC(=O)NCCCNC(=O)c1ccc(-c2c3nc(c(-c4c(F)cc(S(=O)(=O)[O-])cc4F)c4ccc([nH]4)c(-c4c(F)cc(S(=O)(=O)[O-])cc4F)c4nc(c(-c5c(F)cc(S(=O)(=O)[O-])cc5F)c5ccc2[nH]5)C=C4)C=C3)cc1
REMARK SMILES IDX 15 1 14 2 12 3 13 4 11 6 10 7 8 8 9 9 6 10 3 11 7 12 2 13
REMARK SMILES IDX 1 14 4 15 5 16 16 17 17 18 18 19 19 20 20 22 21 23 22 24
REMARK SMILES IDX 86 25 23 26 85 27 24 28 25 29 26 30 79 31 27 32 84 33 78 34
REMARK SMILES IDX 80 35 28 36 83 37 77 38 76 39 29 41 63 42 42 43 62 44 43 45
REMARK SMILES IDX 46 46 61 47 81 48 44 49 45 50 60 52 82 53 47 54 30 55 31 56
REMARK SMILES IDX 40 57 32 58 33 59 39 60 41 61 34 62 35 63 36 64 37 65 38 66
REMARK SMILES IDX 64 67 65 68 74 69 66 70 67 71 73 72 75 73 68 74 69 75 70 76
REMARK SMILES IDX 71 77 72 78 48 79 49 80 58 81 50 82 51 83 57 84 59 85 52 86
REMARK SMILES IDX 53 87 54 88 55 89 56 90
REMARK H PARENT 14 5 18 21 80 40 46 51
REMARK Flexibility Score: inf
ROOT
ATOM      1  C   UNL A   1      37.821  21.935  25.799  1.00  0.00     0.117 C 
ENDROOT
BRANCH   1   2
ATOM      2  N   UNL A   1      37.522  22.587  24.538  1.00  0.00    -0.355 N 
ATOM      3  C   UNL A   1      36.354  22.649  23.835  1.00  0.00     0.230 C 
ATOM      4  O   UNL A   1      36.329  23.333  22.806  1.00  0.00    -0.274 OA
ATOM      5  H   UNL A   1      38.281  23.061  24.125  1.00  0.00     0.163 HD
BRANCH   3   6
ATOM      6  C   UNL A   1      35.081  22.009  24.353  1.00  0.00     0.170 C 
BRANCH   6   7
ATOM      7  S   UNL A   1      34.487  22.591  25.975  1.00  0.00    -0.139 SA
BRANCH   7   8
ATOM      8  C   UNL A   1      32.991  23.602  25.548  1.00  0.00     0.133 C 
ATOM      9  C   UNL A   1      32.084  23.706  26.773  1.00  0.00     0.030 C 
BRANCH   8  10
ATOM     10  C   UNL A   1      33.369  24.966  24.938  1.00  0.00     0.235 C 
ATOM     11  N   UNL A   1      32.496  25.526  24.005  1.00  0.00    -0.342 N 
ATOM     12  O   UNL A   1      34.405  25.564  25.237  1.00  0.00    -0.274 OA
BRANCH  11  13
ATOM     13  C   UNL A   1      32.552  26.979  23.829  1.00  0.00     0.116 C 
ATOM     14  C   UNL A   1      31.493  27.664  24.683  1.00  0.00     0.027 C 
ENDBRANCH  11  13
BRANCH  11  15
ATOM     15  C   UNL A   1      31.872  24.738  22.944  1.00  0.00     0.116 C 
ATOM     16  C   UNL A   1      32.914  24.135  22.010  1.00  0.00     0.027 C 
ENDBRANCH  11  15
ENDBRANCH   8  10
ENDBRANCH   7   8
ENDBRANCH   6   7
ENDBRANCH   3   6
ENDBRANCH   1   2
BRANCH   1  17
ATOM     17  C   UNL A   1      39.309  21.905  26.157  1.00  0.00     0.042 C 
BRANCH  17  18
ATOM     18  C   UNL A   1      39.867  23.199  26.741  1.00  0.00     0.118 C 
BRANCH  18  19
ATOM     19  N   UNL A   1      40.993  23.718  25.978  1.00  0.00    -0.352 N 
ATOM     20  C   UNL A   1      41.695  24.891  26.096  1.00  0.00     0.251 C 
ATOM     21  H   UNL A   1      41.304  23.125  25.256  1.00  0.00     0.163 HD
ATOM     22  O   UNL A   1      42.487  25.199  25.206  1.00  0.00    -0.269 OA
BRANCH  20  23
ATOM     23  C   UNL A   1      41.511  25.798  27.254  1.00  0.00     0.039 A 
ATOM     24  C   UNL A   1      42.420  26.848  27.430  1.00  0.00     0.014 A 
ATOM     25  C   UNL A   1      40.507  25.593  28.204  1.00  0.00     0.014 A 
ATOM     26  C   UNL A   1      42.288  27.720  28.516  1.00  0.00     0.010 A 
ATOM     27  C   UNL A   1      40.337  26.500  29.253  1.00  0.00     0.010 A 
ATOM     28  C   UNL A   1      41.224  27.573  29.422  1.00  0.00    -0.014 A 
BRANCH  28  29
ATOM     29  C   UNL A   1      41.024  28.539  30.536  1.00  0.00     0.031 A 
ATOM     30  C   UNL A   1      41.845  28.438  31.795  1.00  0.00     0.074 A 
ATOM     31  C   UNL A   1      40.057  29.475  30.441  1.00  0.00     0.049 A 
ATOM     32  N   UNL A   1      41.760  29.143  32.896  1.00  0.00    -0.248 NA
ATOM     33  C   UNL A   1      42.884  27.397  31.828  1.00  0.00     0.031 C 
ATOM     34  C   UNL A   1      39.166  29.654  29.293  1.00  0.00     0.029 A 
ATOM     35  N   UNL A   1      39.653  30.443  31.327  1.00  0.00    -0.354 N 
ATOM     36  C   UNL A   1      42.717  28.620  33.758  1.00  0.00     0.074 A 
ATOM     37  C   UNL A   1      43.346  27.515  33.066  1.00  0.00     0.031 C 
ATOM     38  C   UNL A   1      38.329  30.675  29.540  1.00  0.00     0.029 A 
ATOM     39  C   UNL A   1      38.599  31.201  30.875  1.00  0.00     0.049 A 
ATOM     40  H   UNL A   1      40.078  30.580  32.205  1.00  0.00     0.167 HD
ATOM     41  C   UNL A   1      43.054  29.034  35.004  1.00  0.00     0.037 A 
ATOM     42  C   UNL A   1      37.915  32.199  31.470  1.00  0.00     0.037 A 
ATOM     43  C   UNL A   1      42.446  30.152  35.680  1.00  0.00     0.049 A 
ATOM     44  C   UNL A   1      38.310  32.642  32.851  1.00  0.00     0.074 A 
ATOM     45  C   UNL A   1      42.762  30.683  36.919  1.00  0.00     0.029 A 
ATOM     46  N   UNL A   1      41.397  30.908  35.178  1.00  0.00    -0.354 N 
ATOM     47  N   UNL A   1      39.256  32.173  33.628  1.00  0.00    -0.248 NA
ATOM     48  C   UNL A   1      37.548  33.755  33.437  1.00  0.00     0.031 C 
ATOM     49  C   UNL A   1      41.878  31.736  37.182  1.00  0.00     0.029 A 
ATOM     50  C   UNL A   1      41.041  31.890  36.090  1.00  0.00     0.049 A 
ATOM     51  H   UNL A   1      40.969  30.769  34.303  1.00  0.00     0.167 HD
ATOM     52  C   UNL A   1      39.220  32.948  34.783  1.00  0.00     0.074 A 
ATOM     53  C   UNL A   1      38.166  33.923  34.598  1.00  0.00     0.031 C 
ATOM     54  C   UNL A   1      39.992  32.859  35.894  1.00  0.00     0.037 A 
BRANCH  41  55
ATOM     55  C   UNL A   1      44.137  28.275  35.723  1.00  0.00     0.058 A 
ATOM     56  C   UNL A   1      43.842  27.189  36.563  1.00  0.00     0.135 A 
ATOM     57  C   UNL A   1      45.488  28.609  35.537  1.00  0.00     0.135 A 
ATOM     58  F   UNL A   1      42.566  26.833  36.786  1.00  0.00    -0.206 F 
ATOM     59  C   UNL A   1      44.845  26.482  37.218  1.00  0.00     0.059 A 
ATOM     60  C   UNL A   1      46.510  27.898  36.161  1.00  0.00     0.059 A 
ATOM     61  F   UNL A   1      45.827  29.635  34.741  1.00  0.00    -0.206 F 
ATOM     62  C   UNL A   1      46.176  26.845  37.012  1.00  0.00     0.060 A 
BRANCH  62  63
ATOM     63  S   UNL A   1      47.467  25.917  37.867  1.00  0.00     0.124 S 
ATOM     64  O   UNL A   1      48.670  26.606  37.412  1.00  0.00    -0.237 OA
ATOM     65  O   UNL A   1      47.118  26.113  39.270  1.00  0.00    -0.237 OA
ATOM     66  O   UNL A   1      47.296  24.555  37.366  1.00  0.00    -0.744 OA
ENDBRANCH  62  63
ENDBRANCH  41  55
BRANCH  42  67
ATOM     67  C   UNL A   1      36.794  32.859  30.749  1.00  0.00     0.058 A 
ATOM     68  C   UNL A   1      35.463  32.494  30.999  1.00  0.00     0.135 A 
ATOM     69  C   UNL A   1      37.030  33.876  29.812  1.00  0.00     0.135 A 
ATOM     70  F   UNL A   1      35.188  31.520  31.880  1.00  0.00    -0.206 F 
ATOM     71  C   UNL A   1      34.403  33.104  30.334  1.00  0.00     0.059 A 
ATOM     72  C   UNL A   1      35.986  34.519  29.153  1.00  0.00     0.059 A 
ATOM     73  F   UNL A   1      38.284  34.272  29.550  1.00  0.00    -0.206 F 
ATOM     74  C   UNL A   1      34.676  34.117  29.414  1.00  0.00     0.060 A 
BRANCH  74  75
ATOM     75  S   UNL A   1      33.292  34.939  28.595  1.00  0.00     0.124 S 
ATOM     76  O   UNL A   1      33.983  35.902  27.746  1.00  0.00    -0.237 OA
ATOM     77  O   UNL A   1      32.641  33.830  27.904  1.00  0.00    -0.237 OA
ATOM     78  O   UNL A   1      32.534  35.505  29.706  1.00  0.00    -0.744 OA
ENDBRANCH  74  75
ENDBRANCH  42  67
BRANCH  54  79
ATOM     79  C   UNL A   1      39.749  33.861  36.988  1.00  0.00     0.058 A 
ATOM     80  C   UNL A   1      38.966  33.551  38.111  1.00  0.00     0.135 A 
ATOM     81  C   UNL A   1      40.347  35.131  36.935  1.00  0.00     0.135 A 
ATOM     82  F   UNL A   1      38.366  32.355  38.207  1.00  0.00    -0.206 F 
ATOM     83  C   UNL A   1      38.767  34.473  39.134  1.00  0.00     0.059 A 
ATOM     84  C   UNL A   1      40.184  36.059  37.959  1.00  0.00     0.059 A 
ATOM     85  F   UNL A   1      41.114  35.474  35.888  1.00  0.00    -0.206 F 
ATOM     86  C   UNL A   1      39.382  35.725  39.050  1.00  0.00     0.060 A 
BRANCH  86  87
ATOM     87  S   UNL A   1      39.146  36.900  40.401  1.00  0.00     0.124 S 
ATOM     88  O   UNL A   1      38.528  38.025  39.707  1.00  0.00    -0.237 OA
ATOM     89  O   UNL A   1      38.275  36.161  41.310  1.00  0.00    -0.237 OA
ATOM     90  O   UNL A   1      40.501  37.130  40.891  1.00  0.00    -0.744 OA
ENDBRANCH  86  87
ENDBRANCH  54  79
ENDBRANCH  28  29
ENDBRANCH  20  23
ENDBRANCH  18  19
ENDBRANCH  17  18
ENDBRANCH   1  17
TORSDOF 18
ENDMDL
