MODEL 1
REMARK VINA RESULT:     -12.1      0.000      0.000
REMARK SMILES CC[N@@H+](C)Cc1cc2c(cc1Cl)C=C(C(=O)NCCCNC(=O)c1ccc(-c3c4nc(c(-c5c(F)cc(S(=O)(=O)[O-])cc5F)c5ccc([nH]5)c(-c5c(F)cc(S(=O)(=O)[O-])cc5F)c5nc(c(-c6c(F)cc(S(=O)(=O)[O-])cc6F)c6ccc3[nH]6)C=C5)C=C4)cc1)[C@@H](C(F)(F)F)O2
REMARK SMILES IDX 19 1 18 2 17 3 15 4 16 5 14 7 6 8 7 9 11 10 8 11 10 12 12 13
REMARK SMILES IDX 9 14 95 15 13 16 90 17 5 18 3 19 4 20 2 22 1 23 91 24 92 25
REMARK SMILES IDX 93 26 94 27 20 28 21 29 22 30 23 32 24 33 25 34 89 35 26 36
REMARK SMILES IDX 88 37 27 38 28 39 29 40 82 41 30 42 87 43 81 44 83 45 31 46
REMARK SMILES IDX 86 47 80 48 79 49 32 51 66 52 45 53 65 54 46 55 49 56 64 57
REMARK SMILES IDX 84 58 47 59 48 60 63 62 85 63 50 64 33 65 34 66 43 67 35 68
REMARK SMILES IDX 36 69 42 70 44 71 37 72 38 73 39 74 40 75 41 76 67 77 68 78
REMARK SMILES IDX 77 79 69 80 70 81 76 82 78 83 71 84 72 85 73 86 74 87 75 88
REMARK SMILES IDX 51 89 52 90 61 91 53 92 54 93 60 94 62 95 55 96 56 97 57 98
REMARK SMILES IDX 58 99 59 100
REMARK H PARENT 17 6 3 21 21 31 83 50 49 61
REMARK Flexibility Score: inf
ROOT
ATOM      1  C   UNL A   1      31.730  32.051  26.619  1.00  0.00     0.042 C 
ENDROOT
BRANCH   1   2
ATOM      2  C   UNL A   1      31.877  30.541  26.509  1.00  0.00     0.118 C 
BRANCH   2   3
ATOM      3  N   UNL A   1      31.942  30.099  25.124  1.00  0.00    -0.352 N 
ATOM      4  C   UNL A   1      32.102  28.930  24.464  1.00  0.00     0.251 C 
ATOM      5  O   UNL A   1      32.124  29.019  23.232  1.00  0.00    -0.270 OA
ATOM      6  H   UNL A   1      31.844  30.853  24.501  1.00  0.00     0.163 HD
BRANCH   4   7
ATOM      7  C   UNL A   1      32.225  27.589  25.107  1.00  0.00     0.067 C 
ATOM      8  C   UNL A   1      33.830  22.994  26.420  1.00  0.00     0.029 A 
ATOM      9  C   UNL A   1      32.695  23.770  26.715  1.00  0.00     0.058 A 
ATOM     10  C   UNL A   1      34.907  23.629  25.780  1.00  0.00     0.050 A 
ATOM     11  C   UNL A   1      32.591  25.084  26.275  1.00  0.00     0.128 A 
ATOM     12  C   UNL A   1      34.801  24.959  25.347  1.00  0.00     0.033 A 
ATOM     13  Cl  UNL A   1      36.420  22.840  25.507  1.00  0.00    -0.084 Cl
ATOM     14  C   UNL A   1      33.625  25.680  25.564  1.00  0.00     0.019 A 
ATOM     15  O   UNL A   1      31.440  25.742  26.594  1.00  0.00    -0.475 OA
ATOM     16  C   UNL A   1      33.452  27.035  25.062  1.00  0.00     0.025 C 
ATOM     17  C   UNL A   1      31.070  26.838  25.714  1.00  0.00     0.314 C 
BRANCH   8  18
ATOM     18  C   UNL A   1      33.798  21.520  26.778  1.00  0.00     0.300 C 
BRANCH  18  19
ATOM     19  N   UNL A   1      33.368  20.583  25.716  1.00  0.00    -0.334 N 
ATOM     20  C   UNL A   1      34.492  20.046  24.953  1.00  0.00     0.333 C 
ATOM     21  H   UNL A   1      32.928  19.829  26.243  1.00  0.00     0.348 HD
BRANCH  19  22
ATOM     22  C   UNL A   1      32.323  21.079  24.810  1.00  0.00     0.258 C 
ATOM     23  C   UNL A   1      32.341  20.412  23.440  1.00  0.00     0.071 C 
ENDBRANCH  19  22
ENDBRANCH  18  19
ENDBRANCH   8  18
BRANCH  17  24
ATOM     24  C   UNL A   1      30.072  26.308  24.666  1.00  0.00     0.429 C 
ATOM     25  F   UNL A   1      30.731  25.676  23.662  1.00  0.00    -0.167 F 
ATOM     26  F   UNL A   1      29.199  25.408  25.176  1.00  0.00    -0.167 F 
ATOM     27  F   UNL A   1      29.334  27.294  24.105  1.00  0.00    -0.167 F 
ENDBRANCH  17  24
ENDBRANCH   4   7
ENDBRANCH   2   3
ENDBRANCH   1   2
BRANCH   1  28
ATOM     28  C   UNL A   1      32.824  32.678  27.476  1.00  0.00     0.118 C 
BRANCH  28  29
ATOM     29  N   UNL A   1      32.575  34.094  27.741  1.00  0.00    -0.352 N 
ATOM     30  C   UNL A   1      33.080  34.920  28.717  1.00  0.00     0.251 C 
ATOM     31  H   UNL A   1      31.944  34.526  27.121  1.00  0.00     0.163 HD
ATOM     32  O   UNL A   1      32.564  36.016  28.913  1.00  0.00    -0.269 OA
BRANCH  30  33
ATOM     33  C   UNL A   1      34.229  34.479  29.535  1.00  0.00     0.039 A 
ATOM     34  C   UNL A   1      35.525  34.583  29.033  1.00  0.00     0.014 A 
ATOM     35  C   UNL A   1      34.012  33.954  30.812  1.00  0.00     0.014 A 
ATOM     36  C   UNL A   1      36.574  33.980  29.712  1.00  0.00     0.010 A 
ATOM     37  C   UNL A   1      35.089  33.445  31.544  1.00  0.00     0.010 A 
ATOM     38  C   UNL A   1      36.373  33.405  30.977  1.00  0.00    -0.014 A 
BRANCH  38  39
ATOM     39  C   UNL A   1      37.525  32.773  31.670  1.00  0.00     0.031 A 
ATOM     40  C   UNL A   1      37.949  33.237  33.039  1.00  0.00     0.074 A 
ATOM     41  C   UNL A   1      38.138  31.721  31.090  1.00  0.00     0.049 A 
ATOM     42  N   UNL A   1      38.922  32.791  33.793  1.00  0.00    -0.248 NA
ATOM     43  C   UNL A   1      37.193  34.347  33.644  1.00  0.00     0.031 C 
ATOM     44  C   UNL A   1      37.810  31.178  29.768  1.00  0.00     0.029 A 
ATOM     45  N   UNL A   1      39.137  30.898  31.543  1.00  0.00    -0.354 N 
ATOM     46  C   UNL A   1      38.913  33.577  34.938  1.00  0.00     0.074 A 
ATOM     47  C   UNL A   1      37.849  34.543  34.780  1.00  0.00     0.031 C 
ATOM     48  C   UNL A   1      38.546  30.079  29.546  1.00  0.00     0.029 A 
ATOM     49  C   UNL A   1      39.449  29.879  30.672  1.00  0.00     0.049 A 
ATOM     50  H   UNL A   1      39.588  31.023  32.409  1.00  0.00     0.167 HD
ATOM     51  C   UNL A   1      39.713  33.491  36.027  1.00  0.00     0.037 A 
ATOM     52  C   UNL A   1      40.373  28.905  30.758  1.00  0.00     0.037 A 
ATOM     53  C   UNL A   1      40.739  32.495  36.199  1.00  0.00     0.049 A 
ATOM     54  C   UNL A   1      41.251  28.842  31.974  1.00  0.00     0.074 A 
ATOM     55  C   UNL A   1      41.585  32.312  37.280  1.00  0.00     0.029 A 
ATOM     56  N   UNL A   1      41.051  31.509  35.276  1.00  0.00    -0.354 N 
ATOM     57  N   UNL A   1      41.232  29.604  33.041  1.00  0.00    -0.248 NA
ATOM     58  C   UNL A   1      42.287  27.800  31.994  1.00  0.00     0.031 C 
ATOM     59  C   UNL A   1      42.429  31.234  36.996  1.00  0.00     0.029 A 
ATOM     60  C   UNL A   1      42.084  30.723  35.756  1.00  0.00     0.049 A 
ATOM     61  H   UNL A   1      40.603  31.386  34.408  1.00  0.00     0.167 HD
ATOM     62  C   UNL A   1      42.251  29.133  33.858  1.00  0.00     0.074 A 
ATOM     63  C   UNL A   1      42.849  28.004  33.177  1.00  0.00     0.031 C 
ATOM     64  C   UNL A   1      42.664  29.603  35.061  1.00  0.00     0.037 A 
BRANCH  51  65
ATOM     65  C   UNL A   1      39.524  34.490  37.134  1.00  0.00     0.058 A 
ATOM     66  C   UNL A   1      38.860  34.154  38.322  1.00  0.00     0.135 A 
ATOM     67  C   UNL A   1      40.110  35.765  37.047  1.00  0.00     0.135 A 
ATOM     68  F   UNL A   1      38.265  32.957  38.448  1.00  0.00    -0.206 F 
ATOM     69  C   UNL A   1      38.789  35.042  39.391  1.00  0.00     0.059 A 
ATOM     70  C   UNL A   1      40.068  36.662  38.110  1.00  0.00     0.059 A 
ATOM     71  F   UNL A   1      40.753  36.136  35.929  1.00  0.00    -0.206 F 
ATOM     72  C   UNL A   1      39.404  36.291  39.279  1.00  0.00     0.060 A 
BRANCH  72  73
ATOM     73  S   UNL A   1      39.352  37.406  40.698  1.00  0.00     0.124 S 
ATOM     74  O   UNL A   1      38.475  38.463  40.204  1.00  0.00    -0.237 OA
ATOM     75  O   UNL A   1      38.791  36.554  41.741  1.00  0.00    -0.237 OA
ATOM     76  O   UNL A   1      40.748  37.787  40.884  1.00  0.00    -0.744 OA
ENDBRANCH  72  73
ENDBRANCH  51  65
BRANCH  52  77
ATOM     77  C   UNL A   1      40.533  27.933  29.646  1.00  0.00     0.058 A 
ATOM     78  C   UNL A   1      41.545  28.084  28.688  1.00  0.00     0.135 A 
ATOM     79  C   UNL A   1      39.680  26.824  29.527  1.00  0.00     0.135 A 
ATOM     80  F   UNL A   1      42.383  29.130  28.757  1.00  0.00    -0.206 F 
ATOM     81  C   UNL A   1      41.698  27.181  27.642  1.00  0.00     0.059 A 
ATOM     82  C   UNL A   1      39.828  25.892  28.506  1.00  0.00     0.059 A 
ATOM     83  F   UNL A   1      38.705  26.626  30.428  1.00  0.00    -0.206 F 
ATOM     84  C   UNL A   1      40.834  26.086  27.560  1.00  0.00     0.060 A 
BRANCH  84  85
ATOM     85  S   UNL A   1      41.059  24.897  26.221  1.00  0.00     0.124 S 
ATOM     86  O   UNL A   1      41.286  25.778  25.082  1.00  0.00    -0.237 OA
ATOM     87  O   UNL A   1      42.216  24.133  26.678  1.00  0.00    -0.237 OA
ATOM     88  O   UNL A   1      39.798  24.161  26.212  1.00  0.00    -0.744 OA
ENDBRANCH  84  85
ENDBRANCH  52  77
BRANCH  64  89
ATOM     89  C   UNL A   1      43.809  28.893  35.720  1.00  0.00     0.058 A 
ATOM     90  C   UNL A   1      45.134  29.306  35.517  1.00  0.00     0.135 A 
ATOM     91  C   UNL A   1      43.576  27.831  36.608  1.00  0.00     0.135 A 
ATOM     92  F   UNL A   1      45.406  30.312  34.670  1.00  0.00    -0.206 F 
ATOM     93  C   UNL A   1      46.194  28.683  36.165  1.00  0.00     0.059 A 
ATOM     94  C   UNL A   1      44.619  27.207  37.284  1.00  0.00     0.059 A 
ATOM     95  F   UNL A   1      42.324  27.406  36.840  1.00  0.00    -0.206 F 
ATOM     96  C   UNL A   1      45.926  27.635  37.049  1.00  0.00     0.060 A 
BRANCH  96  97
ATOM     97  S   UNL A   1      47.308  26.863  37.915  1.00  0.00     0.124 S 
ATOM     98  O   UNL A   1      46.686  26.480  39.178  1.00  0.00    -0.237 OA
ATOM     99  O   UNL A   1      47.662  25.764  37.023  1.00  0.00    -0.237 OA
ATOM    100  O   UNL A   1      48.296  27.935  38.001  1.00  0.00    -0.744 OA
ENDBRANCH  96  97
ENDBRANCH  64  89
ENDBRANCH  38  39
ENDBRANCH  30  33
ENDBRANCH  28  29
ENDBRANCH   1  28
TORSDOF 17
ENDMDL
MODEL 2
REMARK VINA RESULT:     -12.0      0.356      8.114
REMARK SMILES CC[N@@H+](C)Cc1cc2c(cc1Cl)C=C(C(=O)NCCCNC(=O)c1ccc(-c3c4nc(c(-c5c(F)cc(S(=O)(=O)[O-])cc5F)c5ccc([nH]5)c(-c5c(F)cc(S(=O)(=O)[O-])cc5F)c5nc(c(-c6c(F)cc(S(=O)(=O)[O-])cc6F)c6ccc3[nH]6)C=C5)C=C4)cc1)[C@@H](C(F)(F)F)O2
REMARK SMILES IDX 19 1 18 2 17 3 15 4 16 5 14 7 6 8 7 9 11 10 8 11 10 12 12 13
REMARK SMILES IDX 9 14 95 15 13 16 90 17 5 18 3 19 4 20 2 22 1 23 91 24 92 25
REMARK SMILES IDX 93 26 94 27 20 28 21 29 22 30 23 32 24 33 25 34 89 35 26 36
REMARK SMILES IDX 88 37 27 38 28 39 29 40 82 41 30 42 87 43 81 44 83 45 31 46
REMARK SMILES IDX 86 47 80 48 79 49 32 51 66 52 45 53 65 54 46 55 49 56 64 57
REMARK SMILES IDX 84 58 47 59 48 60 63 62 85 63 50 64 33 65 34 66 43 67 35 68
REMARK SMILES IDX 36 69 42 70 44 71 37 72 38 73 39 74 40 75 41 76 67 77 68 78
REMARK SMILES IDX 77 79 69 80 70 81 76 82 78 83 71 84 72 85 73 86 74 87 75 88
REMARK SMILES IDX 51 89 52 90 61 91 53 92 54 93 60 94 62 95 55 96 56 97 57 98
REMARK SMILES IDX 58 99 59 100
REMARK H PARENT 17 6 3 21 21 31 83 50 49 61
REMARK Flexibility Score: inf
ROOT
ATOM      1  C   UNL A   1      31.630  32.158  26.656  1.00  0.00     0.042 C 
ENDROOT
BRANCH   1   2
ATOM      2  C   UNL A   1      31.763  30.647  26.547  1.00  0.00     0.118 C 
BRANCH   2   3
ATOM      3  N   UNL A   1      31.665  30.189  25.169  1.00  0.00    -0.352 N 
ATOM      4  C   UNL A   1      31.729  29.010  24.509  1.00  0.00     0.251 C 
ATOM      5  O   UNL A   1      31.615  29.086  23.281  1.00  0.00    -0.270 OA
ATOM      6  H   UNL A   1      31.513  30.939  24.550  1.00  0.00     0.163 HD
BRANCH   4   7
ATOM      7  C   UNL A   1      31.897  27.674  25.151  1.00  0.00     0.067 C 
ATOM      8  C   UNL A   1      33.660  23.136  26.462  1.00  0.00     0.029 A 
ATOM      9  C   UNL A   1      32.498  23.871  26.755  1.00  0.00     0.058 A 
ATOM     10  C   UNL A   1      34.715  23.810  25.826  1.00  0.00     0.050 A 
ATOM     11  C   UNL A   1      32.348  25.182  26.316  1.00  0.00     0.128 A 
ATOM     12  C   UNL A   1      34.563  25.136  25.395  1.00  0.00     0.033 A 
ATOM     13  Cl  UNL A   1      36.257  23.075  25.557  1.00  0.00    -0.084 Cl
ATOM     14  C   UNL A   1      33.363  25.815  25.609  1.00  0.00     0.019 A 
ATOM     15  O   UNL A   1      31.174  25.798  26.633  1.00  0.00    -0.475 OA
ATOM     16  C   UNL A   1      33.143  27.164  25.109  1.00  0.00     0.025 C 
ATOM     17  C   UNL A   1      30.768  26.882  25.753  1.00  0.00     0.314 C 
BRANCH   8  18
ATOM     18  C   UNL A   1      33.679  21.662  26.819  1.00  0.00     0.300 C 
BRANCH  18  19
ATOM     19  N   UNL A   1      33.294  20.711  25.752  1.00  0.00    -0.334 N 
ATOM     20  C   UNL A   1      34.414  20.364  24.880  1.00  0.00     0.333 C 
ATOM     21  H   UNL A   1      33.008  19.885  26.276  1.00  0.00     0.348 HD
BRANCH  19  22
ATOM     22  C   UNL A   1      32.120  21.087  24.954  1.00  0.00     0.258 C 
ATOM     23  C   UNL A   1      32.471  21.605  23.564  1.00  0.00     0.071 C 
ENDBRANCH  19  22
ENDBRANCH  18  19
ENDBRANCH   8  18
BRANCH  17  24
ATOM     24  C   UNL A   1      29.792  26.319  24.702  1.00  0.00     0.429 C 
ATOM     25  F   UNL A   1      28.730  25.732  25.309  1.00  0.00    -0.167 F 
ATOM     26  F   UNL A   1      29.286  27.273  23.886  1.00  0.00    -0.167 F 
ATOM     27  F   UNL A   1      30.365  25.388  23.906  1.00  0.00    -0.167 F 
ENDBRANCH  17  24
ENDBRANCH   4   7
ENDBRANCH   2   3
ENDBRANCH   1   2
BRANCH   1  28
ATOM     28  C   UNL A   1      32.790  32.786  27.420  1.00  0.00     0.118 C 
BRANCH  28  29
ATOM     29  N   UNL A   1      32.551  34.196  27.724  1.00  0.00    -0.352 N 
ATOM     30  C   UNL A   1      33.037  34.982  28.743  1.00  0.00     0.251 C 
ATOM     31  H   UNL A   1      31.944  34.657  27.100  1.00  0.00     0.163 HD
ATOM     32  O   UNL A   1      32.528  36.079  28.960  1.00  0.00    -0.269 OA
BRANCH  30  33
ATOM     33  C   UNL A   1      34.154  34.499  29.579  1.00  0.00     0.039 A 
ATOM     34  C   UNL A   1      35.461  34.552  29.099  1.00  0.00     0.014 A 
ATOM     35  C   UNL A   1      33.896  33.984  30.853  1.00  0.00     0.014 A 
ATOM     36  C   UNL A   1      36.475  33.910  29.795  1.00  0.00     0.010 A 
ATOM     37  C   UNL A   1      34.941  33.436  31.603  1.00  0.00     0.010 A 
ATOM     38  C   UNL A   1      36.231  33.346  31.057  1.00  0.00    -0.014 A 
BRANCH  38  39
ATOM     39  C   UNL A   1      37.347  32.670  31.770  1.00  0.00     0.031 A 
ATOM     40  C   UNL A   1      38.086  31.523  31.132  1.00  0.00     0.074 A 
ATOM     41  C   UNL A   1      37.742  33.151  32.966  1.00  0.00     0.049 A 
ATOM     42  N   UNL A   1      39.089  30.828  31.605  1.00  0.00    -0.248 NA
ATOM     43  C   UNL A   1      37.646  31.092  29.794  1.00  0.00     0.031 C 
ATOM     44  C   UNL A   1      37.105  34.262  33.681  1.00  0.00     0.029 A 
ATOM     45  N   UNL A   1      38.788  32.797  33.779  1.00  0.00    -0.354 N 
ATOM     46  C   UNL A   1      39.379  29.868  30.644  1.00  0.00     0.074 A 
ATOM     47  C   UNL A   1      38.438  30.053  29.563  1.00  0.00     0.031 C 
ATOM     48  C   UNL A   1      37.809  34.538  34.787  1.00  0.00     0.029 A 
ATOM     49  C   UNL A   1      38.903  33.581  34.904  1.00  0.00     0.049 A 
ATOM     50  H   UNL A   1      39.400  32.052  33.577  1.00  0.00     0.167 HD
ATOM     51  C   UNL A   1      40.351  28.925  30.659  1.00  0.00     0.037 A 
ATOM     52  C   UNL A   1      39.775  33.525  35.927  1.00  0.00     0.037 A 
ATOM     53  C   UNL A   1      41.317  28.778  31.718  1.00  0.00     0.049 A 
ATOM     54  C   UNL A   1      40.836  32.462  35.919  1.00  0.00     0.074 A 
ATOM     55  C   UNL A   1      42.357  27.868  31.810  1.00  0.00     0.029 A 
ATOM     56  N   UNL A   1      41.372  29.565  32.858  1.00  0.00    -0.354 N 
ATOM     57  N   UNL A   1      41.084  31.557  35.003  1.00  0.00    -0.248 NA
ATOM     58  C   UNL A   1      41.724  32.400  37.087  1.00  0.00     0.031 C 
ATOM     59  C   UNL A   1      43.020  28.085  33.021  1.00  0.00     0.029 A 
ATOM     60  C   UNL A   1      42.418  29.153  33.665  1.00  0.00     0.049 A 
ATOM     61  H   UNL A   1      40.758  30.307  33.062  1.00  0.00     0.167 HD
ATOM     62  C   UNL A   1      42.157  30.819  35.486  1.00  0.00     0.074 A 
ATOM     63  C   UNL A   1      42.529  31.400  36.758  1.00  0.00     0.031 C 
ATOM     64  C   UNL A   1      42.771  29.747  34.928  1.00  0.00     0.037 A 
BRANCH  51  65
ATOM     65  C   UNL A   1      40.440  27.971  29.502  1.00  0.00     0.058 A 
ATOM     66  C   UNL A   1      41.375  28.150  28.472  1.00  0.00     0.135 A 
ATOM     67  C   UNL A   1      39.654  26.806  29.481  1.00  0.00     0.135 A 
ATOM     68  F   UNL A   1      42.136  29.255  28.434  1.00  0.00    -0.206 F 
ATOM     69  C   UNL A   1      41.535  27.204  27.464  1.00  0.00     0.059 A 
ATOM     70  C   UNL A   1      39.810  25.838  28.493  1.00  0.00     0.059 A 
ATOM     71  F   UNL A   1      38.741  26.591  30.441  1.00  0.00    -0.206 F 
ATOM     72  C   UNL A   1      40.754  26.045  27.489  1.00  0.00     0.060 A 
BRANCH  72  73
ATOM     73  S   UNL A   1      41.018  24.803  26.206  1.00  0.00     0.124 S 
ATOM     74  O   UNL A   1      39.660  24.312  25.993  1.00  0.00    -0.237 OA
ATOM     75  O   UNL A   1      41.583  25.595  25.118  1.00  0.00    -0.237 OA
ATOM     76  O   UNL A   1      41.935  23.856  26.832  1.00  0.00    -0.744 OA
ENDBRANCH  72  73
ENDBRANCH  51  65
BRANCH  52  77
ATOM     77  C   UNL A   1      39.659  34.484  37.055  1.00  0.00     0.058 A 
ATOM     78  C   UNL A   1      40.198  35.775  36.971  1.00  0.00     0.135 A 
ATOM     79  C   UNL A   1      38.995  34.129  38.240  1.00  0.00     0.135 A 
ATOM     80  F   UNL A   1      40.845  36.160  35.859  1.00  0.00    -0.206 F 
ATOM     81  C   UNL A   1      40.097  36.677  38.025  1.00  0.00     0.059 A 
ATOM     82  C   UNL A   1      38.858  35.020  39.298  1.00  0.00     0.059 A 
ATOM     83  F   UNL A   1      38.448  32.910  38.365  1.00  0.00    -0.206 F 
ATOM     84  C   UNL A   1      39.424  36.289  39.186  1.00  0.00     0.060 A 
BRANCH  84  85
ATOM     85  S   UNL A   1      39.264  37.475  40.537  1.00  0.00     0.124 S 
ATOM     86  O   UNL A   1      38.758  36.629  41.611  1.00  0.00    -0.237 OA
ATOM     87  O   UNL A   1      40.635  37.953  40.692  1.00  0.00    -0.237 OA
ATOM     88  O   UNL A   1      38.323  38.459  40.008  1.00  0.00    -0.744 OA
ENDBRANCH  84  85
ENDBRANCH  52  77
BRANCH  64  89
ATOM     89  C   UNL A   1      43.913  29.138  35.688  1.00  0.00     0.058 A 
ATOM     90  C   UNL A   1      45.217  29.640  35.566  1.00  0.00     0.135 A 
ATOM     91  C   UNL A   1      43.690  28.086  36.591  1.00  0.00     0.135 A 
ATOM     92  F   UNL A   1      45.479  30.639  34.709  1.00  0.00    -0.206 F 
ATOM     93  C   UNL A   1      46.268  29.110  36.306  1.00  0.00     0.059 A 
ATOM     94  C   UNL A   1      44.723  27.556  37.357  1.00  0.00     0.059 A 
ATOM     95  F   UNL A   1      42.458  27.579  36.747  1.00  0.00    -0.206 F 
ATOM     96  C   UNL A   1      46.010  28.070  37.201  1.00  0.00     0.060 A 
BRANCH  96  97
ATOM     97  S   UNL A   1      47.376  27.422  38.186  1.00  0.00     0.124 S 
ATOM     98  O   UNL A   1      48.509  27.632  37.291  1.00  0.00    -0.237 OA
ATOM     99  O   UNL A   1      47.338  28.272  39.372  1.00  0.00    -0.237 OA
ATOM    100  O   UNL A   1      47.002  26.028  38.410  1.00  0.00    -0.744 OA
ENDBRANCH  96  97
ENDBRANCH  64  89
ENDBRANCH  38  39
ENDBRANCH  30  33
ENDBRANCH  28  29
ENDBRANCH   1  28
TORSDOF 17
ENDMDL
MODEL 3
REMARK VINA RESULT:     -11.9      6.029      8.239
REMARK SMILES CC[N@@H+](C)Cc1cc2c(cc1Cl)C=C(C(=O)NCCCNC(=O)c1ccc(-c3c4nc(c(-c5c(F)cc(S(=O)(=O)[O-])cc5F)c5ccc([nH]5)c(-c5c(F)cc(S(=O)(=O)[O-])cc5F)c5nc(c(-c6c(F)cc(S(=O)(=O)[O-])cc6F)c6ccc3[nH]6)C=C5)C=C4)cc1)[C@@H](C(F)(F)F)O2
REMARK SMILES IDX 19 1 18 2 17 3 15 4 16 5 14 7 6 8 7 9 11 10 8 11 10 12 12 13
REMARK SMILES IDX 9 14 95 15 13 16 90 17 5 18 3 19 4 20 2 22 1 23 91 24 92 25
REMARK SMILES IDX 93 26 94 27 20 28 21 29 22 30 23 32 24 33 25 34 89 35 26 36
REMARK SMILES IDX 88 37 27 38 28 39 29 40 82 41 30 42 87 43 81 44 83 45 31 46
REMARK SMILES IDX 86 47 80 48 79 49 32 51 66 52 45 53 65 54 46 55 49 56 64 57
REMARK SMILES IDX 84 58 47 59 48 60 63 62 85 63 50 64 33 65 34 66 43 67 35 68
REMARK SMILES IDX 36 69 42 70 44 71 37 72 38 73 39 74 40 75 41 76 67 77 68 78
REMARK SMILES IDX 77 79 69 80 70 81 76 82 78 83 71 84 72 85 73 86 74 87 75 88
REMARK SMILES IDX 51 89 52 90 61 91 53 92 54 93 60 94 62 95 55 96 56 97 57 98
REMARK SMILES IDX 58 99 59 100
REMARK H PARENT 17 6 3 21 21 31 83 50 49 61
REMARK Flexibility Score: inf
ROOT
ATOM      1  C   UNL A   1      34.087  31.223  27.546  1.00  0.00     0.042 C 
ENDROOT
BRANCH   1   2
ATOM      2  C   UNL A   1      32.953  30.339  27.052  1.00  0.00     0.118 C 
BRANCH   2   3
ATOM      3  N   UNL A   1      33.057  30.064  25.627  1.00  0.00    -0.352 N 
ATOM      4  C   UNL A   1      33.068  28.974  24.826  1.00  0.00     0.251 C 
ATOM      5  O   UNL A   1      33.208  29.207  23.621  1.00  0.00    -0.270 OA
ATOM      6  H   UNL A   1      33.143  30.893  25.105  1.00  0.00     0.163 HD
BRANCH   4   7
ATOM      7  C   UNL A   1      32.904  27.566  25.289  1.00  0.00     0.067 C 
ATOM      8  C   UNL A   1      33.626  22.649  26.143  1.00  0.00     0.029 A 
ATOM      9  C   UNL A   1      32.585  23.559  26.402  1.00  0.00     0.058 A 
ATOM     10  C   UNL A   1      34.863  23.173  25.733  1.00  0.00     0.050 A 
ATOM     11  C   UNL A   1      32.735  24.915  26.137  1.00  0.00     0.128 A 
ATOM     12  C   UNL A   1      35.012  24.544  25.477  1.00  0.00     0.033 A 
ATOM     13  Cl  UNL A   1      36.270  22.187  25.540  1.00  0.00    -0.084 Cl
ATOM     14  C   UNL A   1      33.935  25.415  25.646  1.00  0.00     0.019 A 
ATOM     15  O   UNL A   1      31.658  25.708  26.401  1.00  0.00    -0.475 OA
ATOM     16  C   UNL A   1      34.032  26.830  25.318  1.00  0.00     0.025 C 
ATOM     17  C   UNL A   1      31.579  26.945  25.642  1.00  0.00     0.314 C 
BRANCH   8  18
ATOM     18  C   UNL A   1      33.331  21.168  26.289  1.00  0.00     0.300 C 
BRANCH  18  19
ATOM     19  N   UNL A   1      32.965  20.436  25.057  1.00  0.00    -0.334 N 
ATOM     20  C   UNL A   1      33.964  19.438  24.680  1.00  0.00     0.333 C 
ATOM     21  H   UNL A   1      32.101  19.963  25.322  1.00  0.00     0.348 HD
BRANCH  19  22
ATOM     22  C   UNL A   1      32.608  21.268  23.900  1.00  0.00     0.258 C 
ATOM     23  C   UNL A   1      32.109  20.463  22.705  1.00  0.00     0.071 C 
ENDBRANCH  19  22
ENDBRANCH  18  19
ENDBRANCH   8  18
BRANCH  17  24
ATOM     24  C   UNL A   1      30.673  26.710  24.418  1.00  0.00     0.429 C 
ATOM     25  F   UNL A   1      29.912  27.806  24.174  1.00  0.00    -0.167 F 
ATOM     26  F   UNL A   1      31.370  26.470  23.282  1.00  0.00    -0.167 F 
ATOM     27  F   UNL A   1      29.831  25.665  24.586  1.00  0.00    -0.167 F 
ENDBRANCH  17  24
ENDBRANCH   4   7
ENDBRANCH   2   3
ENDBRANCH   1   2
BRANCH   1  28
ATOM     28  C   UNL A   1      35.167  30.429  28.272  1.00  0.00     0.118 C 
BRANCH  28  29
ATOM     29  N   UNL A   1      35.387  30.913  29.633  1.00  0.00    -0.352 N 
ATOM     30  C   UNL A   1      36.456  30.736  30.480  1.00  0.00     0.251 C 
ATOM     31  H   UNL A   1      34.651  31.452  30.005  1.00  0.00     0.163 HD
ATOM     32  O   UNL A   1      36.345  31.024  31.669  1.00  0.00    -0.269 OA
BRANCH  30  33
ATOM     33  C   UNL A   1      37.725  30.188  29.961  1.00  0.00     0.039 A 
ATOM     34  C   UNL A   1      38.623  29.563  30.825  1.00  0.00     0.014 A 
ATOM     35  C   UNL A   1      38.027  30.301  28.600  1.00  0.00     0.014 A 
ATOM     36  C   UNL A   1      39.895  29.239  30.378  1.00  0.00     0.010 A 
ATOM     37  C   UNL A   1      39.271  29.872  28.128  1.00  0.00     0.010 A 
ATOM     38  C   UNL A   1      40.237  29.386  29.024  1.00  0.00    -0.014 A 
BRANCH  38  39
ATOM     39  C   UNL A   1      41.610  29.024  28.586  1.00  0.00     0.031 A 
ATOM     40  C   UNL A   1      42.730  30.030  28.650  1.00  0.00     0.074 A 
ATOM     41  C   UNL A   1      41.860  27.755  28.204  1.00  0.00     0.049 A 
ATOM     42  N   UNL A   1      43.987  29.882  28.321  1.00  0.00    -0.248 NA
ATOM     43  C   UNL A   1      42.401  31.380  29.142  1.00  0.00     0.031 C 
ATOM     44  C   UNL A   1      40.856  26.691  28.107  1.00  0.00     0.029 A 
ATOM     45  N   UNL A   1      43.031  27.132  27.859  1.00  0.00    -0.354 N 
ATOM     46  C   UNL A   1      44.590  31.115  28.536  1.00  0.00     0.074 A 
ATOM     47  C   UNL A   1      43.560  32.012  29.010  1.00  0.00     0.031 C 
ATOM     48  C   UNL A   1      41.462  25.537  27.793  1.00  0.00     0.029 A 
ATOM     49  C   UNL A   1      42.884  25.790  27.592  1.00  0.00     0.049 A 
ATOM     50  H   UNL A   1      43.897  27.599  27.809  1.00  0.00     0.167 HD
ATOM     51  C   UNL A   1      45.888  31.462  28.364  1.00  0.00     0.037 A 
ATOM     52  C   UNL A   1      43.785  24.868  27.207  1.00  0.00     0.037 A 
ATOM     53  C   UNL A   1      46.918  30.550  27.939  1.00  0.00     0.049 A 
ATOM     54  C   UNL A   1      45.215  25.286  27.017  1.00  0.00     0.074 A 
ATOM     55  C   UNL A   1      48.268  30.802  27.761  1.00  0.00     0.029 A 
ATOM     56  N   UNL A   1      46.719  29.211  27.638  1.00  0.00    -0.354 N 
ATOM     57  N   UNL A   1      45.760  26.462  27.216  1.00  0.00    -0.248 NA
ATOM     58  C   UNL A   1      46.150  24.260  26.534  1.00  0.00     0.031 C 
ATOM     59  C   UNL A   1      48.878  29.624  27.322  1.00  0.00     0.029 A 
ATOM     60  C   UNL A   1      47.917  28.629  27.263  1.00  0.00     0.049 A 
ATOM     61  H   UNL A   1      45.853  28.744  27.685  1.00  0.00     0.167 HD
ATOM     62  C   UNL A   1      47.100  26.317  26.883  1.00  0.00     0.074 A 
ATOM     63  C   UNL A   1      47.291  24.934  26.498  1.00  0.00     0.031 C 
ATOM     64  C   UNL A   1      48.084  27.249  26.885  1.00  0.00     0.037 A 
BRANCH  51  65
ATOM     65  C   UNL A   1      46.289  32.884  28.637  1.00  0.00     0.058 A 
ATOM     66  C   UNL A   1      46.175  33.881  27.657  1.00  0.00     0.135 A 
ATOM     67  C   UNL A   1      46.690  33.273  29.927  1.00  0.00     0.135 A 
ATOM     68  F   UNL A   1      45.817  33.559  26.404  1.00  0.00    -0.206 F 
ATOM     69  C   UNL A   1      46.436  35.216  27.946  1.00  0.00     0.059 A 
ATOM     70  C   UNL A   1      46.937  34.605  30.243  1.00  0.00     0.059 A 
ATOM     71  F   UNL A   1      46.819  32.356  30.898  1.00  0.00    -0.206 F 
ATOM     72  C   UNL A   1      46.807  35.571  29.246  1.00  0.00     0.060 A 
BRANCH  72  73
ATOM     73  S   UNL A   1      47.083  37.316  29.616  1.00  0.00     0.124 S 
ATOM     74  O   UNL A   1      47.845  37.233  30.858  1.00  0.00    -0.237 OA
ATOM     75  O   UNL A   1      47.828  37.767  28.445  1.00  0.00    -0.237 OA
ATOM     76  O   UNL A   1      45.734  37.856  29.744  1.00  0.00    -0.744 OA
ENDBRANCH  72  73
ENDBRANCH  51  65
BRANCH  52  77
ATOM     77  C   UNL A   1      43.354  23.470  26.947  1.00  0.00     0.058 A 
ATOM     78  C   UNL A   1      43.180  22.994  25.641  1.00  0.00     0.135 A 
ATOM     79  C   UNL A   1      43.118  22.578  28.006  1.00  0.00     0.135 A 
ATOM     80  F   UNL A   1      43.390  23.811  24.596  1.00  0.00    -0.206 F 
ATOM     81  C   UNL A   1      42.773  21.688  25.390  1.00  0.00     0.059 A 
ATOM     82  C   UNL A   1      42.736  21.261  27.781  1.00  0.00     0.059 A 
ATOM     83  F   UNL A   1      43.286  22.981  29.275  1.00  0.00    -0.206 F 
ATOM     84  C   UNL A   1      42.553  20.828  26.468  1.00  0.00     0.060 A 
BRANCH  84  85
ATOM     85  S   UNL A   1      42.060  19.124  26.136  1.00  0.00     0.124 S 
ATOM     86  O   UNL A   1      42.386  18.474  27.400  1.00  0.00    -0.237 OA
ATOM     87  O   UNL A   1      40.638  19.266  25.840  1.00  0.00    -0.237 OA
ATOM     88  O   UNL A   1      42.894  18.750  24.998  1.00  0.00    -0.744 OA
ENDBRANCH  84  85
ENDBRANCH  52  77
BRANCH  64  89
ATOM     89  C   UNL A   1      49.454  26.804  26.465  1.00  0.00     0.058 A 
ATOM     90  C   UNL A   1      50.333  26.200  27.376  1.00  0.00     0.135 A 
ATOM     91  C   UNL A   1      49.865  26.925  25.128  1.00  0.00     0.135 A 
ATOM     92  F   UNL A   1      49.985  26.071  28.666  1.00  0.00    -0.206 F 
ATOM     93  C   UNL A   1      51.584  25.742  26.978  1.00  0.00     0.059 A 
ATOM     94  C   UNL A   1      51.104  26.453  24.704  1.00  0.00     0.059 A 
ATOM     95  F   UNL A   1      49.055  27.489  24.219  1.00  0.00    -0.206 F 
ATOM     96  C   UNL A   1      51.958  25.870  25.639  1.00  0.00     0.060 A 
BRANCH  96  97
ATOM     97  S   UNL A   1      53.567  25.231  25.130  1.00  0.00     0.124 S 
ATOM     98  O   UNL A   1      53.656  25.721  23.758  1.00  0.00    -0.237 OA
ATOM     99  O   UNL A   1      54.472  25.860  26.088  1.00  0.00    -0.237 OA
ATOM    100  O   UNL A   1      53.420  23.785  25.273  1.00  0.00    -0.744 OA
ENDBRANCH  96  97
ENDBRANCH  64  89
ENDBRANCH  38  39
ENDBRANCH  30  33
ENDBRANCH  28  29
ENDBRANCH   1  28
TORSDOF 17
ENDMDL
