MODEL 1
REMARK VINA RESULT:     -13.0      0.000      0.000
REMARK SMILES CCc1ccc2[nH]c(C(=O)c3cc(C)ccn3)c(CC(=O)NCCCNC(=O)c3ccc(-c4c5nc(c(-c6c(F)cc(S(=O)(=O)[O-])cc6F)c6ccc([nH]6)c(-c6c(F)cc(S(=O)(=O)[O-])cc6F)c6nc(c(-c7c(F)cc(S(=O)(=O)[O-])cc7F)c7ccc4[nH]7)C=C6)C=C5)cc3)c2c1
REMARK SMILES IDX 24 1 23 2 22 3 20 4 21 5 19 7 18 8 3 9 4 10 96 11 5 12 95 13
REMARK SMILES IDX 6 14 7 15 8 16 2 18 1 19 9 20 10 21 11 22 12 23 17 24 13 25
REMARK SMILES IDX 16 26 14 27 15 28 25 29 26 30 27 31 28 33 29 34 30 35 94 36
REMARK SMILES IDX 31 37 93 38 32 39 33 40 34 41 87 42 35 43 92 44 86 45 88 46
REMARK SMILES IDX 36 47 91 48 85 49 84 50 37 52 71 53 50 54 70 55 51 56 54 57
REMARK SMILES IDX 69 58 89 59 52 60 53 61 68 63 90 64 55 65 38 66 39 67 48 68
REMARK SMILES IDX 40 69 41 70 47 71 49 72 42 73 43 74 44 75 45 76 46 77 72 78
REMARK SMILES IDX 73 79 82 80 74 81 75 82 81 83 83 84 76 85 77 86 78 87 79 88
REMARK SMILES IDX 80 89 56 90 57 91 66 92 58 93 59 94 65 95 67 96 60 97 61 98
REMARK SMILES IDX 62 99 63 100 64 101
REMARK H PARENT 22 6 7 17 26 32 88 51 54 62
REMARK Flexibility Score: inf
ROOT
ATOM      1  C   UNL A   1      33.997  31.324  27.560  1.00  0.00     0.042 C 
ENDROOT
BRANCH   1   2
ATOM      2  C   UNL A   1      33.043  30.404  26.807  1.00  0.00     0.117 C 
BRANCH   2   3
ATOM      3  N   UNL A   1      33.686  29.652  25.749  1.00  0.00    -0.356 N 
ATOM      4  C   UNL A   1      33.576  28.330  25.426  1.00  0.00     0.224 C 
ATOM      5  O   UNL A   1      34.047  27.984  24.338  1.00  0.00    -0.275 OA
ATOM      6  H   UNL A   1      34.294  30.174  25.176  1.00  0.00     0.163 HD
BRANCH   4   7
ATOM      7  C   UNL A   1      32.791  27.359  26.301  1.00  0.00     0.138 C 
BRANCH   7   8
ATOM      8  C   UNL A   1      31.615  26.702  25.626  1.00  0.00    -0.002 A 
ATOM      9  C   UNL A   1      29.449  29.058  23.489  1.00  0.00    -0.048 A 
ATOM     10  C   UNL A   1      28.486  28.088  23.180  1.00  0.00     0.006 A 
ATOM     11  C   UNL A   1      30.552  28.685  24.273  1.00  0.00     0.014 A 
ATOM     12  C   UNL A   1      28.593  26.766  23.632  1.00  0.00     0.027 A 
ATOM     13  C   UNL A   1      30.677  27.364  24.763  1.00  0.00     0.004 A 
ATOM     14  C   UNL A   1      29.698  26.439  24.423  1.00  0.00     0.046 A 
ATOM     15  N   UNL A   1      30.042  25.250  25.018  1.00  0.00    -0.352 N 
ATOM     16  C   UNL A   1      31.251  25.354  25.676  1.00  0.00     0.093 A 
ATOM     17  H   UNL A   1      29.498  24.431  24.980  1.00  0.00     0.167 HD
BRANCH   9  18
ATOM     18  C   UNL A   1      29.227  30.470  22.990  1.00  0.00     0.032 C 
ATOM     19  C   UNL A   1      27.960  31.177  23.460  1.00  0.00     0.009 C 
ENDBRANCH   9  18
BRANCH  16  20
ATOM     20  C   UNL A   1      31.966  24.248  26.308  1.00  0.00     0.227 C 
ATOM     21  O   UNL A   1      31.673  23.806  27.419  1.00  0.00    -0.285 OA
BRANCH  20  22
ATOM     22  C   UNL A   1      33.156  23.666  25.635  1.00  0.00     0.113 A 
ATOM     23  C   UNL A   1      34.433  24.033  26.050  1.00  0.00     0.036 A 
ATOM     24  N   UNL A   1      32.910  22.754  24.661  1.00  0.00    -0.253 NA
ATOM     25  C   UNL A   1      35.530  23.434  25.428  1.00  0.00    -0.047 A 
ATOM     26  C   UNL A   1      33.986  22.170  24.096  1.00  0.00     0.112 A 
ATOM     27  C   UNL A   1      36.933  23.771  25.833  1.00  0.00     0.044 C 
ATOM     28  C   UNL A   1      35.294  22.474  24.440  1.00  0.00     0.023 A 
ENDBRANCH  20  22
ENDBRANCH  16  20
ENDBRANCH   7   8
ENDBRANCH   4   7
ENDBRANCH   2   3
ENDBRANCH   1   2
BRANCH   1  29
ATOM     29  C   UNL A   1      35.175  30.615  28.223  1.00  0.00     0.118 C 
BRANCH  29  30
ATOM     30  N   UNL A   1      35.327  30.968  29.625  1.00  0.00    -0.352 N 
ATOM     31  C   UNL A   1      36.377  30.778  30.488  1.00  0.00     0.251 C 
ATOM     32  H   UNL A   1      34.546  31.416  30.023  1.00  0.00     0.163 HD
ATOM     33  O   UNL A   1      36.207  31.010  31.684  1.00  0.00    -0.269 OA
BRANCH  31  34
ATOM     34  C   UNL A   1      37.697  30.295  30.015  1.00  0.00     0.039 A 
ATOM     35  C   UNL A   1      38.600  29.799  30.964  1.00  0.00     0.014 A 
ATOM     36  C   UNL A   1      38.090  30.396  28.678  1.00  0.00     0.014 A 
ATOM     37  C   UNL A   1      39.874  29.379  30.570  1.00  0.00     0.010 A 
ATOM     38  C   UNL A   1      39.336  29.916  28.274  1.00  0.00     0.010 A 
ATOM     39  C   UNL A   1      40.248  29.422  29.218  1.00  0.00    -0.014 A 
BRANCH  39  40
ATOM     40  C   UNL A   1      41.605  29.000  28.786  1.00  0.00     0.031 A 
ATOM     41  C   UNL A   1      42.732  29.998  28.756  1.00  0.00     0.074 A 
ATOM     42  C   UNL A   1      41.819  27.734  28.378  1.00  0.00     0.049 A 
ATOM     43  N   UNL A   1      43.970  29.838  28.364  1.00  0.00    -0.248 NA
ATOM     44  C   UNL A   1      42.416  31.364  29.200  1.00  0.00     0.031 C 
ATOM     45  C   UNL A   1      40.803  26.680  28.325  1.00  0.00     0.029 A 
ATOM     46  N   UNL A   1      42.960  27.119  27.928  1.00  0.00    -0.354 N 
ATOM     47  C   UNL A   1      44.571  31.086  28.485  1.00  0.00     0.074 A 
ATOM     48  C   UNL A   1      43.550  32.000  28.952  1.00  0.00     0.031 C 
ATOM     49  C   UNL A   1      41.375  25.543  27.897  1.00  0.00     0.029 A 
ATOM     50  C   UNL A   1      42.787  25.792  27.618  1.00  0.00     0.049 A 
ATOM     51  H   UNL A   1      43.822  27.586  27.837  1.00  0.00     0.167 HD
ATOM     52  C   UNL A   1      45.857  31.438  28.245  1.00  0.00     0.037 A 
ATOM     53  C   UNL A   1      43.669  24.878  27.170  1.00  0.00     0.037 A 
ATOM     54  C   UNL A   1      46.882  30.518  27.824  1.00  0.00     0.049 A 
ATOM     55  C   UNL A   1      45.101  25.277  26.956  1.00  0.00     0.074 A 
ATOM     56  C   UNL A   1      48.227  30.763  27.611  1.00  0.00     0.029 A 
ATOM     57  N   UNL A   1      46.674  29.174  27.558  1.00  0.00    -0.354 N 
ATOM     58  N   UNL A   1      45.663  26.451  27.116  1.00  0.00    -0.248 NA
ATOM     59  C   UNL A   1      46.024  24.223  26.509  1.00  0.00     0.031 C 
ATOM     60  C   UNL A   1      48.829  29.568  27.196  1.00  0.00     0.029 A 
ATOM     61  C   UNL A   1      47.864  28.575  27.179  1.00  0.00     0.049 A 
ATOM     62  H   UNL A   1      45.807  28.711  27.628  1.00  0.00     0.167 HD
ATOM     63  C   UNL A   1      47.010  26.272  26.823  1.00  0.00     0.074 A 
ATOM     64  C   UNL A   1      47.178  24.876  26.473  1.00  0.00     0.031 C 
ATOM     65  C   UNL A   1      48.016  27.181  26.848  1.00  0.00     0.037 A 
BRANCH  52  66
ATOM     66  C   UNL A   1      46.217  32.885  28.430  1.00  0.00     0.058 A 
ATOM     67  C   UNL A   1      46.159  33.803  27.369  1.00  0.00     0.135 A 
ATOM     68  C   UNL A   1      46.647  33.358  29.680  1.00  0.00     0.135 A 
ATOM     69  F   UNL A   1      45.768  33.400  26.149  1.00  0.00    -0.206 F 
ATOM     70  C   UNL A   1      46.562  35.125  27.526  1.00  0.00     0.059 A 
ATOM     71  C   UNL A   1      47.032  34.683  29.867  1.00  0.00     0.059 A 
ATOM     72  F   UNL A   1      46.719  32.524  30.731  1.00  0.00    -0.206 F 
ATOM     73  C   UNL A   1      47.010  35.552  28.777  1.00  0.00     0.060 A 
BRANCH  73  74
ATOM     74  S   UNL A   1      47.572  37.257  28.966  1.00  0.00     0.124 S 
ATOM     75  O   UNL A   1      47.660  37.686  27.573  1.00  0.00    -0.237 OA
ATOM     76  O   UNL A   1      46.498  37.863  29.746  1.00  0.00    -0.237 OA
ATOM     77  O   UNL A   1      48.846  37.116  29.663  1.00  0.00    -0.744 OA
ENDBRANCH  73  74
ENDBRANCH  52  66
BRANCH  53  78
ATOM     78  C   UNL A   1      43.226  23.477  26.957  1.00  0.00     0.058 A 
ATOM     79  C   UNL A   1      43.031  22.981  25.659  1.00  0.00     0.135 A 
ATOM     80  C   UNL A   1      43.031  22.598  28.032  1.00  0.00     0.135 A 
ATOM     81  F   UNL A   1      43.201  23.788  24.602  1.00  0.00    -0.206 F 
ATOM     82  C   UNL A   1      42.655  21.662  25.433  1.00  0.00     0.059 A 
ATOM     83  C   UNL A   1      42.671  21.269  27.831  1.00  0.00     0.059 A 
ATOM     84  F   UNL A   1      43.221  23.023  29.291  1.00  0.00    -0.206 F 
ATOM     85  C   UNL A   1      42.483  20.812  26.526  1.00  0.00     0.060 A 
BRANCH  85  86
ATOM     86  S   UNL A   1      42.071  19.079  26.221  1.00  0.00     0.124 S 
ATOM     87  O   UNL A   1      42.985  18.747  25.135  1.00  0.00    -0.237 OA
ATOM     88  O   UNL A   1      42.359  18.460  27.511  1.00  0.00    -0.237 OA
ATOM     89  O   UNL A   1      40.657  19.132  25.864  1.00  0.00    -0.744 OA
ENDBRANCH  85  86
ENDBRANCH  53  78
BRANCH  65  90
ATOM     90  C   UNL A   1      49.397  26.683  26.531  1.00  0.00     0.058 A 
ATOM     91  C   UNL A   1      50.238  26.160  27.524  1.00  0.00     0.135 A 
ATOM     92  C   UNL A   1      49.869  26.699  25.209  1.00  0.00     0.135 A 
ATOM     93  F   UNL A   1      49.835  26.130  28.804  1.00  0.00    -0.206 F 
ATOM     94  C   UNL A   1      51.513  25.690  27.220  1.00  0.00     0.059 A 
ATOM     95  C   UNL A   1      51.131  26.216  24.879  1.00  0.00     0.059 A 
ATOM     96  F   UNL A   1      49.098  27.181  24.222  1.00  0.00    -0.206 F 
ATOM     97  C   UNL A   1      51.951  25.726  25.895  1.00  0.00     0.060 A 
BRANCH  97  98
ATOM     98  S   UNL A   1      53.597  25.092  25.504  1.00  0.00     0.124 S 
ATOM     99  O   UNL A   1      54.339  25.442  26.710  1.00  0.00    -0.237 OA
ATOM    100  O   UNL A   1      53.349  23.668  25.303  1.00  0.00    -0.237 OA
ATOM    101  O   UNL A   1      53.965  25.832  24.300  1.00  0.00    -0.744 OA
ENDBRANCH  97  98
ENDBRANCH  65  90
ENDBRANCH  39  40
ENDBRANCH  31  34
ENDBRANCH  29  30
ENDBRANCH   1  29
TORSDOF 17
ENDMDL
MODEL 2
REMARK VINA RESULT:     -12.7      6.358     12.011
REMARK SMILES CCc1ccc2[nH]c(C(=O)c3cc(C)ccn3)c(CC(=O)NCCCNC(=O)c3ccc(-c4c5nc(c(-c6c(F)cc(S(=O)(=O)[O-])cc6F)c6ccc([nH]6)c(-c6c(F)cc(S(=O)(=O)[O-])cc6F)c6nc(c(-c7c(F)cc(S(=O)(=O)[O-])cc7F)c7ccc4[nH]7)C=C6)C=C5)cc3)c2c1
REMARK SMILES IDX 24 1 23 2 22 3 20 4 21 5 19 7 18 8 3 9 4 10 96 11 5 12 95 13
REMARK SMILES IDX 6 14 7 15 8 16 2 18 1 19 9 20 10 21 11 22 12 23 17 24 13 25
REMARK SMILES IDX 16 26 14 27 15 28 25 29 26 30 27 31 28 33 29 34 30 35 94 36
REMARK SMILES IDX 31 37 93 38 32 39 33 40 34 41 87 42 35 43 92 44 86 45 88 46
REMARK SMILES IDX 36 47 91 48 85 49 84 50 37 52 71 53 50 54 70 55 51 56 54 57
REMARK SMILES IDX 69 58 89 59 52 60 53 61 68 63 90 64 55 65 38 66 39 67 48 68
REMARK SMILES IDX 40 69 41 70 47 71 49 72 42 73 43 74 44 75 45 76 46 77 72 78
REMARK SMILES IDX 73 79 82 80 74 81 75 82 81 83 83 84 76 85 77 86 78 87 79 88
REMARK SMILES IDX 80 89 56 90 57 91 66 92 58 93 59 94 65 95 67 96 60 97 61 98
REMARK SMILES IDX 62 99 63 100 64 101
REMARK H PARENT 22 6 7 17 26 32 88 51 54 62
REMARK Flexibility Score: inf
ROOT
ATOM      1  C   UNL A   1      38.652  23.794  26.528  1.00  0.00     0.042 C 
ENDROOT
BRANCH   1   2
ATOM      2  C   UNL A   1      37.739  22.694  25.998  1.00  0.00     0.117 C 
BRANCH   2   3
ATOM      3  N   UNL A   1      37.645  22.672  24.553  1.00  0.00    -0.356 N 
ATOM      4  C   UNL A   1      36.669  23.161  23.732  1.00  0.00     0.224 C 
ATOM      5  O   UNL A   1      36.937  23.223  22.528  1.00  0.00    -0.275 OA
ATOM      6  H   UNL A   1      38.401  22.238  24.092  1.00  0.00     0.163 HD
BRANCH   4   7
ATOM      7  C   UNL A   1      35.369  23.728  24.291  1.00  0.00     0.138 C 
BRANCH   7   8
ATOM      8  C   UNL A   1      34.120  23.274  23.582  1.00  0.00    -0.002 A 
ATOM      9  C   UNL A   1      33.295  19.537  23.984  1.00  0.00    -0.048 A 
ATOM     10  C   UNL A   1      32.194  19.564  23.118  1.00  0.00     0.006 A 
ATOM     11  C   UNL A   1      33.986  20.734  24.231  1.00  0.00     0.014 A 
ATOM     12  C   UNL A   1      31.768  20.744  22.495  1.00  0.00     0.027 A 
ATOM     13  C   UNL A   1      33.594  21.937  23.600  1.00  0.00     0.004 A 
ATOM     14  C   UNL A   1      32.493  21.911  22.755  1.00  0.00     0.046 A 
ATOM     15  N   UNL A   1      32.325  23.186  22.270  1.00  0.00    -0.352 N 
ATOM     16  C   UNL A   1      33.239  24.055  22.829  1.00  0.00     0.093 A 
ATOM     17  H   UNL A   1      31.641  23.445  21.612  1.00  0.00     0.167 HD
BRANCH   9  18
ATOM     18  C   UNL A   1      33.705  18.206  24.579  1.00  0.00     0.032 C 
ATOM     19  C   UNL A   1      33.776  17.017  23.627  1.00  0.00     0.009 C 
ENDBRANCH   9  18
BRANCH  16  20
ATOM     20  C   UNL A   1      33.261  25.502  22.627  1.00  0.00     0.227 C 
ATOM     21  O   UNL A   1      33.884  26.044  21.716  1.00  0.00    -0.285 OA
BRANCH  20  22
ATOM     22  C   UNL A   1      32.572  26.386  23.603  1.00  0.00     0.113 A 
ATOM     23  C   UNL A   1      33.269  27.435  24.196  1.00  0.00     0.036 A 
ATOM     24  N   UNL A   1      31.258  26.130  23.823  1.00  0.00    -0.253 NA
ATOM     25  C   UNL A   1      32.580  28.276  25.073  1.00  0.00    -0.047 A 
ATOM     26  C   UNL A   1      30.610  26.973  24.652  1.00  0.00     0.112 A 
ATOM     27  C   UNL A   1      33.262  29.433  25.737  1.00  0.00     0.044 C 
ATOM     28  C   UNL A   1      31.220  28.042  25.292  1.00  0.00     0.023 A 
ENDBRANCH  20  22
ENDBRANCH  16  20
ENDBRANCH   7   8
ENDBRANCH   4   7
ENDBRANCH   2   3
ENDBRANCH   1   2
BRANCH   1  29
ATOM     29  C   UNL A   1      40.022  23.313  26.995  1.00  0.00     0.118 C 
BRANCH  29  30
ATOM     30  N   UNL A   1      41.113  23.871  26.212  1.00  0.00    -0.352 N 
ATOM     31  C   UNL A   1      41.722  25.099  26.271  1.00  0.00     0.251 C 
ATOM     32  H   UNL A   1      41.475  23.268  25.523  1.00  0.00     0.163 HD
ATOM     33  O   UNL A   1      42.517  25.406  25.385  1.00  0.00    -0.269 OA
BRANCH  31  34
ATOM     34  C   UNL A   1      41.438  26.057  27.367  1.00  0.00     0.039 A 
ATOM     35  C   UNL A   1      42.199  27.231  27.434  1.00  0.00     0.014 A 
ATOM     36  C   UNL A   1      40.503  25.786  28.368  1.00  0.00     0.014 A 
ATOM     37  C   UNL A   1      42.000  28.140  28.477  1.00  0.00     0.010 A 
ATOM     38  C   UNL A   1      40.257  26.724  29.372  1.00  0.00     0.010 A 
ATOM     39  C   UNL A   1      41.017  27.900  29.449  1.00  0.00    -0.014 A 
BRANCH  39  40
ATOM     40  C   UNL A   1      40.808  28.844  30.576  1.00  0.00     0.031 A 
ATOM     41  C   UNL A   1      41.680  28.762  31.801  1.00  0.00     0.074 A 
ATOM     42  C   UNL A   1      39.809  29.747  30.523  1.00  0.00     0.049 A 
ATOM     43  N   UNL A   1      41.624  29.461  32.906  1.00  0.00    -0.248 NA
ATOM     44  C   UNL A   1      42.738  27.740  31.791  1.00  0.00     0.031 C 
ATOM     45  C   UNL A   1      38.871  29.904  29.409  1.00  0.00     0.029 A 
ATOM     46  N   UNL A   1      39.414  30.699  31.427  1.00  0.00    -0.354 N 
ATOM     47  C   UNL A   1      42.615  28.944  33.732  1.00  0.00     0.074 A 
ATOM     48  C   UNL A   1      43.233  27.849  33.015  1.00  0.00     0.031 C 
ATOM     49  C   UNL A   1      38.030  30.914  29.685  1.00  0.00     0.029 A 
ATOM     50  C   UNL A   1      38.349  31.456  31.003  1.00  0.00     0.049 A 
ATOM     51  H   UNL A   1      39.854  30.829  32.299  1.00  0.00     0.167 HD
ATOM     52  C   UNL A   1      42.989  29.352  34.970  1.00  0.00     0.037 A 
ATOM     53  C   UNL A   1      37.708  32.477  31.605  1.00  0.00     0.037 A 
ATOM     54  C   UNL A   1      42.405  30.469  35.664  1.00  0.00     0.049 A 
ATOM     55  C   UNL A   1      38.169  32.944  32.956  1.00  0.00     0.074 A 
ATOM     56  C   UNL A   1      42.752  30.999  36.894  1.00  0.00     0.029 A 
ATOM     57  N   UNL A   1      41.353  31.234  35.183  1.00  0.00    -0.354 N 
ATOM     58  N   UNL A   1      39.136  32.473  33.706  1.00  0.00    -0.248 NA
ATOM     59  C   UNL A   1      37.458  34.091  33.539  1.00  0.00     0.031 C 
ATOM     60  C   UNL A   1      41.895  32.073  37.167  1.00  0.00     0.029 A 
ATOM     61  C   UNL A   1      41.035  32.229  36.092  1.00  0.00     0.049 A 
ATOM     62  H   UNL A   1      40.898  31.091  34.321  1.00  0.00     0.167 HD
ATOM     63  C   UNL A   1      39.173  33.283  34.834  1.00  0.00     0.074 A 
ATOM     64  C   UNL A   1      38.129  34.275  34.669  1.00  0.00     0.031 C 
ATOM     65  C   UNL A   1      40.001  33.216  35.906  1.00  0.00     0.037 A 
BRANCH  52  66
ATOM     66  C   UNL A   1      44.081  28.572  35.646  1.00  0.00     0.058 A 
ATOM     67  C   UNL A   1      43.799  27.503  36.511  1.00  0.00     0.135 A 
ATOM     68  C   UNL A   1      45.429  28.912  35.445  1.00  0.00     0.135 A 
ATOM     69  F   UNL A   1      42.527  27.145  36.750  1.00  0.00    -0.206 F 
ATOM     70  C   UNL A   1      44.809  26.830  37.192  1.00  0.00     0.059 A 
ATOM     71  C   UNL A   1      46.458  28.237  36.096  1.00  0.00     0.059 A 
ATOM     72  F   UNL A   1      45.756  29.925  34.625  1.00  0.00    -0.206 F 
ATOM     73  C   UNL A   1      46.135  27.214  36.987  1.00  0.00     0.060 A 
BRANCH  73  74
ATOM     74  S   UNL A   1      47.439  26.367  37.905  1.00  0.00     0.124 S 
ATOM     75  O   UNL A   1      46.734  25.995  39.128  1.00  0.00    -0.237 OA
ATOM     76  O   UNL A   1      47.789  25.263  37.017  1.00  0.00    -0.237 OA
ATOM     77  O   UNL A   1      48.465  27.393  38.057  1.00  0.00    -0.744 OA
ENDBRANCH  73  74
ENDBRANCH  52  66
BRANCH  53  78
ATOM     78  C   UNL A   1      36.599  33.164  30.896  1.00  0.00     0.058 A 
ATOM     79  C   UNL A   1      35.268  32.967  31.294  1.00  0.00     0.135 A 
ATOM     80  C   UNL A   1      36.844  34.057  29.843  1.00  0.00     0.135 A 
ATOM     81  F   UNL A   1      34.988  32.117  32.293  1.00  0.00    -0.206 F 
ATOM     82  C   UNL A   1      34.217  33.630  30.672  1.00  0.00     0.059 A 
ATOM     83  C   UNL A   1      35.810  34.745  29.216  1.00  0.00     0.059 A 
ATOM     84  F   UNL A   1      38.102  34.289  29.438  1.00  0.00    -0.206 F 
ATOM     85  C   UNL A   1      34.499  34.522  29.636  1.00  0.00     0.060 A 
BRANCH  85  86
ATOM     86  S   UNL A   1      33.135  35.438  28.886  1.00  0.00     0.124 S 
ATOM     87  O   UNL A   1      32.464  34.394  28.123  1.00  0.00    -0.237 OA
ATOM     88  O   UNL A   1      32.417  35.938  30.055  1.00  0.00    -0.237 OA
ATOM     89  O   UNL A   1      33.816  36.461  28.096  1.00  0.00    -0.744 OA
ENDBRANCH  85  86
ENDBRANCH  53  78
BRANCH  65  90
ATOM     90  C   UNL A   1      39.842  34.271  36.962  1.00  0.00     0.058 A 
ATOM     91  C   UNL A   1      40.461  35.524  36.853  1.00  0.00     0.135 A 
ATOM     92  C   UNL A   1      39.029  34.034  38.082  1.00  0.00     0.135 A 
ATOM     93  F   UNL A   1      41.254  35.797  35.804  1.00  0.00    -0.206 F 
ATOM     94  C   UNL A   1      40.299  36.501  37.831  1.00  0.00     0.059 A 
ATOM     95  C   UNL A   1      38.836  35.002  39.062  1.00  0.00     0.059 A 
ATOM     96  F   UNL A   1      38.407  32.853  38.228  1.00  0.00    -0.206 F 
ATOM     97  C   UNL A   1      39.488  36.229  38.934  1.00  0.00     0.060 A 
BRANCH  97  98
ATOM     98  S   UNL A   1      39.261  37.509  40.188  1.00  0.00     0.124 S 
ATOM     99  O   UNL A   1      38.823  36.720  41.334  1.00  0.00    -0.237 OA
ATOM    100  O   UNL A   1      40.596  38.091  40.292  1.00  0.00    -0.237 OA
ATOM    101  O   UNL A   1      38.249  38.381  39.599  1.00  0.00    -0.744 OA
ENDBRANCH  97  98
ENDBRANCH  65  90
ENDBRANCH  39  40
ENDBRANCH  31  34
ENDBRANCH  29  30
ENDBRANCH   1  29
TORSDOF 17
ENDMDL
MODEL 3
REMARK VINA RESULT:     -12.6      4.288      9.723
REMARK SMILES CCc1ccc2[nH]c(C(=O)c3cc(C)ccn3)c(CC(=O)NCCCNC(=O)c3ccc(-c4c5nc(c(-c6c(F)cc(S(=O)(=O)[O-])cc6F)c6ccc([nH]6)c(-c6c(F)cc(S(=O)(=O)[O-])cc6F)c6nc(c(-c7c(F)cc(S(=O)(=O)[O-])cc7F)c7ccc4[nH]7)C=C6)C=C5)cc3)c2c1
REMARK SMILES IDX 24 1 23 2 22 3 20 4 21 5 19 7 18 8 3 9 4 10 96 11 5 12 95 13
REMARK SMILES IDX 6 14 7 15 8 16 2 18 1 19 9 20 10 21 11 22 12 23 17 24 13 25
REMARK SMILES IDX 16 26 14 27 15 28 25 29 26 30 27 31 28 33 29 34 30 35 94 36
REMARK SMILES IDX 31 37 93 38 32 39 33 40 34 41 87 42 35 43 92 44 86 45 88 46
REMARK SMILES IDX 36 47 91 48 85 49 84 50 37 52 71 53 50 54 70 55 51 56 54 57
REMARK SMILES IDX 69 58 89 59 52 60 53 61 68 63 90 64 55 65 38 66 39 67 48 68
REMARK SMILES IDX 40 69 41 70 47 71 49 72 42 73 43 74 44 75 45 76 46 77 72 78
REMARK SMILES IDX 73 79 82 80 74 81 75 82 81 83 83 84 76 85 77 86 78 87 79 88
REMARK SMILES IDX 80 89 56 90 57 91 66 92 58 93 59 94 65 95 67 96 60 97 61 98
REMARK SMILES IDX 62 99 63 100 64 101
REMARK H PARENT 22 6 7 17 26 32 88 51 54 62
REMARK Flexibility Score: inf
ROOT
ATOM      1  C   UNL A   1      35.520  23.458  25.315  1.00  0.00     0.042 C 
ENDROOT
BRANCH   1   2
ATOM      2  C   UNL A   1      34.529  24.608  25.447  1.00  0.00     0.117 C 
BRANCH   2   3
ATOM      3  N   UNL A   1      34.248  25.272  24.191  1.00  0.00    -0.356 N 
ATOM      4  C   UNL A   1      33.408  26.314  23.922  1.00  0.00     0.224 C 
ATOM      5  O   UNL A   1      33.523  26.847  22.814  1.00  0.00    -0.275 OA
ATOM      6  H   UNL A   1      34.738  24.917  23.413  1.00  0.00     0.163 HD
BRANCH   4   7
ATOM      7  C   UNL A   1      32.472  26.878  24.985  1.00  0.00     0.138 C 
BRANCH   7   8
ATOM      8  C   UNL A   1      31.008  26.615  24.747  1.00  0.00    -0.002 A 
ATOM      9  C   UNL A   1      29.187  29.316  22.698  1.00  0.00    -0.048 A 
ATOM     10  C   UNL A   1      27.921  28.731  22.827  1.00  0.00     0.006 A 
ATOM     11  C   UNL A   1      30.291  28.667  23.276  1.00  0.00     0.014 A 
ATOM     12  C   UNL A   1      27.727  27.526  23.515  1.00  0.00     0.027 A 
ATOM     13  C   UNL A   1      30.124  27.461  23.996  1.00  0.00     0.004 A 
ATOM     14  C   UNL A   1      28.848  26.920  24.090  1.00  0.00     0.046 A 
ATOM     15  N   UNL A   1      28.951  25.769  24.833  1.00  0.00    -0.352 N 
ATOM     16  C   UNL A   1      30.265  25.507  25.165  1.00  0.00     0.093 A 
ATOM     17  H   UNL A   1      28.188  25.205  25.093  1.00  0.00     0.167 HD
BRANCH   9  18
ATOM     18  C   UNL A   1      29.293  30.640  21.972  1.00  0.00     0.032 C 
ATOM     19  C   UNL A   1      28.105  31.051  21.109  1.00  0.00     0.009 C 
ENDBRANCH   9  18
BRANCH  16  20
ATOM     20  C   UNL A   1      30.740  24.303  25.842  1.00  0.00     0.227 C 
ATOM     21  O   UNL A   1      30.701  24.160  27.063  1.00  0.00    -0.285 OA
BRANCH  20  22
ATOM     22  C   UNL A   1      31.380  23.222  25.048  1.00  0.00     0.113 A 
ATOM     23  C   UNL A   1      31.811  22.061  25.685  1.00  0.00     0.036 A 
ATOM     24  N   UNL A   1      31.461  23.426  23.710  1.00  0.00    -0.253 NA
ATOM     25  C   UNL A   1      32.366  21.045  24.904  1.00  0.00    -0.047 A 
ATOM     26  C   UNL A   1      31.974  22.419  22.977  1.00  0.00     0.112 A 
ATOM     27  C   UNL A   1      32.839  19.763  25.519  1.00  0.00     0.044 C 
ATOM     28  C   UNL A   1      32.435  21.229  23.520  1.00  0.00     0.023 A 
ENDBRANCH  20  22
ENDBRANCH  16  20
ENDBRANCH   7   8
ENDBRANCH   4   7
ENDBRANCH   2   3
ENDBRANCH   1   2
BRANCH   1  29
ATOM     29  C   UNL A   1      36.946  23.882  24.976  1.00  0.00     0.118 C 
BRANCH  29  30
ATOM     30  N   UNL A   1      37.932  22.873  25.328  1.00  0.00    -0.352 N 
ATOM     31  C   UNL A   1      39.083  22.966  26.069  1.00  0.00     0.251 C 
ATOM     32  H   UNL A   1      37.744  21.974  24.975  1.00  0.00     0.163 HD
ATOM     33  O   UNL A   1      39.851  22.005  26.088  1.00  0.00    -0.269 OA
BRANCH  31  34
ATOM     34  C   UNL A   1      39.422  24.191  26.834  1.00  0.00     0.039 A 
ATOM     35  C   UNL A   1      40.221  25.159  26.213  1.00  0.00     0.014 A 
ATOM     36  C   UNL A   1      39.038  24.365  28.165  1.00  0.00     0.014 A 
ATOM     37  C   UNL A   1      40.605  26.307  26.913  1.00  0.00     0.010 A 
ATOM     38  C   UNL A   1      39.366  25.541  28.842  1.00  0.00     0.010 A 
ATOM     39  C   UNL A   1      40.170  26.513  28.231  1.00  0.00    -0.014 A 
BRANCH  39  40
ATOM     40  C   UNL A   1      40.587  27.717  28.995  1.00  0.00     0.031 A 
ATOM     41  C   UNL A   1      41.951  27.772  29.629  1.00  0.00     0.074 A 
ATOM     42  C   UNL A   1      39.728  28.742  29.159  1.00  0.00     0.049 A 
ATOM     43  N   UNL A   1      42.481  28.708  30.374  1.00  0.00    -0.248 NA
ATOM     44  C   UNL A   1      42.825  26.607  29.419  1.00  0.00     0.031 C 
ATOM     45  C   UNL A   1      38.365  28.796  28.626  1.00  0.00     0.029 A 
ATOM     46  N   UNL A   1      39.874  29.933  29.823  1.00  0.00    -0.354 N 
ATOM     47  C   UNL A   1      43.734  28.233  30.747  1.00  0.00     0.074 A 
ATOM     48  C   UNL A   1      43.869  26.911  30.175  1.00  0.00     0.031 C 
ATOM     49  C   UNL A   1      37.812  29.974  28.960  1.00  0.00     0.029 A 
ATOM     50  C   UNL A   1      38.767  30.744  29.752  1.00  0.00     0.049 A 
ATOM     51  H   UNL A   1      40.695  30.184  30.305  1.00  0.00     0.167 HD
ATOM     52  C   UNL A   1      44.691  28.847  31.484  1.00  0.00     0.037 A 
ATOM     53  C   UNL A   1      38.551  31.973  30.259  1.00  0.00     0.037 A 
ATOM     54  C   UNL A   1      44.573  30.180  32.014  1.00  0.00     0.049 A 
ATOM     55  C   UNL A   1      39.643  32.655  31.033  1.00  0.00     0.074 A 
ATOM     56  C   UNL A   1      45.509  30.913  32.723  1.00  0.00     0.029 A 
ATOM     57  N   UNL A   1      43.450  30.983  31.887  1.00  0.00    -0.354 N 
ATOM     58  N   UNL A   1      40.838  32.210  31.340  1.00  0.00    -0.248 NA
ATOM     59  C   UNL A   1      39.361  34.013  31.522  1.00  0.00     0.031 C 
ATOM     60  C   UNL A   1      44.942  32.154  33.042  1.00  0.00     0.029 A 
ATOM     61  C   UNL A   1      43.666  32.203  32.506  1.00  0.00     0.049 A 
ATOM     62  H   UNL A   1      42.620  30.724  31.424  1.00  0.00     0.167 HD
ATOM     63  C   UNL A   1      41.464  33.243  32.028  1.00  0.00     0.074 A 
ATOM     64  C   UNL A   1      40.514  34.335  32.095  1.00  0.00     0.031 C 
ATOM     65  C   UNL A   1      42.714  33.284  32.551  1.00  0.00     0.037 A 
BRANCH  52  66
ATOM     66  C   UNL A   1      45.946  28.068  31.759  1.00  0.00     0.058 A 
ATOM     67  C   UNL A   1      47.070  28.157  30.922  1.00  0.00     0.135 A 
ATOM     68  C   UNL A   1      46.019  27.202  32.862  1.00  0.00     0.135 A 
ATOM     69  F   UNL A   1      47.048  28.959  29.846  1.00  0.00    -0.206 F 
ATOM     70  C   UNL A   1      48.203  27.379  31.139  1.00  0.00     0.059 A 
ATOM     71  C   UNL A   1      47.152  26.433  33.113  1.00  0.00     0.059 A 
ATOM     72  F   UNL A   1      44.974  27.080  33.697  1.00  0.00    -0.206 F 
ATOM     73  C   UNL A   1      48.229  26.510  32.230  1.00  0.00     0.060 A 
BRANCH  73  74
ATOM     74  S   UNL A   1      49.684  25.471  32.483  1.00  0.00     0.124 S 
ATOM     75  O   UNL A   1      50.645  26.444  32.995  1.00  0.00    -0.237 OA
ATOM     76  O   UNL A   1      49.209  24.484  33.447  1.00  0.00    -0.237 OA
ATOM     77  O   UNL A   1      49.964  24.954  31.147  1.00  0.00    -0.744 OA
ENDBRANCH  73  74
ENDBRANCH  52  66
BRANCH  53  78
ATOM     78  C   UNL A   1      37.261  32.659  29.991  1.00  0.00     0.058 A 
ATOM     79  C   UNL A   1      36.143  32.418  30.804  1.00  0.00     0.135 A 
ATOM     80  C   UNL A   1      37.130  33.594  28.955  1.00  0.00     0.135 A 
ATOM     81  F   UNL A   1      36.223  31.527  31.804  1.00  0.00    -0.206 F 
ATOM     82  C   UNL A   1      34.937  33.077  30.597  1.00  0.00     0.059 A 
ATOM     83  C   UNL A   1      35.939  34.279  28.738  1.00  0.00     0.059 A 
ATOM     84  F   UNL A   1      38.177  33.869  28.161  1.00  0.00    -0.206 F 
ATOM     85  C   UNL A   1      34.847  34.011  29.564  1.00  0.00     0.060 A 
BRANCH  85  86
ATOM     86  S   UNL A   1      33.301  34.922  29.352  1.00  0.00     0.124 S 
ATOM     87  O   UNL A   1      32.728  34.844  30.690  1.00  0.00    -0.237 OA
ATOM     88  O   UNL A   1      33.772  36.238  28.933  1.00  0.00    -0.237 OA
ATOM     89  O   UNL A   1      32.605  34.158  28.320  1.00  0.00    -0.744 OA
ENDBRANCH  85  86
ENDBRANCH  53  78
BRANCH  65  90
ATOM     90  C   UNL A   1      43.143  34.568  33.202  1.00  0.00     0.058 A 
ATOM     91  C   UNL A   1      43.596  35.661  32.449  1.00  0.00     0.135 A 
ATOM     92  C   UNL A   1      43.066  34.715  34.596  1.00  0.00     0.135 A 
ATOM     93  F   UNL A   1      43.694  35.567  31.113  1.00  0.00    -0.206 F 
ATOM     94  C   UNL A   1      43.980  36.852  33.058  1.00  0.00     0.059 A 
ATOM     95  C   UNL A   1      43.426  35.902  35.225  1.00  0.00     0.059 A 
ATOM     96  F   UNL A   1      42.631  33.700  35.359  1.00  0.00    -0.206 F 
ATOM     97  C   UNL A   1      43.895  36.961  34.447  1.00  0.00     0.060 A 
BRANCH  97  98
ATOM     98  S   UNL A   1      44.373  38.517  35.231  1.00  0.00     0.124 S 
ATOM     99  O   UNL A   1      43.648  39.487  34.417  1.00  0.00    -0.237 OA
ATOM    100  O   UNL A   1      43.888  38.346  36.597  1.00  0.00    -0.237 OA
ATOM    101  O   UNL A   1      45.826  38.534  35.087  1.00  0.00    -0.744 OA
ENDBRANCH  97  98
ENDBRANCH  65  90
ENDBRANCH  39  40
ENDBRANCH  31  34
ENDBRANCH  29  30
ENDBRANCH   1  29
TORSDOF 17
ENDMDL
