MODEL 1
REMARK VINA RESULT:     -12.3      0.000      0.000
REMARK SMILES O=C(NCCCNC(=O)c1ccc(-c2c3nc(c(-c4c(F)cc(S(=O)(=O)[O-])cc4F)c4ccc([nH]4)c(-c4c(F)cc(S(=O)(=O)[O-])cc4F)c4nc(c(-c5c(F)cc(S(=O)(=O)[O-])cc5F)c5ccc2[nH]5)C=C4)C=C3)cc1)C1=Cc2cc(Cl)cc(C#Cc3ccccc3)c2O[C@@H]1C(F)(F)F
REMARK SMILES IDX 5 1 4 2 3 3 1 4 2 5 76 7 77 8 94 9 78 10 93 11 79 12 92 13
REMARK SMILES IDX 80 14 83 15 81 16 82 17 95 18 96 19 97 20 98 21 84 22 85 23
REMARK SMILES IDX 86 24 87 25 91 26 88 27 90 28 89 29 6 30 7 31 8 32 9 34
REMARK SMILES IDX 10 35 11 36 75 37 12 38 74 39 13 40 14 41 15 42 68 43 16 44
REMARK SMILES IDX 73 45 67 46 69 47 17 48 72 49 66 50 65 51 18 53 52 54 31 55
REMARK SMILES IDX 51 56 32 57 35 58 50 59 70 60 33 61 34 62 49 64 71 65 36 66
REMARK SMILES IDX 19 67 20 68 29 69 21 70 22 71 28 72 30 73 23 74 24 75 25 76
REMARK SMILES IDX 26 77 27 78 53 79 54 80 63 81 55 82 56 83 62 84 64 85 57 86
REMARK SMILES IDX 58 87 59 88 60 89 61 90 37 91 38 92 47 93 39 94 40 95 46 96
REMARK SMILES IDX 48 97 41 98 42 99 43 100 44 101 45 102
REMARK H PARENT 3 6 7 33 69 52 35 63
REMARK Flexibility Score: inf
ROOT
ATOM      1  C   UNL A   1      36.410  23.081  23.580  1.00  0.00     0.042 C 
ENDROOT
BRANCH   1   2
ATOM      2  C   UNL A   1      34.925  23.363  23.599  1.00  0.00     0.118 C 
BRANCH   2   3
ATOM      3  N   UNL A   1      34.488  24.464  22.757  1.00  0.00    -0.352 N 
ATOM      4  O   UNL A   1      33.725  26.548  22.345  1.00  0.00    -0.270 OA
ATOM      5  C   UNL A   1      33.767  25.585  23.103  1.00  0.00     0.251 C 
ATOM      6  H   UNL A   1      34.742  24.399  21.808  1.00  0.00     0.163 HD
BRANCH   5   7
ATOM      7  C   UNL A   1      33.236  25.682  24.490  1.00  0.00     0.067 C 
ATOM      8  C   UNL A   1      33.892  26.161  25.561  1.00  0.00     0.025 C 
ATOM      9  C   UNL A   1      31.749  25.598  24.602  1.00  0.00     0.314 C 
ATOM     10  C   UNL A   1      33.262  27.404  26.082  1.00  0.00     0.020 A 
ATOM     11  O   UNL A   1      31.177  26.894  24.899  1.00  0.00    -0.474 OA
ATOM     12  C   UNL A   1      34.094  28.373  26.673  1.00  0.00     0.032 A 
ATOM     13  C   UNL A   1      31.990  27.785  25.574  1.00  0.00     0.143 A 
ATOM     14  C   UNL A   1      33.697  29.712  26.686  1.00  0.00     0.043 A 
ATOM     15  C   UNL A   1      31.641  29.148  25.531  1.00  0.00     0.069 A 
ATOM     16  Cl  UNL A   1      34.784  30.918  27.261  1.00  0.00    -0.084 Cl
ATOM     17  C   UNL A   1      32.495  30.103  26.101  1.00  0.00     0.041 A 
BRANCH   9  18
ATOM     18  C   UNL A   1      31.381  24.510  25.638  1.00  0.00     0.429 C 
ATOM     19  F   UNL A   1      30.291  23.806  25.255  1.00  0.00    -0.167 F 
ATOM     20  F   UNL A   1      32.387  23.612  25.797  1.00  0.00    -0.167 F 
ATOM     21  F   UNL A   1      31.116  25.016  26.868  1.00  0.00    -0.167 F 
ENDBRANCH   9  18
BRANCH  15  22
ATOM     22  C   UNL A   1      30.597  29.655  24.673  1.00  0.00    -0.058 C 
ATOM     23  C   UNL A   1      29.897  30.190  23.860  1.00  0.00    -0.062 C 
BRANCH  23  24
ATOM     24  C   UNL A   1      29.177  30.952  22.874  1.00  0.00     0.025 A 
ATOM     25  C   UNL A   1      28.883  32.303  23.075  1.00  0.00     0.017 A 
ATOM     26  C   UNL A   1      28.744  30.321  21.704  1.00  0.00     0.017 A 
ATOM     27  C   UNL A   1      28.189  33.022  22.095  1.00  0.00     0.001 A 
ATOM     28  C   UNL A   1      28.054  31.040  20.724  1.00  0.00     0.001 A 
ATOM     29  C   UNL A   1      27.783  32.393  20.917  1.00  0.00     0.000 A 
ENDBRANCH  23  24
ENDBRANCH  15  22
ENDBRANCH   5   7
ENDBRANCH   2   3
ENDBRANCH   1   2
BRANCH   1  30
ATOM     30  C   UNL A   1      37.071  23.433  24.897  1.00  0.00     0.118 C 
BRANCH  30  31
ATOM     31  N   UNL A   1      38.176  22.543  25.267  1.00  0.00    -0.352 N 
ATOM     32  C   UNL A   1      39.288  22.781  26.046  1.00  0.00     0.251 C 
ATOM     33  H   UNL A   1      38.115  21.632  24.900  1.00  0.00     0.163 HD
ATOM     34  O   UNL A   1      40.169  21.931  26.129  1.00  0.00    -0.269 OA
BRANCH  32  35
ATOM     35  C   UNL A   1      39.440  24.081  26.734  1.00  0.00     0.039 A 
ATOM     36  C   UNL A   1      38.920  24.247  28.018  1.00  0.00     0.014 A 
ATOM     37  C   UNL A   1      40.162  25.112  26.139  1.00  0.00     0.014 A 
ATOM     38  C   UNL A   1      39.221  25.408  28.734  1.00  0.00     0.010 A 
ATOM     39  C   UNL A   1      40.614  26.165  26.913  1.00  0.00     0.010 A 
ATOM     40  C   UNL A   1      40.121  26.348  28.208  1.00  0.00    -0.014 A 
BRANCH  40  41
ATOM     41  C   UNL A   1      40.534  27.557  28.964  1.00  0.00     0.031 A 
ATOM     42  C   UNL A   1      41.875  27.577  29.658  1.00  0.00     0.074 A 
ATOM     43  C   UNL A   1      39.680  28.593  29.093  1.00  0.00     0.049 A 
ATOM     44  N   UNL A   1      42.388  28.492  30.436  1.00  0.00    -0.248 NA
ATOM     45  C   UNL A   1      42.730  26.386  29.500  1.00  0.00     0.031 C 
ATOM     46  C   UNL A   1      38.325  28.651  28.540  1.00  0.00     0.029 A 
ATOM     47  N   UNL A   1      39.823  29.796  29.737  1.00  0.00    -0.354 N 
ATOM     48  C   UNL A   1      43.601  27.974  30.877  1.00  0.00     0.074 A 
ATOM     49  C   UNL A   1      43.707  26.632  30.356  1.00  0.00     0.031 C 
ATOM     50  C   UNL A   1      37.780  29.844  28.827  1.00  0.00     0.029 A 
ATOM     51  C   UNL A   1      38.726  30.617  29.625  1.00  0.00     0.049 A 
ATOM     52  H   UNL A   1      40.635  30.047  30.233  1.00  0.00     0.167 HD
ATOM     53  C   UNL A   1      44.562  28.576  31.615  1.00  0.00     0.037 A 
ATOM     54  C   UNL A   1      38.509  31.853  30.114  1.00  0.00     0.037 A 
ATOM     55  C   UNL A   1      44.465  29.931  32.083  1.00  0.00     0.049 A 
ATOM     56  C   UNL A   1      39.604  32.519  30.902  1.00  0.00     0.074 A 
ATOM     57  C   UNL A   1      45.408  30.674  32.767  1.00  0.00     0.029 A 
ATOM     58  N   UNL A   1      43.355  30.747  31.911  1.00  0.00    -0.354 N 
ATOM     59  N   UNL A   1      40.781  32.046  31.238  1.00  0.00    -0.248 NA
ATOM     60  C   UNL A   1      39.349  33.887  31.367  1.00  0.00     0.031 C 
ATOM     61  C   UNL A   1      44.848  31.921  33.060  1.00  0.00     0.029 A 
ATOM     62  C   UNL A   1      43.580  31.979  32.500  1.00  0.00     0.049 A 
ATOM     63  H   UNL A   1      42.531  30.488  31.440  1.00  0.00     0.167 HD
ATOM     64  C   UNL A   1      41.418  33.069  31.931  1.00  0.00     0.074 A 
ATOM     65  C   UNL A   1      40.501  34.190  31.950  1.00  0.00     0.031 C 
ATOM     66  C   UNL A   1      42.650  33.081  32.500  1.00  0.00     0.037 A 
BRANCH  53  67
ATOM     67  C   UNL A   1      45.796  27.779  31.946  1.00  0.00     0.058 A 
ATOM     68  C   UNL A   1      46.918  27.757  31.100  1.00  0.00     0.135 A 
ATOM     69  C   UNL A   1      45.865  27.036  33.136  1.00  0.00     0.135 A 
ATOM     70  F   UNL A   1      46.903  28.430  29.937  1.00  0.00    -0.206 F 
ATOM     71  C   UNL A   1      48.046  27.003  31.403  1.00  0.00     0.059 A 
ATOM     72  C   UNL A   1      46.999  26.304  33.478  1.00  0.00     0.059 A 
ATOM     73  F   UNL A   1      44.822  27.014  33.980  1.00  0.00    -0.206 F 
ATOM     74  C   UNL A   1      48.078  26.281  32.596  1.00  0.00     0.060 A 
BRANCH  74  75
ATOM     75  S   UNL A   1      49.556  25.318  32.979  1.00  0.00     0.124 S 
ATOM     76  O   UNL A   1      48.993  24.217  33.755  1.00  0.00    -0.237 OA
ATOM     77  O   UNL A   1      50.051  24.969  31.651  1.00  0.00    -0.237 OA
ATOM     78  O   UNL A   1      50.387  26.254  33.730  1.00  0.00    -0.744 OA
ENDBRANCH  74  75
ENDBRANCH  53  67
BRANCH  54  79
ATOM     79  C   UNL A   1      37.219  32.546  29.841  1.00  0.00     0.058 A 
ATOM     80  C   UNL A   1      36.080  32.291  30.618  1.00  0.00     0.135 A 
ATOM     81  C   UNL A   1      37.107  33.498  28.815  1.00  0.00     0.135 A 
ATOM     82  F   UNL A   1      36.132  31.388  31.610  1.00  0.00    -0.206 F 
ATOM     83  C   UNL A   1      34.870  32.937  30.377  1.00  0.00     0.059 A 
ATOM     84  C   UNL A   1      35.917  34.179  28.573  1.00  0.00     0.059 A 
ATOM     85  F   UNL A   1      38.171  33.795  28.054  1.00  0.00    -0.206 F 
ATOM     86  C   UNL A   1      34.801  33.884  29.355  1.00  0.00     0.060 A 
BRANCH  86  87
ATOM     87  S   UNL A   1      33.241  34.753  29.084  1.00  0.00     0.124 S 
ATOM     88  O   UNL A   1      32.699  34.813  30.436  1.00  0.00    -0.237 OA
ATOM     89  O   UNL A   1      33.693  36.021  28.518  1.00  0.00    -0.237 OA
ATOM     90  O   UNL A   1      32.528  33.881  28.155  1.00  0.00    -0.744 OA
ENDBRANCH  86  87
ENDBRANCH  54  79
BRANCH  66  91
ATOM     91  C   UNL A   1      43.093  34.360  33.157  1.00  0.00     0.058 A 
ATOM     92  C   UNL A   1      42.836  34.625  34.510  1.00  0.00     0.135 A 
ATOM     93  C   UNL A   1      43.833  35.307  32.430  1.00  0.00     0.135 A 
ATOM     94  F   UNL A   1      42.131  33.753  35.249  1.00  0.00    -0.206 F 
ATOM     95  C   UNL A   1      43.267  35.802  35.112  1.00  0.00     0.059 A 
ATOM     96  C   UNL A   1      44.305  36.474  33.022  1.00  0.00     0.059 A 
ATOM     97  F   UNL A   1      44.120  35.095  31.136  1.00  0.00    -0.206 F 
ATOM     98  C   UNL A   1      44.003  36.719  34.360  1.00  0.00     0.060 A 
BRANCH  98  99
ATOM     99  S   UNL A   1      44.576  38.230  35.161  1.00  0.00     0.124 S 
ATOM    100  O   UNL A   1      44.471  37.872  36.572  1.00  0.00    -0.237 OA
ATOM    101  O   UNL A   1      45.933  38.364  34.639  1.00  0.00    -0.237 OA
ATOM    102  O   UNL A   1      43.631  39.241  34.697  1.00  0.00    -0.744 OA
ENDBRANCH  98  99
ENDBRANCH  66  91
ENDBRANCH  40  41
ENDBRANCH  32  35
ENDBRANCH  30  31
ENDBRANCH   1  30
TORSDOF 16
ENDMDL
MODEL 2
REMARK VINA RESULT:     -12.1      4.683     11.339
REMARK SMILES O=C(NCCCNC(=O)c1ccc(-c2c3nc(c(-c4c(F)cc(S(=O)(=O)[O-])cc4F)c4ccc([nH]4)c(-c4c(F)cc(S(=O)(=O)[O-])cc4F)c4nc(c(-c5c(F)cc(S(=O)(=O)[O-])cc5F)c5ccc2[nH]5)C=C4)C=C3)cc1)C1=Cc2cc(Cl)cc(C#Cc3ccccc3)c2O[C@@H]1C(F)(F)F
REMARK SMILES IDX 5 1 4 2 3 3 1 4 2 5 76 7 77 8 94 9 78 10 93 11 79 12 92 13
REMARK SMILES IDX 80 14 83 15 81 16 82 17 95 18 96 19 97 20 98 21 84 22 85 23
REMARK SMILES IDX 86 24 87 25 91 26 88 27 90 28 89 29 6 30 7 31 8 32 9 34
REMARK SMILES IDX 10 35 11 36 75 37 12 38 74 39 13 40 14 41 15 42 68 43 16 44
REMARK SMILES IDX 73 45 67 46 69 47 17 48 72 49 66 50 65 51 18 53 52 54 31 55
REMARK SMILES IDX 51 56 32 57 35 58 50 59 70 60 33 61 34 62 49 64 71 65 36 66
REMARK SMILES IDX 19 67 20 68 29 69 21 70 22 71 28 72 30 73 23 74 24 75 25 76
REMARK SMILES IDX 26 77 27 78 53 79 54 80 63 81 55 82 56 83 62 84 64 85 57 86
REMARK SMILES IDX 58 87 59 88 60 89 61 90 37 91 38 92 47 93 39 94 40 95 46 96
REMARK SMILES IDX 48 97 41 98 42 99 43 100 44 101 45 102
REMARK H PARENT 3 6 7 33 69 52 35 63
REMARK Flexibility Score: inf
ROOT
ATOM      1  C   UNL A   1      33.678  33.468  28.809  1.00  0.00     0.042 C 
ENDROOT
BRANCH   1   2
ATOM      2  C   UNL A   1      34.076  33.908  30.200  1.00  0.00     0.118 C 
BRANCH   2   3
ATOM      3  N   UNL A   1      34.371  32.834  31.133  1.00  0.00    -0.352 N 
ATOM      4  O   UNL A   1      35.489  31.841  32.823  1.00  0.00    -0.270 OA
ATOM      5  C   UNL A   1      35.508  32.625  31.881  1.00  0.00     0.251 C 
ATOM      6  H   UNL A   1      33.660  32.162  31.245  1.00  0.00     0.163 HD
BRANCH   5   7
ATOM      7  C   UNL A   1      36.672  33.526  31.661  1.00  0.00     0.067 C 
ATOM      8  C   UNL A   1      37.020  34.578  32.422  1.00  0.00     0.025 C 
ATOM      9  C   UNL A   1      37.730  32.978  30.759  1.00  0.00     0.314 C 
ATOM     10  C   UNL A   1      38.326  34.361  33.099  1.00  0.00     0.020 A 
ATOM     11  O   UNL A   1      38.900  32.582  31.513  1.00  0.00    -0.474 OA
ATOM     12  C   UNL A   1      38.523  34.941  34.366  1.00  0.00     0.032 A 
ATOM     13  C   UNL A   1      39.119  33.248  32.705  1.00  0.00     0.143 A 
ATOM     14  C   UNL A   1      39.438  34.372  35.253  1.00  0.00     0.043 A 
ATOM     15  C   UNL A   1      39.982  32.646  33.639  1.00  0.00     0.069 A 
ATOM     16  Cl  UNL A   1      39.560  34.981  36.860  1.00  0.00    -0.084 Cl
ATOM     17  C   UNL A   1      40.145  33.223  34.907  1.00  0.00     0.041 A 
BRANCH   9  18
ATOM     18  C   UNL A   1      38.032  34.011  29.649  1.00  0.00     0.429 C 
ATOM     19  F   UNL A   1      38.278  33.410  28.462  1.00  0.00    -0.167 F 
ATOM     20  F   UNL A   1      36.983  34.850  29.449  1.00  0.00    -0.167 F 
ATOM     21  F   UNL A   1      39.104  34.792  29.928  1.00  0.00    -0.167 F 
ENDBRANCH   9  18
BRANCH  15  22
ATOM     22  C   UNL A   1      40.486  31.304  33.478  1.00  0.00    -0.058 C 
ATOM     23  C   UNL A   1      41.034  30.238  33.522  1.00  0.00    -0.062 C 
BRANCH  23  24
ATOM     24  C   UNL A   1      41.817  29.038  33.657  1.00  0.00     0.025 A 
ATOM     25  C   UNL A   1      43.066  28.916  33.044  1.00  0.00     0.017 A 
ATOM     26  C   UNL A   1      41.307  27.967  34.396  1.00  0.00     0.017 A 
ATOM     27  C   UNL A   1      43.811  27.741  33.198  1.00  0.00     0.001 A 
ATOM     28  C   UNL A   1      42.052  26.795  34.553  1.00  0.00     0.001 A 
ATOM     29  C   UNL A   1      43.308  26.686  33.960  1.00  0.00     0.000 A 
ENDBRANCH  23  24
ENDBRANCH  15  22
ENDBRANCH   5   7
ENDBRANCH   2   3
ENDBRANCH   1   2
BRANCH   1  30
ATOM     30  C   UNL A   1      34.674  32.494  28.215  1.00  0.00     0.118 C 
BRANCH  30  31
ATOM     31  N   UNL A   1      34.128  31.156  27.972  1.00  0.00    -0.352 N 
ATOM     32  C   UNL A   1      34.757  29.930  27.943  1.00  0.00     0.251 C 
ATOM     33  H   UNL A   1      33.159  31.129  27.801  1.00  0.00     0.163 HD
ATOM     34  O   UNL A   1      34.134  28.931  27.591  1.00  0.00    -0.269 OA
BRANCH  32  35
ATOM     35  C   UNL A   1      36.192  29.830  28.282  1.00  0.00     0.039 A 
ATOM     36  C   UNL A   1      36.572  29.396  29.553  1.00  0.00     0.014 A 
ATOM     37  C   UNL A   1      37.163  30.094  27.319  1.00  0.00     0.014 A 
ATOM     38  C   UNL A   1      37.919  29.130  29.811  1.00  0.00     0.010 A 
ATOM     39  C   UNL A   1      38.458  29.650  27.516  1.00  0.00     0.010 A 
ATOM     40  C   UNL A   1      38.863  29.198  28.775  1.00  0.00    -0.014 A 
BRANCH  40  41
ATOM     41  C   UNL A   1      40.291  28.847  28.981  1.00  0.00     0.031 A 
ATOM     42  C   UNL A   1      41.242  29.891  29.514  1.00  0.00     0.074 A 
ATOM     43  C   UNL A   1      40.743  27.630  28.616  1.00  0.00     0.049 A 
ATOM     44  N   UNL A   1      42.536  29.818  29.685  1.00  0.00    -0.248 NA
ATOM     45  C   UNL A   1      40.673  31.210  29.849  1.00  0.00     0.031 C 
ATOM     46  C   UNL A   1      39.933  26.569  28.010  1.00  0.00     0.029 A 
ATOM     47  N   UNL A   1      41.997  27.080  28.697  1.00  0.00    -0.354 N 
ATOM     48  C   UNL A   1      42.930  31.081  30.114  1.00  0.00     0.074 A 
ATOM     49  C   UNL A   1      41.759  31.924  30.091  1.00  0.00     0.031 C 
ATOM     50  C   UNL A   1      40.699  25.484  27.818  1.00  0.00     0.029 A 
ATOM     51  C   UNL A   1      42.063  25.785  28.241  1.00  0.00     0.049 A 
ATOM     52  H   UNL A   1      42.776  27.568  29.048  1.00  0.00     0.167 HD
ATOM     53  C   UNL A   1      44.150  31.492  30.532  1.00  0.00     0.037 A 
ATOM     54  C   UNL A   1      43.107  24.937  28.171  1.00  0.00     0.037 A 
ATOM     55  C   UNL A   1      45.294  30.627  30.599  1.00  0.00     0.049 A 
ATOM     56  C   UNL A   1      44.447  25.402  28.673  1.00  0.00     0.074 A 
ATOM     57  C   UNL A   1      46.558  30.908  31.082  1.00  0.00     0.029 A 
ATOM     58  N   UNL A   1      45.310  29.306  30.169  1.00  0.00    -0.354 N 
ATOM     59  N   UNL A   1      44.784  26.575  29.157  1.00  0.00    -0.248 NA
ATOM     60  C   UNL A   1      45.546  24.429  28.633  1.00  0.00     0.031 C 
ATOM     61  C   UNL A   1      47.356  29.776  30.892  1.00  0.00     0.029 A 
ATOM     62  C   UNL A   1      46.572  28.767  30.352  1.00  0.00     0.049 A 
ATOM     63  H   UNL A   1      44.540  28.826  29.791  1.00  0.00     0.167 HD
ATOM     64  C   UNL A   1      46.126  26.472  29.504  1.00  0.00     0.074 A 
ATOM     65  C   UNL A   1      46.532  25.118  29.189  1.00  0.00     0.031 C 
ATOM     66  C   UNL A   1      46.949  27.412  30.034  1.00  0.00     0.037 A 
BRANCH  53  67
ATOM     67  C   UNL A   1      44.298  32.929  30.958  1.00  0.00     0.058 A 
ATOM     68  C   UNL A   1      44.058  33.344  32.279  1.00  0.00     0.135 A 
ATOM     69  C   UNL A   1      44.702  33.906  30.033  1.00  0.00     0.135 A 
ATOM     70  F   UNL A   1      43.647  32.459  33.203  1.00  0.00    -0.206 F 
ATOM     71  C   UNL A   1      44.178  34.676  32.659  1.00  0.00     0.059 A 
ATOM     72  C   UNL A   1      44.866  35.239  30.400  1.00  0.00     0.059 A 
ATOM     73  F   UNL A   1      44.941  33.570  28.755  1.00  0.00    -0.206 F 
ATOM     74  C   UNL A   1      44.586  35.616  31.712  1.00  0.00     0.060 A 
BRANCH  74  75
ATOM     75  S   UNL A   1      44.750  37.339  32.227  1.00  0.00     0.124 S 
ATOM     76  O   UNL A   1      44.215  37.288  33.585  1.00  0.00    -0.237 OA
ATOM     77  O   UNL A   1      46.188  37.559  32.120  1.00  0.00    -0.237 OA
ATOM     78  O   UNL A   1      43.932  38.062  31.258  1.00  0.00    -0.744 OA
ENDBRANCH  74  75
ENDBRANCH  53  67
BRANCH  54  79
ATOM     79  C   UNL A   1      42.915  23.560  27.637  1.00  0.00     0.058 A 
ATOM     80  C   UNL A   1      42.557  22.498  28.480  1.00  0.00     0.135 A 
ATOM     81  C   UNL A   1      43.059  23.284  26.267  1.00  0.00     0.135 A 
ATOM     82  F   UNL A   1      42.410  22.708  29.797  1.00  0.00    -0.206 F 
ATOM     83  C   UNL A   1      42.369  21.208  27.992  1.00  0.00     0.059 A 
ATOM     84  C   UNL A   1      42.846  22.009  25.750  1.00  0.00     0.059 A 
ATOM     85  F   UNL A   1      43.381  24.267  25.412  1.00  0.00    -0.206 F 
ATOM     86  C   UNL A   1      42.510  20.975  26.623  1.00  0.00     0.060 A 
BRANCH  86  87
ATOM     87  S   UNL A   1      42.213  19.309  25.993  1.00  0.00     0.124 S 
ATOM     88  O   UNL A   1      40.776  19.337  25.752  1.00  0.00    -0.237 OA
ATOM     89  O   UNL A   1      43.061  19.276  24.805  1.00  0.00    -0.237 OA
ATOM     90  O   UNL A   1      42.653  18.452  27.090  1.00  0.00    -0.744 OA
ENDBRANCH  86  87
ENDBRANCH  54  79
BRANCH  66  91
ATOM     91  C   UNL A   1      48.360  26.996  30.345  1.00  0.00     0.058 A 
ATOM     92  C   UNL A   1      49.399  27.144  29.414  1.00  0.00     0.135 A 
ATOM     93  C   UNL A   1      48.684  26.491  31.615  1.00  0.00     0.135 A 
ATOM     94  F   UNL A   1      49.143  27.620  28.185  1.00  0.00    -0.206 F 
ATOM     95  C   UNL A   1      50.703  26.774  29.719  1.00  0.00     0.059 A 
ATOM     96  C   UNL A   1      49.988  26.149  31.954  1.00  0.00     0.059 A 
ATOM     97  F   UNL A   1      47.730  26.343  32.549  1.00  0.00    -0.206 F 
ATOM     98  C   UNL A   1      50.988  26.280  30.993  1.00  0.00     0.060 A 
BRANCH  98  99
ATOM     99  S   UNL A   1      52.691  25.827  31.382  1.00  0.00     0.124 S 
ATOM    100  O   UNL A   1      53.040  26.829  32.384  1.00  0.00    -0.237 OA
ATOM    101  O   UNL A   1      52.544  24.461  31.875  1.00  0.00    -0.237 OA
ATOM    102  O   UNL A   1      53.379  25.954  30.100  1.00  0.00    -0.744 OA
ENDBRANCH  98  99
ENDBRANCH  66  91
ENDBRANCH  40  41
ENDBRANCH  32  35
ENDBRANCH  30  31
ENDBRANCH   1  30
TORSDOF 16
ENDMDL
MODEL 3
REMARK VINA RESULT:     -11.9      2.297      2.864
REMARK SMILES O=C(NCCCNC(=O)c1ccc(-c2c3nc(c(-c4c(F)cc(S(=O)(=O)[O-])cc4F)c4ccc([nH]4)c(-c4c(F)cc(S(=O)(=O)[O-])cc4F)c4nc(c(-c5c(F)cc(S(=O)(=O)[O-])cc5F)c5ccc2[nH]5)C=C4)C=C3)cc1)C1=Cc2cc(Cl)cc(C#Cc3ccccc3)c2O[C@@H]1C(F)(F)F
REMARK SMILES IDX 5 1 4 2 3 3 1 4 2 5 76 7 77 8 94 9 78 10 93 11 79 12 92 13
REMARK SMILES IDX 80 14 83 15 81 16 82 17 95 18 96 19 97 20 98 21 84 22 85 23
REMARK SMILES IDX 86 24 87 25 91 26 88 27 90 28 89 29 6 30 7 31 8 32 9 34
REMARK SMILES IDX 10 35 11 36 75 37 12 38 74 39 13 40 14 41 15 42 68 43 16 44
REMARK SMILES IDX 73 45 67 46 69 47 17 48 72 49 66 50 65 51 18 53 52 54 31 55
REMARK SMILES IDX 51 56 32 57 35 58 50 59 70 60 33 61 34 62 49 64 71 65 36 66
REMARK SMILES IDX 19 67 20 68 29 69 21 70 22 71 28 72 30 73 23 74 24 75 25 76
REMARK SMILES IDX 26 77 27 78 53 79 54 80 63 81 55 82 56 83 62 84 64 85 57 86
REMARK SMILES IDX 58 87 59 88 60 89 61 90 37 91 38 92 47 93 39 94 40 95 46 96
REMARK SMILES IDX 48 97 41 98 42 99 43 100 44 101 45 102
REMARK H PARENT 3 6 7 33 69 52 35 63
REMARK Flexibility Score: inf
ROOT
ATOM      1  C   UNL A   1      36.210  23.295  23.960  1.00  0.00     0.042 C 
ENDROOT
BRANCH   1   2
ATOM      2  C   UNL A   1      34.721  23.480  23.767  1.00  0.00     0.118 C 
BRANCH   2   3
ATOM      3  N   UNL A   1      34.334  24.619  22.952  1.00  0.00    -0.352 N 
ATOM      4  O   UNL A   1      33.699  26.753  22.588  1.00  0.00    -0.270 OA
ATOM      5  C   UNL A   1      33.698  25.780  23.333  1.00  0.00     0.251 C 
ATOM      6  H   UNL A   1      34.556  24.551  21.995  1.00  0.00     0.163 HD
BRANCH   5   7
ATOM      7  C   UNL A   1      33.215  25.891  24.735  1.00  0.00     0.067 C 
ATOM      8  C   UNL A   1      33.946  26.256  25.803  1.00  0.00     0.025 C 
ATOM      9  C   UNL A   1      31.731  25.976  24.885  1.00  0.00     0.314 C 
ATOM     10  C   UNL A   1      33.478  27.546  26.377  1.00  0.00     0.020 A 
ATOM     11  O   UNL A   1      31.320  27.320  25.235  1.00  0.00    -0.474 OA
ATOM     12  C   UNL A   1      34.430  28.392  26.974  1.00  0.00     0.032 A 
ATOM     13  C   UNL A   1      32.247  28.088  25.915  1.00  0.00     0.143 A 
ATOM     14  C   UNL A   1      34.192  29.767  27.038  1.00  0.00     0.043 A 
ATOM     15  C   UNL A   1      32.057  29.483  25.922  1.00  0.00     0.069 A 
ATOM     16  Cl  UNL A   1      35.424  30.820  27.619  1.00  0.00    -0.084 Cl
ATOM     17  C   UNL A   1      33.030  30.313  26.498  1.00  0.00     0.041 A 
BRANCH   9  18
ATOM     18  C   UNL A   1      31.263  24.905  25.897  1.00  0.00     0.429 C 
ATOM     19  F   UNL A   1      31.404  25.331  27.174  1.00  0.00    -0.167 F 
ATOM     20  F   UNL A   1      29.950  24.601  25.732  1.00  0.00    -0.167 F 
ATOM     21  F   UNL A   1      31.946  23.738  25.790  1.00  0.00    -0.167 F 
ENDBRANCH   9  18
BRANCH  15  22
ATOM     22  C   UNL A   1      31.060  30.134  25.108  1.00  0.00    -0.058 C 
ATOM     23  C   UNL A   1      30.269  30.506  24.287  1.00  0.00    -0.062 C 
BRANCH  23  24
ATOM     24  C   UNL A   1      29.411  30.863  23.189  1.00  0.00     0.025 A 
ATOM     25  C   UNL A   1      28.968  32.177  23.013  1.00  0.00     0.017 A 
ATOM     26  C   UNL A   1      28.993  29.873  22.296  1.00  0.00     0.017 A 
ATOM     27  C   UNL A   1      28.140  32.498  21.931  1.00  0.00     0.001 A 
ATOM     28  C   UNL A   1      28.168  30.195  21.214  1.00  0.00     0.001 A 
ATOM     29  C   UNL A   1      27.749  31.510  21.028  1.00  0.00     0.000 A 
ENDBRANCH  23  24
ENDBRANCH  15  22
ENDBRANCH   5   7
ENDBRANCH   2   3
ENDBRANCH   1   2
BRANCH   1  30
ATOM     30  C   UNL A   1      36.616  23.441  25.412  1.00  0.00     0.118 C 
BRANCH  30  31
ATOM     31  N   UNL A   1      37.636  22.482  25.845  1.00  0.00    -0.352 N 
ATOM     32  C   UNL A   1      38.841  22.691  26.480  1.00  0.00     0.251 C 
ATOM     33  H   UNL A   1      37.428  21.540  25.652  1.00  0.00     0.163 HD
ATOM     34  O   UNL A   1      39.617  21.752  26.644  1.00  0.00    -0.269 OA
BRANCH  32  35
ATOM     35  C   UNL A   1      39.219  24.052  26.913  1.00  0.00     0.039 A 
ATOM     36  C   UNL A   1      39.094  24.410  28.256  1.00  0.00     0.014 A 
ATOM     37  C   UNL A   1      39.769  24.953  26.004  1.00  0.00     0.014 A 
ATOM     38  C   UNL A   1      39.619  25.629  28.693  1.00  0.00     0.010 A 
ATOM     39  C   UNL A   1      40.452  26.062  26.468  1.00  0.00     0.010 A 
ATOM     40  C   UNL A   1      40.356  26.436  27.812  1.00  0.00    -0.014 A 
BRANCH  40  41
ATOM     41  C   UNL A   1      41.001  27.700  28.248  1.00  0.00     0.031 A 
ATOM     42  C   UNL A   1      42.503  27.829  28.179  1.00  0.00     0.074 A 
ATOM     43  C   UNL A   1      40.251  28.688  28.777  1.00  0.00     0.049 A 
ATOM     44  N   UNL A   1      43.267  28.807  28.587  1.00  0.00    -0.248 NA
ATOM     45  C   UNL A   1      43.250  26.684  27.626  1.00  0.00     0.031 C 
ATOM     46  C   UNL A   1      38.800  28.642  28.974  1.00  0.00     0.029 A 
ATOM     47  N   UNL A   1      40.607  29.925  29.252  1.00  0.00    -0.354 N 
ATOM     48  C   UNL A   1      44.573  28.381  28.368  1.00  0.00     0.074 A 
ATOM     49  C   UNL A   1      44.503  27.026  27.877  1.00  0.00     0.031 C 
ATOM     50  C   UNL A   1      38.385  29.813  29.484  1.00  0.00     0.029 A 
ATOM     51  C   UNL A   1      39.543  30.675  29.695  1.00  0.00     0.049 A 
ATOM     52  H   UNL A   1      41.538  30.245  29.272  1.00  0.00     0.167 HD
ATOM     53  C   UNL A   1      45.727  29.071  28.521  1.00  0.00     0.037 A 
ATOM     54  C   UNL A   1      39.509  31.917  30.215  1.00  0.00     0.037 A 
ATOM     55  C   UNL A   1      45.777  30.437  28.962  1.00  0.00     0.049 A 
ATOM     56  C   UNL A   1      40.798  32.680  30.343  1.00  0.00     0.074 A 
ATOM     57  C   UNL A   1      46.878  31.264  29.075  1.00  0.00     0.029 A 
ATOM     58  N   UNL A   1      44.672  31.179  29.360  1.00  0.00    -0.354 N 
ATOM     59  N   UNL A   1      42.018  32.293  30.051  1.00  0.00    -0.248 NA
ATOM     60  C   UNL A   1      40.710  34.051  30.861  1.00  0.00     0.031 C 
ATOM     61  C   UNL A   1      46.448  32.489  29.597  1.00  0.00     0.029 A 
ATOM     62  C   UNL A   1      45.070  32.447  29.745  1.00  0.00     0.049 A 
ATOM     63  H   UNL A   1      43.744  30.851  29.366  1.00  0.00     0.167 HD
ATOM     64  C   UNL A   1      42.839  33.381  30.322  1.00  0.00     0.074 A 
ATOM     65  C   UNL A   1      41.973  34.446  30.786  1.00  0.00     0.031 C 
ATOM     66  C   UNL A   1      44.186  33.492  30.200  1.00  0.00     0.037 A 
BRANCH  53  67
ATOM     67  C   UNL A   1      47.016  28.363  28.198  1.00  0.00     0.058 A 
ATOM     68  C   UNL A   1      47.746  27.662  29.173  1.00  0.00     0.135 A 
ATOM     69  C   UNL A   1      47.522  28.371  26.888  1.00  0.00     0.135 A 
ATOM     70  F   UNL A   1      47.323  27.636  30.449  1.00  0.00    -0.206 F 
ATOM     71  C   UNL A   1      48.945  27.026  28.871  1.00  0.00     0.059 A 
ATOM     72  C   UNL A   1      48.701  27.710  26.554  1.00  0.00     0.059 A 
ATOM     73  F   UNL A   1      46.871  29.028  25.916  1.00  0.00    -0.206 F 
ATOM     74  C   UNL A   1      49.413  27.054  27.556  1.00  0.00     0.060 A 
BRANCH  74  75
ATOM     75  S   UNL A   1      50.965  26.212  27.180  1.00  0.00     0.124 S 
ATOM     76  O   UNL A   1      51.826  26.695  28.255  1.00  0.00    -0.237 OA
ATOM     77  O   UNL A   1      50.583  24.806  27.257  1.00  0.00    -0.237 OA
ATOM     78  O   UNL A   1      51.300  26.697  25.844  1.00  0.00    -0.744 OA
ENDBRANCH  74  75
ENDBRANCH  53  67
BRANCH  54  79
ATOM     79  C   UNL A   1      38.208  32.520  30.616  1.00  0.00     0.058 A 
ATOM     80  C   UNL A   1      37.727  32.403  31.929  1.00  0.00     0.135 A 
ATOM     81  C   UNL A   1      37.430  33.250  29.702  1.00  0.00     0.135 A 
ATOM     82  F   UNL A   1      38.430  31.713  32.841  1.00  0.00    -0.206 F 
ATOM     83  C   UNL A   1      36.516  32.968  32.318  1.00  0.00     0.059 A 
ATOM     84  C   UNL A   1      36.231  33.850  30.075  1.00  0.00     0.059 A 
ATOM     85  F   UNL A   1      37.852  33.411  28.439  1.00  0.00    -0.206 F 
ATOM     86  C   UNL A   1      35.777  33.695  31.383  1.00  0.00     0.060 A 
BRANCH  86  87
ATOM     87  S   UNL A   1      34.232  34.466  31.912  1.00  0.00     0.124 S 
ATOM     88  O   UNL A   1      34.714  35.695  32.533  1.00  0.00    -0.237 OA
ATOM     89  O   UNL A   1      33.522  34.625  30.646  1.00  0.00    -0.237 OA
ATOM     90  O   UNL A   1      33.660  33.481  32.824  1.00  0.00    -0.744 OA
ENDBRANCH  86  87
ENDBRANCH  54  79
BRANCH  66  91
ATOM     91  C   UNL A   1      44.802  34.822  30.534  1.00  0.00     0.058 A 
ATOM     92  C   UNL A   1      45.278  35.115  31.821  1.00  0.00     0.135 A 
ATOM     93  C   UNL A   1      44.964  35.796  29.536  1.00  0.00     0.135 A 
ATOM     94  F   UNL A   1      45.146  34.219  32.812  1.00  0.00    -0.206 F 
ATOM     95  C   UNL A   1      45.864  36.341  32.115  1.00  0.00     0.059 A 
ATOM     96  C   UNL A   1      45.580  37.015  29.799  1.00  0.00     0.059 A 
ATOM     97  F   UNL A   1      44.540  35.561  28.284  1.00  0.00    -0.206 F 
ATOM     98  C   UNL A   1      46.013  37.283  31.096  1.00  0.00     0.060 A 
BRANCH  98  99
ATOM     99  S   UNL A   1      46.796  38.861  31.487  1.00  0.00     0.124 S 
ATOM    100  O   UNL A   1      47.951  38.429  32.268  1.00  0.00    -0.237 OA
ATOM    101  O   UNL A   1      47.091  39.399  30.162  1.00  0.00    -0.237 OA
ATOM    102  O   UNL A   1      45.765  39.578  32.232  1.00  0.00    -0.744 OA
ENDBRANCH  98  99
ENDBRANCH  66  91
ENDBRANCH  40  41
ENDBRANCH  32  35
ENDBRANCH  30  31
ENDBRANCH   1  30
TORSDOF 16
ENDMDL
