MODEL 1
REMARK VINA RESULT:     -12.9      0.000      0.000
REMARK SMILES O=C(NCCCNC(=O)c1ccccc1NC(=O)c1ccc(C[NH+]2CCOCC2)cc1)c1ccc(-c2c3nc(c(-c4c(F)cc(S(=O)(=O)[O-])cc4F)c4ccc([nH]4)c(-c4c(F)cc(S(=O)(=O)[O-])cc4F)c4nc(c(-c5c(F)cc(S(=O)(=O)[O-])cc5F)c5ccc2[nH]5)C=C4)C=C3)cc1
REMARK SMILES IDX 5 1 4 2 3 3 1 4 2 5 32 7 33 8 97 9 34 10 96 11 35 12 36 13
REMARK SMILES IDX 37 14 90 15 38 16 95 17 89 18 91 19 39 20 94 21 88 22 87 23
REMARK SMILES IDX 40 25 74 26 53 27 73 28 54 29 57 30 72 31 92 32 55 33 56 34
REMARK SMILES IDX 71 36 93 37 58 38 41 39 42 40 51 41 43 42 44 43 50 44 52 45
REMARK SMILES IDX 45 46 46 47 47 48 48 49 49 50 75 51 76 52 85 53 77 54 78 55
REMARK SMILES IDX 84 56 86 57 79 58 80 59 81 60 82 61 83 62 59 63 60 64 69 65
REMARK SMILES IDX 61 66 62 67 68 68 70 69 63 70 64 71 65 72 66 73 67 74 6 75
REMARK SMILES IDX 7 76 8 77 9 79 10 80 11 81 15 82 12 83 14 84 13 85 16 86
REMARK SMILES IDX 17 87 18 89 19 90 20 91 31 92 21 93 30 94 22 95 23 96 24 97
REMARK SMILES IDX 25 98 29 99 26 101 28 102 27 103
REMARK H PARENT 3 6 91 24 57 35 7 78 16 88 24 100
REMARK Flexibility Score: inf
ROOT
ATOM      1  C   UNL A   1      37.542  23.208  25.873  1.00  0.00     0.042 C 
ENDROOT
BRANCH   1   2
ATOM      2  C   UNL A   1      38.404  24.308  26.476  1.00  0.00     0.118 C 
BRANCH   2   3
ATOM      3  N   UNL A   1      39.639  24.563  25.745  1.00  0.00    -0.352 N 
ATOM      4  O   UNL A   1      41.619  25.515  25.246  1.00  0.00    -0.269 OA
ATOM      5  C   UNL A   1      40.708  25.377  26.053  1.00  0.00     0.251 C 
ATOM      6  H   UNL A   1      39.722  24.075  24.894  1.00  0.00     0.163 HD
BRANCH   5   7
ATOM      7  C   UNL A   1      40.733  26.120  27.333  1.00  0.00     0.039 A 
ATOM      8  C   UNL A   1      39.864  25.788  28.371  1.00  0.00     0.014 A 
ATOM      9  C   UNL A   1      41.622  27.188  27.485  1.00  0.00     0.014 A 
ATOM     10  C   UNL A   1      39.723  26.652  29.450  1.00  0.00     0.010 A 
ATOM     11  C   UNL A   1      41.561  27.988  28.632  1.00  0.00     0.010 A 
ATOM     12  C   UNL A   1      40.567  27.765  29.596  1.00  0.00    -0.014 A 
BRANCH  12  13
ATOM     13  C   UNL A   1      40.382  28.664  30.767  1.00  0.00     0.031 A 
ATOM     14  C   UNL A   1      41.299  28.592  31.961  1.00  0.00     0.074 A 
ATOM     15  C   UNL A   1      39.413  29.601  30.720  1.00  0.00     0.049 A 
ATOM     16  N   UNL A   1      41.314  29.341  33.036  1.00  0.00    -0.248 NA
ATOM     17  C   UNL A   1      42.328  27.539  31.961  1.00  0.00     0.031 C 
ATOM     18  C   UNL A   1      38.450  29.762  29.626  1.00  0.00     0.029 A 
ATOM     19  N   UNL A   1      39.097  30.614  31.588  1.00  0.00    -0.354 N 
ATOM     20  C   UNL A   1      42.320  28.832  33.850  1.00  0.00     0.074 A 
ATOM     21  C   UNL A   1      42.886  27.697  33.153  1.00  0.00     0.031 C 
ATOM     22  C   UNL A   1      37.704  30.852  29.853  1.00  0.00     0.029 A 
ATOM     23  C   UNL A   1      38.088  31.430  31.135  1.00  0.00     0.049 A 
ATOM     24  H   UNL A   1      39.550  30.746  32.452  1.00  0.00     0.167 HD
ATOM     25  C   UNL A   1      42.738  29.274  35.061  1.00  0.00     0.037 A 
ATOM     26  C   UNL A   1      37.526  32.522  31.687  1.00  0.00     0.037 A 
ATOM     27  C   UNL A   1      42.200  30.429  35.732  1.00  0.00     0.049 A 
ATOM     28  C   UNL A   1      38.028  33.007  33.016  1.00  0.00     0.074 A 
ATOM     29  C   UNL A   1      42.583  30.979  36.944  1.00  0.00     0.029 A 
ATOM     30  N   UNL A   1      41.167  31.218  35.247  1.00  0.00    -0.354 N 
ATOM     31  N   UNL A   1      38.993  32.519  33.759  1.00  0.00    -0.248 NA
ATOM     32  C   UNL A   1      37.363  34.186  33.584  1.00  0.00     0.031 C 
ATOM     33  C   UNL A   1      41.760  32.080  37.206  1.00  0.00     0.029 A 
ATOM     34  C   UNL A   1      40.892  32.242  36.139  1.00  0.00     0.049 A 
ATOM     35  H   UNL A   1      40.697  31.072  34.393  1.00  0.00     0.167 HD
ATOM     36  C   UNL A   1      39.063  33.344  34.875  1.00  0.00     0.074 A 
ATOM     37  C   UNL A   1      38.054  34.370  34.701  1.00  0.00     0.031 C 
ATOM     38  C   UNL A   1      39.888  33.258  35.948  1.00  0.00     0.037 A 
BRANCH  25  39
ATOM     39  C   UNL A   1      43.825  28.494  35.753  1.00  0.00     0.058 A 
ATOM     40  C   UNL A   1      43.545  27.359  36.529  1.00  0.00     0.135 A 
ATOM     41  C   UNL A   1      45.171  28.870  35.605  1.00  0.00     0.135 A 
ATOM     42  F   UNL A   1      42.275  26.964  36.716  1.00  0.00    -0.206 F 
ATOM     43  C   UNL A   1      44.557  26.640  37.158  1.00  0.00     0.059 A 
ATOM     44  C   UNL A   1      46.201  28.152  36.206  1.00  0.00     0.059 A 
ATOM     45  F   UNL A   1      45.495  29.946  34.872  1.00  0.00    -0.206 F 
ATOM     46  C   UNL A   1      45.883  27.047  36.994  1.00  0.00     0.060 A 
BRANCH  46  47
ATOM     47  S   UNL A   1      47.185  26.107  37.820  1.00  0.00     0.124 S 
ATOM     48  O   UNL A   1      46.428  25.413  38.857  1.00  0.00    -0.237 OA
ATOM     49  O   UNL A   1      47.698  25.267  36.743  1.00  0.00    -0.237 OA
ATOM     50  O   UNL A   1      48.100  27.141  38.295  1.00  0.00    -0.744 OA
ENDBRANCH  46  47
ENDBRANCH  25  39
BRANCH  26  51
ATOM     51  C   UNL A   1      36.438  33.234  30.970  1.00  0.00     0.058 A 
ATOM     52  C   UNL A   1      35.107  33.136  31.400  1.00  0.00     0.135 A 
ATOM     53  C   UNL A   1      36.713  34.054  29.866  1.00  0.00     0.135 A 
ATOM     54  F   UNL A   1      34.797  32.361  32.450  1.00  0.00    -0.206 F 
ATOM     55  C   UNL A   1      34.081  33.817  30.753  1.00  0.00     0.059 A 
ATOM     56  C   UNL A   1      35.709  34.767  29.218  1.00  0.00     0.059 A 
ATOM     57  F   UNL A   1      37.974  34.196  29.430  1.00  0.00    -0.206 F 
ATOM     58  C   UNL A   1      34.395  34.633  29.664  1.00  0.00     0.060 A 
BRANCH  58  59
ATOM     59  S   UNL A   1      33.068  35.563  28.865  1.00  0.00     0.124 S 
ATOM     60  O   UNL A   1      33.822  36.544  28.095  1.00  0.00    -0.237 OA
ATOM     61  O   UNL A   1      32.389  34.528  28.091  1.00  0.00    -0.237 OA
ATOM     62  O   UNL A   1      32.306  36.090  29.993  1.00  0.00    -0.744 OA
ENDBRANCH  58  59
ENDBRANCH  26  51
BRANCH  38  63
ATOM     63  C   UNL A   1      39.754  34.325  36.997  1.00  0.00     0.058 A 
ATOM     64  C   UNL A   1      38.915  34.162  38.110  1.00  0.00     0.135 A 
ATOM     65  C   UNL A   1      40.489  35.515  36.894  1.00  0.00     0.135 A 
ATOM     66  F   UNL A   1      38.186  33.043  38.249  1.00  0.00    -0.206 F 
ATOM     67  C   UNL A   1      38.785  35.158  39.071  1.00  0.00     0.059 A 
ATOM     68  C   UNL A   1      40.392  36.516  37.855  1.00  0.00     0.059 A 
ATOM     69  F   UNL A   1      41.312  35.715  35.852  1.00  0.00    -0.206 F 
ATOM     70  C   UNL A   1      39.524  36.334  38.933  1.00  0.00     0.060 A 
BRANCH  70  71
ATOM     71  S   UNL A   1      39.359  37.620  40.189  1.00  0.00     0.124 S 
ATOM     72  O   UNL A   1      40.687  38.228  40.161  1.00  0.00    -0.237 OA
ATOM     73  O   UNL A   1      38.275  38.442  39.660  1.00  0.00    -0.237 OA
ATOM     74  O   UNL A   1      39.037  36.870  41.399  1.00  0.00    -0.744 OA
ENDBRANCH  70  71
ENDBRANCH  38  63
ENDBRANCH  12  13
ENDBRANCH   5   7
ENDBRANCH   2   3
ENDBRANCH   1   2
BRANCH   1  75
ATOM     75  C   UNL A   1      36.057  23.527  25.809  1.00  0.00     0.118 C 
BRANCH  75  76
ATOM     76  N   UNL A   1      35.362  23.203  27.048  1.00  0.00    -0.352 N 
ATOM     77  C   UNL A   1      34.291  22.382  27.283  1.00  0.00     0.253 C 
ATOM     78  H   UNL A   1      35.720  23.649  27.850  1.00  0.00     0.163 HD
ATOM     79  O   UNL A   1      33.736  22.418  28.378  1.00  0.00    -0.269 OA
BRANCH  77  80
ATOM     80  C   UNL A   1      33.807  21.423  26.267  1.00  0.00     0.063 A 
ATOM     81  C   UNL A   1      34.795  20.686  25.594  1.00  0.00     0.016 A 
ATOM     82  C   UNL A   1      32.451  21.313  25.898  1.00  0.00     0.054 A 
ATOM     83  C   UNL A   1      34.447  19.830  24.552  1.00  0.00     0.001 A 
ATOM     84  C   UNL A   1      32.137  20.497  24.804  1.00  0.00     0.027 A 
ATOM     85  C   UNL A   1      33.120  19.747  24.150  1.00  0.00     0.002 A 
BRANCH  82  86
ATOM     86  N   UNL A   1      31.478  22.045  26.613  1.00  0.00    -0.321 N 
ATOM     87  C   UNL A   1      30.972  23.316  26.478  1.00  0.00     0.255 C 
ATOM     88  H   UNL A   1      31.081  21.544  27.362  1.00  0.00     0.170 HD
ATOM     89  O   UNL A   1      30.122  23.726  27.266  1.00  0.00    -0.269 OA
BRANCH  87  90
ATOM     90  C   UNL A   1      31.402  24.203  25.390  1.00  0.00     0.040 A 
ATOM     91  C   UNL A   1      32.510  25.015  25.634  1.00  0.00     0.014 A 
ATOM     92  C   UNL A   1      30.762  24.215  24.146  1.00  0.00     0.014 A 
ATOM     93  C   UNL A   1      33.022  25.800  24.608  1.00  0.00     0.010 A 
ATOM     94  C   UNL A   1      31.284  25.001  23.117  1.00  0.00     0.010 A 
ATOM     95  C   UNL A   1      32.412  25.809  23.342  1.00  0.00     0.006 A 
BRANCH  95  96
ATOM     96  C   UNL A   1      32.960  26.694  22.249  1.00  0.00     0.299 C 
BRANCH  96  97
ATOM     97  N   UNL A   1      32.540  28.094  22.255  1.00  0.00    -0.327 N 
ATOM     98  C   UNL A   1      33.390  29.024  23.010  1.00  0.00     0.291 C 
ATOM     99  C   UNL A   1      31.114  28.332  22.523  1.00  0.00     0.291 C 
ATOM    100  H   UNL A   1      32.686  28.325  21.271  1.00  0.00     0.348 HD
ATOM    101  C   UNL A   1      32.955  29.280  24.464  1.00  0.00     0.221 C 
ATOM    102  C   UNL A   1      30.754  28.632  23.989  1.00  0.00     0.221 C 
ATOM    103  O   UNL A   1      31.580  29.673  24.524  1.00  0.00    -0.370 OA
ENDBRANCH  96  97
ENDBRANCH  95  96
ENDBRANCH  87  90
ENDBRANCH  82  86
ENDBRANCH  77  80
ENDBRANCH  75  76
ENDBRANCH   1  75
TORSDOF 17
ENDMDL
MODEL 2
REMARK VINA RESULT:     -12.9      6.576     12.070
REMARK SMILES O=C(NCCCNC(=O)c1ccccc1NC(=O)c1ccc(C[NH+]2CCOCC2)cc1)c1ccc(-c2c3nc(c(-c4c(F)cc(S(=O)(=O)[O-])cc4F)c4ccc([nH]4)c(-c4c(F)cc(S(=O)(=O)[O-])cc4F)c4nc(c(-c5c(F)cc(S(=O)(=O)[O-])cc5F)c5ccc2[nH]5)C=C4)C=C3)cc1
REMARK SMILES IDX 5 1 4 2 3 3 1 4 2 5 32 7 33 8 97 9 34 10 96 11 35 12 36 13
REMARK SMILES IDX 37 14 90 15 38 16 95 17 89 18 91 19 39 20 94 21 88 22 87 23
REMARK SMILES IDX 40 25 74 26 53 27 73 28 54 29 57 30 72 31 92 32 55 33 56 34
REMARK SMILES IDX 71 36 93 37 58 38 41 39 42 40 51 41 43 42 44 43 50 44 52 45
REMARK SMILES IDX 45 46 46 47 47 48 48 49 49 50 75 51 76 52 85 53 77 54 78 55
REMARK SMILES IDX 84 56 86 57 79 58 80 59 81 60 82 61 83 62 59 63 60 64 69 65
REMARK SMILES IDX 61 66 62 67 68 68 70 69 63 70 64 71 65 72 66 73 67 74 6 75
REMARK SMILES IDX 7 76 8 77 9 79 10 80 11 81 15 82 12 83 14 84 13 85 16 86
REMARK SMILES IDX 17 87 18 89 19 90 20 91 31 92 21 93 30 94 22 95 23 96 24 97
REMARK SMILES IDX 25 98 29 99 26 101 28 102 27 103
REMARK H PARENT 3 6 91 24 57 35 7 78 16 88 24 100
REMARK Flexibility Score: inf
ROOT
ATOM      1  C   UNL A   1      33.729  29.899  26.993  1.00  0.00     0.042 C 
ENDROOT
BRANCH   1   2
ATOM      2  C   UNL A   1      34.991  29.520  27.756  1.00  0.00     0.118 C 
BRANCH   2   3
ATOM      3  N   UNL A   1      35.193  30.282  28.983  1.00  0.00    -0.352 N 
ATOM      4  O   UNL A   1      36.257  31.075  30.803  1.00  0.00    -0.269 OA
ATOM      5  C   UNL A   1      36.327  30.460  29.747  1.00  0.00     0.251 C 
ATOM      6  H   UNL A   1      34.392  30.743  29.319  1.00  0.00     0.163 HD
BRANCH   5   7
ATOM      7  C   UNL A   1      37.614  29.867  29.318  1.00  0.00     0.039 A 
ATOM      8  C   UNL A   1      38.523  29.374  30.251  1.00  0.00     0.014 A 
ATOM      9  C   UNL A   1      37.927  29.832  27.955  1.00  0.00     0.014 A 
ATOM     10  C   UNL A   1      39.818  29.066  29.852  1.00  0.00     0.010 A 
ATOM     11  C   UNL A   1      39.195  29.405  27.542  1.00  0.00     0.010 A 
ATOM     12  C   UNL A   1      40.174  29.079  28.493  1.00  0.00    -0.014 A 
BRANCH  12  13
ATOM     13  C   UNL A   1      41.571  28.742  28.109  1.00  0.00     0.031 A 
ATOM     14  C   UNL A   1      42.673  29.768  28.190  1.00  0.00     0.074 A 
ATOM     15  C   UNL A   1      41.858  27.474  27.747  1.00  0.00     0.049 A 
ATOM     16  N   UNL A   1      43.953  29.622  27.951  1.00  0.00    -0.248 NA
ATOM     17  C   UNL A   1      42.295  31.136  28.578  1.00  0.00     0.031 C 
ATOM     18  C   UNL A   1      40.877  26.394  27.616  1.00  0.00     0.029 A 
ATOM     19  N   UNL A   1      43.054  26.869  27.459  1.00  0.00    -0.354 N 
ATOM     20  C   UNL A   1      44.524  30.879  28.123  1.00  0.00     0.074 A 
ATOM     21  C   UNL A   1      43.448  31.783  28.470  1.00  0.00     0.031 C 
ATOM     22  C   UNL A   1      41.516  25.248  27.347  1.00  0.00     0.029 A 
ATOM     23  C   UNL A   1      42.943  25.519  27.223  1.00  0.00     0.049 A 
ATOM     24  H   UNL A   1      43.911  27.354  27.426  1.00  0.00     0.167 HD
ATOM     25  C   UNL A   1      45.824  31.244  28.008  1.00  0.00     0.037 A 
ATOM     26  C   UNL A   1      43.882  24.599  26.934  1.00  0.00     0.037 A 
ATOM     27  C   UNL A   1      46.897  30.334  27.702  1.00  0.00     0.049 A 
ATOM     28  C   UNL A   1      45.318  25.025  26.842  1.00  0.00     0.074 A 
ATOM     29  C   UNL A   1      48.253  30.601  27.601  1.00  0.00     0.029 A 
ATOM     30  N   UNL A   1      46.740  28.979  27.453  1.00  0.00    -0.354 N 
ATOM     31  N   UNL A   1      45.836  26.215  27.025  1.00  0.00    -0.248 NA
ATOM     32  C   UNL A   1      46.296  23.984  26.499  1.00  0.00     0.031 C 
ATOM     33  C   UNL A   1      48.910  29.414  27.260  1.00  0.00     0.029 A 
ATOM     34  C   UNL A   1      47.971  28.398  27.189  1.00  0.00     0.049 A 
ATOM     35  H   UNL A   1      45.880  28.497  27.462  1.00  0.00     0.167 HD
ATOM     36  C   UNL A   1      47.204  26.065  26.838  1.00  0.00     0.074 A 
ATOM     37  C   UNL A   1      47.434  24.664  26.542  1.00  0.00     0.031 C 
ATOM     38  C   UNL A   1      48.182  27.002  26.902  1.00  0.00     0.037 A 
BRANCH  25  39
ATOM     39  C   UNL A   1      46.161  32.699  28.198  1.00  0.00     0.058 A 
ATOM     40  C   UNL A   1      46.610  33.204  29.428  1.00  0.00     0.135 A 
ATOM     41  C   UNL A   1      46.067  33.595  27.119  1.00  0.00     0.135 A 
ATOM     42  F   UNL A   1      46.703  32.395  30.496  1.00  0.00    -0.206 F 
ATOM     43  C   UNL A   1      46.927  34.548  29.592  1.00  0.00     0.059 A 
ATOM     44  C   UNL A   1      46.401  34.940  27.254  1.00  0.00     0.059 A 
ATOM     45  F   UNL A   1      45.646  33.166  25.920  1.00  0.00    -0.206 F 
ATOM     46  C   UNL A   1      46.815  35.411  28.499  1.00  0.00     0.060 A 
BRANCH  46  47
ATOM     47  S   UNL A   1      47.225  37.155  28.727  1.00  0.00     0.124 S 
ATOM     48  O   UNL A   1      48.588  37.203  28.205  1.00  0.00    -0.237 OA
ATOM     49  O   UNL A   1      46.214  37.824  27.915  1.00  0.00    -0.237 OA
ATOM     50  O   UNL A   1      47.097  37.348  30.168  1.00  0.00    -0.744 OA
ENDBRANCH  46  47
ENDBRANCH  25  39
BRANCH  26  51
ATOM     51  C   UNL A   1      43.485  23.182  26.729  1.00  0.00     0.058 A 
ATOM     52  C   UNL A   1      43.499  22.607  25.451  1.00  0.00     0.135 A 
ATOM     53  C   UNL A   1      43.122  22.367  27.812  1.00  0.00     0.135 A 
ATOM     54  F   UNL A   1      43.838  23.349  24.385  1.00  0.00    -0.206 F 
ATOM     55  C   UNL A   1      43.155  21.275  25.248  1.00  0.00     0.059 A 
ATOM     56  C   UNL A   1      42.799  21.025  27.639  1.00  0.00     0.059 A 
ATOM     57  F   UNL A   1      43.114  22.866  29.057  1.00  0.00    -0.206 F 
ATOM     58  C   UNL A   1      42.809  20.491  26.351  1.00  0.00     0.060 A 
BRANCH  58  59
ATOM     59  S   UNL A   1      42.420  18.747  26.090  1.00  0.00     0.124 S 
ATOM     60  O   UNL A   1      42.674  18.190  27.412  1.00  0.00    -0.237 OA
ATOM     61  O   UNL A   1      41.022  18.800  25.675  1.00  0.00    -0.237 OA
ATOM     62  O   UNL A   1      43.359  18.351  25.044  1.00  0.00    -0.744 OA
ENDBRANCH  58  59
ENDBRANCH  26  51
BRANCH  38  63
ATOM     63  C   UNL A   1      49.592  26.531  26.684  1.00  0.00     0.058 A 
ATOM     64  C   UNL A   1      50.396  26.097  27.749  1.00  0.00     0.135 A 
ATOM     65  C   UNL A   1      50.135  26.497  25.391  1.00  0.00     0.135 A 
ATOM     66  F   UNL A   1      49.923  26.117  29.005  1.00  0.00    -0.206 F 
ATOM     67  C   UNL A   1      51.704  25.674  27.543  1.00  0.00     0.059 A 
ATOM     68  C   UNL A   1      51.434  26.057  25.158  1.00  0.00     0.059 A 
ATOM     69  F   UNL A   1      49.403  26.894  24.338  1.00  0.00    -0.206 F 
ATOM     70  C   UNL A   1      52.217  25.662  26.244  1.00  0.00     0.060 A 
BRANCH  70  71
ATOM     71  S   UNL A   1      53.913  25.103  25.982  1.00  0.00     0.124 S 
ATOM     72  O   UNL A   1      53.700  23.743  25.496  1.00  0.00    -0.237 OA
ATOM     73  O   UNL A   1      54.412  26.057  24.996  1.00  0.00    -0.237 OA
ATOM     74  O   UNL A   1      54.513  25.210  27.307  1.00  0.00    -0.744 OA
ENDBRANCH  70  71
ENDBRANCH  38  63
ENDBRANCH  12  13
ENDBRANCH   5   7
ENDBRANCH   2   3
ENDBRANCH   1   2
BRANCH   1  75
ATOM     75  C   UNL A   1      33.067  28.750  26.250  1.00  0.00     0.118 C 
BRANCH  75  76
ATOM     76  N   UNL A   1      33.836  27.515  26.330  1.00  0.00    -0.352 N 
ATOM     77  C   UNL A   1      33.756  26.363  25.594  1.00  0.00     0.253 C 
ATOM     78  H   UNL A   1      34.529  27.507  27.030  1.00  0.00     0.163 HD
ATOM     79  O   UNL A   1      34.366  25.366  25.970  1.00  0.00    -0.269 OA
BRANCH  77  80
ATOM     80  C   UNL A   1      32.983  26.296  24.335  1.00  0.00     0.063 A 
ATOM     81  C   UNL A   1      33.662  26.698  23.172  1.00  0.00     0.016 A 
ATOM     82  C   UNL A   1      31.616  25.958  24.288  1.00  0.00     0.054 A 
ATOM     83  C   UNL A   1      32.992  26.764  21.953  1.00  0.00     0.001 A 
ATOM     84  C   UNL A   1      30.950  26.097  23.064  1.00  0.00     0.027 A 
ATOM     85  C   UNL A   1      31.634  26.477  21.904  1.00  0.00     0.002 A 
BRANCH  82  86
ATOM     86  N   UNL A   1      30.969  25.528  25.468  1.00  0.00    -0.321 N 
ATOM     87  C   UNL A   1      30.904  24.318  26.115  1.00  0.00     0.255 C 
ATOM     88  H   UNL A   1      30.462  26.241  25.920  1.00  0.00     0.170 HD
ATOM     89  O   UNL A   1      30.238  24.206  27.143  1.00  0.00    -0.269 OA
BRANCH  87  90
ATOM     90  C   UNL A   1      31.635  23.142  25.625  1.00  0.00     0.040 A 
ATOM     91  C   UNL A   1      32.519  22.529  26.513  1.00  0.00     0.014 A 
ATOM     92  C   UNL A   1      31.433  22.626  24.340  1.00  0.00     0.014 A 
ATOM     93  C   UNL A   1      33.161  21.355  26.138  1.00  0.00     0.010 A 
ATOM     94  C   UNL A   1      32.076  21.444  23.972  1.00  0.00     0.010 A 
ATOM     95  C   UNL A   1      32.954  20.804  24.862  1.00  0.00     0.006 A 
BRANCH  95  96
ATOM     96  C   UNL A   1      33.687  19.547  24.459  1.00  0.00     0.299 C 
BRANCH  96  97
ATOM     97  N   UNL A   1      32.872  18.376  24.139  1.00  0.00    -0.327 N 
ATOM     98  C   UNL A   1      32.422  17.567  25.280  1.00  0.00     0.291 C 
ATOM     99  C   UNL A   1      33.372  17.531  23.045  1.00  0.00     0.291 C 
ATOM    100  H   UNL A   1      32.035  18.838  23.782  1.00  0.00     0.348 HD
ATOM    101  C   UNL A   1      33.325  16.372  25.635  1.00  0.00     0.221 C 
ATOM    102  C   UNL A   1      34.226  16.324  23.473  1.00  0.00     0.221 C 
ATOM    103  O   UNL A   1      33.568  15.555  24.486  1.00  0.00    -0.370 OA
ENDBRANCH  96  97
ENDBRANCH  95  96
ENDBRANCH  87  90
ENDBRANCH  82  86
ENDBRANCH  77  80
ENDBRANCH  75  76
ENDBRANCH   1  75
TORSDOF 17
ENDMDL
MODEL 3
REMARK VINA RESULT:     -12.7      1.463      4.025
REMARK SMILES O=C(NCCCNC(=O)c1ccccc1NC(=O)c1ccc(C[NH+]2CCOCC2)cc1)c1ccc(-c2c3nc(c(-c4c(F)cc(S(=O)(=O)[O-])cc4F)c4ccc([nH]4)c(-c4c(F)cc(S(=O)(=O)[O-])cc4F)c4nc(c(-c5c(F)cc(S(=O)(=O)[O-])cc5F)c5ccc2[nH]5)C=C4)C=C3)cc1
REMARK SMILES IDX 5 1 4 2 3 3 1 4 2 5 32 7 33 8 97 9 34 10 96 11 35 12 36 13
REMARK SMILES IDX 37 14 90 15 38 16 95 17 89 18 91 19 39 20 94 21 88 22 87 23
REMARK SMILES IDX 40 25 74 26 53 27 73 28 54 29 57 30 72 31 92 32 55 33 56 34
REMARK SMILES IDX 71 36 93 37 58 38 41 39 42 40 51 41 43 42 44 43 50 44 52 45
REMARK SMILES IDX 45 46 46 47 47 48 48 49 49 50 75 51 76 52 85 53 77 54 78 55
REMARK SMILES IDX 84 56 86 57 79 58 80 59 81 60 82 61 83 62 59 63 60 64 69 65
REMARK SMILES IDX 61 66 62 67 68 68 70 69 63 70 64 71 65 72 66 73 67 74 6 75
REMARK SMILES IDX 7 76 8 77 9 79 10 80 11 81 15 82 12 83 14 84 13 85 16 86
REMARK SMILES IDX 17 87 18 89 19 90 20 91 31 92 21 93 30 94 22 95 23 96 24 97
REMARK SMILES IDX 25 98 29 99 26 101 28 102 27 103
REMARK H PARENT 3 6 91 24 57 35 7 78 16 88 24 100
REMARK Flexibility Score: inf
ROOT
ATOM      1  C   UNL A   1      37.016  23.815  24.981  1.00  0.00     0.042 C 
ENDROOT
BRANCH   1   2
ATOM      2  C   UNL A   1      37.826  24.087  26.241  1.00  0.00     0.118 C 
BRANCH   2   3
ATOM      3  N   UNL A   1      39.267  23.961  26.059  1.00  0.00    -0.352 N 
ATOM      4  O   UNL A   1      41.455  24.458  26.264  1.00  0.00    -0.269 OA
ATOM      5  C   UNL A   1      40.305  24.670  26.626  1.00  0.00     0.251 C 
ATOM      6  H   UNL A   1      39.543  23.257  25.429  1.00  0.00     0.163 HD
BRANCH   5   7
ATOM      7  C   UNL A   1      40.026  25.717  27.635  1.00  0.00     0.039 A 
ATOM      8  C   UNL A   1      40.623  26.973  27.547  1.00  0.00     0.014 A 
ATOM      9  C   UNL A   1      39.174  25.424  28.704  1.00  0.00     0.014 A 
ATOM     10  C   UNL A   1      40.556  27.842  28.630  1.00  0.00     0.010 A 
ATOM     11  C   UNL A   1      39.011  26.353  29.739  1.00  0.00     0.010 A 
ATOM     12  C   UNL A   1      39.751  27.544  29.742  1.00  0.00    -0.014 A 
BRANCH  12  13
ATOM     13  C   UNL A   1      39.708  28.503  30.879  1.00  0.00     0.031 A 
ATOM     14  C   UNL A   1      40.677  28.396  32.029  1.00  0.00     0.074 A 
ATOM     15  C   UNL A   1      38.824  29.521  30.837  1.00  0.00     0.049 A 
ATOM     16  N   UNL A   1      40.814  29.184  33.067  1.00  0.00    -0.248 NA
ATOM     17  C   UNL A   1      41.607  27.255  32.025  1.00  0.00     0.031 C 
ATOM     18  C   UNL A   1      37.823  29.725  29.786  1.00  0.00     0.029 A 
ATOM     19  N   UNL A   1      38.645  30.593  31.674  1.00  0.00    -0.354 N 
ATOM     20  C   UNL A   1      41.813  28.619  33.853  1.00  0.00     0.074 A 
ATOM     21  C   UNL A   1      42.239  27.410  33.181  1.00  0.00     0.031 C 
ATOM     22  C   UNL A   1      37.189  30.885  29.999  1.00  0.00     0.029 A 
ATOM     23  C   UNL A   1      37.689  31.478  31.234  1.00  0.00     0.049 A 
ATOM     24  H   UNL A   1      39.153  30.717  32.508  1.00  0.00     0.167 HD
ATOM     25  C   UNL A   1      42.331  29.069  35.021  1.00  0.00     0.037 A 
ATOM     26  C   UNL A   1      37.256  32.637  31.764  1.00  0.00     0.037 A 
ATOM     27  C   UNL A   1      41.933  30.294  35.665  1.00  0.00     0.049 A 
ATOM     28  C   UNL A   1      37.868  33.127  33.044  1.00  0.00     0.074 A 
ATOM     29  C   UNL A   1      42.427  30.856  36.832  1.00  0.00     0.029 A 
ATOM     30  N   UNL A   1      40.950  31.153  35.196  1.00  0.00    -0.354 N 
ATOM     31  N   UNL A   1      38.824  32.585  33.759  1.00  0.00    -0.248 NA
ATOM     32  C   UNL A   1      37.340  34.384  33.590  1.00  0.00     0.031 C 
ATOM     33  C   UNL A   1      41.719  32.036  37.084  1.00  0.00     0.029 A 
ATOM     34  C   UNL A   1      40.814  32.233  36.054  1.00  0.00     0.049 A 
ATOM     35  H   UNL A   1      40.424  31.016  34.374  1.00  0.00     0.167 HD
ATOM     36  C   UNL A   1      39.026  33.444  34.833  1.00  0.00     0.074 A 
ATOM     37  C   UNL A   1      38.103  34.549  34.663  1.00  0.00     0.031 C 
ATOM     38  C   UNL A   1      39.894  33.327  35.867  1.00  0.00     0.037 A 
BRANCH  25  39
ATOM     39  C   UNL A   1      43.380  28.223  35.693  1.00  0.00     0.058 A 
ATOM     40  C   UNL A   1      44.750  28.413  35.459  1.00  0.00     0.135 A 
ATOM     41  C   UNL A   1      43.005  27.229  36.613  1.00  0.00     0.135 A 
ATOM     42  F   UNL A   1      45.163  29.338  34.578  1.00  0.00    -0.206 F 
ATOM     43  C   UNL A   1      45.712  27.632  36.092  1.00  0.00     0.059 A 
ATOM     44  C   UNL A   1      43.951  26.451  37.276  1.00  0.00     0.059 A 
ATOM     45  F   UNL A   1      41.709  27.006  36.876  1.00  0.00    -0.206 F 
ATOM     46  C   UNL A   1      45.303  26.649  36.996  1.00  0.00     0.060 A 
BRANCH  46  47
ATOM     47  S   UNL A   1      46.561  25.639  37.805  1.00  0.00     0.124 S 
ATOM     48  O   UNL A   1      45.812  25.089  38.931  1.00  0.00    -0.237 OA
ATOM     49  O   UNL A   1      46.921  24.687  36.760  1.00  0.00    -0.237 OA
ATOM     50  O   UNL A   1      47.600  26.605  38.154  1.00  0.00    -0.744 OA
ENDBRANCH  46  47
ENDBRANCH  25  39
BRANCH  26  51
ATOM     51  C   UNL A   1      36.199  33.415  31.070  1.00  0.00     0.058 A 
ATOM     52  C   UNL A   1      34.898  33.484  31.587  1.00  0.00     0.135 A 
ATOM     53  C   UNL A   1      36.478  34.134  29.897  1.00  0.00     0.135 A 
ATOM     54  F   UNL A   1      34.583  32.812  32.705  1.00  0.00    -0.206 F 
ATOM     55  C   UNL A   1      33.904  34.230  30.961  1.00  0.00     0.059 A 
ATOM     56  C   UNL A   1      35.509  34.908  29.267  1.00  0.00     0.059 A 
ATOM     57  F   UNL A   1      37.715  34.115  29.376  1.00  0.00    -0.206 F 
ATOM     58  C   UNL A   1      34.222  34.941  29.802  1.00  0.00     0.060 A 
BRANCH  58  59
ATOM     59  S   UNL A   1      32.945  35.955  29.026  1.00  0.00     0.124 S 
ATOM     60  O   UNL A   1      32.188  36.408  30.186  1.00  0.00    -0.237 OA
ATOM     61  O   UNL A   1      33.733  36.972  28.338  1.00  0.00    -0.237 OA
ATOM     62  O   UNL A   1      32.258  35.010  28.150  1.00  0.00    -0.744 OA
ENDBRANCH  58  59
ENDBRANCH  26  51
BRANCH  38  63
ATOM     63  C   UNL A   1      39.910  34.443  36.872  1.00  0.00     0.058 A 
ATOM     64  C   UNL A   1      40.673  35.603  36.673  1.00  0.00     0.135 A 
ATOM     65  C   UNL A   1      39.138  34.355  38.040  1.00  0.00     0.135 A 
ATOM     66  F   UNL A   1      41.434  35.731  35.574  1.00  0.00    -0.206 F 
ATOM     67  C   UNL A   1      40.695  36.627  37.613  1.00  0.00     0.059 A 
ATOM     68  C   UNL A   1      39.126  35.376  38.984  1.00  0.00     0.059 A 
ATOM     69  F   UNL A   1      38.384  33.268  38.274  1.00  0.00    -0.206 F 
ATOM     70  C   UNL A   1      39.921  36.503  38.769  1.00  0.00     0.060 A 
BRANCH  70  71
ATOM     71  S   UNL A   1      39.944  37.840  39.981  1.00  0.00     0.124 S 
ATOM     72  O   UNL A   1      38.884  38.709  39.478  1.00  0.00    -0.237 OA
ATOM     73  O   UNL A   1      39.652  37.141  41.229  1.00  0.00    -0.237 OA
ATOM     74  O   UNL A   1      41.298  38.372  39.871  1.00  0.00    -0.744 OA
ENDBRANCH  70  71
ENDBRANCH  38  63
ENDBRANCH  12  13
ENDBRANCH   5   7
ENDBRANCH   2   3
ENDBRANCH   1   2
BRANCH   1  75
ATOM     75  C   UNL A   1      35.523  23.647  25.210  1.00  0.00     0.118 C 
BRANCH  75  76
ATOM     76  N   UNL A   1      34.942  24.760  25.950  1.00  0.00    -0.352 N 
ATOM     77  C   UNL A   1      34.039  25.715  25.565  1.00  0.00     0.253 C 
ATOM     78  H   UNL A   1      35.250  24.839  26.882  1.00  0.00     0.163 HD
ATOM     79  O   UNL A   1      33.844  26.686  26.292  1.00  0.00    -0.269 OA
BRANCH  77  80
ATOM     80  C   UNL A   1      33.261  25.592  24.313  1.00  0.00     0.063 A 
ATOM     81  C   UNL A   1      33.950  25.893  23.126  1.00  0.00     0.016 A 
ATOM     82  C   UNL A   1      31.883  25.298  24.290  1.00  0.00     0.054 A 
ATOM     83  C   UNL A   1      33.279  25.903  21.906  1.00  0.00     0.001 A 
ATOM     84  C   UNL A   1      31.219  25.379  23.059  1.00  0.00     0.027 A 
ATOM     85  C   UNL A   1      31.912  25.658  21.876  1.00  0.00     0.002 A 
BRANCH  82  86
ATOM     86  N   UNL A   1      31.226  24.969  25.496  1.00  0.00    -0.321 N 
ATOM     87  C   UNL A   1      31.164  23.820  26.248  1.00  0.00     0.255 C 
ATOM     88  H   UNL A   1      30.705  25.714  25.875  1.00  0.00     0.170 HD
ATOM     89  O   UNL A   1      30.487  23.794  27.274  1.00  0.00    -0.269 OA
BRANCH  87  90
ATOM     90  C   UNL A   1      31.913  22.614  25.873  1.00  0.00     0.040 A 
ATOM     91  C   UNL A   1      31.761  22.154  24.565  1.00  0.00     0.014 A 
ATOM     92  C   UNL A   1      32.774  21.969  26.767  1.00  0.00     0.014 A 
ATOM     93  C   UNL A   1      32.522  21.077  24.126  1.00  0.00     0.010 A 
ATOM     94  C   UNL A   1      33.540  20.891  26.319  1.00  0.00     0.010 A 
ATOM     95  C   UNL A   1      33.413  20.429  24.999  1.00  0.00     0.006 A 
BRANCH  95  96
ATOM     96  C   UNL A   1      34.206  19.239  24.515  1.00  0.00     0.299 C 
BRANCH  96  97
ATOM     97  N   UNL A   1      33.448  18.102  23.995  1.00  0.00    -0.327 N 
ATOM     98  C   UNL A   1      32.361  17.602  24.848  1.00  0.00     0.291 C 
ATOM     99  C   UNL A   1      34.250  16.999  23.445  1.00  0.00     0.291 C 
ATOM    100  H   UNL A   1      32.990  18.547  23.198  1.00  0.00     0.348 HD
ATOM    101  C   UNL A   1      32.740  16.439  25.782  1.00  0.00     0.221 C 
ATOM    102  C   UNL A   1      34.549  15.844  24.417  1.00  0.00     0.221 C 
ATOM    103  O   UNL A   1      33.353  15.374  25.049  1.00  0.00    -0.370 OA
ENDBRANCH  96  97
ENDBRANCH  95  96
ENDBRANCH  87  90
ENDBRANCH  82  86
ENDBRANCH  77  80
ENDBRANCH  75  76
ENDBRANCH   1  75
TORSDOF 17
ENDMDL
