MODEL 1
REMARK VINA RESULT:     -12.4      0.000      0.000
REMARK SMILES Cc1nsc(N[C@@H](C)C2CCCC2)c1C(=O)NCCCNC(=O)c1ccc(-c2c3nc(c(-c4c(F)cc(S(=O)(=O)[O-])cc4F)c4ccc([nH]4)c(-c4c(F)cc(S(=O)(=O)[O-])cc4F)c4nc(c(-c5c(F)cc(S(=O)(=O)[O-])cc5F)c5ccc2[nH]5)C=C4)C=C3)cc1
REMARK SMILES IDX 19 1 18 2 17 3 15 4 16 5 14 7 1 8 2 9 3 10 4 11 5 12 6 13
REMARK SMILES IDX 7 15 8 16 9 17 10 18 13 19 11 20 12 21 20 22 21 23 22 24
REMARK SMILES IDX 23 26 24 27 25 28 89 29 26 30 88 31 27 32 28 33 29 34 82 35
REMARK SMILES IDX 30 36 87 37 81 38 83 39 31 40 86 41 80 42 79 43 32 45 66 46
REMARK SMILES IDX 45 47 65 48 46 49 49 50 64 51 84 52 47 53 48 54 63 56 85 57
REMARK SMILES IDX 50 58 33 59 34 60 43 61 35 62 36 63 42 64 44 65 37 66 38 67
REMARK SMILES IDX 39 68 40 69 41 70 67 71 68 72 77 73 69 74 70 75 76 76 78 77
REMARK SMILES IDX 71 78 72 79 73 80 74 81 75 82 51 83 52 84 61 85 53 86 54 87
REMARK SMILES IDX 60 88 62 89 55 90 56 91 57 92 58 93 59 94
REMARK H PARENT 17 6 6 14 21 25 83 44 49 55
REMARK Flexibility Score: inf
ROOT
ATOM      1  C   UNL A   1      32.595  29.919  27.260  1.00  0.00     0.042 C 
ENDROOT
BRANCH   1   2
ATOM      2  C   UNL A   1      32.786  28.449  27.647  1.00  0.00     0.118 C 
BRANCH   2   3
ATOM      3  N   UNL A   1      31.656  27.634  27.277  1.00  0.00    -0.352 N 
ATOM      4  C   UNL A   1      31.309  26.865  26.202  1.00  0.00     0.256 C 
ATOM      5  O   UNL A   1      30.293  26.193  26.431  1.00  0.00    -0.269 OA
ATOM      6  H   UNL A   1      30.959  27.630  27.974  1.00  0.00     0.163 HD
BRANCH   4   7
ATOM      7  C   UNL A   1      32.002  26.766  24.896  1.00  0.00     0.097 A 
ATOM      8  C   UNL A   1      34.086  25.066  25.060  1.00  0.00     0.069 C 
ATOM      9  C   UNL A   1      33.167  26.027  24.399  1.00  0.00     0.066 A 
ATOM     10  N   UNL A   1      33.511  26.242  23.127  1.00  0.00    -0.195 NA
ATOM     11  S   UNL A   1      32.514  27.338  22.460  1.00  0.00    -0.018 S 
ATOM     12  C   UNL A   1      31.521  27.568  23.834  1.00  0.00     0.122 A 
BRANCH  12  13
ATOM     13  N   UNL A   1      30.441  28.404  23.866  1.00  0.00    -0.372 N 
ATOM     14  H   UNL A   1      30.466  29.139  24.521  1.00  0.00     0.161 HD
BRANCH  13  15
ATOM     15  C   UNL A   1      29.259  28.313  23.025  1.00  0.00     0.080 C 
ATOM     16  C   UNL A   1      28.349  27.231  23.611  1.00  0.00     0.031 C 
BRANCH  15  17
ATOM     17  C   UNL A   1      28.579  29.690  22.817  1.00  0.00     0.011 C 
ATOM     18  C   UNL A   1      29.057  30.845  23.698  1.00  0.00     0.006 C 
ATOM     19  C   UNL A   1      28.658  30.312  21.415  1.00  0.00     0.006 C 
ATOM     20  C   UNL A   1      28.351  32.056  23.101  1.00  0.00     0.000 C 
ATOM     21  C   UNL A   1      28.244  31.772  21.605  1.00  0.00     0.000 C 
ENDBRANCH  15  17
ENDBRANCH  13  15
ENDBRANCH  12  13
ENDBRANCH   4   7
ENDBRANCH   2   3
ENDBRANCH   1   2
BRANCH   1  22
ATOM     22  C   UNL A   1      33.896  30.700  27.248  1.00  0.00     0.118 C 
BRANCH  22  23
ATOM     23  N   UNL A   1      33.949  31.674  28.345  1.00  0.00    -0.352 N 
ATOM     24  C   UNL A   1      34.900  31.817  29.342  1.00  0.00     0.251 C 
ATOM     25  H   UNL A   1      33.203  32.315  28.376  1.00  0.00     0.163 HD
ATOM     26  O   UNL A   1      34.643  32.432  30.359  1.00  0.00    -0.269 OA
BRANCH  24  27
ATOM     27  C   UNL A   1      36.218  31.193  29.135  1.00  0.00     0.039 A 
ATOM     28  C   UNL A   1      37.389  31.950  29.108  1.00  0.00     0.014 A 
ATOM     29  C   UNL A   1      36.260  29.807  29.070  1.00  0.00     0.014 A 
ATOM     30  C   UNL A   1      38.610  31.280  29.123  1.00  0.00     0.010 A 
ATOM     31  C   UNL A   1      37.442  29.164  29.314  1.00  0.00     0.010 A 
ATOM     32  C   UNL A   1      38.627  29.881  29.268  1.00  0.00    -0.014 A 
BRANCH  32  33
ATOM     33  C   UNL A   1      39.876  29.158  29.483  1.00  0.00     0.031 A 
ATOM     34  C   UNL A   1      40.213  28.961  30.914  1.00  0.00     0.074 A 
ATOM     35  C   UNL A   1      40.565  28.534  28.499  1.00  0.00     0.049 A 
ATOM     36  N   UNL A   1      41.021  29.670  31.630  1.00  0.00    -0.248 NA
ATOM     37  C   UNL A   1      39.422  27.998  31.698  1.00  0.00     0.031 C 
ATOM     38  C   UNL A   1      40.160  28.328  27.100  1.00  0.00     0.029 A 
ATOM     39  N   UNL A   1      41.753  27.869  28.562  1.00  0.00    -0.354 N 
ATOM     40  C   UNL A   1      41.076  29.026  32.862  1.00  0.00     0.074 A 
ATOM     41  C   UNL A   1      39.897  28.205  32.931  1.00  0.00     0.031 C 
ATOM     42  C   UNL A   1      40.955  27.402  26.523  1.00  0.00     0.029 A 
ATOM     43  C   UNL A   1      42.051  27.120  27.428  1.00  0.00     0.049 A 
ATOM     44  H   UNL A   1      42.349  27.914  29.344  1.00  0.00     0.167 HD
ATOM     45  C   UNL A   1      42.256  28.951  33.540  1.00  0.00     0.037 A 
ATOM     46  C   UNL A   1      43.148  26.355  27.214  1.00  0.00     0.037 A 
ATOM     47  C   UNL A   1      43.242  29.802  32.919  1.00  0.00     0.049 A 
ATOM     48  C   UNL A   1      44.214  26.867  28.103  1.00  0.00     0.074 A 
ATOM     49  C   UNL A   1      43.516  31.151  32.856  1.00  0.00     0.029 A 
ATOM     50  N   UNL A   1      43.900  29.202  31.877  1.00  0.00    -0.354 N 
ATOM     51  N   UNL A   1      44.727  28.064  27.992  1.00  0.00    -0.248 NA
ATOM     52  C   UNL A   1      44.475  26.192  29.369  1.00  0.00     0.031 C 
ATOM     53  C   UNL A   1      44.248  31.355  31.647  1.00  0.00     0.029 A 
ATOM     54  C   UNL A   1      44.444  30.126  31.025  1.00  0.00     0.049 A 
ATOM     55  H   UNL A   1      43.973  28.228  31.757  1.00  0.00     0.167 HD
ATOM     56  C   UNL A   1      44.990  28.446  29.292  1.00  0.00     0.074 A 
ATOM     57  C   UNL A   1      44.984  27.211  30.066  1.00  0.00     0.031 C 
ATOM     58  C   UNL A   1      44.850  29.743  29.687  1.00  0.00     0.037 A 
BRANCH  45  59
ATOM     59  C   UNL A   1      42.704  27.792  34.412  1.00  0.00     0.058 A 
ATOM     60  C   UNL A   1      42.831  27.998  35.804  1.00  0.00     0.135 A 
ATOM     61  C   UNL A   1      43.287  26.602  33.926  1.00  0.00     0.135 A 
ATOM     62  F   UNL A   1      42.321  29.099  36.381  1.00  0.00    -0.206 F 
ATOM     63  C   UNL A   1      43.535  27.123  36.634  1.00  0.00     0.059 A 
ATOM     64  C   UNL A   1      43.949  25.691  34.743  1.00  0.00     0.059 A 
ATOM     65  F   UNL A   1      43.333  26.303  32.623  1.00  0.00    -0.206 F 
ATOM     66  C   UNL A   1      44.101  25.975  36.090  1.00  0.00     0.060 A 
BRANCH  66  67
ATOM     67  S   UNL A   1      45.070  24.878  37.138  1.00  0.00     0.124 S 
ATOM     68  O   UNL A   1      44.532  25.184  38.458  1.00  0.00    -0.237 OA
ATOM     69  O   UNL A   1      44.732  23.566  36.595  1.00  0.00    -0.237 OA
ATOM     70  O   UNL A   1      46.443  25.312  36.897  1.00  0.00    -0.744 OA
ENDBRANCH  66  67
ENDBRANCH  45  59
BRANCH  46  71
ATOM     71  C   UNL A   1      43.265  25.076  26.475  1.00  0.00     0.058 A 
ATOM     72  C   UNL A   1      44.115  24.951  25.364  1.00  0.00     0.135 A 
ATOM     73  C   UNL A   1      42.781  23.877  27.033  1.00  0.00     0.135 A 
ATOM     74  F   UNL A   1      44.625  26.045  24.779  1.00  0.00    -0.206 F 
ATOM     75  C   UNL A   1      44.522  23.706  24.875  1.00  0.00     0.059 A 
ATOM     76  C   UNL A   1      43.170  22.622  26.561  1.00  0.00     0.059 A 
ATOM     77  F   UNL A   1      41.991  23.895  28.118  1.00  0.00    -0.206 F 
ATOM     78  C   UNL A   1      44.065  22.546  25.499  1.00  0.00     0.060 A 
BRANCH  78  79
ATOM     79  S   UNL A   1      44.741  20.946  24.991  1.00  0.00     0.124 S 
ATOM     80  O   UNL A   1      46.083  20.991  25.563  1.00  0.00    -0.237 OA
ATOM     81  O   UNL A   1      43.814  20.008  25.617  1.00  0.00    -0.237 OA
ATOM     82  O   UNL A   1      44.681  21.000  23.534  1.00  0.00    -0.744 OA
ENDBRANCH  78  79
ENDBRANCH  46  71
BRANCH  58  83
ATOM     83  C   UNL A   1      45.016  30.816  28.654  1.00  0.00     0.058 A 
ATOM     84  C   UNL A   1      44.009  31.288  27.797  1.00  0.00     0.135 A 
ATOM     85  C   UNL A   1      46.267  31.451  28.589  1.00  0.00     0.135 A 
ATOM     86  F   UNL A   1      42.768  30.781  27.846  1.00  0.00    -0.206 F 
ATOM     87  C   UNL A   1      44.246  32.330  26.896  1.00  0.00     0.059 A 
ATOM     88  C   UNL A   1      46.517  32.507  27.723  1.00  0.00     0.059 A 
ATOM     89  F   UNL A   1      47.257  31.068  29.412  1.00  0.00    -0.206 F 
ATOM     90  C   UNL A   1      45.505  32.935  26.868  1.00  0.00     0.060 A 
BRANCH  90  91
ATOM     91  S   UNL A   1      45.801  34.321  25.748  1.00  0.00     0.124 S 
ATOM     92  O   UNL A   1      47.239  34.231  25.522  1.00  0.00    -0.237 OA
ATOM     93  O   UNL A   1      44.957  33.987  24.604  1.00  0.00    -0.237 OA
ATOM     94  O   UNL A   1      45.362  35.482  26.518  1.00  0.00    -0.744 OA
ENDBRANCH  90  91
ENDBRANCH  58  83
ENDBRANCH  32  33
ENDBRANCH  24  27
ENDBRANCH  22  23
ENDBRANCH   1  22
TORSDOF 16
ENDMDL
MODEL 2
REMARK VINA RESULT:     -12.3      3.841     10.281
REMARK SMILES Cc1nsc(N[C@@H](C)C2CCCC2)c1C(=O)NCCCNC(=O)c1ccc(-c2c3nc(c(-c4c(F)cc(S(=O)(=O)[O-])cc4F)c4ccc([nH]4)c(-c4c(F)cc(S(=O)(=O)[O-])cc4F)c4nc(c(-c5c(F)cc(S(=O)(=O)[O-])cc5F)c5ccc2[nH]5)C=C4)C=C3)cc1
REMARK SMILES IDX 19 1 18 2 17 3 15 4 16 5 14 7 1 8 2 9 3 10 4 11 5 12 6 13
REMARK SMILES IDX 7 15 8 16 9 17 10 18 13 19 11 20 12 21 20 22 21 23 22 24
REMARK SMILES IDX 23 26 24 27 25 28 89 29 26 30 88 31 27 32 28 33 29 34 82 35
REMARK SMILES IDX 30 36 87 37 81 38 83 39 31 40 86 41 80 42 79 43 32 45 66 46
REMARK SMILES IDX 45 47 65 48 46 49 49 50 64 51 84 52 47 53 48 54 63 56 85 57
REMARK SMILES IDX 50 58 33 59 34 60 43 61 35 62 36 63 42 64 44 65 37 66 38 67
REMARK SMILES IDX 39 68 40 69 41 70 67 71 68 72 77 73 69 74 70 75 76 76 78 77
REMARK SMILES IDX 71 78 72 79 73 80 74 81 75 82 51 83 52 84 61 85 53 86 54 87
REMARK SMILES IDX 60 88 62 89 55 90 56 91 57 92 58 93 59 94
REMARK H PARENT 17 6 6 14 21 25 83 44 49 55
REMARK Flexibility Score: inf
ROOT
ATOM      1  C   UNL A   1      38.557  22.591  25.637  1.00  0.00     0.042 C 
ENDROOT
BRANCH   1   2
ATOM      2  C   UNL A   1      37.418  21.640  25.260  1.00  0.00     0.118 C 
BRANCH   2   3
ATOM      3  N   UNL A   1      36.684  22.094  24.105  1.00  0.00    -0.352 N 
ATOM      4  C   UNL A   1      35.487  22.715  23.883  1.00  0.00     0.256 C 
ATOM      5  O   UNL A   1      35.372  23.074  22.702  1.00  0.00    -0.269 OA
ATOM      6  H   UNL A   1      37.167  21.913  23.266  1.00  0.00     0.163 HD
BRANCH   4   7
ATOM      7  C   UNL A   1      34.409  22.983  24.863  1.00  0.00     0.097 A 
ATOM      8  C   UNL A   1      34.402  25.583  25.570  1.00  0.00     0.069 C 
ATOM      9  C   UNL A   1      33.942  24.171  25.585  1.00  0.00     0.066 A 
ATOM     10  N   UNL A   1      32.932  23.991  26.438  1.00  0.00    -0.195 NA
ATOM     11  S   UNL A   1      32.498  22.426  26.463  1.00  0.00    -0.018 S 
ATOM     12  C   UNL A   1      33.621  21.888  25.289  1.00  0.00     0.122 A 
BRANCH  12  13
ATOM     13  N   UNL A   1      33.714  20.596  24.856  1.00  0.00    -0.372 N 
ATOM     14  H   UNL A   1      34.609  20.184  24.876  1.00  0.00     0.161 HD
BRANCH  13  15
ATOM     15  C   UNL A   1      32.621  19.771  24.370  1.00  0.00     0.080 C 
ATOM     16  C   UNL A   1      32.153  20.353  23.035  1.00  0.00     0.031 C 
BRANCH  15  17
ATOM     17  C   UNL A   1      32.994  18.267  24.328  1.00  0.00     0.011 C 
ATOM     18  C   UNL A   1      34.481  17.918  24.251  1.00  0.00     0.006 C 
ATOM     19  C   UNL A   1      32.528  17.391  25.500  1.00  0.00     0.006 C 
ATOM     20  C   UNL A   1      34.495  16.406  24.435  1.00  0.00     0.000 C 
ATOM     21  C   UNL A   1      33.331  16.096  25.371  1.00  0.00     0.000 C 
ENDBRANCH  15  17
ENDBRANCH  13  15
ENDBRANCH  12  13
ENDBRANCH   4   7
ENDBRANCH   2   3
ENDBRANCH   1   2
BRANCH   1  22
ATOM     22  C   UNL A   1      39.612  21.934  26.508  1.00  0.00     0.118 C 
BRANCH  22  23
ATOM     23  N   UNL A   1      40.957  22.110  25.950  1.00  0.00    -0.352 N 
ATOM     24  C   UNL A   1      41.728  23.258  25.871  1.00  0.00     0.251 C 
ATOM     25  H   UNL A   1      41.371  21.297  25.579  1.00  0.00     0.163 HD
ATOM     26  O   UNL A   1      42.660  23.327  25.093  1.00  0.00    -0.269 OA
BRANCH  24  27
ATOM     27  C   UNL A   1      41.375  24.390  26.746  1.00  0.00     0.039 A 
ATOM     28  C   UNL A   1      41.810  24.455  28.069  1.00  0.00     0.014 A 
ATOM     29  C   UNL A   1      40.675  25.442  26.170  1.00  0.00     0.014 A 
ATOM     30  C   UNL A   1      41.622  25.645  28.769  1.00  0.00     0.010 A 
ATOM     31  C   UNL A   1      40.696  26.667  26.776  1.00  0.00     0.010 A 
ATOM     32  C   UNL A   1      41.098  26.765  28.098  1.00  0.00    -0.014 A 
BRANCH  32  33
ATOM     33  C   UNL A   1      41.062  28.078  28.732  1.00  0.00     0.031 A 
ATOM     34  C   UNL A   1      42.163  28.976  28.305  1.00  0.00     0.074 A 
ATOM     35  C   UNL A   1      40.025  28.530  29.472  1.00  0.00     0.049 A 
ATOM     36  N   UNL A   1      43.273  29.201  28.927  1.00  0.00    -0.248 NA
ATOM     37  C   UNL A   1      42.127  29.538  26.944  1.00  0.00     0.031 C 
ATOM     38  C   UNL A   1      38.711  27.899  29.672  1.00  0.00     0.029 A 
ATOM     39  N   UNL A   1      39.889  29.708  30.146  1.00  0.00    -0.354 N 
ATOM     40  C   UNL A   1      43.914  30.185  28.183  1.00  0.00     0.074 A 
ATOM     41  C   UNL A   1      43.317  30.142  26.875  1.00  0.00     0.031 C 
ATOM     42  C   UNL A   1      37.847  28.791  30.203  1.00  0.00     0.029 A 
ATOM     43  C   UNL A   1      38.596  29.971  30.587  1.00  0.00     0.049 A 
ATOM     44  H   UNL A   1      40.644  30.320  30.307  1.00  0.00     0.167 HD
ATOM     45  C   UNL A   1      44.609  31.173  28.814  1.00  0.00     0.037 A 
ATOM     46  C   UNL A   1      38.166  31.060  31.267  1.00  0.00     0.037 A 
ATOM     47  C   UNL A   1      44.747  30.867  30.218  1.00  0.00     0.049 A 
ATOM     48  C   UNL A   1      39.346  31.641  31.946  1.00  0.00     0.074 A 
ATOM     49  C   UNL A   1      45.502  30.019  30.998  1.00  0.00     0.029 A 
ATOM     50  N   UNL A   1      43.669  31.261  30.968  1.00  0.00    -0.354 N 
ATOM     51  N   UNL A   1      40.014  31.018  32.880  1.00  0.00    -0.248 NA
ATOM     52  C   UNL A   1      40.030  32.778  31.341  1.00  0.00     0.031 C 
ATOM     53  C   UNL A   1      44.756  29.806  32.196  1.00  0.00     0.029 A 
ATOM     54  C   UNL A   1      43.589  30.562  32.142  1.00  0.00     0.049 A 
ATOM     55  H   UNL A   1      43.033  31.962  30.696  1.00  0.00     0.167 HD
ATOM     56  C   UNL A   1      41.324  31.403  32.678  1.00  0.00     0.074 A 
ATOM     57  C   UNL A   1      41.251  32.601  31.851  1.00  0.00     0.031 C 
ATOM     58  C   UNL A   1      42.355  30.540  32.903  1.00  0.00     0.037 A 
BRANCH  45  59
ATOM     59  C   UNL A   1      44.732  32.610  28.342  1.00  0.00     0.058 A 
ATOM     60  C   UNL A   1      46.010  33.108  28.003  1.00  0.00     0.135 A 
ATOM     61  C   UNL A   1      43.726  33.590  28.486  1.00  0.00     0.135 A 
ATOM     62  F   UNL A   1      47.049  32.272  27.845  1.00  0.00    -0.206 F 
ATOM     63  C   UNL A   1      46.279  34.474  27.879  1.00  0.00     0.059 A 
ATOM     64  C   UNL A   1      43.959  34.951  28.317  1.00  0.00     0.059 A 
ATOM     65  F   UNL A   1      42.486  33.294  28.892  1.00  0.00    -0.206 F 
ATOM     66  C   UNL A   1      45.245  35.388  28.049  1.00  0.00     0.060 A 
BRANCH  66  67
ATOM     67  S   UNL A   1      45.596  37.153  27.961  1.00  0.00     0.124 S 
ATOM     68  O   UNL A   1      44.253  37.718  27.945  1.00  0.00    -0.237 OA
ATOM     69  O   UNL A   1      46.369  37.368  29.181  1.00  0.00    -0.237 OA
ATOM     70  O   UNL A   1      46.352  37.282  26.719  1.00  0.00    -0.744 OA
ENDBRANCH  66  67
ENDBRANCH  45  59
BRANCH  46  71
ATOM     71  C   UNL A   1      36.864  31.761  31.181  1.00  0.00     0.058 A 
ATOM     72  C   UNL A   1      36.042  31.914  32.309  1.00  0.00     0.135 A 
ATOM     73  C   UNL A   1      36.550  32.558  30.062  1.00  0.00     0.135 A 
ATOM     74  F   UNL A   1      36.279  31.198  33.418  1.00  0.00    -0.206 F 
ATOM     75  C   UNL A   1      35.009  32.856  32.354  1.00  0.00     0.059 A 
ATOM     76  C   UNL A   1      35.522  33.502  30.082  1.00  0.00     0.059 A 
ATOM     77  F   UNL A   1      37.300  32.506  28.951  1.00  0.00    -0.206 F 
ATOM     78  C   UNL A   1      34.775  33.665  31.244  1.00  0.00     0.060 A 
BRANCH  78  79
ATOM     79  S   UNL A   1      33.571  35.010  31.370  1.00  0.00     0.124 S 
ATOM     80  O   UNL A   1      32.755  34.579  32.500  1.00  0.00    -0.237 OA
ATOM     81  O   UNL A   1      34.427  36.168  31.609  1.00  0.00    -0.237 OA
ATOM     82  O   UNL A   1      32.902  34.990  30.073  1.00  0.00    -0.744 OA
ENDBRANCH  78  79
ENDBRANCH  46  71
BRANCH  58  83
ATOM     83  C   UNL A   1      42.152  29.447  33.908  1.00  0.00     0.058 A 
ATOM     84  C   UNL A   1      41.637  28.170  33.635  1.00  0.00     0.135 A 
ATOM     85  C   UNL A   1      42.583  29.700  35.221  1.00  0.00     0.135 A 
ATOM     86  F   UNL A   1      41.268  27.827  32.392  1.00  0.00    -0.206 F 
ATOM     87  C   UNL A   1      41.529  27.197  34.633  1.00  0.00     0.059 A 
ATOM     88  C   UNL A   1      42.513  28.740  36.221  1.00  0.00     0.059 A 
ATOM     89  F   UNL A   1      43.121  30.891  35.532  1.00  0.00    -0.206 F 
ATOM     90  C   UNL A   1      41.973  27.492  35.924  1.00  0.00     0.060 A 
BRANCH  90  91
ATOM     91  S   UNL A   1      41.892  26.220  37.204  1.00  0.00     0.124 S 
ATOM     92  O   UNL A   1      40.549  26.408  37.740  1.00  0.00    -0.237 OA
ATOM     93  O   UNL A   1      42.106  24.993  36.442  1.00  0.00    -0.237 OA
ATOM     94  O   UNL A   1      42.981  26.577  38.109  1.00  0.00    -0.744 OA
ENDBRANCH  90  91
ENDBRANCH  58  83
ENDBRANCH  32  33
ENDBRANCH  24  27
ENDBRANCH  22  23
ENDBRANCH   1  22
TORSDOF 16
ENDMDL
MODEL 3
REMARK VINA RESULT:     -12.2      3.475      9.628
REMARK SMILES Cc1nsc(N[C@@H](C)C2CCCC2)c1C(=O)NCCCNC(=O)c1ccc(-c2c3nc(c(-c4c(F)cc(S(=O)(=O)[O-])cc4F)c4ccc([nH]4)c(-c4c(F)cc(S(=O)(=O)[O-])cc4F)c4nc(c(-c5c(F)cc(S(=O)(=O)[O-])cc5F)c5ccc2[nH]5)C=C4)C=C3)cc1
REMARK SMILES IDX 19 1 18 2 17 3 15 4 16 5 14 7 1 8 2 9 3 10 4 11 5 12 6 13
REMARK SMILES IDX 7 15 8 16 9 17 10 18 13 19 11 20 12 21 20 22 21 23 22 24
REMARK SMILES IDX 23 26 24 27 25 28 89 29 26 30 88 31 27 32 28 33 29 34 82 35
REMARK SMILES IDX 30 36 87 37 81 38 83 39 31 40 86 41 80 42 79 43 32 45 66 46
REMARK SMILES IDX 45 47 65 48 46 49 49 50 64 51 84 52 47 53 48 54 63 56 85 57
REMARK SMILES IDX 50 58 33 59 34 60 43 61 35 62 36 63 42 64 44 65 37 66 38 67
REMARK SMILES IDX 39 68 40 69 41 70 67 71 68 72 77 73 69 74 70 75 76 76 78 77
REMARK SMILES IDX 71 78 72 79 73 80 74 81 75 82 51 83 52 84 61 85 53 86 54 87
REMARK SMILES IDX 60 88 62 89 55 90 56 91 57 92 58 93 59 94
REMARK H PARENT 17 6 6 14 21 25 83 44 49 55
REMARK Flexibility Score: inf
ROOT
ATOM      1  C   UNL A   1      37.251  23.706  25.146  1.00  0.00     0.042 C 
ENDROOT
BRANCH   1   2
ATOM      2  C   UNL A   1      36.378  22.514  24.743  1.00  0.00     0.118 C 
BRANCH   2   3
ATOM      3  N   UNL A   1      35.560  22.799  23.590  1.00  0.00    -0.352 N 
ATOM      4  C   UNL A   1      34.221  22.882  23.332  1.00  0.00     0.256 C 
ATOM      5  O   UNL A   1      34.003  23.347  22.204  1.00  0.00    -0.269 OA
ATOM      6  H   UNL A   1      36.103  22.979  22.788  1.00  0.00     0.163 HD
BRANCH   4   7
ATOM      7  C   UNL A   1      33.099  22.504  24.224  1.00  0.00     0.097 A 
ATOM      8  C   UNL A   1      33.006  19.830  24.542  1.00  0.00     0.069 C 
ATOM      9  C   UNL A   1      32.571  21.236  24.737  1.00  0.00     0.066 A 
ATOM     10  N   UNL A   1      31.487  21.313  25.512  1.00  0.00    -0.195 NA
ATOM     11  S   UNL A   1      31.013  22.861  25.654  1.00  0.00    -0.018 S 
ATOM     12  C   UNL A   1      32.269  23.541  24.710  1.00  0.00     0.122 A 
BRANCH  12  13
ATOM     13  N   UNL A   1      32.413  24.880  24.481  1.00  0.00    -0.372 N 
ATOM     14  H   UNL A   1      31.702  25.322  23.963  1.00  0.00     0.161 HD
BRANCH  13  15
ATOM     15  C   UNL A   1      33.516  25.714  24.929  1.00  0.00     0.080 C 
ATOM     16  C   UNL A   1      34.027  26.502  23.721  1.00  0.00     0.031 C 
BRANCH  15  17
ATOM     17  C   UNL A   1      33.135  26.581  26.156  1.00  0.00     0.011 C 
ATOM     18  C   UNL A   1      33.635  28.026  26.173  1.00  0.00     0.006 C 
ATOM     19  C   UNL A   1      31.639  26.764  26.454  1.00  0.00     0.006 C 
ATOM     20  C   UNL A   1      32.923  28.628  27.378  1.00  0.00     0.000 C 
ATOM     21  C   UNL A   1      31.572  27.921  27.451  1.00  0.00     0.000 C 
ENDBRANCH  15  17
ENDBRANCH  13  15
ENDBRANCH  12  13
ENDBRANCH   4   7
ENDBRANCH   2   3
ENDBRANCH   1   2
BRANCH   1  22
ATOM     22  C   UNL A   1      37.847  23.560  26.533  1.00  0.00     0.118 C 
BRANCH  22  23
ATOM     23  N   UNL A   1      39.020  22.677  26.526  1.00  0.00    -0.352 N 
ATOM     24  C   UNL A   1      40.364  23.009  26.518  1.00  0.00     0.251 C 
ATOM     25  H   UNL A   1      38.823  21.713  26.525  1.00  0.00     0.163 HD
ATOM     26  O   UNL A   1      41.202  22.197  26.173  1.00  0.00    -0.269 OA
BRANCH  24  27
ATOM     27  C   UNL A   1      40.742  24.373  26.927  1.00  0.00     0.039 A 
ATOM     28  C   UNL A   1      40.471  25.479  26.123  1.00  0.00     0.014 A 
ATOM     29  C   UNL A   1      41.289  24.526  28.194  1.00  0.00     0.014 A 
ATOM     30  C   UNL A   1      40.660  26.750  26.661  1.00  0.00     0.010 A 
ATOM     31  C   UNL A   1      41.256  25.757  28.790  1.00  0.00     0.010 A 
ATOM     32  C   UNL A   1      41.015  26.880  28.015  1.00  0.00    -0.014 A 
BRANCH  32  33
ATOM     33  C   UNL A   1      41.036  28.183  28.671  1.00  0.00     0.031 A 
ATOM     34  C   UNL A   1      42.172  29.042  28.255  1.00  0.00     0.074 A 
ATOM     35  C   UNL A   1      40.020  28.666  29.423  1.00  0.00     0.049 A 
ATOM     36  N   UNL A   1      43.292  29.210  28.876  1.00  0.00    -0.248 NA
ATOM     37  C   UNL A   1      42.155  29.627  26.903  1.00  0.00     0.031 C 
ATOM     38  C   UNL A   1      38.682  28.087  29.617  1.00  0.00     0.029 A 
ATOM     39  N   UNL A   1      39.936  29.837  30.116  1.00  0.00    -0.354 N 
ATOM     40  C   UNL A   1      43.972  30.179  28.145  1.00  0.00     0.074 A 
ATOM     41  C   UNL A   1      43.369  30.183  26.839  1.00  0.00     0.031 C 
ATOM     42  C   UNL A   1      37.858  29.005  30.166  1.00  0.00     0.029 A 
ATOM     43  C   UNL A   1      38.656  30.146  30.566  1.00  0.00     0.049 A 
ATOM     44  H   UNL A   1      40.716  30.415  30.284  1.00  0.00     0.167 HD
ATOM     45  C   UNL A   1      44.709  31.127  28.790  1.00  0.00     0.037 A 
ATOM     46  C   UNL A   1      38.274  31.241  31.265  1.00  0.00     0.037 A 
ATOM     47  C   UNL A   1      44.838  30.792  30.188  1.00  0.00     0.049 A 
ATOM     48  C   UNL A   1      39.480  31.761  31.949  1.00  0.00     0.074 A 
ATOM     49  C   UNL A   1      45.560  29.900  30.951  1.00  0.00     0.029 A 
ATOM     50  N   UNL A   1      43.780  31.218  30.949  1.00  0.00    -0.354 N 
ATOM     51  N   UNL A   1      40.124  31.095  32.870  1.00  0.00    -0.248 NA
ATOM     52  C   UNL A   1      40.209  32.878  31.361  1.00  0.00     0.031 C 
ATOM     53  C   UNL A   1      44.809  29.699  32.149  1.00  0.00     0.029 A 
ATOM     54  C   UNL A   1      43.674  30.503  32.112  1.00  0.00     0.049 A 
ATOM     55  H   UNL A   1      43.173  31.949  30.691  1.00  0.00     0.167 HD
ATOM     56  C   UNL A   1      41.449  31.429  32.670  1.00  0.00     0.074 A 
ATOM     57  C   UNL A   1      41.423  32.643  31.863  1.00  0.00     0.031 C 
ATOM     58  C   UNL A   1      42.443  30.520  32.876  1.00  0.00     0.037 A 
BRANCH  45  59
ATOM     59  C   UNL A   1      44.890  32.565  28.341  1.00  0.00     0.058 A 
ATOM     60  C   UNL A   1      46.194  33.031  28.059  1.00  0.00     0.135 A 
ATOM     61  C   UNL A   1      43.906  33.571  28.457  1.00  0.00     0.135 A 
ATOM     62  F   UNL A   1      47.215  32.168  27.933  1.00  0.00    -0.206 F 
ATOM     63  C   UNL A   1      46.504  34.390  27.963  1.00  0.00     0.059 A 
ATOM     64  C   UNL A   1      44.183  34.927  28.314  1.00  0.00     0.059 A 
ATOM     65  F   UNL A   1      42.643  33.305  28.809  1.00  0.00    -0.206 F 
ATOM     66  C   UNL A   1      45.491  35.331  28.104  1.00  0.00     0.060 A 
BRANCH  66  67
ATOM     67  S   UNL A   1      45.893  37.086  28.052  1.00  0.00     0.124 S 
ATOM     68  O   UNL A   1      46.289  37.254  26.659  1.00  0.00    -0.237 OA
ATOM     69  O   UNL A   1      44.625  37.697  28.437  1.00  0.00    -0.237 OA
ATOM     70  O   UNL A   1      46.964  37.212  29.035  1.00  0.00    -0.744 OA
ENDBRANCH  66  67
ENDBRANCH  45  59
BRANCH  46  71
ATOM     71  C   UNL A   1      37.002  31.997  31.196  1.00  0.00     0.058 A 
ATOM     72  C   UNL A   1      36.115  32.033  32.284  1.00  0.00     0.135 A 
ATOM     73  C   UNL A   1      36.785  32.945  30.176  1.00  0.00     0.135 A 
ATOM     74  F   UNL A   1      36.258  31.169  33.299  1.00  0.00    -0.206 F 
ATOM     75  C   UNL A   1      35.110  32.999  32.392  1.00  0.00     0.059 A 
ATOM     76  C   UNL A   1      35.787  33.917  30.260  1.00  0.00     0.059 A 
ATOM     77  F   UNL A   1      37.603  33.010  29.115  1.00  0.00    -0.206 F 
ATOM     78  C   UNL A   1      34.972  33.956  31.386  1.00  0.00     0.060 A 
BRANCH  78  79
ATOM     79  S   UNL A   1      33.804  35.318  31.619  1.00  0.00     0.124 S 
ATOM     80  O   UNL A   1      33.527  35.715  30.242  1.00  0.00    -0.237 OA
ATOM     81  O   UNL A   1      32.706  34.665  32.325  1.00  0.00    -0.237 OA
ATOM     82  O   UNL A   1      34.562  36.284  32.408  1.00  0.00    -0.744 OA
ENDBRANCH  78  79
ENDBRANCH  46  71
BRANCH  58  83
ATOM     83  C   UNL A   1      42.198  29.421  33.865  1.00  0.00     0.058 A 
ATOM     84  C   UNL A   1      41.724  28.136  33.557  1.00  0.00     0.135 A 
ATOM     85  C   UNL A   1      42.542  29.676  35.202  1.00  0.00     0.135 A 
ATOM     86  F   UNL A   1      41.439  27.790  32.292  1.00  0.00    -0.206 F 
ATOM     87  C   UNL A   1      41.572  27.157  34.544  1.00  0.00     0.059 A 
ATOM     88  C   UNL A   1      42.428  28.711  36.194  1.00  0.00     0.059 A 
ATOM     89  F   UNL A   1      43.038  30.875  35.549  1.00  0.00    -0.206 F 
ATOM     90  C   UNL A   1      41.930  27.455  35.860  1.00  0.00     0.060 A 
BRANCH  90  91
ATOM     91  S   UNL A   1      41.793  26.177  37.129  1.00  0.00     0.124 S 
ATOM     92  O   UNL A   1      42.950  26.456  37.972  1.00  0.00    -0.237 OA
ATOM     93  O   UNL A   1      40.491  26.463  37.725  1.00  0.00    -0.237 OA
ATOM     94  O   UNL A   1      41.860  24.932  36.369  1.00  0.00    -0.744 OA
ENDBRANCH  90  91
ENDBRANCH  58  83
ENDBRANCH  32  33
ENDBRANCH  24  27
ENDBRANCH  22  23
ENDBRANCH   1  22
TORSDOF 16
ENDMDL
