MODEL 1
REMARK VINA RESULT:      -9.7      0.000      0.000
REMARK SMILES C[C@H](Oc1ccccc1[N+](=O)[O-])C(=O)N1CCC[C@H](C(=O)NCCCNC(=O)c2ccc(-c3c4nc(c(-c5c(F)cc(S(=O)(=O)[O-])cc5F)c5ccc([nH]5)c(-c5c(F)cc(S(=O)(=O)[O-])cc5F)c5nc(c(-c6c(F)cc(S(=O)(=O)[O-])cc6F)c6ccc3[nH]6)C=C5)C=C4)cc2)C1
REMARK SMILES IDX 23 1 22 2 20 3 21 4 19 6 15 7 16 8 95 9 17 10 18 11 13 12
REMARK SMILES IDX 14 13 2 14 1 15 3 16 4 17 5 18 9 19 6 20 8 21 7 22 10 23
REMARK SMILES IDX 11 24 12 25 24 26 25 27 26 28 27 29 28 31 29 32 30 33 94 34
REMARK SMILES IDX 31 35 93 36 32 37 33 38 34 39 87 40 35 41 92 42 86 43 88 44
REMARK SMILES IDX 36 45 91 46 85 47 84 48 37 50 71 51 50 52 70 53 51 54 54 55
REMARK SMILES IDX 69 56 89 57 52 58 53 59 68 61 90 62 55 63 38 64 39 65 48 66
REMARK SMILES IDX 40 67 41 68 47 69 49 70 42 71 43 72 44 73 45 74 46 75 72 76
REMARK SMILES IDX 73 77 82 78 74 79 75 80 81 81 83 82 76 83 77 84 78 85 79 86
REMARK SMILES IDX 80 87 56 88 57 89 66 90 58 91 59 92 65 93 67 94 60 95 61 96
REMARK SMILES IDX 62 97 63 98 64 99
REMARK H PARENT 22 5 26 30 88 49 54 60
REMARK Flexibility Score: inf
ROOT
ATOM      1  C   UNL A   1      34.721  33.384  31.964  1.00  0.00     0.117 C 
ENDROOT
BRANCH   1   2
ATOM      2  N   UNL A   1      35.138  33.185  33.332  1.00  0.00    -0.356 N 
ATOM      3  C   UNL A   1      36.369  33.227  33.898  1.00  0.00     0.224 C 
ATOM      4  O   UNL A   1      36.405  33.182  35.135  1.00  0.00    -0.275 OA
ATOM      5  H   UNL A   1      34.405  32.985  33.958  1.00  0.00     0.163 HD
BRANCH   3   6
ATOM      6  C   UNL A   1      37.692  33.257  33.115  1.00  0.00     0.098 C 
ATOM      7  N   UNL A   1      39.406  31.493  33.687  1.00  0.00    -0.339 N 
ATOM      8  C   UNL A   1      40.379  32.508  34.073  1.00  0.00     0.119 C 
ATOM      9  C   UNL A   1      38.329  31.901  32.786  1.00  0.00     0.133 C 
ATOM     10  C   UNL A   1      39.749  33.807  34.549  1.00  0.00     0.022 C 
ATOM     11  C   UNL A   1      38.668  34.324  33.611  1.00  0.00     0.017 C 
BRANCH   7  12
ATOM     12  C   UNL A   1      39.518  30.206  34.225  1.00  0.00     0.263 C 
ATOM     13  O   UNL A   1      38.959  29.905  35.284  1.00  0.00    -0.271 OA
BRANCH  12  14
ATOM     14  C   UNL A   1      40.592  29.262  33.627  1.00  0.00     0.259 C 
ATOM     15  C   UNL A   1      39.756  28.331  32.734  1.00  0.00     0.064 C 
BRANCH  14  16
ATOM     16  O   UNL A   1      41.391  28.640  34.630  1.00  0.00    -0.474 OA
BRANCH  16  17
ATOM     17  C   UNL A   1      42.415  27.785  34.349  1.00  0.00     0.197 A 
ATOM     18  C   UNL A   1      43.409  28.039  33.405  1.00  0.00     0.054 A 
ATOM     19  C   UNL A   1      42.442  26.534  34.995  1.00  0.00     0.310 A 
ATOM     20  C   UNL A   1      44.256  27.020  32.956  1.00  0.00     0.004 A 
ATOM     21  C   UNL A   1      43.296  25.507  34.554  1.00  0.00     0.090 A 
ATOM     22  C   UNL A   1      44.173  25.743  33.501  1.00  0.00     0.007 A 
BRANCH  19  23
ATOM     23  N   UNL A   1      41.626  26.269  36.185  1.00  0.00     0.066 N 
ATOM     24  O   UNL A   1      40.635  25.535  36.038  1.00  0.00    -0.258 OA
ATOM     25  O   UNL A   1      41.996  26.732  37.271  1.00  0.00    -0.258 OA
ENDBRANCH  19  23
ENDBRANCH  16  17
ENDBRANCH  14  16
ENDBRANCH  12  14
ENDBRANCH   7  12
ENDBRANCH   3   6
ENDBRANCH   1   2
BRANCH   1  26
ATOM     26  C   UNL A   1      34.937  32.181  31.065  1.00  0.00     0.042 C 
BRANCH  26  27
ATOM     27  C   UNL A   1      34.979  32.541  29.594  1.00  0.00     0.118 C 
BRANCH  27  28
ATOM     28  N   UNL A   1      34.223  31.614  28.756  1.00  0.00    -0.352 N 
ATOM     29  C   UNL A   1      34.608  30.447  28.135  1.00  0.00     0.251 C 
ATOM     30  H   UNL A   1      33.282  31.865  28.612  1.00  0.00     0.163 HD
ATOM     31  O   UNL A   1      33.825  29.865  27.399  1.00  0.00    -0.269 OA
BRANCH  29  32
ATOM     32  C   UNL A   1      35.979  29.922  28.326  1.00  0.00     0.039 A 
ATOM     33  C   UNL A   1      36.911  30.077  27.295  1.00  0.00     0.014 A 
ATOM     34  C   UNL A   1      36.359  29.305  29.517  1.00  0.00     0.014 A 
ATOM     35  C   UNL A   1      38.237  29.687  27.495  1.00  0.00     0.010 A 
ATOM     36  C   UNL A   1      37.698  29.038  29.760  1.00  0.00     0.010 A 
ATOM     37  C   UNL A   1      38.652  29.208  28.748  1.00  0.00    -0.014 A 
BRANCH  37  38
ATOM     38  C   UNL A   1      40.064  28.845  29.022  1.00  0.00     0.031 A 
ATOM     39  C   UNL A   1      40.992  29.868  29.624  1.00  0.00     0.074 A 
ATOM     40  C   UNL A   1      40.531  27.634  28.657  1.00  0.00     0.049 A 
ATOM     41  N   UNL A   1      42.280  29.795  29.836  1.00  0.00    -0.248 NA
ATOM     42  C   UNL A   1      40.399  31.166  29.995  1.00  0.00     0.031 C 
ATOM     43  C   UNL A   1      39.746  26.580  28.009  1.00  0.00     0.029 A 
ATOM     44  N   UNL A   1      41.784  27.087  28.769  1.00  0.00    -0.354 N 
ATOM     45  C   UNL A   1      42.653  31.040  30.331  1.00  0.00     0.074 A 
ATOM     46  C   UNL A   1      41.470  31.870  30.327  1.00  0.00     0.031 C 
ATOM     47  C   UNL A   1      40.525  25.505  27.813  1.00  0.00     0.029 A 
ATOM     48  C   UNL A   1      41.874  25.804  28.281  1.00  0.00     0.049 A 
ATOM     49  H   UNL A   1      42.548  27.568  29.162  1.00  0.00     0.167 HD
ATOM     50  C   UNL A   1      43.865  31.446  30.777  1.00  0.00     0.037 A 
ATOM     51  C   UNL A   1      42.928  24.965  28.217  1.00  0.00     0.037 A 
ATOM     52  C   UNL A   1      45.022  30.593  30.829  1.00  0.00     0.049 A 
ATOM     53  C   UNL A   1      44.257  25.427  28.751  1.00  0.00     0.074 A 
ATOM     54  C   UNL A   1      46.277  30.876  31.337  1.00  0.00     0.029 A 
ATOM     55  N   UNL A   1      45.061  29.286  30.366  1.00  0.00    -0.354 N 
ATOM     56  N   UNL A   1      44.577  26.586  29.275  1.00  0.00    -0.248 NA
ATOM     57  C   UNL A   1      45.365  24.465  28.694  1.00  0.00     0.031 C 
ATOM     58  C   UNL A   1      47.087  29.752  31.145  1.00  0.00     0.029 A 
ATOM     59  C   UNL A   1      46.323  28.753  30.561  1.00  0.00     0.049 A 
ATOM     60  H   UNL A   1      44.303  28.809  29.958  1.00  0.00     0.167 HD
ATOM     61  C   UNL A   1      45.916  26.485  29.634  1.00  0.00     0.074 A 
ATOM     62  C   UNL A   1      46.341  25.146  29.278  1.00  0.00     0.031 C 
ATOM     63  C   UNL A   1      46.721  27.414  30.207  1.00  0.00     0.037 A 
BRANCH  50  64
ATOM     64  C   UNL A   1      43.991  32.866  31.257  1.00  0.00     0.058 A 
ATOM     65  C   UNL A   1      43.884  33.199  32.617  1.00  0.00     0.135 A 
ATOM     66  C   UNL A   1      44.243  33.907  30.348  1.00  0.00     0.135 A 
ATOM     67  F   UNL A   1      43.626  32.247  33.529  1.00  0.00    -0.206 F 
ATOM     68  C   UNL A   1      43.984  34.516  33.055  1.00  0.00     0.059 A 
ATOM     69  C   UNL A   1      44.379  35.228  30.768  1.00  0.00     0.059 A 
ATOM     70  F   UNL A   1      44.354  33.647  29.036  1.00  0.00    -0.206 F 
ATOM     71  C   UNL A   1      44.231  35.524  32.123  1.00  0.00     0.060 A 
BRANCH  71  72
ATOM     72  S   UNL A   1      44.365  37.226  32.708  1.00  0.00     0.124 S 
ATOM     73  O   UNL A   1      43.341  37.256  33.748  1.00  0.00    -0.237 OA
ATOM     74  O   UNL A   1      45.745  37.288  33.177  1.00  0.00    -0.237 OA
ATOM     75  O   UNL A   1      44.074  38.019  31.519  1.00  0.00    -0.744 OA
ENDBRANCH  71  72
ENDBRANCH  50  64
BRANCH  51  76
ATOM     76  C   UNL A   1      42.758  23.597  27.660  1.00  0.00     0.058 A 
ATOM     77  C   UNL A   1      43.013  23.338  26.305  1.00  0.00     0.135 A 
ATOM     78  C   UNL A   1      42.360  22.521  28.466  1.00  0.00     0.135 A 
ATOM     79  F   UNL A   1      43.391  24.335  25.491  1.00  0.00    -0.206 F 
ATOM     80  C   UNL A   1      42.862  22.065  25.764  1.00  0.00     0.059 A 
ATOM     81  C   UNL A   1      42.225  21.233  27.954  1.00  0.00     0.059 A 
ATOM     82  F   UNL A   1      42.120  22.711  29.773  1.00  0.00    -0.206 F 
ATOM     83  C   UNL A   1      42.470  21.017  26.598  1.00  0.00     0.060 A 
BRANCH  83  84
ATOM     84  S   UNL A   1      42.327  19.358  25.897  1.00  0.00     0.124 S 
ATOM     85  O   UNL A   1      40.887  19.252  25.685  1.00  0.00    -0.237 OA
ATOM     86  O   UNL A   1      43.144  19.462  24.692  1.00  0.00    -0.237 OA
ATOM     87  O   UNL A   1      42.875  18.502  26.946  1.00  0.00    -0.744 OA
ENDBRANCH  83  84
ENDBRANCH  51  76
BRANCH  63  88
ATOM     88  C   UNL A   1      48.133  27.006  30.519  1.00  0.00     0.058 A 
ATOM     89  C   UNL A   1      49.191  27.287  29.642  1.00  0.00     0.135 A 
ATOM     90  C   UNL A   1      48.436  26.378  31.739  1.00  0.00     0.135 A 
ATOM     91  F   UNL A   1      48.953  27.880  28.462  1.00  0.00    -0.206 F 
ATOM     92  C   UNL A   1      50.501  26.941  29.954  1.00  0.00     0.059 A 
ATOM     93  C   UNL A   1      49.742  26.049  32.083  1.00  0.00     0.059 A 
ATOM     94  F   UNL A   1      47.460  26.099  32.617  1.00  0.00    -0.206 F 
ATOM     95  C   UNL A   1      50.768  26.324  31.179  1.00  0.00     0.060 A 
BRANCH  95  96
ATOM     96  S   UNL A   1      52.477  25.915  31.588  1.00  0.00     0.124 S 
ATOM     97  O   UNL A   1      53.135  26.077  30.296  1.00  0.00    -0.237 OA
ATOM     98  O   UNL A   1      52.807  26.917  32.598  1.00  0.00    -0.237 OA
ATOM     99  O   UNL A   1      52.389  24.544  32.082  1.00  0.00    -0.744 OA
ENDBRANCH  95  96
ENDBRANCH  63  88
ENDBRANCH  37  38
ENDBRANCH  29  32
ENDBRANCH  27  28
ENDBRANCH  26  27
ENDBRANCH   1  26
TORSDOF 18
ENDMDL
MODEL 2
REMARK VINA RESULT:      -9.6      4.361      7.519
REMARK SMILES C[C@H](Oc1ccccc1[N+](=O)[O-])C(=O)N1CCC[C@H](C(=O)NCCCNC(=O)c2ccc(-c3c4nc(c(-c5c(F)cc(S(=O)(=O)[O-])cc5F)c5ccc([nH]5)c(-c5c(F)cc(S(=O)(=O)[O-])cc5F)c5nc(c(-c6c(F)cc(S(=O)(=O)[O-])cc6F)c6ccc3[nH]6)C=C5)C=C4)cc2)C1
REMARK SMILES IDX 23 1 22 2 20 3 21 4 19 6 15 7 16 8 95 9 17 10 18 11 13 12
REMARK SMILES IDX 14 13 2 14 1 15 3 16 4 17 5 18 9 19 6 20 8 21 7 22 10 23
REMARK SMILES IDX 11 24 12 25 24 26 25 27 26 28 27 29 28 31 29 32 30 33 94 34
REMARK SMILES IDX 31 35 93 36 32 37 33 38 34 39 87 40 35 41 92 42 86 43 88 44
REMARK SMILES IDX 36 45 91 46 85 47 84 48 37 50 71 51 50 52 70 53 51 54 54 55
REMARK SMILES IDX 69 56 89 57 52 58 53 59 68 61 90 62 55 63 38 64 39 65 48 66
REMARK SMILES IDX 40 67 41 68 47 69 49 70 42 71 43 72 44 73 45 74 46 75 72 76
REMARK SMILES IDX 73 77 82 78 74 79 75 80 81 81 83 82 76 83 77 84 78 85 79 86
REMARK SMILES IDX 80 87 56 88 57 89 66 90 58 91 59 92 65 93 67 94 60 95 61 96
REMARK SMILES IDX 62 97 63 98 64 99
REMARK H PARENT 22 5 26 30 88 49 54 60
REMARK Flexibility Score: inf
ROOT
ATOM      1  C   UNL A   1      33.695  30.090  26.605  1.00  0.00     0.117 C 
ENDROOT
BRANCH   1   2
ATOM      2  N   UNL A   1      33.945  29.308  25.418  1.00  0.00    -0.356 N 
ATOM      3  C   UNL A   1      33.096  28.616  24.618  1.00  0.00     0.224 C 
ATOM      4  O   UNL A   1      33.575  28.174  23.565  1.00  0.00    -0.275 OA
ATOM      5  H   UNL A   1      34.890  29.270  25.144  1.00  0.00     0.163 HD
BRANCH   3   6
ATOM      6  C   UNL A   1      31.632  28.298  24.962  1.00  0.00     0.098 C 
ATOM      7  N   UNL A   1      30.620  26.247  23.890  1.00  0.00    -0.339 N 
ATOM      8  C   UNL A   1      29.597  27.050  23.229  1.00  0.00     0.119 C 
ATOM      9  C   UNL A   1      31.258  26.815  25.077  1.00  0.00     0.133 C 
ATOM     10  C   UNL A   1      30.021  28.487  22.972  1.00  0.00     0.022 C 
ATOM     11  C   UNL A   1      30.627  29.158  24.195  1.00  0.00     0.017 C 
BRANCH   7  12
ATOM     12  C   UNL A   1      30.972  25.011  23.340  1.00  0.00     0.263 C 
ATOM     13  O   UNL A   1      30.152  24.091  23.256  1.00  0.00    -0.271 OA
BRANCH  12  14
ATOM     14  C   UNL A   1      32.478  24.720  23.113  1.00  0.00     0.259 C 
ATOM     15  C   UNL A   1      32.749  25.407  21.765  1.00  0.00     0.064 C 
BRANCH  14  16
ATOM     16  O   UNL A   1      32.784  23.330  23.197  1.00  0.00    -0.474 OA
BRANCH  16  17
ATOM     17  C   UNL A   1      33.940  22.849  23.735  1.00  0.00     0.197 A 
ATOM     18  C   UNL A   1      35.214  23.274  23.357  1.00  0.00     0.054 A 
ATOM     19  C   UNL A   1      33.859  21.810  24.680  1.00  0.00     0.310 A 
ATOM     20  C   UNL A   1      36.354  22.552  23.727  1.00  0.00     0.004 A 
ATOM     21  C   UNL A   1      35.002  21.085  25.063  1.00  0.00     0.090 A 
ATOM     22  C   UNL A   1      36.246  21.434  24.547  1.00  0.00     0.007 A 
BRANCH  19  23
ATOM     23  N   UNL A   1      32.595  21.478  25.346  1.00  0.00     0.066 N 
ATOM     24  O   UNL A   1      32.069  20.392  25.053  1.00  0.00    -0.258 OA
ATOM     25  O   UNL A   1      32.155  22.256  26.202  1.00  0.00    -0.258 OA
ENDBRANCH  19  23
ENDBRANCH  16  17
ENDBRANCH  14  16
ENDBRANCH  12  14
ENDBRANCH   7  12
ENDBRANCH   3   6
ENDBRANCH   1   2
BRANCH   1  26
ATOM     26  C   UNL A   1      34.579  29.734  27.785  1.00  0.00     0.042 C 
BRANCH  26  27
ATOM     27  C   UNL A   1      35.451  30.886  28.240  1.00  0.00     0.118 C 
BRANCH  27  28
ATOM     28  N   UNL A   1      35.484  31.039  29.692  1.00  0.00    -0.352 N 
ATOM     29  C   UNL A   1      36.453  30.696  30.610  1.00  0.00     0.251 C 
ATOM     30  H   UNL A   1      34.681  31.456  30.079  1.00  0.00     0.163 HD
ATOM     31  O   UNL A   1      36.234  30.836  31.804  1.00  0.00    -0.269 OA
BRANCH  29  32
ATOM     32  C   UNL A   1      37.738  30.123  30.152  1.00  0.00     0.039 A 
ATOM     33  C   UNL A   1      38.085  30.237  28.802  1.00  0.00     0.014 A 
ATOM     34  C   UNL A   1      38.612  29.501  31.043  1.00  0.00     0.014 A 
ATOM     35  C   UNL A   1      39.339  29.799  28.370  1.00  0.00     0.010 A 
ATOM     36  C   UNL A   1      39.901  29.187  30.640  1.00  0.00     0.010 A 
ATOM     37  C   UNL A   1      40.277  29.314  29.296  1.00  0.00    -0.014 A 
BRANCH  37  38
ATOM     38  C   UNL A   1      41.643  28.902  28.887  1.00  0.00     0.031 A 
ATOM     39  C   UNL A   1      42.751  29.923  28.859  1.00  0.00     0.074 A 
ATOM     40  C   UNL A   1      41.868  27.641  28.467  1.00  0.00     0.049 A 
ATOM     41  N   UNL A   1      43.979  29.800  28.428  1.00  0.00    -0.248 NA
ATOM     42  C   UNL A   1      42.419  31.277  29.337  1.00  0.00     0.031 C 
ATOM     43  C   UNL A   1      40.862  26.578  28.390  1.00  0.00     0.029 A 
ATOM     44  N   UNL A   1      43.015  27.040  28.014  1.00  0.00    -0.354 N 
ATOM     45  C   UNL A   1      44.551  31.062  28.552  1.00  0.00     0.074 A 
ATOM     46  C   UNL A   1      43.519  31.950  29.036  1.00  0.00     0.031 C 
ATOM     47  C   UNL A   1      41.443  25.451  27.952  1.00  0.00     0.029 A 
ATOM     48  C   UNL A   1      42.850  25.717  27.676  1.00  0.00     0.049 A 
ATOM     49  H   UNL A   1      43.876  27.512  27.938  1.00  0.00     0.167 HD
ATOM     50  C   UNL A   1      45.829  31.439  28.313  1.00  0.00     0.037 A 
ATOM     51  C   UNL A   1      43.736  24.821  27.196  1.00  0.00     0.037 A 
ATOM     52  C   UNL A   1      46.861  30.534  27.885  1.00  0.00     0.049 A 
ATOM     53  C   UNL A   1      45.160  25.256  26.972  1.00  0.00     0.074 A 
ATOM     54  C   UNL A   1      48.206  30.793  27.691  1.00  0.00     0.029 A 
ATOM     55  N   UNL A   1      46.664  29.192  27.595  1.00  0.00    -0.354 N 
ATOM     56  N   UNL A   1      45.699  26.438  27.155  1.00  0.00    -0.248 NA
ATOM     57  C   UNL A   1      46.096  24.235  26.483  1.00  0.00     0.031 C 
ATOM     58  C   UNL A   1      48.816  29.615  27.246  1.00  0.00     0.029 A 
ATOM     59  C   UNL A   1      47.860  28.612  27.209  1.00  0.00     0.049 A 
ATOM     60  H   UNL A   1      45.802  28.722  27.656  1.00  0.00     0.167 HD
ATOM     61  C   UNL A   1      47.043  26.296  26.830  1.00  0.00     0.074 A 
ATOM     62  C   UNL A   1      47.236  24.911  26.450  1.00  0.00     0.031 C 
ATOM     63  C   UNL A   1      48.029  27.227  26.845  1.00  0.00     0.037 A 
BRANCH  50  64
ATOM     64  C   UNL A   1      46.179  32.887  28.525  1.00  0.00     0.058 A 
ATOM     65  C   UNL A   1      46.607  33.369  29.773  1.00  0.00     0.135 A 
ATOM     66  C   UNL A   1      46.105  33.803  27.463  1.00  0.00     0.135 A 
ATOM     67  F   UNL A   1      46.681  32.542  30.829  1.00  0.00    -0.206 F 
ATOM     68  C   UNL A   1      46.914  34.711  29.970  1.00  0.00     0.059 A 
ATOM     69  C   UNL A   1      46.437  35.145  27.629  1.00  0.00     0.059 A 
ATOM     70  F   UNL A   1      45.700  33.398  26.248  1.00  0.00    -0.206 F 
ATOM     71  C   UNL A   1      46.825  35.592  28.892  1.00  0.00     0.060 A 
BRANCH  71  72
ATOM     72  S   UNL A   1      47.232  37.330  29.162  1.00  0.00     0.124 S 
ATOM     73  O   UNL A   1      47.917  37.665  27.918  1.00  0.00    -0.237 OA
ATOM     74  O   UNL A   1      45.916  37.935  29.343  1.00  0.00    -0.237 OA
ATOM     75  O   UNL A   1      48.073  37.301  30.354  1.00  0.00    -0.744 OA
ENDBRANCH  71  72
ENDBRANCH  50  64
BRANCH  51  76
ATOM     76  C   UNL A   1      43.311  23.421  26.932  1.00  0.00     0.058 A 
ATOM     77  C   UNL A   1      43.119  22.964  25.620  1.00  0.00     0.135 A 
ATOM     78  C   UNL A   1      43.106  22.507  27.976  1.00  0.00     0.135 A 
ATOM     79  F   UNL A   1      43.298  23.801  24.586  1.00  0.00    -0.206 F 
ATOM     80  C   UNL A   1      42.724  21.658  25.351  1.00  0.00     0.059 A 
ATOM     81  C   UNL A   1      42.734  21.187  27.733  1.00  0.00     0.059 A 
ATOM     82  F   UNL A   1      43.293  22.887  29.251  1.00  0.00    -0.206 F 
ATOM     83  C   UNL A   1      42.536  20.775  26.415  1.00  0.00     0.060 A 
BRANCH  83  84
ATOM     84  S   UNL A   1      42.072  19.068  26.053  1.00  0.00     0.124 S 
ATOM     85  O   UNL A   1      42.936  18.763  24.917  1.00  0.00    -0.237 OA
ATOM     86  O   UNL A   1      42.397  18.388  27.303  1.00  0.00    -0.237 OA
ATOM     87  O   UNL A   1      40.646  19.163  25.753  1.00  0.00    -0.744 OA
ENDBRANCH  83  84
ENDBRANCH  51  76
BRANCH  63  88
ATOM     88  C   UNL A   1      49.412  26.774  26.475  1.00  0.00     0.058 A 
ATOM     89  C   UNL A   1      50.236  26.099  27.387  1.00  0.00     0.135 A 
ATOM     90  C   UNL A   1      49.895  26.967  25.169  1.00  0.00     0.135 A 
ATOM     91  F   UNL A   1      49.824  25.895  28.648  1.00  0.00    -0.206 F 
ATOM     92  C   UNL A   1      51.501  25.647  27.025  1.00  0.00     0.059 A 
ATOM     93  C   UNL A   1      51.145  26.499  24.778  1.00  0.00     0.059 A 
ATOM     94  F   UNL A   1      49.140  27.596  24.255  1.00  0.00    -0.206 F 
ATOM     95  C   UNL A   1      51.946  25.850  25.716  1.00  0.00     0.060 A 
BRANCH  95  96
ATOM     96  S   UNL A   1      53.573  25.226  25.249  1.00  0.00     0.124 S 
ATOM     97  O   UNL A   1      53.678  25.684  23.868  1.00  0.00    -0.237 OA
ATOM     98  O   UNL A   1      54.451  25.890  26.207  1.00  0.00    -0.237 OA
ATOM     99  O   UNL A   1      53.445  23.782  25.424  1.00  0.00    -0.744 OA
ENDBRANCH  95  96
ENDBRANCH  63  88
ENDBRANCH  37  38
ENDBRANCH  29  32
ENDBRANCH  27  28
ENDBRANCH  26  27
ENDBRANCH   1  26
TORSDOF 18
ENDMDL
MODEL 3
REMARK VINA RESULT:      -9.6      5.009     12.348
REMARK SMILES C[C@H](Oc1ccccc1[N+](=O)[O-])C(=O)N1CCC[C@H](C(=O)NCCCNC(=O)c2ccc(-c3c4nc(c(-c5c(F)cc(S(=O)(=O)[O-])cc5F)c5ccc([nH]5)c(-c5c(F)cc(S(=O)(=O)[O-])cc5F)c5nc(c(-c6c(F)cc(S(=O)(=O)[O-])cc6F)c6ccc3[nH]6)C=C5)C=C4)cc2)C1
REMARK SMILES IDX 23 1 22 2 20 3 21 4 19 6 15 7 16 8 95 9 17 10 18 11 13 12
REMARK SMILES IDX 14 13 2 14 1 15 3 16 4 17 5 18 9 19 6 20 8 21 7 22 10 23
REMARK SMILES IDX 11 24 12 25 24 26 25 27 26 28 27 29 28 31 29 32 30 33 94 34
REMARK SMILES IDX 31 35 93 36 32 37 33 38 34 39 87 40 35 41 92 42 86 43 88 44
REMARK SMILES IDX 36 45 91 46 85 47 84 48 37 50 71 51 50 52 70 53 51 54 54 55
REMARK SMILES IDX 69 56 89 57 52 58 53 59 68 61 90 62 55 63 38 64 39 65 48 66
REMARK SMILES IDX 40 67 41 68 47 69 49 70 42 71 43 72 44 73 45 74 46 75 72 76
REMARK SMILES IDX 73 77 82 78 74 79 75 80 81 81 83 82 76 83 77 84 78 85 79 86
REMARK SMILES IDX 80 87 56 88 57 89 66 90 58 91 59 92 65 93 67 94 60 95 61 96
REMARK SMILES IDX 62 97 63 98 64 99
REMARK H PARENT 22 5 26 30 88 49 54 60
REMARK Flexibility Score: inf
ROOT
ATOM      1  C   UNL A   1      38.882  21.698  25.803  1.00  0.00     0.117 C 
ENDROOT
BRANCH   1   2
ATOM      2  N   UNL A   1      37.849  22.641  26.161  1.00  0.00    -0.356 N 
ATOM      3  C   UNL A   1      36.590  22.800  25.683  1.00  0.00     0.224 C 
ATOM      4  O   UNL A   1      35.866  23.592  26.301  1.00  0.00    -0.275 OA
ATOM      5  H   UNL A   1      38.103  23.276  26.870  1.00  0.00     0.163 HD
BRANCH   3   6
ATOM      6  C   UNL A   1      36.044  22.125  24.415  1.00  0.00     0.098 C 
ATOM      7  N   UNL A   1      34.160  23.299  23.211  1.00  0.00    -0.339 N 
ATOM      8  C   UNL A   1      33.274  22.156  23.400  1.00  0.00     0.119 C 
ATOM      9  C   UNL A   1      35.599  23.053  23.278  1.00  0.00     0.133 C 
ATOM     10  C   UNL A   1      33.616  21.315  24.620  1.00  0.00     0.022 C 
ATOM     11  C   UNL A   1      35.093  20.963  24.706  1.00  0.00     0.017 C 
BRANCH   7  12
ATOM     12  C   UNL A   1      33.599  24.567  23.023  1.00  0.00     0.263 C 
ATOM     13  O   UNL A   1      33.599  25.108  21.913  1.00  0.00    -0.271 OA
BRANCH  12  14
ATOM     14  C   UNL A   1      33.250  25.399  24.284  1.00  0.00     0.259 C 
ATOM     15  C   UNL A   1      31.717  25.294  24.337  1.00  0.00     0.064 C 
BRANCH  14  16
ATOM     16  O   UNL A   1      33.800  26.713  24.240  1.00  0.00    -0.474 OA
BRANCH  16  17
ATOM     17  C   UNL A   1      33.404  27.719  25.071  1.00  0.00     0.197 A 
ATOM     18  C   UNL A   1      33.800  27.833  26.404  1.00  0.00     0.054 A 
ATOM     19  C   UNL A   1      32.484  28.666  24.587  1.00  0.00     0.310 A 
ATOM     20  C   UNL A   1      33.145  28.707  27.279  1.00  0.00     0.004 A 
ATOM     21  C   UNL A   1      31.827  29.554  25.459  1.00  0.00     0.090 A 
ATOM     22  C   UNL A   1      32.131  29.538  26.817  1.00  0.00     0.007 A 
BRANCH  19  23
ATOM     23  N   UNL A   1      32.214  28.808  23.152  1.00  0.00     0.066 N 
ATOM     24  O   UNL A   1      33.161  29.156  22.430  1.00  0.00    -0.258 OA
ATOM     25  O   UNL A   1      31.087  28.516  22.731  1.00  0.00    -0.258 OA
ENDBRANCH  19  23
ENDBRANCH  16  17
ENDBRANCH  14  16
ENDBRANCH  12  14
ENDBRANCH   7  12
ENDBRANCH   3   6
ENDBRANCH   1   2
BRANCH   1  26
ATOM     26  C   UNL A   1      40.049  21.653  26.771  1.00  0.00     0.042 C 
BRANCH  26  27
ATOM     27  C   UNL A   1      40.499  23.029  27.220  1.00  0.00     0.118 C 
BRANCH  27  28
ATOM     28  N   UNL A   1      41.068  23.826  26.136  1.00  0.00    -0.352 N 
ATOM     29  C   UNL A   1      41.443  25.150  26.097  1.00  0.00     0.251 C 
ATOM     30  H   UNL A   1      41.206  23.334  25.294  1.00  0.00     0.163 HD
ATOM     31  O   UNL A   1      41.821  25.643  25.044  1.00  0.00    -0.269 OA
BRANCH  29  32
ATOM     32  C   UNL A   1      41.349  25.984  27.317  1.00  0.00     0.039 A 
ATOM     33  C   UNL A   1      42.336  26.947  27.553  1.00  0.00     0.014 A 
ATOM     34  C   UNL A   1      40.289  25.844  28.211  1.00  0.00     0.014 A 
ATOM     35  C   UNL A   1      42.209  27.816  28.639  1.00  0.00     0.010 A 
ATOM     36  C   UNL A   1      40.098  26.786  29.210  1.00  0.00     0.010 A 
ATOM     37  C   UNL A   1      41.064  27.774  29.449  1.00  0.00    -0.014 A 
BRANCH  37  38
ATOM     38  C   UNL A   1      40.860  28.722  30.572  1.00  0.00     0.031 A 
ATOM     39  C   UNL A   1      41.709  28.600  31.811  1.00  0.00     0.074 A 
ATOM     40  C   UNL A   1      39.867  29.632  30.514  1.00  0.00     0.049 A 
ATOM     41  N   UNL A   1      41.619  29.248  32.943  1.00  0.00    -0.248 NA
ATOM     42  C   UNL A   1      42.773  27.581  31.791  1.00  0.00     0.031 C 
ATOM     43  C   UNL A   1      38.938  29.806  29.394  1.00  0.00     0.029 A 
ATOM     44  N   UNL A   1      39.464  30.576  31.423  1.00  0.00    -0.354 N 
ATOM     45  C   UNL A   1      42.586  28.694  33.775  1.00  0.00     0.074 A 
ATOM     46  C   UNL A   1      43.208  27.616  33.041  1.00  0.00     0.031 C 
ATOM     47  C   UNL A   1      38.099  30.816  29.668  1.00  0.00     0.029 A 
ATOM     48  C   UNL A   1      38.399  31.336  30.997  1.00  0.00     0.049 A 
ATOM     49  H   UNL A   1      39.897  30.699  32.299  1.00  0.00     0.167 HD
ATOM     50  C   UNL A   1      42.946  29.070  35.024  1.00  0.00     0.037 A 
ATOM     51  C   UNL A   1      37.739  32.337  31.613  1.00  0.00     0.037 A 
ATOM     52  C   UNL A   1      42.359  30.181  35.723  1.00  0.00     0.049 A 
ATOM     53  C   UNL A   1      38.179  32.761  32.988  1.00  0.00     0.074 A 
ATOM     54  C   UNL A   1      42.702  30.699  36.959  1.00  0.00     0.029 A 
ATOM     55  N   UNL A   1      41.311  30.953  35.240  1.00  0.00    -0.354 N 
ATOM     56  N   UNL A   1      39.139  32.267  33.734  1.00  0.00    -0.248 NA
ATOM     57  C   UNL A   1      37.454  33.880  33.602  1.00  0.00     0.031 C 
ATOM     58  C   UNL A   1      41.836  31.761  37.240  1.00  0.00     0.029 A 
ATOM     59  C   UNL A   1      40.985  31.934  36.159  1.00  0.00     0.049 A 
ATOM     60  H   UNL A   1      40.867  30.822  34.372  1.00  0.00     0.167 HD
ATOM     61  C   UNL A   1      39.150  33.033  34.894  1.00  0.00     0.074 A 
ATOM     62  C   UNL A   1      38.109  34.029  34.745  1.00  0.00     0.031 C 
ATOM     63  C   UNL A   1      39.950  32.923  35.984  1.00  0.00     0.037 A 
BRANCH  50  64
ATOM     64  C   UNL A   1      44.032  28.281  35.704  1.00  0.00     0.058 A 
ATOM     65  C   UNL A   1      43.741  27.192  36.541  1.00  0.00     0.135 A 
ATOM     66  C   UNL A   1      45.383  28.605  35.500  1.00  0.00     0.135 A 
ATOM     67  F   UNL A   1      42.466  26.848  36.785  1.00  0.00    -0.206 F 
ATOM     68  C   UNL A   1      44.747  26.475  37.181  1.00  0.00     0.059 A 
ATOM     69  C   UNL A   1      46.408  27.882  36.105  1.00  0.00     0.059 A 
ATOM     70  F   UNL A   1      45.720  29.638  34.710  1.00  0.00    -0.206 F 
ATOM     71  C   UNL A   1      46.078  26.829  36.957  1.00  0.00     0.060 A 
BRANCH  71  72
ATOM     72  S   UNL A   1      47.372  25.886  37.791  1.00  0.00     0.124 S 
ATOM     73  O   UNL A   1      47.088  26.178  39.192  1.00  0.00    -0.237 OA
ATOM     74  O   UNL A   1      47.091  24.520  37.360  1.00  0.00    -0.237 OA
ATOM     75  O   UNL A   1      48.605  26.463  37.267  1.00  0.00    -0.744 OA
ENDBRANCH  71  72
ENDBRANCH  50  64
BRANCH  51  76
ATOM     76  C   UNL A   1      36.620  33.029  30.919  1.00  0.00     0.058 A 
ATOM     77  C   UNL A   1      35.296  32.865  31.352  1.00  0.00     0.135 A 
ATOM     78  C   UNL A   1      36.848  33.879  29.827  1.00  0.00     0.135 A 
ATOM     79  F   UNL A   1      35.026  32.059  32.390  1.00  0.00    -0.206 F 
ATOM     80  C   UNL A   1      34.235  33.505  30.719  1.00  0.00     0.059 A 
ATOM     81  C   UNL A   1      35.806  34.550  29.191  1.00  0.00     0.059 A 
ATOM     82  F   UNL A   1      38.098  34.085  29.383  1.00  0.00    -0.206 F 
ATOM     83  C   UNL A   1      34.501  34.348  29.639  1.00  0.00     0.060 A 
BRANCH  83  84
ATOM     84  S   UNL A   1      33.123  35.214  28.856  1.00  0.00     0.124 S 
ATOM     85  O   UNL A   1      32.750  34.278  27.800  1.00  0.00    -0.237 OA
ATOM     86  O   UNL A   1      32.175  35.344  29.958  1.00  0.00    -0.237 OA
ATOM     87  O   UNL A   1      33.725  36.466  28.406  1.00  0.00    -0.744 OA
ENDBRANCH  83  84
ENDBRANCH  51  76
BRANCH  63  88
ATOM     88  C   UNL A   1      39.757  33.925  37.086  1.00  0.00     0.058 A 
ATOM     89  C   UNL A   1      38.996  33.628  38.227  1.00  0.00     0.135 A 
ATOM     90  C   UNL A   1      40.391  35.177  37.025  1.00  0.00     0.135 A 
ATOM     91  F   UNL A   1      38.365  32.448  38.331  1.00  0.00    -0.206 F 
ATOM     92  C   UNL A   1      38.853  34.546  39.261  1.00  0.00     0.059 A 
ATOM     93  C   UNL A   1      40.284  36.099  38.060  1.00  0.00     0.059 A 
ATOM     94  F   UNL A   1      41.140  35.504  35.960  1.00  0.00    -0.206 F 
ATOM     95  C   UNL A   1      39.504  35.779  39.170  1.00  0.00     0.060 A 
BRANCH  95  96
ATOM     96  S   UNL A   1      39.341  36.947  40.536  1.00  0.00     0.124 S 
ATOM     97  O   UNL A   1      40.734  37.149  40.917  1.00  0.00    -0.237 OA
ATOM     98  O   UNL A   1      38.685  38.085  39.901  1.00  0.00    -0.237 OA
ATOM     99  O   UNL A   1      38.524  36.223  41.505  1.00  0.00    -0.744 OA
ENDBRANCH  95  96
ENDBRANCH  63  88
ENDBRANCH  37  38
ENDBRANCH  29  32
ENDBRANCH  27  28
ENDBRANCH  26  27
ENDBRANCH   1  26
TORSDOF 18
ENDMDL
