MODEL 1
REMARK VINA RESULT:     -13.2      0.000      0.000
REMARK SMILES O=C(NCCCNC(=O)[C@@H]1c2[nH]cnc2CCN1C(=O)CCCc1c[nH]c2ccccc12)c1ccc(-c2c3nc(c(-c4c(F)cc(S(=O)(=O)[O-])cc4F)c4ccc([nH]4)c(-c4c(F)cc(S(=O)(=O)[O-])cc4F)c4nc(c(-c5c(F)cc(S(=O)(=O)[O-])cc5F)c5ccc2[nH]5)C=C4)C=C3)cc1
REMARK SMILES IDX 6 1 5 2 4 3 3 4 1 5 2 6 33 8 34 9 98 10 35 11 97 12 36 13
REMARK SMILES IDX 37 14 38 15 91 16 39 17 96 18 90 19 92 20 40 21 95 22 89 23
REMARK SMILES IDX 88 24 41 26 75 27 54 28 74 29 55 30 58 31 73 32 93 33 56 34
REMARK SMILES IDX 57 35 72 37 94 38 59 39 42 40 43 41 52 42 44 43 45 44 51 45
REMARK SMILES IDX 53 46 46 47 47 48 48 49 49 50 50 51 76 52 77 53 86 54 78 55
REMARK SMILES IDX 79 56 85 57 87 58 80 59 81 60 82 61 83 62 84 63 60 64 61 65
REMARK SMILES IDX 70 66 62 67 63 68 69 69 71 70 64 71 65 72 66 73 67 74 68 75
REMARK SMILES IDX 7 76 8 77 9 79 10 80 11 81 18 82 12 83 15 84 17 85 13 86
REMARK SMILES IDX 14 88 16 89 19 90 20 91 21 92 22 93 23 94 24 95 25 96 32 97
REMARK SMILES IDX 26 98 27 99 31 100 28 102 30 103 29 104
REMARK H PARENT 3 7 92 25 58 36 7 78 12 87 26 101
REMARK Flexibility Score: inf
ROOT
ATOM      1  C   UNL A   1      34.674  24.449  24.416  1.00  0.00     0.117 C 
ENDROOT
BRANCH   1   2
ATOM      2  C   UNL A   1      35.699  23.666  25.210  1.00  0.00     0.042 C 
BRANCH   2   3
ATOM      3  C   UNL A   1      37.113  23.666  24.653  1.00  0.00     0.118 C 
BRANCH   3   4
ATOM      4  N   UNL A   1      37.982  22.625  25.164  1.00  0.00    -0.352 N 
ATOM      5  O   UNL A   1      39.353  21.405  26.371  1.00  0.00    -0.269 OA
ATOM      6  C   UNL A   1      38.947  22.545  26.126  1.00  0.00     0.251 C 
ATOM      7  H   UNL A   1      37.844  21.766  24.703  1.00  0.00     0.163 HD
BRANCH   6   8
ATOM      8  C   UNL A   1      39.580  23.696  26.825  1.00  0.00     0.039 A 
ATOM      9  C   UNL A   1      40.828  23.697  27.449  1.00  0.00     0.014 A 
ATOM     10  C   UNL A   1      38.793  24.859  26.906  1.00  0.00     0.014 A 
ATOM     11  C   UNL A   1      41.224  24.770  28.247  1.00  0.00     0.010 A 
ATOM     12  C   UNL A   1      39.197  25.949  27.663  1.00  0.00     0.010 A 
ATOM     13  C   UNL A   1      40.390  25.881  28.379  1.00  0.00    -0.014 A 
BRANCH  13  14
ATOM     14  C   UNL A   1      40.863  27.043  29.134  1.00  0.00     0.031 A 
ATOM     15  C   UNL A   1      42.016  27.767  28.505  1.00  0.00     0.074 A 
ATOM     16  C   UNL A   1      40.156  27.542  30.172  1.00  0.00     0.049 A 
ATOM     17  N   UNL A   1      43.143  28.130  29.030  1.00  0.00    -0.248 NA
ATOM     18  C   UNL A   1      41.939  28.023  27.052  1.00  0.00     0.031 C 
ATOM     19  C   UNL A   1      38.855  27.077  30.668  1.00  0.00     0.029 A 
ATOM     20  N   UNL A   1      40.377  28.655  30.924  1.00  0.00    -0.354 N 
ATOM     21  C   UNL A   1      43.821  28.843  28.036  1.00  0.00     0.074 A 
ATOM     22  C   UNL A   1      43.113  28.604  26.811  1.00  0.00     0.031 C 
ATOM     23  C   UNL A   1      38.301  28.038  31.440  1.00  0.00     0.029 A 
ATOM     24  C   UNL A   1      39.251  29.126  31.594  1.00  0.00     0.049 A 
ATOM     25  H   UNL A   1      41.258  29.091  30.989  1.00  0.00     0.167 HD
ATOM     26  C   UNL A   1      44.787  29.759  28.329  1.00  0.00     0.037 A 
ATOM     27  C   UNL A   1      39.081  30.356  32.148  1.00  0.00     0.037 A 
ATOM     28  C   UNL A   1      45.345  29.528  29.635  1.00  0.00     0.049 A 
ATOM     29  C   UNL A   1      40.433  30.950  32.318  1.00  0.00     0.074 A 
ATOM     30  C   UNL A   1      46.020  28.481  30.230  1.00  0.00     0.029 A 
ATOM     31  N   UNL A   1      44.943  30.341  30.667  1.00  0.00    -0.354 N 
ATOM     32  N   UNL A   1      41.341  30.475  33.126  1.00  0.00    -0.248 NA
ATOM     33  C   UNL A   1      40.934  31.791  31.242  1.00  0.00     0.031 C 
ATOM     34  C   UNL A   1      45.544  28.454  31.573  1.00  0.00     0.029 A 
ATOM     35  C   UNL A   1      44.659  29.522  31.729  1.00  0.00     0.049 A 
ATOM     36  H   UNL A   1      44.871  31.322  30.648  1.00  0.00     0.167 HD
ATOM     37  C   UNL A   1      42.537  30.603  32.433  1.00  0.00     0.074 A 
ATOM     38  C   UNL A   1      42.231  31.485  31.309  1.00  0.00     0.031 C 
ATOM     39  C   UNL A   1      43.592  29.768  32.672  1.00  0.00     0.037 A 
BRANCH  26  40
ATOM     40  C   UNL A   1      44.956  31.078  27.598  1.00  0.00     0.058 A 
ATOM     41  C   UNL A   1      46.173  31.348  26.934  1.00  0.00     0.135 A 
ATOM     42  C   UNL A   1      44.110  32.196  27.781  1.00  0.00     0.135 A 
ATOM     43  F   UNL A   1      47.049  30.362  26.684  1.00  0.00    -0.206 F 
ATOM     44  C   UNL A   1      46.568  32.642  26.590  1.00  0.00     0.059 A 
ATOM     45  C   UNL A   1      44.463  33.486  27.400  1.00  0.00     0.059 A 
ATOM     46  F   UNL A   1      42.941  32.117  28.425  1.00  0.00    -0.206 F 
ATOM     47  C   UNL A   1      45.716  33.708  26.855  1.00  0.00     0.060 A 
BRANCH  47  48
ATOM     48  S   UNL A   1      46.282  35.393  26.561  1.00  0.00     0.124 S 
ATOM     49  O   UNL A   1      46.956  35.250  25.276  1.00  0.00    -0.237 OA
ATOM     50  O   UNL A   1      45.026  36.135  26.548  1.00  0.00    -0.237 OA
ATOM     51  O   UNL A   1      47.150  35.659  27.705  1.00  0.00    -0.744 OA
ENDBRANCH  47  48
ENDBRANCH  26  40
BRANCH  27  52
ATOM     52  C   UNL A   1      37.837  31.181  32.151  1.00  0.00     0.058 A 
ATOM     53  C   UNL A   1      37.208  31.571  33.348  1.00  0.00     0.135 A 
ATOM     54  C   UNL A   1      37.387  31.831  30.982  1.00  0.00     0.135 A 
ATOM     55  F   UNL A   1      37.591  31.031  34.516  1.00  0.00    -0.206 F 
ATOM     56  C   UNL A   1      36.218  32.564  33.387  1.00  0.00     0.059 A 
ATOM     57  C   UNL A   1      36.397  32.811  30.994  1.00  0.00     0.059 A 
ATOM     58  F   UNL A   1      37.964  31.596  29.794  1.00  0.00    -0.206 F 
ATOM     59  C   UNL A   1      35.829  33.190  32.203  1.00  0.00     0.060 A 
BRANCH  59  60
ATOM     60  S   UNL A   1      34.665  34.575  32.257  1.00  0.00     0.124 S 
ATOM     61  O   UNL A   1      33.563  34.012  33.029  1.00  0.00    -0.237 OA
ATOM     62  O   UNL A   1      35.446  35.611  32.922  1.00  0.00    -0.237 OA
ATOM     63  O   UNL A   1      34.371  34.827  30.848  1.00  0.00    -0.744 OA
ENDBRANCH  59  60
ENDBRANCH  27  52
BRANCH  39  64
ATOM     64  C   UNL A   1      43.535  28.861  33.873  1.00  0.00     0.058 A 
ATOM     65  C   UNL A   1      43.855  29.262  35.183  1.00  0.00     0.135 A 
ATOM     66  C   UNL A   1      42.961  27.592  33.717  1.00  0.00     0.135 A 
ATOM     67  F   UNL A   1      44.308  30.497  35.435  1.00  0.00    -0.206 F 
ATOM     68  C   UNL A   1      43.646  28.425  36.282  1.00  0.00     0.059 A 
ATOM     69  C   UNL A   1      42.715  26.752  34.801  1.00  0.00     0.059 A 
ATOM     70  F   UNL A   1      42.572  27.175  32.500  1.00  0.00    -0.206 F 
ATOM     71  C   UNL A   1      43.070  27.172  36.081  1.00  0.00     0.060 A 
BRANCH  71  72
ATOM     72  S   UNL A   1      42.717  26.122  37.507  1.00  0.00     0.124 S 
ATOM     73  O   UNL A   1      41.288  26.356  37.711  1.00  0.00    -0.237 OA
ATOM     74  O   UNL A   1      43.073  24.791  37.015  1.00  0.00    -0.237 OA
ATOM     75  O   UNL A   1      43.589  26.647  38.546  1.00  0.00    -0.744 OA
ENDBRANCH  71  72
ENDBRANCH  39  64
ENDBRANCH  13  14
ENDBRANCH   6   8
ENDBRANCH   3   4
ENDBRANCH   2   3
ENDBRANCH   1   2
BRANCH   1  76
ATOM     76  N   UNL A   1      34.546  25.850  24.735  1.00  0.00    -0.354 N 
ATOM     77  C   UNL A   1      33.466  26.682  24.700  1.00  0.00     0.249 C 
ATOM     78  H   UNL A   1      35.383  26.278  25.028  1.00  0.00     0.163 HD
ATOM     79  O   UNL A   1      33.617  27.769  25.285  1.00  0.00    -0.272 OA
BRANCH  77  80
ATOM     80  C   UNL A   1      32.133  26.413  23.949  1.00  0.00     0.223 C 
ATOM     81  C   UNL A   1      31.370  27.515  23.280  1.00  0.00     0.071 A 
ATOM     82  N   UNL A   1      31.151  25.539  24.664  1.00  0.00    -0.325 N 
ATOM     83  N   UNL A   1      31.788  28.452  22.368  1.00  0.00    -0.346 N 
ATOM     84  C   UNL A   1      29.996  27.650  23.271  1.00  0.00     0.066 A 
ATOM     85  C   UNL A   1      29.902  25.320  23.921  1.00  0.00     0.127 C 
ATOM     86  C   UNL A   1      30.714  29.270  22.122  1.00  0.00     0.197 A 
ATOM     87  H   UNL A   1      32.685  28.524  21.969  1.00  0.00     0.167 HD
ATOM     88  N   UNL A   1      29.601  28.766  22.606  1.00  0.00    -0.242 NA
ATOM     89  C   UNL A   1      29.094  26.636  23.856  1.00  0.00     0.080 C 
BRANCH  82  90
ATOM     90  C   UNL A   1      31.119  25.429  26.055  1.00  0.00     0.223 C 
ATOM     91  O   UNL A   1      30.732  26.324  26.803  1.00  0.00    -0.275 OA
BRANCH  90  92
ATOM     92  C   UNL A   1      31.781  24.169  26.630  1.00  0.00     0.100 C 
BRANCH  92  93
ATOM     93  C   UNL A   1      31.138  22.792  26.447  1.00  0.00     0.015 C 
BRANCH  93  94
ATOM     94  C   UNL A   1      31.369  21.958  25.192  1.00  0.00     0.038 C 
BRANCH  94  95
ATOM     95  C   UNL A   1      32.526  21.002  24.973  1.00  0.00    -0.023 A 
ATOM     96  C   UNL A   1      33.628  21.072  25.817  1.00  0.00     0.087 A 
ATOM     97  C   UNL A   1      32.766  19.846  24.131  1.00  0.00     0.003 A 
ATOM     98  N   UNL A   1      34.373  19.940  25.680  1.00  0.00    -0.361 N 
ATOM     99  C   UNL A   1      33.832  19.139  24.709  1.00  0.00     0.046 A 
ATOM    100  C   UNL A   1      32.168  19.246  22.997  1.00  0.00     0.010 A 
ATOM    101  H   UNL A   1      35.180  19.729  26.202  1.00  0.00     0.166 HD
ATOM    102  C   UNL A   1      34.223  17.852  24.315  1.00  0.00     0.026 A 
ATOM    103  C   UNL A   1      32.585  17.981  22.550  1.00  0.00     0.001 A 
ATOM    104  C   UNL A   1      33.581  17.281  23.218  1.00  0.00     0.002 A 
ENDBRANCH  94  95
ENDBRANCH  93  94
ENDBRANCH  92  93
ENDBRANCH  90  92
ENDBRANCH  82  90
ENDBRANCH  77  80
ENDBRANCH   1  76
TORSDOF 18
ENDMDL
MODEL 2
REMARK VINA RESULT:     -13.1      2.676      9.275
REMARK SMILES O=C(NCCCNC(=O)[C@@H]1c2[nH]cnc2CCN1C(=O)CCCc1c[nH]c2ccccc12)c1ccc(-c2c3nc(c(-c4c(F)cc(S(=O)(=O)[O-])cc4F)c4ccc([nH]4)c(-c4c(F)cc(S(=O)(=O)[O-])cc4F)c4nc(c(-c5c(F)cc(S(=O)(=O)[O-])cc5F)c5ccc2[nH]5)C=C4)C=C3)cc1
REMARK SMILES IDX 6 1 5 2 4 3 3 4 1 5 2 6 33 8 34 9 98 10 35 11 97 12 36 13
REMARK SMILES IDX 37 14 38 15 91 16 39 17 96 18 90 19 92 20 40 21 95 22 89 23
REMARK SMILES IDX 88 24 41 26 75 27 54 28 74 29 55 30 58 31 73 32 93 33 56 34
REMARK SMILES IDX 57 35 72 37 94 38 59 39 42 40 43 41 52 42 44 43 45 44 51 45
REMARK SMILES IDX 53 46 46 47 47 48 48 49 49 50 50 51 76 52 77 53 86 54 78 55
REMARK SMILES IDX 79 56 85 57 87 58 80 59 81 60 82 61 83 62 84 63 60 64 61 65
REMARK SMILES IDX 70 66 62 67 63 68 69 69 71 70 64 71 65 72 66 73 67 74 68 75
REMARK SMILES IDX 7 76 8 77 9 79 10 80 11 81 18 82 12 83 15 84 17 85 13 86
REMARK SMILES IDX 14 88 16 89 19 90 20 91 21 92 22 93 23 94 24 95 25 96 32 97
REMARK SMILES IDX 26 98 27 99 31 100 28 102 30 103 29 104
REMARK H PARENT 3 7 92 25 58 36 7 78 12 87 26 101
REMARK Flexibility Score: inf
ROOT
ATOM      1  C   UNL A   1      32.781  27.242  26.697  1.00  0.00     0.117 C 
ENDROOT
BRANCH   1   2
ATOM      2  C   UNL A   1      32.187  28.634  26.667  1.00  0.00     0.042 C 
BRANCH   2   3
ATOM      3  C   UNL A   1      33.149  29.762  26.334  1.00  0.00     0.118 C 
BRANCH   3   4
ATOM      4  N   UNL A   1      33.198  30.844  27.296  1.00  0.00    -0.352 N 
ATOM      5  O   UNL A   1      33.820  32.479  28.624  1.00  0.00    -0.269 OA
ATOM      6  C   UNL A   1      34.177  31.464  28.017  1.00  0.00     0.251 C 
ATOM      7  H   UNL A   1      32.307  31.224  27.474  1.00  0.00     0.163 HD
BRANCH   6   8
ATOM      8  C   UNL A   1      35.575  30.985  28.184  1.00  0.00     0.039 A 
ATOM      9  C   UNL A   1      36.008  29.660  28.110  1.00  0.00     0.014 A 
ATOM     10  C   UNL A   1      36.517  31.977  28.515  1.00  0.00     0.014 A 
ATOM     11  C   UNL A   1      37.305  29.313  28.488  1.00  0.00     0.010 A 
ATOM     12  C   UNL A   1      37.821  31.645  28.852  1.00  0.00     0.010 A 
ATOM     13  C   UNL A   1      38.200  30.305  28.891  1.00  0.00    -0.014 A 
BRANCH  13  14
ATOM     14  C   UNL A   1      39.586  29.940  29.185  1.00  0.00     0.031 A 
ATOM     15  C   UNL A   1      39.899  29.810  30.645  1.00  0.00     0.074 A 
ATOM     16  C   UNL A   1      40.426  29.526  28.210  1.00  0.00     0.049 A 
ATOM     17  N   UNL A   1      40.867  30.334  31.328  1.00  0.00    -0.248 NA
ATOM     18  C   UNL A   1      38.927  29.075  31.480  1.00  0.00     0.031 C 
ATOM     19  C   UNL A   1      40.114  29.332  26.789  1.00  0.00     0.029 A 
ATOM     20  N   UNL A   1      41.702  29.058  28.297  1.00  0.00    -0.354 N 
ATOM     21  C   UNL A   1      40.745  29.826  32.625  1.00  0.00     0.074 A 
ATOM     22  C   UNL A   1      39.456  29.198  32.696  1.00  0.00     0.031 C 
ATOM     23  C   UNL A   1      41.067  28.559  26.222  1.00  0.00     0.029 A 
ATOM     24  C   UNL A   1      42.113  28.308  27.198  1.00  0.00     0.049 A 
ATOM     25  H   UNL A   1      42.285  29.234  29.071  1.00  0.00     0.167 HD
ATOM     26  C   UNL A   1      41.803  29.761  33.483  1.00  0.00     0.037 A 
ATOM     27  C   UNL A   1      43.179  27.467  27.132  1.00  0.00     0.037 A 
ATOM     28  C   UNL A   1      42.835  30.690  33.109  1.00  0.00     0.049 A 
ATOM     29  C   UNL A   1      44.084  27.819  28.258  1.00  0.00     0.074 A 
ATOM     30  C   UNL A   1      42.901  32.063  32.975  1.00  0.00     0.029 A 
ATOM     31  N   UNL A   1      43.947  30.203  32.468  1.00  0.00    -0.354 N 
ATOM     32  N   UNL A   1      44.714  28.957  28.358  1.00  0.00    -0.248 NA
ATOM     33  C   UNL A   1      43.917  27.086  29.503  1.00  0.00     0.031 C 
ATOM     34  C   UNL A   1      43.744  32.281  31.846  1.00  0.00     0.029 A 
ATOM     35  C   UNL A   1      44.188  31.033  31.404  1.00  0.00     0.049 A 
ATOM     36  H   UNL A   1      44.472  29.410  32.723  1.00  0.00     0.167 HD
ATOM     37  C   UNL A   1      44.652  29.282  29.706  1.00  0.00     0.074 A 
ATOM     38  C   UNL A   1      44.210  28.057  30.370  1.00  0.00     0.031 C 
ATOM     39  C   UNL A   1      44.694  30.580  30.129  1.00  0.00     0.037 A 
BRANCH  26  40
ATOM     40  C   UNL A   1      42.061  28.600  34.426  1.00  0.00     0.058 A 
ATOM     41  C   UNL A   1      42.063  28.829  35.819  1.00  0.00     0.135 A 
ATOM     42  C   UNL A   1      42.606  27.360  34.020  1.00  0.00     0.135 A 
ATOM     43  F   UNL A   1      41.552  29.963  36.326  1.00  0.00    -0.206 F 
ATOM     44  C   UNL A   1      42.667  27.954  36.723  1.00  0.00     0.059 A 
ATOM     45  C   UNL A   1      43.168  26.450  34.910  1.00  0.00     0.059 A 
ATOM     46  F   UNL A   1      42.714  27.006  32.735  1.00  0.00    -0.206 F 
ATOM     47  C   UNL A   1      43.243  26.779  36.252  1.00  0.00     0.060 A 
BRANCH  47  48
ATOM     48  S   UNL A   1      44.162  25.723  37.385  1.00  0.00     0.124 S 
ATOM     49  O   UNL A   1      43.776  26.281  38.676  1.00  0.00    -0.237 OA
ATOM     50  O   UNL A   1      43.624  24.404  37.071  1.00  0.00    -0.237 OA
ATOM     51  O   UNL A   1      45.552  25.938  36.992  1.00  0.00    -0.744 OA
ENDBRANCH  47  48
ENDBRANCH  26  40
BRANCH  27  52
ATOM     52  C   UNL A   1      43.252  26.155  26.424  1.00  0.00     0.058 A 
ATOM     53  C   UNL A   1      44.243  25.884  25.462  1.00  0.00     0.135 A 
ATOM     54  C   UNL A   1      42.512  25.041  26.872  1.00  0.00     0.135 A 
ATOM     55  F   UNL A   1      45.019  26.876  25.000  1.00  0.00    -0.206 F 
ATOM     56  C   UNL A   1      44.503  24.587  24.997  1.00  0.00     0.059 A 
ATOM     57  C   UNL A   1      42.743  23.744  26.416  1.00  0.00     0.059 A 
ATOM     58  F   UNL A   1      41.593  25.164  27.842  1.00  0.00    -0.206 F 
ATOM     59  C   UNL A   1      43.755  23.519  25.493  1.00  0.00     0.060 A 
BRANCH  59  60
ATOM     60  S   UNL A   1      44.179  21.825  25.017  1.00  0.00     0.124 S 
ATOM     61  O   UNL A   1      45.404  21.596  25.776  1.00  0.00    -0.237 OA
ATOM     62  O   UNL A   1      43.008  21.076  25.457  1.00  0.00    -0.237 OA
ATOM     63  O   UNL A   1      44.353  21.911  23.569  1.00  0.00    -0.744 OA
ENDBRANCH  59  60
ENDBRANCH  27  52
BRANCH  39  64
ATOM     64  C   UNL A   1      45.062  31.650  29.134  1.00  0.00     0.058 A 
ATOM     65  C   UNL A   1      46.380  31.950  28.746  1.00  0.00     0.135 A 
ATOM     66  C   UNL A   1      44.030  32.267  28.414  1.00  0.00     0.135 A 
ATOM     67  F   UNL A   1      47.424  31.327  29.309  1.00  0.00    -0.206 F 
ATOM     68  C   UNL A   1      46.659  32.850  27.714  1.00  0.00     0.059 A 
ATOM     69  C   UNL A   1      44.282  33.143  27.361  1.00  0.00     0.059 A 
ATOM     70  F   UNL A   1      42.748  31.972  28.691  1.00  0.00    -0.206 F 
ATOM     71  C   UNL A   1      45.601  33.438  27.024  1.00  0.00     0.060 A 
BRANCH  71  72
ATOM     72  S   UNL A   1      45.954  34.532  25.631  1.00  0.00     0.124 S 
ATOM     73  O   UNL A   1      45.631  35.846  26.186  1.00  0.00    -0.237 OA
ATOM     74  O   UNL A   1      47.375  34.284  25.387  1.00  0.00    -0.237 OA
ATOM     75  O   UNL A   1      45.059  34.060  24.586  1.00  0.00    -0.744 OA
ENDBRANCH  71  72
ENDBRANCH  39  64
ENDBRANCH  13  14
ENDBRANCH   6   8
ENDBRANCH   3   4
ENDBRANCH   2   3
ENDBRANCH   1   2
BRANCH   1  76
ATOM     76  N   UNL A   1      33.510  26.828  25.524  1.00  0.00    -0.354 N 
ATOM     77  C   UNL A   1      33.877  25.588  25.087  1.00  0.00     0.249 C 
ATOM     78  H   UNL A   1      33.789  27.567  24.936  1.00  0.00     0.163 HD
ATOM     79  O   UNL A   1      34.266  25.536  23.907  1.00  0.00    -0.272 OA
BRANCH  77  80
ATOM     80  C   UNL A   1      33.913  24.294  25.947  1.00  0.00     0.223 C 
ATOM     81  C   UNL A   1      34.660  23.074  25.502  1.00  0.00     0.071 A 
ATOM     82  N   UNL A   1      32.599  23.852  26.509  1.00  0.00    -0.325 N 
ATOM     83  N   UNL A   1      35.964  22.937  25.094  1.00  0.00    -0.346 N 
ATOM     84  C   UNL A   1      34.233  21.770  25.654  1.00  0.00     0.066 A 
ATOM     85  C   UNL A   1      32.679  22.619  27.305  1.00  0.00     0.127 C 
ATOM     86  C   UNL A   1      36.128  21.622  24.734  1.00  0.00     0.197 A 
ATOM     87  H   UNL A   1      36.648  23.643  25.065  1.00  0.00     0.167 HD
ATOM     88  N   UNL A   1      35.114  20.884  25.126  1.00  0.00    -0.242 NA
ATOM     89  C   UNL A   1      32.997  21.420  26.384  1.00  0.00     0.080 C 
BRANCH  82  90
ATOM     90  C   UNL A   1      31.380  24.168  25.904  1.00  0.00     0.223 C 
ATOM     91  O   UNL A   1      30.428  24.663  26.503  1.00  0.00    -0.275 OA
BRANCH  90  92
ATOM     92  C   UNL A   1      31.221  23.687  24.456  1.00  0.00     0.100 C 
BRANCH  92  93
ATOM     93  C   UNL A   1      30.448  24.522  23.432  1.00  0.00     0.015 C 
BRANCH  93  94
ATOM     94  C   UNL A   1      31.126  25.608  22.605  1.00  0.00     0.038 C 
BRANCH  94  95
ATOM     95  C   UNL A   1      30.898  27.100  22.756  1.00  0.00    -0.023 A 
ATOM     96  C   UNL A   1      31.972  27.967  22.593  1.00  0.00     0.087 A 
ATOM     97  C   UNL A   1      29.739  27.958  22.908  1.00  0.00     0.003 A 
ATOM     98  N   UNL A   1      31.507  29.235  22.426  1.00  0.00    -0.361 N 
ATOM     99  C   UNL A   1      30.141  29.251  22.541  1.00  0.00     0.046 A 
ATOM    100  C   UNL A   1      28.369  27.803  23.226  1.00  0.00     0.010 A 
ATOM    101  H   UNL A   1      32.067  30.024  22.248  1.00  0.00     0.166 HD
ATOM    102  C   UNL A   1      29.257  30.321  22.348  1.00  0.00     0.026 A 
ATOM    103  C   UNL A   1      27.474  28.880  23.095  1.00  0.00     0.001 A 
ATOM    104  C   UNL A   1      27.909  30.115  22.634  1.00  0.00     0.002 A 
ENDBRANCH  94  95
ENDBRANCH  93  94
ENDBRANCH  92  93
ENDBRANCH  90  92
ENDBRANCH  82  90
ENDBRANCH  77  80
ENDBRANCH   1  76
TORSDOF 18
ENDMDL
MODEL 3
REMARK VINA RESULT:     -12.9      2.681      8.455
REMARK SMILES O=C(NCCCNC(=O)[C@@H]1c2[nH]cnc2CCN1C(=O)CCCc1c[nH]c2ccccc12)c1ccc(-c2c3nc(c(-c4c(F)cc(S(=O)(=O)[O-])cc4F)c4ccc([nH]4)c(-c4c(F)cc(S(=O)(=O)[O-])cc4F)c4nc(c(-c5c(F)cc(S(=O)(=O)[O-])cc5F)c5ccc2[nH]5)C=C4)C=C3)cc1
REMARK SMILES IDX 6 1 5 2 4 3 3 4 1 5 2 6 33 8 34 9 98 10 35 11 97 12 36 13
REMARK SMILES IDX 37 14 38 15 91 16 39 17 96 18 90 19 92 20 40 21 95 22 89 23
REMARK SMILES IDX 88 24 41 26 75 27 54 28 74 29 55 30 58 31 73 32 93 33 56 34
REMARK SMILES IDX 57 35 72 37 94 38 59 39 42 40 43 41 52 42 44 43 45 44 51 45
REMARK SMILES IDX 53 46 46 47 47 48 48 49 49 50 50 51 76 52 77 53 86 54 78 55
REMARK SMILES IDX 79 56 85 57 87 58 80 59 81 60 82 61 83 62 84 63 60 64 61 65
REMARK SMILES IDX 70 66 62 67 63 68 69 69 71 70 64 71 65 72 66 73 67 74 68 75
REMARK SMILES IDX 7 76 8 77 9 79 10 80 11 81 18 82 12 83 15 84 17 85 13 86
REMARK SMILES IDX 14 88 16 89 19 90 20 91 21 92 22 93 23 94 24 95 25 96 32 97
REMARK SMILES IDX 26 98 27 99 31 100 28 102 30 103 29 104
REMARK H PARENT 3 7 92 25 58 36 7 78 12 87 26 101
REMARK Flexibility Score: inf
ROOT
ATOM      1  C   UNL A   1      33.352  28.534  24.616  1.00  0.00     0.117 C 
ENDROOT
BRANCH   1   2
ATOM      2  C   UNL A   1      34.062  28.575  25.952  1.00  0.00     0.042 C 
BRANCH   2   3
ATOM      3  C   UNL A   1      33.199  28.913  27.156  1.00  0.00     0.118 C 
BRANCH   3   4
ATOM      4  N   UNL A   1      33.334  30.265  27.659  1.00  0.00    -0.352 N 
ATOM      5  O   UNL A   1      34.070  32.252  28.239  1.00  0.00    -0.269 OA
ATOM      6  C   UNL A   1      34.376  31.081  27.995  1.00  0.00     0.251 C 
ATOM      7  H   UNL A   1      32.462  30.702  27.791  1.00  0.00     0.163 HD
BRANCH   6   8
ATOM      8  C   UNL A   1      35.794  30.662  28.161  1.00  0.00     0.039 A 
ATOM      9  C   UNL A   1      36.298  29.370  28.005  1.00  0.00     0.014 A 
ATOM     10  C   UNL A   1      36.676  31.676  28.581  1.00  0.00     0.014 A 
ATOM     11  C   UNL A   1      37.604  29.065  28.387  1.00  0.00     0.010 A 
ATOM     12  C   UNL A   1      37.989  31.388  28.923  1.00  0.00     0.010 A 
ATOM     13  C   UNL A   1      38.437  30.070  28.878  1.00  0.00    -0.014 A 
BRANCH  13  14
ATOM     14  C   UNL A   1      39.835  29.756  29.177  1.00  0.00     0.031 A 
ATOM     15  C   UNL A   1      40.146  29.633  30.639  1.00  0.00     0.074 A 
ATOM     16  C   UNL A   1      40.695  29.379  28.205  1.00  0.00     0.049 A 
ATOM     17  N   UNL A   1      41.090  30.190  31.329  1.00  0.00    -0.248 NA
ATOM     18  C   UNL A   1      39.198  28.858  31.466  1.00  0.00     0.031 C 
ATOM     19  C   UNL A   1      40.397  29.179  26.781  1.00  0.00     0.029 A 
ATOM     20  N   UNL A   1      41.987  28.958  28.297  1.00  0.00    -0.354 N 
ATOM     21  C   UNL A   1      40.981  29.672  32.623  1.00  0.00     0.074 A 
ATOM     22  C   UNL A   1      39.716  28.995  32.685  1.00  0.00     0.031 C 
ATOM     23  C   UNL A   1      41.381  28.445  26.216  1.00  0.00     0.029 A 
ATOM     24  C   UNL A   1      42.431  28.229  27.197  1.00  0.00     0.049 A 
ATOM     25  H   UNL A   1      42.559  29.153  29.074  1.00  0.00     0.167 HD
ATOM     26  C   UNL A   1      42.036  29.644  33.486  1.00  0.00     0.037 A 
ATOM     27  C   UNL A   1      43.529  27.430  27.132  1.00  0.00     0.037 A 
ATOM     28  C   UNL A   1      43.034  30.613  33.121  1.00  0.00     0.049 A 
ATOM     29  C   UNL A   1      44.414  27.811  28.264  1.00  0.00     0.074 A 
ATOM     30  C   UNL A   1      43.049  31.988  32.992  1.00  0.00     0.029 A 
ATOM     31  N   UNL A   1      44.167  30.171  32.483  1.00  0.00    -0.354 N 
ATOM     32  N   UNL A   1      45.000  28.971  28.372  1.00  0.00    -0.248 NA
ATOM     33  C   UNL A   1      44.269  27.067  29.506  1.00  0.00     0.031 C 
ATOM     34  C   UNL A   1      43.888  32.242  31.869  1.00  0.00     0.029 A 
ATOM     35  C   UNL A   1      44.381  31.014  31.424  1.00  0.00     0.049 A 
ATOM     36  H   UNL A   1      44.720  29.397  32.737  1.00  0.00     0.167 HD
ATOM     37  C   UNL A   1      44.919  29.288  29.721  1.00  0.00     0.074 A 
ATOM     38  C   UNL A   1      44.521  28.045  30.378  1.00  0.00     0.031 C 
ATOM     39  C   UNL A   1      44.910  30.586  30.149  1.00  0.00     0.037 A 
BRANCH  26  40
ATOM     40  C   UNL A   1      42.334  28.489  34.426  1.00  0.00     0.058 A 
ATOM     41  C   UNL A   1      42.524  28.750  35.800  1.00  0.00     0.135 A 
ATOM     42  C   UNL A   1      42.742  27.206  33.994  1.00  0.00     0.135 A 
ATOM     43  F   UNL A   1      42.155  29.927  36.331  1.00  0.00    -0.206 F 
ATOM     44  C   UNL A   1      43.178  27.855  36.650  1.00  0.00     0.059 A 
ATOM     45  C   UNL A   1      43.349  26.280  34.836  1.00  0.00     0.059 A 
ATOM     46  F   UNL A   1      42.665  26.816  32.718  1.00  0.00    -0.206 F 
ATOM     47  C   UNL A   1      43.613  26.634  36.148  1.00  0.00     0.060 A 
BRANCH  47  48
ATOM     48  S   UNL A   1      44.595  25.543  37.192  1.00  0.00     0.124 S 
ATOM     49  O   UNL A   1      44.349  24.248  36.568  1.00  0.00    -0.237 OA
ATOM     50  O   UNL A   1      45.936  26.092  37.024  1.00  0.00    -0.237 OA
ATOM     51  O   UNL A   1      44.008  25.729  38.517  1.00  0.00    -0.744 OA
ENDBRANCH  47  48
ENDBRANCH  26  40
BRANCH  27  52
ATOM     52  C   UNL A   1      43.654  26.124  26.420  1.00  0.00     0.058 A 
ATOM     53  C   UNL A   1      44.683  25.881  25.490  1.00  0.00     0.135 A 
ATOM     54  C   UNL A   1      42.924  24.991  26.836  1.00  0.00     0.135 A 
ATOM     55  F   UNL A   1      45.452  26.894  25.061  1.00  0.00    -0.206 F 
ATOM     56  C   UNL A   1      44.987  24.593  25.027  1.00  0.00     0.059 A 
ATOM     57  C   UNL A   1      43.200  23.702  26.381  1.00  0.00     0.059 A 
ATOM     58  F   UNL A   1      41.971  25.088  27.775  1.00  0.00    -0.206 F 
ATOM     59  C   UNL A   1      44.247  23.506  25.491  1.00  0.00     0.060 A 
BRANCH  59  60
ATOM     60  S   UNL A   1      44.725  21.825  25.020  1.00  0.00     0.124 S 
ATOM     61  O   UNL A   1      46.094  21.749  25.519  1.00  0.00    -0.237 OA
ATOM     62  O   UNL A   1      43.742  21.013  25.729  1.00  0.00    -0.237 OA
ATOM     63  O   UNL A   1      44.594  21.829  23.565  1.00  0.00    -0.744 OA
ENDBRANCH  59  60
ENDBRANCH  27  52
BRANCH  39  64
ATOM     64  C   UNL A   1      45.242  31.673  29.160  1.00  0.00     0.058 A 
ATOM     65  C   UNL A   1      46.550  32.082  28.844  1.00  0.00     0.135 A 
ATOM     66  C   UNL A   1      44.204  32.190  28.373  1.00  0.00     0.135 A 
ATOM     67  F   UNL A   1      47.609  31.557  29.474  1.00  0.00    -0.206 F 
ATOM     68  C   UNL A   1      46.810  32.991  27.815  1.00  0.00     0.059 A 
ATOM     69  C   UNL A   1      44.441  33.074  27.323  1.00  0.00     0.059 A 
ATOM     70  F   UNL A   1      42.939  31.789  28.581  1.00  0.00    -0.206 F 
ATOM     71  C   UNL A   1      45.747  33.478  27.056  1.00  0.00     0.060 A 
BRANCH  71  72
ATOM     72  S   UNL A   1      46.085  34.584  25.669  1.00  0.00     0.124 S 
ATOM     73  O   UNL A   1      47.477  34.264  25.356  1.00  0.00    -0.237 OA
ATOM     74  O   UNL A   1      45.101  34.154  24.675  1.00  0.00    -0.237 OA
ATOM     75  O   UNL A   1      45.860  35.910  26.223  1.00  0.00    -0.744 OA
ENDBRANCH  71  72
ENDBRANCH  39  64
ENDBRANCH  13  14
ENDBRANCH   6   8
ENDBRANCH   3   4
ENDBRANCH   2   3
ENDBRANCH   1   2
BRANCH   1  76
ATOM     76  N   UNL A   1      33.821  27.554  23.667  1.00  0.00    -0.354 N 
ATOM     77  C   UNL A   1      33.159  26.851  22.704  1.00  0.00     0.249 C 
ATOM     78  H   UNL A   1      34.784  27.360  23.725  1.00  0.00     0.163 HD
ATOM     79  O   UNL A   1      33.886  26.279  21.872  1.00  0.00    -0.272 OA
BRANCH  77  80
ATOM     80  C   UNL A   1      31.620  26.658  22.612  1.00  0.00     0.223 C 
ATOM     81  C   UNL A   1      30.678  27.823  22.628  1.00  0.00     0.071 A 
ATOM     82  N   UNL A   1      31.047  25.589  23.489  1.00  0.00    -0.325 N 
ATOM     83  N   UNL A   1      30.663  28.957  21.855  1.00  0.00    -0.346 N 
ATOM     84  C   UNL A   1      29.463  27.865  23.283  1.00  0.00     0.066 A 
ATOM     85  C   UNL A   1      29.589  25.449  23.377  1.00  0.00     0.127 C 
ATOM     86  C   UNL A   1      29.630  29.735  22.317  1.00  0.00     0.197 A 
ATOM     87  H   UNL A   1      31.274  29.172  21.115  1.00  0.00     0.167 HD
ATOM     88  N   UNL A   1      28.850  29.066  23.136  1.00  0.00    -0.242 NA
ATOM     89  C   UNL A   1      28.896  26.692  23.980  1.00  0.00     0.080 C 
BRANCH  82  90
ATOM     90  C   UNL A   1      31.660  25.185  24.677  1.00  0.00     0.223 C 
ATOM     91  O   UNL A   1      31.757  25.899  25.672  1.00  0.00    -0.275 OA
BRANCH  90  92
ATOM     92  C   UNL A   1      32.387  23.835  24.616  1.00  0.00     0.100 C 
BRANCH  92  93
ATOM     93  C   UNL A   1      33.891  23.742  24.883  1.00  0.00     0.015 C 
BRANCH  93  94
ATOM     94  C   UNL A   1      34.496  22.591  25.678  1.00  0.00     0.038 C 
BRANCH  94  95
ATOM     95  C   UNL A   1      34.844  21.224  25.119  1.00  0.00    -0.023 A 
ATOM     96  C   UNL A   1      36.145  20.753  25.251  1.00  0.00     0.087 A 
ATOM     97  C   UNL A   1      34.097  20.120  24.549  1.00  0.00     0.003 A 
ATOM     98  N   UNL A   1      36.166  19.413  25.008  1.00  0.00    -0.361 N 
ATOM     99  C   UNL A   1      34.916  18.984  24.647  1.00  0.00     0.046 A 
ATOM    100  C   UNL A   1      32.796  19.902  24.037  1.00  0.00     0.010 A 
ATOM    101  H   UNL A   1      36.961  18.838  25.080  1.00  0.00     0.166 HD
ATOM    102  C   UNL A   1      34.473  17.677  24.402  1.00  0.00     0.026 A 
ATOM    103  C   UNL A   1      32.352  18.604  23.731  1.00  0.00     0.001 A 
ATOM    104  C   UNL A   1      33.172  17.503  23.938  1.00  0.00     0.002 A 
ENDBRANCH  94  95
ENDBRANCH  93  94
ENDBRANCH  92  93
ENDBRANCH  90  92
ENDBRANCH  82  90
ENDBRANCH  77  80
ENDBRANCH   1  76
TORSDOF 18
ENDMDL
