MODEL 1
REMARK VINA RESULT:     -11.0      0.000      0.000
REMARK SMILES O=C(Cn1ccc(C(=O)NCCC[NH+]2CCOCC2)n1)NCCCNC(=O)c1ccc(-c2c3nc(c(-c4c(F)cc(S(=O)(=O)[O-])cc4F)c4ccc([nH]4)c(-c4c(F)cc(S(=O)(=O)[O-])cc4F)c4nc(c(-c5c(F)cc(S(=O)(=O)[O-])cc5F)c5ccc2[nH]5)C=C4)C=C3)cc1
REMARK SMILES IDX 1 1 2 2 21 3 3 5 4 6 5 7 20 8 6 9 7 10 8 11 9 12 10 13 11 15
REMARK SMILES IDX 12 16 13 17 14 18 15 19 19 20 16 22 18 23 17 24 22 25 23 26
REMARK SMILES IDX 24 27 25 28 26 29 27 31 28 32 29 33 93 34 30 35 92 36 31 37
REMARK SMILES IDX 32 38 33 39 86 40 34 41 91 42 85 43 87 44 35 45 90 46 84 47
REMARK SMILES IDX 83 48 36 50 70 51 49 52 69 53 50 54 53 55 68 56 88 57 51 58
REMARK SMILES IDX 52 59 67 61 89 62 54 63 37 64 38 65 47 66 39 67 40 68 46 69
REMARK SMILES IDX 48 70 41 71 42 72 43 73 44 74 45 75 71 76 72 77 81 78 73 79
REMARK SMILES IDX 74 80 80 81 82 82 75 83 76 84 77 85 78 86 79 87 55 88 56 89
REMARK SMILES IDX 65 90 57 91 58 92 64 93 66 94 59 95 60 96 61 97 62 98 63 99
REMARK H PARENT 21 4 10 14 14 21 25 30 87 49 53 60
REMARK Flexibility Score: inf
ROOT
ATOM      1  O   UNL A   1      32.503  34.692  32.453  1.00  0.00    -0.273 OA
ATOM      2  C   UNL A   1      33.591  35.237  32.279  1.00  0.00     0.241 C 
ATOM      3  N   UNL A   1      33.942  35.849  31.090  1.00  0.00    -0.354 N 
ATOM      4  H   UNL A   1      34.782  36.361  31.059  1.00  0.00     0.163 HD
ENDROOT
BRANCH   2   5
ATOM      5  C   UNL A   1      34.629  35.316  33.383  1.00  0.00     0.243 C 
BRANCH   5   6
ATOM      6  N   UNL A   1      35.714  34.374  33.169  1.00  0.00    -0.263 N 
ATOM      7  C   UNL A   1      35.651  33.014  33.235  1.00  0.00     0.110 A 
ATOM      8  N   UNL A   1      36.963  34.839  32.965  1.00  0.00    -0.167 NA
ATOM      9  C   UNL A   1      36.941  32.567  33.081  1.00  0.00     0.056 A 
ATOM     10  C   UNL A   1      37.740  33.737  32.961  1.00  0.00     0.150 A 
BRANCH  10  11
ATOM     11  C   UNL A   1      39.215  33.743  32.825  1.00  0.00     0.271 C 
ATOM     12  O   UNL A   1      39.953  33.657  33.790  1.00  0.00    -0.267 OA
ATOM     13  N   UNL A   1      39.778  33.883  31.568  1.00  0.00    -0.350 N 
ATOM     14  H   UNL A   1      40.761  33.864  31.525  1.00  0.00     0.163 HD
BRANCH  13  15
ATOM     15  C   UNL A   1      39.084  34.052  30.313  1.00  0.00     0.122 C 
BRANCH  15  16
ATOM     16  C   UNL A   1      39.816  34.909  29.286  1.00  0.00     0.083 C 
BRANCH  16  17
ATOM     17  C   UNL A   1      41.301  35.251  29.506  1.00  0.00     0.264 C 
BRANCH  17  18
ATOM     18  N   UNL A   1      42.304  35.346  28.441  1.00  0.00    -0.331 N 
ATOM     19  C   UNL A   1      43.689  35.489  28.953  1.00  0.00     0.291 C 
ATOM     20  C   UNL A   1      42.077  36.325  27.365  1.00  0.00     0.291 C 
ATOM     21  H   UNL A   1      42.181  34.438  27.995  1.00  0.00     0.348 HD
ATOM     22  C   UNL A   1      44.006  36.934  29.268  1.00  0.00     0.221 C 
ATOM     23  C   UNL A   1      42.487  37.754  27.718  1.00  0.00     0.221 C 
ATOM     24  O   UNL A   1      43.860  37.732  28.099  1.00  0.00    -0.370 OA
ENDBRANCH  17  18
ENDBRANCH  16  17
ENDBRANCH  15  16
ENDBRANCH  13  15
ENDBRANCH  10  11
ENDBRANCH   5   6
ENDBRANCH   2   5
BRANCH   3  25
ATOM     25  C   UNL A   1      33.129  35.775  29.882  1.00  0.00     0.117 C 
BRANCH  25  26
ATOM     26  C   UNL A   1      33.823  35.104  28.696  1.00  0.00     0.042 C 
BRANCH  26  27
ATOM     27  C   UNL A   1      34.219  33.670  28.989  1.00  0.00     0.118 C 
BRANCH  27  28
ATOM     28  N   UNL A   1      33.701  32.626  28.120  1.00  0.00    -0.352 N 
ATOM     29  C   UNL A   1      34.306  31.441  27.703  1.00  0.00     0.251 C 
ATOM     30  H   UNL A   1      32.790  32.777  27.777  1.00  0.00     0.163 HD
ATOM     31  O   UNL A   1      33.697  30.748  26.888  1.00  0.00    -0.269 OA
BRANCH  29  32
ATOM     32  C   UNL A   1      35.618  30.964  28.259  1.00  0.00     0.039 A 
ATOM     33  C   UNL A   1      36.439  31.795  29.044  1.00  0.00     0.014 A 
ATOM     34  C   UNL A   1      36.146  29.733  27.904  1.00  0.00     0.014 A 
ATOM     35  C   UNL A   1      37.802  31.460  29.229  1.00  0.00     0.010 A 
ATOM     36  C   UNL A   1      37.382  29.324  28.307  1.00  0.00     0.010 A 
ATOM     37  C   UNL A   1      38.303  30.258  28.713  1.00  0.00    -0.014 A 
BRANCH  37  38
ATOM     38  C   UNL A   1      39.663  29.735  28.859  1.00  0.00     0.031 A 
ATOM     39  C   UNL A   1      39.955  29.621  30.299  1.00  0.00     0.074 A 
ATOM     40  C   UNL A   1      40.461  29.115  27.949  1.00  0.00     0.049 A 
ATOM     41  N   UNL A   1      40.505  30.551  31.008  1.00  0.00    -0.248 NA
ATOM     42  C   UNL A   1      39.279  28.578  31.092  1.00  0.00     0.031 C 
ATOM     43  C   UNL A   1      40.329  28.885  26.516  1.00  0.00     0.029 A 
ATOM     44  N   UNL A   1      41.642  28.467  28.194  1.00  0.00    -0.354 N 
ATOM     45  C   UNL A   1      40.487  30.040  32.291  1.00  0.00     0.074 A 
ATOM     46  C   UNL A   1      39.410  29.092  32.316  1.00  0.00     0.031 C 
ATOM     47  C   UNL A   1      41.214  27.973  26.067  1.00  0.00     0.029 A 
ATOM     48  C   UNL A   1      42.098  27.654  27.154  1.00  0.00     0.049 A 
ATOM     49  H   UNL A   1      42.134  28.567  29.041  1.00  0.00     0.167 HD
ATOM     50  C   UNL A   1      41.589  30.115  33.082  1.00  0.00     0.037 A 
ATOM     51  C   UNL A   1      43.191  26.852  27.105  1.00  0.00     0.037 A 
ATOM     52  C   UNL A   1      42.571  31.012  32.508  1.00  0.00     0.049 A 
ATOM     53  C   UNL A   1      44.109  27.355  28.162  1.00  0.00     0.074 A 
ATOM     54  C   UNL A   1      42.536  32.325  32.072  1.00  0.00     0.029 A 
ATOM     55  N   UNL A   1      43.671  30.447  31.903  1.00  0.00    -0.354 N 
ATOM     56  N   UNL A   1      44.695  28.525  28.089  1.00  0.00    -0.248 NA
ATOM     57  C   UNL A   1      43.907  26.843  29.509  1.00  0.00     0.031 C 
ATOM     58  C   UNL A   1      43.309  32.339  30.873  1.00  0.00     0.029 A 
ATOM     59  C   UNL A   1      43.858  31.069  30.693  1.00  0.00     0.049 A 
ATOM     60  H   UNL A   1      44.227  29.724  32.272  1.00  0.00     0.167 HD
ATOM     61  C   UNL A   1      44.532  29.082  29.352  1.00  0.00     0.074 A 
ATOM     62  C   UNL A   1      44.085  27.974  30.199  1.00  0.00     0.031 C 
ATOM     63  C   UNL A   1      44.470  30.436  29.539  1.00  0.00     0.037 A 
BRANCH  50  64
ATOM     64  C   UNL A   1      41.938  29.090  34.131  1.00  0.00     0.058 A 
ATOM     65  C   UNL A   1      42.170  27.767  33.715  1.00  0.00     0.135 A 
ATOM     66  C   UNL A   1      41.841  29.281  35.531  1.00  0.00     0.135 A 
ATOM     67  F   UNL A   1      42.270  27.471  32.410  1.00  0.00    -0.206 F 
ATOM     68  C   UNL A   1      42.235  26.707  34.616  1.00  0.00     0.059 A 
ATOM     69  C   UNL A   1      41.970  28.250  36.447  1.00  0.00     0.059 A 
ATOM     70  F   UNL A   1      41.519  30.450  36.093  1.00  0.00    -0.206 F 
ATOM     71  C   UNL A   1      42.125  26.960  35.980  1.00  0.00     0.060 A 
BRANCH  71  72
ATOM     72  S   UNL A   1      42.122  25.590  37.141  1.00  0.00     0.124 S 
ATOM     73  O   UNL A   1      40.694  25.417  37.376  1.00  0.00    -0.237 OA
ATOM     74  O   UNL A   1      42.781  24.544  36.368  1.00  0.00    -0.237 OA
ATOM     75  O   UNL A   1      42.891  26.107  38.270  1.00  0.00    -0.744 OA
ENDBRANCH  71  72
ENDBRANCH  50  64
BRANCH  51  76
ATOM     76  C   UNL A   1      43.276  25.511  26.451  1.00  0.00     0.058 A 
ATOM     77  C   UNL A   1      44.064  25.297  25.305  1.00  0.00     0.135 A 
ATOM     78  C   UNL A   1      42.789  24.342  27.081  1.00  0.00     0.135 A 
ATOM     79  F   UNL A   1      44.566  26.342  24.629  1.00  0.00    -0.206 F 
ATOM     80  C   UNL A   1      44.414  24.012  24.863  1.00  0.00     0.059 A 
ATOM     81  C   UNL A   1      43.113  23.055  26.653  1.00  0.00     0.059 A 
ATOM     82  F   UNL A   1      42.048  24.404  28.197  1.00  0.00    -0.206 F 
ATOM     83  C   UNL A   1      43.959  22.896  25.566  1.00  0.00     0.060 A 
BRANCH  83  84
ATOM     84  S   UNL A   1      44.588  21.249  25.159  1.00  0.00     0.124 S 
ATOM     85  O   UNL A   1      43.632  20.382  25.836  1.00  0.00    -0.237 OA
ATOM     86  O   UNL A   1      44.531  21.250  23.701  1.00  0.00    -0.237 OA
ATOM     87  O   UNL A   1      45.936  21.253  25.724  1.00  0.00    -0.744 OA
ENDBRANCH  83  84
ENDBRANCH  51  76
BRANCH  63  88
ATOM     88  C   UNL A   1      44.885  31.359  28.417  1.00  0.00     0.058 A 
ATOM     89  C   UNL A   1      44.113  31.650  27.278  1.00  0.00     0.135 A 
ATOM     90  C   UNL A   1      46.052  32.118  28.606  1.00  0.00     0.135 A 
ATOM     91  F   UNL A   1      42.932  31.049  27.071  1.00  0.00    -0.206 F 
ATOM     92  C   UNL A   1      44.504  32.627  26.354  1.00  0.00     0.059 A 
ATOM     93  C   UNL A   1      46.443  33.116  27.719  1.00  0.00     0.059 A 
ATOM     94  F   UNL A   1      46.802  31.933  29.705  1.00  0.00    -0.206 F 
ATOM     95  C   UNL A   1      45.672  33.356  26.585  1.00  0.00     0.060 A 
BRANCH  95  96
ATOM     96  S   UNL A   1      46.154  34.655  25.424  1.00  0.00     0.124 S 
ATOM     97  O   UNL A   1      45.772  35.864  26.146  1.00  0.00    -0.237 OA
ATOM     98  O   UNL A   1      47.589  34.430  25.278  1.00  0.00    -0.237 OA
ATOM     99  O   UNL A   1      45.361  34.361  24.234  1.00  0.00    -0.744 OA
ENDBRANCH  95  96
ENDBRANCH  63  88
ENDBRANCH  37  38
ENDBRANCH  29  32
ENDBRANCH  27  28
ENDBRANCH  26  27
ENDBRANCH  25  26
ENDBRANCH   3  25
TORSDOF 19
ENDMDL
MODEL 2
REMARK VINA RESULT:     -10.8      4.520      8.131
REMARK SMILES O=C(Cn1ccc(C(=O)NCCC[NH+]2CCOCC2)n1)NCCCNC(=O)c1ccc(-c2c3nc(c(-c4c(F)cc(S(=O)(=O)[O-])cc4F)c4ccc([nH]4)c(-c4c(F)cc(S(=O)(=O)[O-])cc4F)c4nc(c(-c5c(F)cc(S(=O)(=O)[O-])cc5F)c5ccc2[nH]5)C=C4)C=C3)cc1
REMARK SMILES IDX 1 1 2 2 21 3 3 5 4 6 5 7 20 8 6 9 7 10 8 11 9 12 10 13 11 15
REMARK SMILES IDX 12 16 13 17 14 18 15 19 19 20 16 22 18 23 17 24 22 25 23 26
REMARK SMILES IDX 24 27 25 28 26 29 27 31 28 32 29 33 93 34 30 35 92 36 31 37
REMARK SMILES IDX 32 38 33 39 86 40 34 41 91 42 85 43 87 44 35 45 90 46 84 47
REMARK SMILES IDX 83 48 36 50 70 51 49 52 69 53 50 54 53 55 68 56 88 57 51 58
REMARK SMILES IDX 52 59 67 61 89 62 54 63 37 64 38 65 47 66 39 67 40 68 46 69
REMARK SMILES IDX 48 70 41 71 42 72 43 73 44 74 45 75 71 76 72 77 81 78 73 79
REMARK SMILES IDX 74 80 80 81 82 82 75 83 76 84 77 85 78 86 79 87 55 88 56 89
REMARK SMILES IDX 65 90 57 91 58 92 64 93 66 94 59 95 60 96 61 97 62 98 63 99
REMARK H PARENT 21 4 10 14 14 21 25 30 87 49 53 60
REMARK Flexibility Score: inf
ROOT
ATOM      1  O   UNL A   1      33.749  28.833  23.877  1.00  0.00    -0.273 OA
ATOM      2  C   UNL A   1      33.167  27.995  24.563  1.00  0.00     0.241 C 
ATOM      3  N   UNL A   1      33.093  28.074  25.941  1.00  0.00    -0.354 N 
ATOM      4  H   UNL A   1      32.518  27.431  26.415  1.00  0.00     0.163 HD
ENDROOT
BRANCH   2   5
ATOM      5  C   UNL A   1      32.441  26.819  23.939  1.00  0.00     0.243 C 
BRANCH   5   6
ATOM      6  N   UNL A   1      33.287  25.640  23.869  1.00  0.00    -0.263 N 
ATOM      7  C   UNL A   1      33.692  24.981  22.746  1.00  0.00     0.110 A 
ATOM      8  N   UNL A   1      33.674  25.034  25.010  1.00  0.00    -0.167 NA
ATOM      9  C   UNL A   1      34.371  23.870  23.184  1.00  0.00     0.056 A 
ATOM     10  C   UNL A   1      34.300  23.911  24.604  1.00  0.00     0.150 A 
BRANCH  10  11
ATOM     11  C   UNL A   1      34.856  22.879  25.509  1.00  0.00     0.271 C 
ATOM     12  O   UNL A   1      35.991  22.943  25.941  1.00  0.00    -0.267 OA
ATOM     13  N   UNL A   1      34.074  21.789  25.852  1.00  0.00    -0.350 N 
ATOM     14  H   UNL A   1      34.479  21.138  26.469  1.00  0.00     0.163 HD
BRANCH  13  15
ATOM     15  C   UNL A   1      32.731  21.501  25.407  1.00  0.00     0.122 C 
BRANCH  15  16
ATOM     16  C   UNL A   1      32.640  20.545  24.222  1.00  0.00     0.083 C 
BRANCH  16  17
ATOM     17  C   UNL A   1      32.460  19.037  24.478  1.00  0.00     0.264 C 
BRANCH  17  18
ATOM     18  N   UNL A   1      33.427  18.188  25.181  1.00  0.00    -0.331 N 
ATOM     19  C   UNL A   1      34.567  17.770  24.327  1.00  0.00     0.291 C 
ATOM     20  C   UNL A   1      32.913  17.022  25.918  1.00  0.00     0.291 C 
ATOM     21  H   UNL A   1      33.742  18.834  25.904  1.00  0.00     0.348 HD
ATOM     22  C   UNL A   1      34.213  16.548  23.509  1.00  0.00     0.221 C 
ATOM     23  C   UNL A   1      32.647  15.795  25.047  1.00  0.00     0.221 C 
ATOM     24  O   UNL A   1      33.857  15.471  24.368  1.00  0.00    -0.370 OA
ENDBRANCH  17  18
ENDBRANCH  16  17
ENDBRANCH  15  16
ENDBRANCH  13  15
ENDBRANCH  10  11
ENDBRANCH   5   6
ENDBRANCH   2   5
BRANCH   3  25
ATOM     25  C   UNL A   1      33.824  29.061  26.726  1.00  0.00     0.117 C 
BRANCH  25  26
ATOM     26  C   UNL A   1      32.970  30.224  27.229  1.00  0.00     0.042 C 
BRANCH  26  27
ATOM     27  C   UNL A   1      33.771  31.500  27.408  1.00  0.00     0.118 C 
BRANCH  27  28
ATOM     28  N   UNL A   1      33.913  32.036  28.751  1.00  0.00    -0.352 N 
ATOM     29  C   UNL A   1      34.941  31.850  29.674  1.00  0.00     0.251 C 
ATOM     30  H   UNL A   1      33.176  32.616  29.054  1.00  0.00     0.163 HD
ATOM     31  O   UNL A   1      34.797  32.342  30.793  1.00  0.00    -0.269 OA
BRANCH  29  32
ATOM     32  C   UNL A   1      36.220  31.141  29.327  1.00  0.00     0.039 A 
ATOM     33  C   UNL A   1      36.300  29.737  29.266  1.00  0.00     0.014 A 
ATOM     34  C   UNL A   1      37.413  31.832  29.194  1.00  0.00     0.014 A 
ATOM     35  C   UNL A   1      37.565  29.104  29.312  1.00  0.00     0.010 A 
ATOM     36  C   UNL A   1      38.604  31.202  28.988  1.00  0.00     0.010 A 
ATOM     37  C   UNL A   1      38.733  29.876  29.321  1.00  0.00    -0.014 A 
BRANCH  37  38
ATOM     38  C   UNL A   1      40.114  29.387  29.312  1.00  0.00     0.031 A 
ATOM     39  C   UNL A   1      40.543  29.211  30.711  1.00  0.00     0.074 A 
ATOM     40  C   UNL A   1      40.837  28.839  28.300  1.00  0.00     0.049 A 
ATOM     41  N   UNL A   1      41.133  30.120  31.414  1.00  0.00    -0.248 NA
ATOM     42  C   UNL A   1      39.971  28.109  31.507  1.00  0.00     0.031 C 
ATOM     43  C   UNL A   1      40.578  28.677  26.876  1.00  0.00     0.029 A 
ATOM     44  N   UNL A   1      42.053  28.215  28.401  1.00  0.00    -0.354 N 
ATOM     45  C   UNL A   1      41.248  29.545  32.664  1.00  0.00     0.074 A 
ATOM     46  C   UNL A   1      40.203  28.565  32.739  1.00  0.00     0.031 C 
ATOM     47  C   UNL A   1      41.439  27.815  26.299  1.00  0.00     0.029 A 
ATOM     48  C   UNL A   1      42.429  27.470  27.282  1.00  0.00     0.049 A 
ATOM     49  H   UNL A   1      42.620  28.287  29.203  1.00  0.00     0.167 HD
ATOM     50  C   UNL A   1      42.418  29.614  33.352  1.00  0.00     0.037 A 
ATOM     51  C   UNL A   1      43.533  26.704  27.089  1.00  0.00     0.037 A 
ATOM     52  C   UNL A   1      43.318  30.567  32.738  1.00  0.00     0.049 A 
ATOM     53  C   UNL A   1      44.533  27.181  28.081  1.00  0.00     0.074 A 
ATOM     54  C   UNL A   1      43.210  31.899  32.377  1.00  0.00     0.029 A 
ATOM     55  N   UNL A   1      44.371  30.067  32.005  1.00  0.00    -0.354 N 
ATOM     56  N   UNL A   1      45.079  28.370  28.016  1.00  0.00    -0.248 NA
ATOM     57  C   UNL A   1      44.472  26.596  29.412  1.00  0.00     0.031 C 
ATOM     58  C   UNL A   1      43.865  31.997  31.114  1.00  0.00     0.029 A 
ATOM     59  C   UNL A   1      44.427  30.754  30.817  1.00  0.00     0.049 A 
ATOM     60  H   UNL A   1      44.978  29.343  32.282  1.00  0.00     0.167 HD
ATOM     61  C   UNL A   1      45.023  28.859  29.316  1.00  0.00     0.074 A 
ATOM     62  C   UNL A   1      44.685  27.697  30.142  1.00  0.00     0.031 C 
ATOM     63  C   UNL A   1      44.944  30.199  29.580  1.00  0.00     0.037 A 
BRANCH  50  64
ATOM     64  C   UNL A   1      42.890  28.549  34.309  1.00  0.00     0.058 A 
ATOM     65  C   UNL A   1      43.196  28.929  35.628  1.00  0.00     0.135 A 
ATOM     66  C   UNL A   1      43.269  27.232  33.952  1.00  0.00     0.135 A 
ATOM     67  F   UNL A   1      42.891  30.159  36.070  1.00  0.00    -0.206 F 
ATOM     68  C   UNL A   1      43.882  28.090  36.502  1.00  0.00     0.059 A 
ATOM     69  C   UNL A   1      43.891  26.358  34.828  1.00  0.00     0.059 A 
ATOM     70  F   UNL A   1      43.151  26.743  32.714  1.00  0.00    -0.206 F 
ATOM     71  C   UNL A   1      44.232  26.809  36.088  1.00  0.00     0.060 A 
BRANCH  71  72
ATOM     72  S   UNL A   1      45.191  25.752  37.179  1.00  0.00     0.124 S 
ATOM     73  O   UNL A   1      45.343  24.557  36.357  1.00  0.00    -0.237 OA
ATOM     74  O   UNL A   1      46.394  26.551  37.385  1.00  0.00    -0.237 OA
ATOM     75  O   UNL A   1      44.330  25.610  38.349  1.00  0.00    -0.744 OA
ENDBRANCH  71  72
ENDBRANCH  50  64
BRANCH  51  76
ATOM     76  C   UNL A   1      43.590  25.401  26.360  1.00  0.00     0.058 A 
ATOM     77  C   UNL A   1      44.491  25.186  25.301  1.00  0.00     0.135 A 
ATOM     78  C   UNL A   1      42.940  24.244  26.849  1.00  0.00     0.135 A 
ATOM     79  F   UNL A   1      45.152  26.221  24.760  1.00  0.00    -0.206 F 
ATOM     80  C   UNL A   1      44.790  23.903  24.817  1.00  0.00     0.059 A 
ATOM     81  C   UNL A   1      43.211  22.961  26.376  1.00  0.00     0.059 A 
ATOM     82  F   UNL A   1      42.076  24.306  27.874  1.00  0.00    -0.206 F 
ATOM     83  C   UNL A   1      44.166  22.792  25.385  1.00  0.00     0.060 A 
BRANCH  83  84
ATOM     84  S   UNL A   1      44.707  21.123  24.944  1.00  0.00     0.124 S 
ATOM     85  O   UNL A   1      44.618  21.148  23.489  1.00  0.00    -0.237 OA
ATOM     86  O   UNL A   1      46.055  21.079  25.503  1.00  0.00    -0.237 OA
ATOM     87  O   UNL A   1      43.732  20.263  25.615  1.00  0.00    -0.744 OA
ENDBRANCH  83  84
ENDBRANCH  51  76
BRANCH  63  88
ATOM     88  C   UNL A   1      45.228  31.189  28.474  1.00  0.00     0.058 A 
ATOM     89  C   UNL A   1      44.322  31.560  27.464  1.00  0.00     0.135 A 
ATOM     90  C   UNL A   1      46.421  31.925  28.560  1.00  0.00     0.135 A 
ATOM     91  F   UNL A   1      43.114  30.984  27.373  1.00  0.00    -0.206 F 
ATOM     92  C   UNL A   1      44.608  32.592  26.561  1.00  0.00     0.059 A 
ATOM     93  C   UNL A   1      46.713  32.975  27.694  1.00  0.00     0.059 A 
ATOM     94  F   UNL A   1      47.302  31.662  29.539  1.00  0.00    -0.206 F 
ATOM     95  C   UNL A   1      45.808  33.294  26.686  1.00  0.00     0.060 A 
BRANCH  95  96
ATOM     96  S   UNL A   1      46.160  34.661  25.558  1.00  0.00     0.124 S 
ATOM     97  O   UNL A   1      45.262  34.375  24.444  1.00  0.00    -0.237 OA
ATOM     98  O   UNL A   1      45.819  35.830  26.363  1.00  0.00    -0.237 OA
ATOM     99  O   UNL A   1      47.583  34.508  25.268  1.00  0.00    -0.744 OA
ENDBRANCH  95  96
ENDBRANCH  63  88
ENDBRANCH  37  38
ENDBRANCH  29  32
ENDBRANCH  27  28
ENDBRANCH  26  27
ENDBRANCH  25  26
ENDBRANCH   3  25
TORSDOF 19
ENDMDL
MODEL 3
REMARK VINA RESULT:     -10.7      4.540     11.687
REMARK SMILES O=C(Cn1ccc(C(=O)NCCC[NH+]2CCOCC2)n1)NCCCNC(=O)c1ccc(-c2c3nc(c(-c4c(F)cc(S(=O)(=O)[O-])cc4F)c4ccc([nH]4)c(-c4c(F)cc(S(=O)(=O)[O-])cc4F)c4nc(c(-c5c(F)cc(S(=O)(=O)[O-])cc5F)c5ccc2[nH]5)C=C4)C=C3)cc1
REMARK SMILES IDX 1 1 2 2 21 3 3 5 4 6 5 7 20 8 6 9 7 10 8 11 9 12 10 13 11 15
REMARK SMILES IDX 12 16 13 17 14 18 15 19 19 20 16 22 18 23 17 24 22 25 23 26
REMARK SMILES IDX 24 27 25 28 26 29 27 31 28 32 29 33 93 34 30 35 92 36 31 37
REMARK SMILES IDX 32 38 33 39 86 40 34 41 91 42 85 43 87 44 35 45 90 46 84 47
REMARK SMILES IDX 83 48 36 50 70 51 49 52 69 53 50 54 53 55 68 56 88 57 51 58
REMARK SMILES IDX 52 59 67 61 89 62 54 63 37 64 38 65 47 66 39 67 40 68 46 69
REMARK SMILES IDX 48 70 41 71 42 72 43 73 44 74 45 75 71 76 72 77 81 78 73 79
REMARK SMILES IDX 74 80 80 81 82 82 75 83 76 84 77 85 78 86 79 87 55 88 56 89
REMARK SMILES IDX 65 90 57 91 58 92 64 93 66 94 59 95 60 96 61 97 62 98 63 99
REMARK H PARENT 21 4 10 14 14 21 25 30 87 49 53 60
REMARK Flexibility Score: inf
ROOT
ATOM      1  O   UNL A   1      36.340  23.075  22.751  1.00  0.00    -0.273 OA
ATOM      2  C   UNL A   1      35.629  23.009  23.752  1.00  0.00     0.241 C 
ATOM      3  N   UNL A   1      36.136  23.072  25.037  1.00  0.00    -0.354 N 
ATOM      4  H   UNL A   1      35.500  23.125  25.787  1.00  0.00     0.163 HD
ENDROOT
BRANCH   2   5
ATOM      5  C   UNL A   1      34.121  22.892  23.652  1.00  0.00     0.243 C 
BRANCH   5   6
ATOM      6  N   UNL A   1      33.557  23.924  22.797  1.00  0.00    -0.263 N 
ATOM      7  C   UNL A   1      32.945  23.752  21.591  1.00  0.00     0.110 A 
ATOM      8  N   UNL A   1      33.701  25.219  23.141  1.00  0.00    -0.167 NA
ATOM      9  C   UNL A   1      32.690  25.014  21.113  1.00  0.00     0.056 A 
ATOM     10  C   UNL A   1      33.218  25.907  22.087  1.00  0.00     0.150 A 
BRANCH  10  11
ATOM     11  C   UNL A   1      33.214  27.383  21.970  1.00  0.00     0.271 C 
ATOM     12  O   UNL A   1      34.232  28.017  21.763  1.00  0.00    -0.267 OA
ATOM     13  N   UNL A   1      32.024  28.071  22.130  1.00  0.00    -0.350 N 
ATOM     14  H   UNL A   1      32.066  29.049  22.027  1.00  0.00     0.163 HD
BRANCH  13  15
ATOM     15  C   UNL A   1      30.725  27.514  22.432  1.00  0.00     0.122 C 
BRANCH  15  16
ATOM     16  C   UNL A   1      29.912  28.300  23.456  1.00  0.00     0.083 C 
BRANCH  16  17
ATOM     17  C   UNL A   1      29.629  29.794  23.211  1.00  0.00     0.264 C 
BRANCH  17  18
ATOM     18  N   UNL A   1      28.292  30.378  23.068  1.00  0.00    -0.331 N 
ATOM     19  C   UNL A   1      27.803  30.381  21.667  1.00  0.00     0.291 C 
ATOM     20  C   UNL A   1      28.047  31.697  23.676  1.00  0.00     0.291 C 
ATOM     21  H   UNL A   1      27.749  29.727  23.634  1.00  0.00     0.348 HD
ATOM     22  C   UNL A   1      28.320  31.586  20.914  1.00  0.00     0.221 C 
ATOM     23  C   UNL A   1      28.525  32.877  22.830  1.00  0.00     0.221 C 
ATOM     24  O   UNL A   1      27.897  32.783  21.555  1.00  0.00    -0.370 OA
ENDBRANCH  17  18
ENDBRANCH  16  17
ENDBRANCH  15  16
ENDBRANCH  13  15
ENDBRANCH  10  11
ENDBRANCH   5   6
ENDBRANCH   2   5
BRANCH   3  25
ATOM     25  C   UNL A   1      37.562  23.064  25.336  1.00  0.00     0.117 C 
BRANCH  25  26
ATOM     26  C   UNL A   1      38.199  21.675  25.339  1.00  0.00     0.042 C 
BRANCH  26  27
ATOM     27  C   UNL A   1      39.354  21.566  26.315  1.00  0.00     0.118 C 
BRANCH  27  28
ATOM     28  N   UNL A   1      40.702  21.758  25.804  1.00  0.00    -0.352 N 
ATOM     29  C   UNL A   1      41.558  22.847  25.958  1.00  0.00     0.251 C 
ATOM     30  H   UNL A   1      41.062  21.011  25.273  1.00  0.00     0.163 HD
ATOM     31  O   UNL A   1      42.631  22.817  25.354  1.00  0.00    -0.269 OA
BRANCH  29  32
ATOM     32  C   UNL A   1      41.247  23.998  26.873  1.00  0.00     0.039 A 
ATOM     33  C   UNL A   1      40.297  24.980  26.536  1.00  0.00     0.014 A 
ATOM     34  C   UNL A   1      41.986  24.223  28.023  1.00  0.00     0.014 A 
ATOM     35  C   UNL A   1      40.299  26.221  27.218  1.00  0.00     0.010 A 
ATOM     36  C   UNL A   1      41.796  25.320  28.811  1.00  0.00     0.010 A 
ATOM     37  C   UNL A   1      41.180  26.429  28.286  1.00  0.00    -0.014 A 
BRANCH  37  38
ATOM     38  C   UNL A   1      41.277  27.623  29.130  1.00  0.00     0.031 A 
ATOM     39  C   UNL A   1      42.365  28.466  28.603  1.00  0.00     0.074 A 
ATOM     40  C   UNL A   1      40.387  28.133  30.022  1.00  0.00     0.049 A 
ATOM     41  N   UNL A   1      43.595  28.398  28.992  1.00  0.00    -0.248 NA
ATOM     42  C   UNL A   1      42.175  29.171  27.322  1.00  0.00     0.031 C 
ATOM     43  C   UNL A   1      39.130  27.630  30.562  1.00  0.00     0.029 A 
ATOM     44  N   UNL A   1      40.443  29.359  30.632  1.00  0.00    -0.354 N 
ATOM     45  C   UNL A   1      44.251  29.288  28.165  1.00  0.00     0.074 A 
ATOM     46  C   UNL A   1      43.447  29.383  26.980  1.00  0.00     0.031 C 
ATOM     47  C   UNL A   1      38.431  28.592  31.196  1.00  0.00     0.029 A 
ATOM     48  C   UNL A   1      39.260  29.765  31.253  1.00  0.00     0.049 A 
ATOM     49  H   UNL A   1      41.257  29.913  30.633  1.00  0.00     0.167 HD
ATOM     50  C   UNL A   1      45.145  30.176  28.674  1.00  0.00     0.037 A 
ATOM     51  C   UNL A   1      38.978  30.930  31.889  1.00  0.00     0.037 A 
ATOM     52  C   UNL A   1      45.479  29.838  30.042  1.00  0.00     0.049 A 
ATOM     53  C   UNL A   1      40.293  31.517  32.257  1.00  0.00     0.074 A 
ATOM     54  C   UNL A   1      45.945  28.692  30.664  1.00  0.00     0.029 A 
ATOM     55  N   UNL A   1      44.923  30.604  31.041  1.00  0.00    -0.354 N 
ATOM     56  N   UNL A   1      41.086  30.971  33.146  1.00  0.00    -0.248 NA
ATOM     57  C   UNL A   1      40.955  32.334  31.251  1.00  0.00     0.031 C 
ATOM     58  C   UNL A   1      45.219  28.613  31.889  1.00  0.00     0.029 A 
ATOM     59  C   UNL A   1      44.428  29.757  32.002  1.00  0.00     0.049 A 
ATOM     60  H   UNL A   1      44.886  31.588  31.063  1.00  0.00     0.167 HD
ATOM     61  C   UNL A   1      42.348  31.004  32.565  1.00  0.00     0.074 A 
ATOM     62  C   UNL A   1      42.211  31.906  31.418  1.00  0.00     0.031 C 
ATOM     63  C   UNL A   1      43.305  30.073  32.864  1.00  0.00     0.037 A 
BRANCH  50  64
ATOM     64  C   UNL A   1      45.391  31.544  28.090  1.00  0.00     0.058 A 
ATOM     65  C   UNL A   1      46.705  31.878  27.714  1.00  0.00     0.135 A 
ATOM     66  C   UNL A   1      44.465  32.615  28.084  1.00  0.00     0.135 A 
ATOM     67  F   UNL A   1      47.666  30.943  27.695  1.00  0.00    -0.206 F 
ATOM     68  C   UNL A   1      47.081  33.185  27.418  1.00  0.00     0.059 A 
ATOM     69  C   UNL A   1      44.805  33.909  27.728  1.00  0.00     0.059 A 
ATOM     70  F   UNL A   1      43.204  32.499  28.513  1.00  0.00    -0.206 F 
ATOM     71  C   UNL A   1      46.124  34.195  27.437  1.00  0.00     0.060 A 
BRANCH  71  72
ATOM     72  S   UNL A   1      46.618  35.896  27.140  1.00  0.00     0.124 S 
ATOM     73  O   UNL A   1      47.954  35.912  27.725  1.00  0.00    -0.237 OA
ATOM     74  O   UNL A   1      46.550  35.976  25.685  1.00  0.00    -0.237 OA
ATOM     75  O   UNL A   1      45.605  36.668  27.854  1.00  0.00    -0.744 OA
ENDBRANCH  71  72
ENDBRANCH  50  64
BRANCH  51  76
ATOM     76  C   UNL A   1      37.680  31.670  31.846  1.00  0.00     0.058 A 
ATOM     77  C   UNL A   1      36.850  31.771  32.978  1.00  0.00     0.135 A 
ATOM     78  C   UNL A   1      37.340  32.516  30.765  1.00  0.00     0.135 A 
ATOM     79  F   UNL A   1      37.083  31.004  34.054  1.00  0.00    -0.206 F 
ATOM     80  C   UNL A   1      35.806  32.705  33.063  1.00  0.00     0.059 A 
ATOM     81  C   UNL A   1      36.300  33.443  30.822  1.00  0.00     0.059 A 
ATOM     82  F   UNL A   1      38.065  32.537  29.637  1.00  0.00    -0.206 F 
ATOM     83  C   UNL A   1      35.561  33.561  31.990  1.00  0.00     0.060 A 
BRANCH  83  84
ATOM     84  S   UNL A   1      34.384  34.924  32.166  1.00  0.00     0.124 S 
ATOM     85  O   UNL A   1      34.097  35.261  30.777  1.00  0.00    -0.237 OA
ATOM     86  O   UNL A   1      33.297  34.297  32.912  1.00  0.00    -0.237 OA
ATOM     87  O   UNL A   1      35.142  35.931  32.908  1.00  0.00    -0.744 OA
ENDBRANCH  83  84
ENDBRANCH  51  76
BRANCH  63  88
ATOM     88  C   UNL A   1      43.112  29.174  34.063  1.00  0.00     0.058 A 
ATOM     89  C   UNL A   1      42.262  28.053  34.109  1.00  0.00     0.135 A 
ATOM     90  C   UNL A   1      43.975  29.362  35.155  1.00  0.00     0.135 A 
ATOM     91  F   UNL A   1      41.480  27.735  33.067  1.00  0.00    -0.206 F 
ATOM     92  C   UNL A   1      42.248  27.185  35.207  1.00  0.00     0.059 A 
ATOM     93  C   UNL A   1      44.001  28.494  36.242  1.00  0.00     0.059 A 
ATOM     94  F   UNL A   1      44.855  30.377  35.146  1.00  0.00    -0.206 F 
ATOM     95  C   UNL A   1      43.124  27.415  36.270  1.00  0.00     0.060 A 
BRANCH  95  96
ATOM     96  S   UNL A   1      43.149  26.267  37.666  1.00  0.00     0.124 S 
ATOM     97  O   UNL A   1      43.892  27.023  38.669  1.00  0.00    -0.237 OA
ATOM     98  O   UNL A   1      41.728  26.074  37.941  1.00  0.00    -0.237 OA
ATOM     99  O   UNL A   1      43.837  25.094  37.132  1.00  0.00    -0.744 OA
ENDBRANCH  95  96
ENDBRANCH  63  88
ENDBRANCH  37  38
ENDBRANCH  29  32
ENDBRANCH  27  28
ENDBRANCH  26  27
ENDBRANCH  25  26
ENDBRANCH   3  25
TORSDOF 19
ENDMDL
