MODEL 1
REMARK VINA RESULT:     -11.8      0.000      0.000
REMARK SMILES CC[C@@H](C)S(=O)(=O)c1cc(C(=O)NCCCNC(=O)c2ccc(-c3c4nc(c(-c5c(F)cc(S(=O)(=O)[O-])cc5F)c5ccc([nH]5)c(-c5c(F)cc(S(=O)(=O)[O-])cc5F)c5nc(c(-c6c(F)cc(S(=O)(=O)[O-])cc6F)c6ccc3[nH]6)C=C5)C=C4)cc2)c(C)cc1C
REMARK SMILES IDX 15 1 14 2 13 3 11 4 12 5 10 7 8 8 9 9 89 10 88 11 90 12
REMARK SMILES IDX 86 13 87 14 5 15 6 16 7 17 3 18 4 19 2 20 1 21 16 22 17 23
REMARK SMILES IDX 18 24 19 26 20 27 21 28 85 29 22 30 84 31 23 32 24 33 25 34
REMARK SMILES IDX 78 35 26 36 83 37 77 38 79 39 27 40 82 41 76 42 75 43 28 45
REMARK SMILES IDX 62 46 41 47 61 48 42 49 45 50 60 51 80 52 43 53 44 54 59 56
REMARK SMILES IDX 81 57 46 58 29 59 30 60 39 61 31 62 32 63 38 64 40 65 33 66
REMARK SMILES IDX 34 67 35 68 36 69 37 70 63 71 64 72 73 73 65 74 66 75 72 76
REMARK SMILES IDX 74 77 67 78 68 79 69 80 70 81 71 82 47 83 48 84 57 85 49 86
REMARK SMILES IDX 50 87 56 88 58 89 51 90 52 91 53 92 54 93 55 94
REMARK H PARENT 13 6 17 25 79 44 45 55
REMARK Flexibility Score: inf
ROOT
ATOM      1  C   UNL A   1      34.343  31.165  27.644  1.00  0.00     0.042 C 
ENDROOT
BRANCH   1   2
ATOM      2  C   UNL A   1      34.434  29.663  27.364  1.00  0.00     0.118 C 
BRANCH   2   3
ATOM      3  N   UNL A   1      33.230  28.996  27.813  1.00  0.00    -0.352 N 
ATOM      4  C   UNL A   1      32.306  28.167  27.240  1.00  0.00     0.251 C 
ATOM      5  O   UNL A   1      31.384  27.827  27.990  1.00  0.00    -0.269 OA
ATOM      6  H   UNL A   1      33.028  29.185  28.757  1.00  0.00     0.163 HD
BRANCH   4   7
ATOM      7  C   UNL A   1      32.356  27.554  25.867  1.00  0.00     0.044 A 
ATOM      8  C   UNL A   1      33.002  25.439  24.721  1.00  0.00     0.071 A 
ATOM      9  C   UNL A   1      32.892  26.241  25.873  1.00  0.00     0.034 A 
ATOM     10  C   UNL A   1      32.563  25.944  23.494  1.00  0.00    -0.032 A 
ATOM     11  C   UNL A   1      32.029  27.244  23.481  1.00  0.00     0.009 A 
ATOM     12  C   UNL A   1      32.575  25.214  22.180  1.00  0.00     0.046 C 
ATOM     13  C   UNL A   1      31.849  28.024  24.648  1.00  0.00    -0.038 A 
ATOM     14  C   UNL A   1      30.995  29.240  24.457  1.00  0.00     0.045 C 
BRANCH   8  15
ATOM     15  S   UNL A   1      33.557  23.751  24.972  1.00  0.00     0.181 S 
ATOM     16  O   UNL A   1      33.819  23.544  26.382  1.00  0.00    -0.223 OA
ATOM     17  O   UNL A   1      34.627  23.530  24.012  1.00  0.00    -0.223 OA
BRANCH  15  18
ATOM     18  C   UNL A   1      32.197  22.651  24.574  1.00  0.00     0.110 C 
ATOM     19  C   UNL A   1      31.273  22.353  25.752  1.00  0.00     0.025 C 
BRANCH  18  20
ATOM     20  C   UNL A   1      32.689  21.387  23.859  1.00  0.00     0.016 C 
ATOM     21  C   UNL A   1      32.153  21.262  22.440  1.00  0.00     0.005 C 
ENDBRANCH  18  20
ENDBRANCH  15  18
ENDBRANCH   8  15
ENDBRANCH   4   7
ENDBRANCH   2   3
ENDBRANCH   1   2
BRANCH   1  22
ATOM     22  C   UNL A   1      35.521  31.730  28.431  1.00  0.00     0.118 C 
BRANCH  22  23
ATOM     23  N   UNL A   1      35.431  31.412  29.844  1.00  0.00    -0.352 N 
ATOM     24  C   UNL A   1      36.265  30.660  30.638  1.00  0.00     0.251 C 
ATOM     25  H   UNL A   1      34.650  31.793  30.307  1.00  0.00     0.163 HD
ATOM     26  O   UNL A   1      35.869  30.320  31.752  1.00  0.00    -0.269 OA
BRANCH  24  27
ATOM     27  C   UNL A   1      37.615  30.244  30.177  1.00  0.00     0.039 A 
ATOM     28  C   UNL A   1      38.598  29.979  31.138  1.00  0.00     0.014 A 
ATOM     29  C   UNL A   1      37.948  30.176  28.822  1.00  0.00     0.014 A 
ATOM     30  C   UNL A   1      39.889  29.609  30.742  1.00  0.00     0.010 A 
ATOM     31  C   UNL A   1      39.211  29.731  28.427  1.00  0.00     0.010 A 
ATOM     32  C   UNL A   1      40.202  29.458  29.382  1.00  0.00    -0.014 A 
BRANCH  32  33
ATOM     33  C   UNL A   1      41.563  29.046  28.942  1.00  0.00     0.031 A 
ATOM     34  C   UNL A   1      42.674  30.062  28.867  1.00  0.00     0.074 A 
ATOM     35  C   UNL A   1      41.788  27.775  28.557  1.00  0.00     0.049 A 
ATOM     36  N   UNL A   1      43.902  29.914  28.440  1.00  0.00    -0.248 NA
ATOM     37  C   UNL A   1      42.355  31.430  29.304  1.00  0.00     0.031 C 
ATOM     38  C   UNL A   1      40.786  26.707  28.537  1.00  0.00     0.029 A 
ATOM     39  N   UNL A   1      42.928  27.166  28.094  1.00  0.00    -0.354 N 
ATOM     40  C   UNL A   1      44.493  31.169  28.535  1.00  0.00     0.074 A 
ATOM     41  C   UNL A   1      43.475  32.077  29.019  1.00  0.00     0.031 C 
ATOM     42  C   UNL A   1      41.359  25.572  28.103  1.00  0.00     0.029 A 
ATOM     43  C   UNL A   1      42.759  25.837  27.781  1.00  0.00     0.049 A 
ATOM     44  H   UNL A   1      43.788  27.636  27.995  1.00  0.00     0.167 HD
ATOM     45  C   UNL A   1      45.771  31.531  28.267  1.00  0.00     0.037 A 
ATOM     46  C   UNL A   1      43.627  24.935  27.283  1.00  0.00     0.037 A 
ATOM     47  C   UNL A   1      46.791  30.616  27.823  1.00  0.00     0.049 A 
ATOM     48  C   UNL A   1      45.047  25.353  27.013  1.00  0.00     0.074 A 
ATOM     49  C   UNL A   1      48.132  30.871  27.588  1.00  0.00     0.029 A 
ATOM     50  N   UNL A   1      46.586  29.272  27.550  1.00  0.00    -0.354 N 
ATOM     51  N   UNL A   1      45.601  26.532  27.166  1.00  0.00    -0.248 NA
ATOM     52  C   UNL A   1      45.961  24.318  26.511  1.00  0.00     0.031 C 
ATOM     53  C   UNL A   1      48.728  29.688  27.138  1.00  0.00     0.029 A 
ATOM     54  C   UNL A   1      47.771  28.687  27.134  1.00  0.00     0.049 A 
ATOM     55  H   UNL A   1      45.725  28.802  27.639  1.00  0.00     0.167 HD
ATOM     56  C   UNL A   1      46.934  26.376  26.801  1.00  0.00     0.074 A 
ATOM     57  C   UNL A   1      47.105  24.985  26.432  1.00  0.00     0.031 C 
ATOM     58  C   UNL A   1      47.926  27.299  26.775  1.00  0.00     0.037 A 
BRANCH  45  59
ATOM     59  C   UNL A   1      46.142  32.977  28.451  1.00  0.00     0.058 A 
ATOM     60  C   UNL A   1      46.028  33.906  27.405  1.00  0.00     0.135 A 
ATOM     61  C   UNL A   1      46.585  33.448  29.698  1.00  0.00     0.135 A 
ATOM     62  F   UNL A   1      45.622  33.508  26.189  1.00  0.00    -0.206 F 
ATOM     63  C   UNL A   1      46.370  35.244  27.577  1.00  0.00     0.059 A 
ATOM     64  C   UNL A   1      46.907  34.787  29.901  1.00  0.00     0.059 A 
ATOM     65  F   UNL A   1      46.711  32.604  30.734  1.00  0.00    -0.206 F 
ATOM     66  C   UNL A   1      46.812  35.674  28.829  1.00  0.00     0.060 A 
BRANCH  66  67
ATOM     67  S   UNL A   1      47.253  37.413  29.038  1.00  0.00     0.124 S 
ATOM     68  O   UNL A   1      47.853  37.402  30.368  1.00  0.00    -0.237 OA
ATOM     69  O   UNL A   1      48.175  37.638  27.930  1.00  0.00    -0.237 OA
ATOM     70  O   UNL A   1      45.972  38.104  28.933  1.00  0.00    -0.744 OA
ENDBRANCH  66  67
ENDBRANCH  45  59
BRANCH  46  71
ATOM     71  C   UNL A   1      43.181  23.539  27.031  1.00  0.00     0.058 A 
ATOM     72  C   UNL A   1      42.946  23.082  25.726  1.00  0.00     0.135 A 
ATOM     73  C   UNL A   1      43.006  22.629  28.085  1.00  0.00     0.135 A 
ATOM     74  F   UNL A   1      43.094  23.919  24.686  1.00  0.00    -0.206 F 
ATOM     75  C   UNL A   1      42.542  21.776  25.472  1.00  0.00     0.059 A 
ATOM     76  C   UNL A   1      42.624  21.310  27.854  1.00  0.00     0.059 A 
ATOM     77  F   UNL A   1      43.234  23.012  29.350  1.00  0.00    -0.206 F 
ATOM     78  C   UNL A   1      42.388  20.895  26.544  1.00  0.00     0.060 A 
BRANCH  78  79
ATOM     79  S   UNL A   1      41.926  19.183  26.201  1.00  0.00     0.124 S 
ATOM     80  O   UNL A   1      40.494  19.309  25.956  1.00  0.00    -0.237 OA
ATOM     81  O   UNL A   1      42.749  18.871  25.035  1.00  0.00    -0.237 OA
ATOM     82  O   UNL A   1      42.301  18.483  27.427  1.00  0.00    -0.744 OA
ENDBRANCH  78  79
ENDBRANCH  46  71
BRANCH  58  83
ATOM     83  C   UNL A   1      49.294  26.834  26.362  1.00  0.00     0.058 A 
ATOM     84  C   UNL A   1      50.147  26.169  27.255  1.00  0.00     0.135 A 
ATOM     85  C   UNL A   1      49.735  27.011  25.040  1.00  0.00     0.135 A 
ATOM     86  F   UNL A   1      49.775  25.982  28.531  1.00  0.00    -0.206 F 
ATOM     87  C   UNL A   1      51.399  25.712  26.858  1.00  0.00     0.059 A 
ATOM     88  C   UNL A   1      50.973  26.540  24.616  1.00  0.00     0.059 A 
ATOM     89  F   UNL A   1      48.952  27.632  24.144  1.00  0.00    -0.206 F 
ATOM     90  C   UNL A   1      51.804  25.902  25.535  1.00  0.00     0.060 A 
BRANCH  90  91
ATOM     91  S   UNL A   1      53.417  25.274  25.023  1.00  0.00     0.124 S 
ATOM     92  O   UNL A   1      53.303  23.861  25.364  1.00  0.00    -0.237 OA
ATOM     93  O   UNL A   1      53.436  25.583  23.596  1.00  0.00    -0.237 OA
ATOM     94  O   UNL A   1      54.354  26.043  25.836  1.00  0.00    -0.744 OA
ENDBRANCH  90  91
ENDBRANCH  58  83
ENDBRANCH  32  33
ENDBRANCH  24  27
ENDBRANCH  22  23
ENDBRANCH   1  22
TORSDOF 16
ENDMDL
MODEL 2
REMARK VINA RESULT:     -11.8      6.530     12.087
REMARK SMILES CC[C@@H](C)S(=O)(=O)c1cc(C(=O)NCCCNC(=O)c2ccc(-c3c4nc(c(-c5c(F)cc(S(=O)(=O)[O-])cc5F)c5ccc([nH]5)c(-c5c(F)cc(S(=O)(=O)[O-])cc5F)c5nc(c(-c6c(F)cc(S(=O)(=O)[O-])cc6F)c6ccc3[nH]6)C=C5)C=C4)cc2)c(C)cc1C
REMARK SMILES IDX 15 1 14 2 13 3 11 4 12 5 10 7 8 8 9 9 89 10 88 11 90 12
REMARK SMILES IDX 86 13 87 14 5 15 6 16 7 17 3 18 4 19 2 20 1 21 16 22 17 23
REMARK SMILES IDX 18 24 19 26 20 27 21 28 85 29 22 30 84 31 23 32 24 33 25 34
REMARK SMILES IDX 78 35 26 36 83 37 77 38 79 39 27 40 82 41 76 42 75 43 28 45
REMARK SMILES IDX 62 46 41 47 61 48 42 49 45 50 60 51 80 52 43 53 44 54 59 56
REMARK SMILES IDX 81 57 46 58 29 59 30 60 39 61 31 62 32 63 38 64 40 65 33 66
REMARK SMILES IDX 34 67 35 68 36 69 37 70 63 71 64 72 73 73 65 74 66 75 72 76
REMARK SMILES IDX 74 77 67 78 68 79 69 80 70 81 71 82 47 83 48 84 57 85 49 86
REMARK SMILES IDX 50 87 56 88 58 89 51 90 52 91 53 92 54 93 55 94
REMARK H PARENT 13 6 17 25 79 44 45 55
REMARK Flexibility Score: inf
ROOT
ATOM      1  C   UNL A   1      38.349  23.875  26.457  1.00  0.00     0.042 C 
ENDROOT
BRANCH   1   2
ATOM      2  C   UNL A   1      37.413  22.796  25.907  1.00  0.00     0.118 C 
BRANCH   2   3
ATOM      3  N   UNL A   1      37.376  22.854  24.461  1.00  0.00    -0.352 N 
ATOM      4  C   UNL A   1      36.391  22.932  23.516  1.00  0.00     0.251 C 
ATOM      5  O   UNL A   1      36.797  22.938  22.348  1.00  0.00    -0.269 OA
ATOM      6  H   UNL A   1      38.275  22.833  24.062  1.00  0.00     0.163 HD
BRANCH   4   7
ATOM      7  C   UNL A   1      34.916  23.121  23.747  1.00  0.00     0.044 A 
ATOM      8  C   UNL A   1      33.076  24.725  23.251  1.00  0.00     0.071 A 
ATOM      9  C   UNL A   1      34.429  24.338  23.206  1.00  0.00     0.034 A 
ATOM     10  C   UNL A   1      32.144  23.877  23.857  1.00  0.00    -0.032 A 
ATOM     11  C   UNL A   1      32.621  22.669  24.395  1.00  0.00     0.009 A 
ATOM     12  C   UNL A   1      30.665  24.117  23.963  1.00  0.00     0.046 C 
ATOM     13  C   UNL A   1      33.966  22.244  24.285  1.00  0.00    -0.038 A 
ATOM     14  C   UNL A   1      34.195  20.809  24.651  1.00  0.00     0.045 C 
BRANCH   8  15
ATOM     15  S   UNL A   1      32.642  26.225  22.366  1.00  0.00     0.181 S 
ATOM     16  O   UNL A   1      31.260  26.138  21.939  1.00  0.00    -0.223 OA
ATOM     17  O   UNL A   1      33.681  26.421  21.368  1.00  0.00    -0.223 OA
BRANCH  15  18
ATOM     18  C   UNL A   1      32.698  27.593  23.525  1.00  0.00     0.110 C 
ATOM     19  C   UNL A   1      33.899  28.516  23.341  1.00  0.00     0.025 C 
BRANCH  18  20
ATOM     20  C   UNL A   1      32.525  27.110  24.971  1.00  0.00     0.016 C 
ATOM     21  C   UNL A   1      33.805  27.212  25.787  1.00  0.00     0.005 C 
ENDBRANCH  18  20
ENDBRANCH  15  18
ENDBRANCH   8  15
ENDBRANCH   4   7
ENDBRANCH   2   3
ENDBRANCH   1   2
BRANCH   1  22
ATOM     22  C   UNL A   1      39.684  23.347  26.970  1.00  0.00     0.118 C 
BRANCH  22  23
ATOM     23  N   UNL A   1      40.801  23.838  26.183  1.00  0.00    -0.352 N 
ATOM     24  C   UNL A   1      41.455  25.047  26.231  1.00  0.00     0.251 C 
ATOM     25  H   UNL A   1      41.143  23.207  25.509  1.00  0.00     0.163 HD
ATOM     26  O   UNL A   1      42.214  25.342  25.309  1.00  0.00    -0.269 OA
BRANCH  24  27
ATOM     27  C   UNL A   1      41.254  25.999  27.353  1.00  0.00     0.039 A 
ATOM     28  C   UNL A   1      42.060  27.141  27.415  1.00  0.00     0.014 A 
ATOM     29  C   UNL A   1      40.336  25.754  28.379  1.00  0.00     0.014 A 
ATOM     30  C   UNL A   1      41.919  28.048  28.472  1.00  0.00     0.010 A 
ATOM     31  C   UNL A   1      40.139  26.698  29.389  1.00  0.00     0.010 A 
ATOM     32  C   UNL A   1      40.939  27.848  29.457  1.00  0.00    -0.014 A 
BRANCH  32  33
ATOM     33  C   UNL A   1      40.759  28.811  30.577  1.00  0.00     0.031 A 
ATOM     34  C   UNL A   1      41.604  28.694  31.820  1.00  0.00     0.074 A 
ATOM     35  C   UNL A   1      39.801  29.755  30.503  1.00  0.00     0.049 A 
ATOM     36  N   UNL A   1      41.547  29.389  32.927  1.00  0.00    -0.248 NA
ATOM     37  C   UNL A   1      42.631  27.640  31.829  1.00  0.00     0.031 C 
ATOM     38  C   UNL A   1      38.885  29.944  29.376  1.00  0.00     0.029 A 
ATOM     39  N   UNL A   1      39.427  30.727  31.399  1.00  0.00    -0.354 N 
ATOM     40  C   UNL A   1      42.510  28.844  33.770  1.00  0.00     0.074 A 
ATOM     41  C   UNL A   1      43.106  27.731  33.062  1.00  0.00     0.031 C 
ATOM     42  C   UNL A   1      38.068  30.978  29.641  1.00  0.00     0.029 A 
ATOM     43  C   UNL A   1      38.377  31.504  30.967  1.00  0.00     0.049 A 
ATOM     44  H   UNL A   1      39.869  30.855  32.269  1.00  0.00     0.167 HD
ATOM     45  C   UNL A   1      42.880  29.244  35.011  1.00  0.00     0.037 A 
ATOM     46  C   UNL A   1      37.730  32.519  31.573  1.00  0.00     0.037 A 
ATOM     47  C   UNL A   1      42.311  30.376  35.695  1.00  0.00     0.049 A 
ATOM     48  C   UNL A   1      38.172  32.961  32.940  1.00  0.00     0.074 A 
ATOM     49  C   UNL A   1      42.664  30.903  36.926  1.00  0.00     0.029 A 
ATOM     50  N   UNL A   1      41.273  31.157  35.209  1.00  0.00    -0.354 N 
ATOM     51  N   UNL A   1      39.125  32.469  33.697  1.00  0.00    -0.248 NA
ATOM     52  C   UNL A   1      37.459  34.100  33.535  1.00  0.00     0.031 C 
ATOM     53  C   UNL A   1      41.814  31.981  37.200  1.00  0.00     0.029 A 
ATOM     54  C   UNL A   1      40.961  32.151  36.121  1.00  0.00     0.049 A 
ATOM     55  H   UNL A   1      40.823  31.024  34.343  1.00  0.00     0.167 HD
ATOM     56  C   UNL A   1      39.141  33.253  34.846  1.00  0.00     0.074 A 
ATOM     57  C   UNL A   1      38.111  34.258  34.680  1.00  0.00     0.031 C 
ATOM     58  C   UNL A   1      39.936  33.150  35.939  1.00  0.00     0.037 A 
BRANCH  45  59
ATOM     59  C   UNL A   1      43.956  28.457  35.707  1.00  0.00     0.058 A 
ATOM     60  C   UNL A   1      45.318  28.751  35.526  1.00  0.00     0.135 A 
ATOM     61  C   UNL A   1      43.624  27.418  36.592  1.00  0.00     0.135 A 
ATOM     62  F   UNL A   1      45.693  29.724  34.682  1.00  0.00    -0.206 F 
ATOM     63  C   UNL A   1      46.312  28.023  36.172  1.00  0.00     0.059 A 
ATOM     64  C   UNL A   1      44.601  26.694  37.269  1.00  0.00     0.059 A 
ATOM     65  F   UNL A   1      42.338  27.096  36.803  1.00  0.00    -0.206 F 
ATOM     66  C   UNL A   1      45.944  26.993  37.039  1.00  0.00     0.060 A 
BRANCH  66  67
ATOM     67  S   UNL A   1      47.245  26.057  37.869  1.00  0.00     0.124 S 
ATOM     68  O   UNL A   1      46.588  25.695  39.121  1.00  0.00    -0.237 OA
ATOM     69  O   UNL A   1      47.483  24.958  36.939  1.00  0.00    -0.237 OA
ATOM     70  O   UNL A   1      48.335  27.020  37.988  1.00  0.00    -0.744 OA
ENDBRANCH  66  67
ENDBRANCH  45  59
BRANCH  46  71
ATOM     71  C   UNL A   1      36.608  33.202  30.874  1.00  0.00     0.058 A 
ATOM     72  C   UNL A   1      35.281  33.012  31.286  1.00  0.00     0.135 A 
ATOM     73  C   UNL A   1      36.843  34.077  29.802  1.00  0.00     0.135 A 
ATOM     74  F   UNL A   1      35.008  32.180  32.303  1.00  0.00    -0.206 F 
ATOM     75  C   UNL A   1      34.222  33.654  30.653  1.00  0.00     0.059 A 
ATOM     76  C   UNL A   1      35.801  34.749  29.168  1.00  0.00     0.059 A 
ATOM     77  F   UNL A   1      38.096  34.306  29.382  1.00  0.00    -0.206 F 
ATOM     78  C   UNL A   1      34.494  34.526  29.597  1.00  0.00     0.060 A 
BRANCH  78  79
ATOM     79  S   UNL A   1      33.119  35.405  28.822  1.00  0.00     0.124 S 
ATOM     80  O   UNL A   1      33.819  36.422  28.047  1.00  0.00    -0.237 OA
ATOM     81  O   UNL A   1      32.473  34.346  28.052  1.00  0.00    -0.237 OA
ATOM     82  O   UNL A   1      32.351  35.894  29.964  1.00  0.00    -0.744 OA
ENDBRANCH  78  79
ENDBRANCH  46  71
BRANCH  58  83
ATOM     83  C   UNL A   1      39.748  34.165  37.030  1.00  0.00     0.058 A 
ATOM     84  C   UNL A   1      39.002  33.878  38.183  1.00  0.00     0.135 A 
ATOM     85  C   UNL A   1      40.367  35.423  36.944  1.00  0.00     0.135 A 
ATOM     86  F   UNL A   1      38.385  32.692  38.310  1.00  0.00    -0.206 F 
ATOM     87  C   UNL A   1      38.858  34.810  39.205  1.00  0.00     0.059 A 
ATOM     88  C   UNL A   1      40.256  36.361  37.965  1.00  0.00     0.059 A 
ATOM     89  F   UNL A   1      41.100  35.743  35.867  1.00  0.00    -0.206 F 
ATOM     90  C   UNL A   1      39.490  36.049  39.087  1.00  0.00     0.060 A 
BRANCH  90  91
ATOM     91  S   UNL A   1      39.324  37.238  40.435  1.00  0.00     0.124 S 
ATOM     92  O   UNL A   1      38.577  38.312  39.790  1.00  0.00    -0.237 OA
ATOM     93  O   UNL A   1      38.594  36.473  41.442  1.00  0.00    -0.237 OA
ATOM     94  O   UNL A   1      40.707  37.555  40.781  1.00  0.00    -0.744 OA
ENDBRANCH  90  91
ENDBRANCH  58  83
ENDBRANCH  32  33
ENDBRANCH  24  27
ENDBRANCH  22  23
ENDBRANCH   1  22
TORSDOF 16
ENDMDL
MODEL 3
REMARK VINA RESULT:     -11.6      6.538     12.094
REMARK SMILES CC[C@@H](C)S(=O)(=O)c1cc(C(=O)NCCCNC(=O)c2ccc(-c3c4nc(c(-c5c(F)cc(S(=O)(=O)[O-])cc5F)c5ccc([nH]5)c(-c5c(F)cc(S(=O)(=O)[O-])cc5F)c5nc(c(-c6c(F)cc(S(=O)(=O)[O-])cc6F)c6ccc3[nH]6)C=C5)C=C4)cc2)c(C)cc1C
REMARK SMILES IDX 15 1 14 2 13 3 11 4 12 5 10 7 8 8 9 9 89 10 88 11 90 12
REMARK SMILES IDX 86 13 87 14 5 15 6 16 7 17 3 18 4 19 2 20 1 21 16 22 17 23
REMARK SMILES IDX 18 24 19 26 20 27 21 28 85 29 22 30 84 31 23 32 24 33 25 34
REMARK SMILES IDX 78 35 26 36 83 37 77 38 79 39 27 40 82 41 76 42 75 43 28 45
REMARK SMILES IDX 62 46 41 47 61 48 42 49 45 50 60 51 80 52 43 53 44 54 59 56
REMARK SMILES IDX 81 57 46 58 29 59 30 60 39 61 31 62 32 63 38 64 40 65 33 66
REMARK SMILES IDX 34 67 35 68 36 69 37 70 63 71 64 72 73 73 65 74 66 75 72 76
REMARK SMILES IDX 74 77 67 78 68 79 69 80 70 81 71 82 47 83 48 84 57 85 49 86
REMARK SMILES IDX 50 87 56 88 58 89 51 90 52 91 53 92 54 93 55 94
REMARK H PARENT 13 6 17 25 79 44 45 55
REMARK Flexibility Score: inf
ROOT
ATOM      1  C   UNL A   1      37.663  23.120  25.777  1.00  0.00     0.042 C 
ENDROOT
BRANCH   1   2
ATOM      2  C   UNL A   1      36.383  23.737  25.209  1.00  0.00     0.118 C 
BRANCH   2   3
ATOM      3  N   UNL A   1      35.257  23.434  26.068  1.00  0.00    -0.352 N 
ATOM      4  C   UNL A   1      33.921  23.723  26.058  1.00  0.00     0.251 C 
ATOM      5  O   UNL A   1      33.291  23.278  27.024  1.00  0.00    -0.269 OA
ATOM      6  H   UNL A   1      35.516  22.891  26.847  1.00  0.00     0.163 HD
BRANCH   4   7
ATOM      7  C   UNL A   1      33.142  24.407  24.968  1.00  0.00     0.044 A 
ATOM      8  C   UNL A   1      32.327  26.665  24.304  1.00  0.00     0.071 A 
ATOM      9  C   UNL A   1      32.981  25.796  25.199  1.00  0.00     0.034 A 
ATOM     10  C   UNL A   1      31.803  26.150  23.114  1.00  0.00    -0.032 A 
ATOM     11  C   UNL A   1      31.960  24.773  22.879  1.00  0.00     0.009 A 
ATOM     12  C   UNL A   1      31.110  26.937  22.038  1.00  0.00     0.046 C 
ATOM     13  C   UNL A   1      32.680  23.912  23.741  1.00  0.00    -0.038 A 
ATOM     14  C   UNL A   1      32.984  22.565  23.160  1.00  0.00     0.045 C 
BRANCH   8  15
ATOM     15  S   UNL A   1      32.374  28.413  24.706  1.00  0.00     0.181 S 
ATOM     16  O   UNL A   1      31.020  28.929  24.729  1.00  0.00    -0.223 OA
ATOM     17  O   UNL A   1      33.345  29.011  23.804  1.00  0.00    -0.223 OA
BRANCH  15  18
ATOM     18  C   UNL A   1      32.977  28.583  26.388  1.00  0.00     0.110 C 
ATOM     19  C   UNL A   1      31.913  29.029  27.387  1.00  0.00     0.025 C 
BRANCH  18  20
ATOM     20  C   UNL A   1      34.251  29.434  26.443  1.00  0.00     0.016 C 
ATOM     21  C   UNL A   1      34.948  29.372  27.794  1.00  0.00     0.005 C 
ENDBRANCH  18  20
ENDBRANCH  15  18
ENDBRANCH   8  15
ENDBRANCH   4   7
ENDBRANCH   2   3
ENDBRANCH   1   2
BRANCH   1  22
ATOM     22  C   UNL A   1      38.535  24.094  26.562  1.00  0.00     0.118 C 
BRANCH  22  23
ATOM     23  N   UNL A   1      39.931  24.003  26.178  1.00  0.00    -0.352 N 
ATOM     24  C   UNL A   1      40.995  24.811  26.505  1.00  0.00     0.251 C 
ATOM     25  H   UNL A   1      40.152  23.243  25.591  1.00  0.00     0.163 HD
ATOM     26  O   UNL A   1      42.043  24.688  25.873  1.00  0.00    -0.269 OA
BRANCH  24  27
ATOM     27  C   UNL A   1      40.900  25.827  27.584  1.00  0.00     0.039 A 
ATOM     28  C   UNL A   1      39.878  25.704  28.532  1.00  0.00     0.014 A 
ATOM     29  C   UNL A   1      41.754  26.933  27.639  1.00  0.00     0.014 A 
ATOM     30  C   UNL A   1      39.740  26.657  29.548  1.00  0.00     0.010 A 
ATOM     31  C   UNL A   1      41.667  27.838  28.698  1.00  0.00     0.010 A 
ATOM     32  C   UNL A   1      40.649  27.721  29.656  1.00  0.00    -0.014 A 
BRANCH  32  33
ATOM     33  C   UNL A   1      40.531  28.733  30.742  1.00  0.00     0.031 A 
ATOM     34  C   UNL A   1      41.405  28.635  31.967  1.00  0.00     0.074 A 
ATOM     35  C   UNL A   1      39.603  29.705  30.655  1.00  0.00     0.049 A 
ATOM     36  N   UNL A   1      41.400  29.373  33.046  1.00  0.00    -0.248 NA
ATOM     37  C   UNL A   1      42.396  27.547  31.992  1.00  0.00     0.031 C 
ATOM     38  C   UNL A   1      38.664  29.881  29.545  1.00  0.00     0.029 A 
ATOM     39  N   UNL A   1      39.285  30.723  31.521  1.00  0.00    -0.354 N 
ATOM     40  C   UNL A   1      42.366  28.829  33.886  1.00  0.00     0.074 A 
ATOM     41  C   UNL A   1      42.907  27.670  33.207  1.00  0.00     0.031 C 
ATOM     42  C   UNL A   1      37.889  30.952  29.788  1.00  0.00     0.029 A 
ATOM     43  C   UNL A   1      38.251  31.518  31.085  1.00  0.00     0.049 A 
ATOM     44  H   UNL A   1      39.755  30.870  32.374  1.00  0.00     0.167 HD
ATOM     45  C   UNL A   1      42.782  29.264  35.099  1.00  0.00     0.037 A 
ATOM     46  C   UNL A   1      37.654  32.577  31.666  1.00  0.00     0.037 A 
ATOM     47  C   UNL A   1      42.269  30.441  35.753  1.00  0.00     0.049 A 
ATOM     48  C   UNL A   1      38.147  33.057  33.003  1.00  0.00     0.074 A 
ATOM     49  C   UNL A   1      42.672  31.003  36.953  1.00  0.00     0.029 A 
ATOM     50  N   UNL A   1      41.245  31.237  35.263  1.00  0.00    -0.354 N 
ATOM     51  N   UNL A   1      39.102  32.562  33.754  1.00  0.00    -0.248 NA
ATOM     52  C   UNL A   1      37.488  34.241  33.571  1.00  0.00     0.031 C 
ATOM     53  C   UNL A   1      41.866  32.118  37.205  1.00  0.00     0.029 A 
ATOM     54  C   UNL A   1      40.991  32.276  36.142  1.00  0.00     0.049 A 
ATOM     55  H   UNL A   1      40.769  31.085  34.414  1.00  0.00     0.167 HD
ATOM     56  C   UNL A   1      39.175  33.388  34.871  1.00  0.00     0.074 A 
ATOM     57  C   UNL A   1      38.175  34.421  34.691  1.00  0.00     0.031 C 
ATOM     58  C   UNL A   1      39.995  33.301  35.946  1.00  0.00     0.037 A 
BRANCH  45  59
ATOM     59  C   UNL A   1      43.850  28.469  35.799  1.00  0.00     0.058 A 
ATOM     60  C   UNL A   1      45.215  28.727  35.593  1.00  0.00     0.135 A 
ATOM     61  C   UNL A   1      43.507  27.457  36.711  1.00  0.00     0.135 A 
ATOM     62  F   UNL A   1      45.601  29.673  34.722  1.00  0.00    -0.206 F 
ATOM     63  C   UNL A   1      46.202  27.991  36.242  1.00  0.00     0.059 A 
ATOM     64  C   UNL A   1      44.477  26.726  37.392  1.00  0.00     0.059 A 
ATOM     65  F   UNL A   1      42.217  27.169  36.947  1.00  0.00    -0.206 F 
ATOM     66  C   UNL A   1      45.822  26.990  37.137  1.00  0.00     0.060 A 
BRANCH  66  67
ATOM     67  S   UNL A   1      47.114  26.043  37.971  1.00  0.00     0.124 S 
ATOM     68  O   UNL A   1      48.193  27.022  38.040  1.00  0.00    -0.237 OA
ATOM     69  O   UNL A   1      46.483  25.705  39.244  1.00  0.00    -0.237 OA
ATOM     70  O   UNL A   1      47.344  24.917  37.072  1.00  0.00    -0.744 OA
ENDBRANCH  66  67
ENDBRANCH  45  59
BRANCH  46  71
ATOM     71  C   UNL A   1      36.537  33.271  30.970  1.00  0.00     0.058 A 
ATOM     72  C   UNL A   1      35.216  33.142  31.422  1.00  0.00     0.135 A 
ATOM     73  C   UNL A   1      36.772  34.093  29.857  1.00  0.00     0.135 A 
ATOM     74  F   UNL A   1      34.942  32.361  32.479  1.00  0.00    -0.206 F 
ATOM     75  C   UNL A   1      34.163  33.796  30.792  1.00  0.00     0.059 A 
ATOM     76  C   UNL A   1      35.737  34.776  29.223  1.00  0.00     0.059 A 
ATOM     77  F   UNL A   1      38.020  34.263  29.396  1.00  0.00    -0.206 F 
ATOM     78  C   UNL A   1      34.434  34.615  29.694  1.00  0.00     0.060 A 
BRANCH  78  79
ATOM     79  S   UNL A   1      33.070  35.510  28.921  1.00  0.00     0.124 S 
ATOM     80  O   UNL A   1      32.311  35.953  30.084  1.00  0.00    -0.237 OA
ATOM     81  O   UNL A   1      33.769  36.554  28.177  1.00  0.00    -0.237 OA
ATOM     82  O   UNL A   1      32.427  34.490  28.096  1.00  0.00    -0.744 OA
ENDBRANCH  78  79
ENDBRANCH  46  71
BRANCH  58  83
ATOM     83  C   UNL A   1      39.870  34.364  37.001  1.00  0.00     0.058 A 
ATOM     84  C   UNL A   1      40.588  35.566  36.924  1.00  0.00     0.135 A 
ATOM     85  C   UNL A   1      38.981  34.197  38.075  1.00  0.00     0.135 A 
ATOM     86  F   UNL A   1      41.457  35.771  35.920  1.00  0.00    -0.206 F 
ATOM     87  C   UNL A   1      40.445  36.560  37.885  1.00  0.00     0.059 A 
ATOM     88  C   UNL A   1      38.804  35.188  39.035  1.00  0.00     0.059 A 
ATOM     89  F   UNL A   1      38.263  33.069  38.189  1.00  0.00    -0.206 F 
ATOM     90  C   UNL A   1      39.548  36.362  38.938  1.00  0.00     0.060 A 
BRANCH  90  91
ATOM     91  S   UNL A   1      39.345  37.673  40.162  1.00  0.00     0.124 S 
ATOM     92  O   UNL A   1      38.226  38.424  39.603  1.00  0.00    -0.237 OA
ATOM     93  O   UNL A   1      39.060  36.924  41.382  1.00  0.00    -0.237 OA
ATOM     94  O   UNL A   1      40.633  38.359  40.143  1.00  0.00    -0.744 OA
ENDBRANCH  90  91
ENDBRANCH  58  83
ENDBRANCH  32  33
ENDBRANCH  24  27
ENDBRANCH  22  23
ENDBRANCH   1  22
TORSDOF 16
ENDMDL
