MODEL 1
REMARK VINA RESULT:     -10.0      0.000      0.000
REMARK SMILES C[C@H](C(=O)NCCCNC(=O)c1ccc(-c2c3nc(c(-c4c(F)cc(S(=O)(=O)[O-])cc4F)c4ccc([nH]4)c(-c4c(F)cc(S(=O)(=O)[O-])cc4F)c4nc(c(-c5c(F)cc(S(=O)(=O)[O-])cc5F)c5ccc2[nH]5)C=C4)C=C3)cc1)[C@H](C)[S@@](=O)c1cccs1
REMARK SMILES IDX 7 1 6 2 5 3 3 4 4 5 2 7 1 8 78 9 79 10 80 11 81 12 82 13
REMARK SMILES IDX 83 14 86 15 84 16 85 17 8 18 9 19 10 20 11 22 12 23 13 24
REMARK SMILES IDX 77 25 14 26 76 27 15 28 16 29 17 30 70 31 18 32 75 33 69 34
REMARK SMILES IDX 71 35 19 36 74 37 68 38 67 39 20 41 54 42 33 43 53 44 34 45
REMARK SMILES IDX 37 46 52 47 72 48 35 49 36 50 51 52 73 53 38 54 21 55 22 56
REMARK SMILES IDX 31 57 23 58 24 59 30 60 32 61 25 62 26 63 27 64 28 65 29 66
REMARK SMILES IDX 55 67 56 68 65 69 57 70 58 71 64 72 66 73 59 74 60 75 61 76
REMARK SMILES IDX 62 77 63 78 39 79 40 80 49 81 41 82 42 83 48 84 50 85 43 86
REMARK SMILES IDX 44 87 45 88 46 89 47 90
REMARK H PARENT 5 6 9 21 71 40 37 51
REMARK Flexibility Score: inf
ROOT
ATOM      1  C   UNL A   1      35.195  33.131  28.007  1.00  0.00     0.042 C 
ENDROOT
BRANCH   1   2
ATOM      2  C   UNL A   1      35.584  34.456  28.640  1.00  0.00     0.117 C 
BRANCH   2   3
ATOM      3  N   UNL A   1      36.965  34.462  29.067  1.00  0.00    -0.356 N 
ATOM      4  C   UNL A   1      37.558  34.139  30.244  1.00  0.00     0.224 C 
ATOM      5  O   UNL A   1      38.781  34.330  30.272  1.00  0.00    -0.275 OA
ATOM      6  H   UNL A   1      37.596  34.756  28.371  1.00  0.00     0.163 HD
BRANCH   4   7
ATOM      7  C   UNL A   1      36.827  33.463  31.431  1.00  0.00     0.091 C 
ATOM      8  C   UNL A   1      37.528  32.114  31.676  1.00  0.00     0.019 C 
BRANCH   7   9
ATOM      9  C   UNL A   1      36.687  34.316  32.725  1.00  0.00     0.094 C 
ATOM     10  C   UNL A   1      37.801  34.283  33.779  1.00  0.00     0.023 C 
BRANCH   9  11
ATOM     11  S   UNL A   1      34.994  34.094  33.546  1.00  0.00     0.067 S 
ATOM     12  O   UNL A   1      35.133  34.684  34.923  1.00  0.00    -0.253 OA
BRANCH  11  13
ATOM     13  C   UNL A   1      34.004  35.263  32.724  1.00  0.00     0.091 A 
ATOM     14  C   UNL A   1      33.442  35.067  31.483  1.00  0.00     0.029 A 
ATOM     15  S   UNL A   1      33.950  36.891  33.217  1.00  0.00    -0.135 S 
ATOM     16  C   UNL A   1      33.032  36.296  30.891  1.00  0.00     0.013 A 
ATOM     17  C   UNL A   1      33.327  37.375  31.696  1.00  0.00     0.066 A 
ENDBRANCH  11  13
ENDBRANCH   9  11
ENDBRANCH   7   9
ENDBRANCH   4   7
ENDBRANCH   2   3
ENDBRANCH   1   2
BRANCH   1  18
ATOM     18  C   UNL A   1      34.481  32.225  28.989  1.00  0.00     0.118 C 
BRANCH  18  19
ATOM     19  N   UNL A   1      33.959  31.027  28.339  1.00  0.00    -0.352 N 
ATOM     20  C   UNL A   1      34.626  29.933  27.851  1.00  0.00     0.251 C 
ATOM     21  H   UNL A   1      32.982  31.002  28.234  1.00  0.00     0.163 HD
ATOM     22  O   UNL A   1      34.035  29.133  27.126  1.00  0.00    -0.269 OA
BRANCH  20  23
ATOM     23  C   UNL A   1      36.048  29.730  28.183  1.00  0.00     0.039 A 
ATOM     24  C   UNL A   1      36.391  29.238  29.444  1.00  0.00     0.014 A 
ATOM     25  C   UNL A   1      37.042  30.019  27.246  1.00  0.00     0.014 A 
ATOM     26  C   UNL A   1      37.730  28.978  29.737  1.00  0.00     0.010 A 
ATOM     27  C   UNL A   1      38.355  29.651  27.496  1.00  0.00     0.010 A 
ATOM     28  C   UNL A   1      38.717  29.145  28.752  1.00  0.00    -0.014 A 
BRANCH  28  29
ATOM     29  C   UNL A   1      40.140  28.822  29.016  1.00  0.00     0.031 A 
ATOM     30  C   UNL A   1      41.047  29.870  29.604  1.00  0.00     0.074 A 
ATOM     31  C   UNL A   1      40.625  27.617  28.659  1.00  0.00     0.049 A 
ATOM     32  N   UNL A   1      42.333  29.813  29.833  1.00  0.00    -0.248 NA
ATOM     33  C   UNL A   1      40.437  31.168  29.946  1.00  0.00     0.031 C 
ATOM     34  C   UNL A   1      39.852  26.546  28.024  1.00  0.00     0.029 A 
ATOM     35  N   UNL A   1      41.887  27.093  28.769  1.00  0.00    -0.354 N 
ATOM     36  C   UNL A   1      42.686  31.066  30.321  1.00  0.00     0.074 A 
ATOM     37  C   UNL A   1      41.494  31.881  30.300  1.00  0.00     0.031 C 
ATOM     38  C   UNL A   1      40.648  25.485  27.828  1.00  0.00     0.029 A 
ATOM     39  C   UNL A   1      41.997  25.812  28.278  1.00  0.00     0.049 A 
ATOM     40  H   UNL A   1      42.643  27.585  29.162  1.00  0.00     0.167 HD
ATOM     41  C   UNL A   1      43.890  31.485  30.773  1.00  0.00     0.037 A 
ATOM     42  C   UNL A   1      43.067  24.999  28.192  1.00  0.00     0.037 A 
ATOM     43  C   UNL A   1      45.060  30.649  30.824  1.00  0.00     0.049 A 
ATOM     44  C   UNL A   1      44.391  25.481  28.719  1.00  0.00     0.074 A 
ATOM     45  C   UNL A   1      46.309  30.952  31.332  1.00  0.00     0.029 A 
ATOM     46  N   UNL A   1      45.124  29.347  30.348  1.00  0.00    -0.354 N 
ATOM     47  N   UNL A   1      44.692  26.645  29.245  1.00  0.00    -0.248 NA
ATOM     48  C   UNL A   1      45.517  24.541  28.650  1.00  0.00     0.031 C 
ATOM     49  C   UNL A   1      47.145  29.852  31.114  1.00  0.00     0.029 A 
ATOM     50  C   UNL A   1      46.400  28.841  30.527  1.00  0.00     0.049 A 
ATOM     51  H   UNL A   1      44.373  28.855  29.944  1.00  0.00     0.167 HD
ATOM     52  C   UNL A   1      46.036  26.569  29.593  1.00  0.00     0.074 A 
ATOM     53  C   UNL A   1      46.483  25.240  29.231  1.00  0.00     0.031 C 
ATOM     54  C   UNL A   1      46.827  27.513  30.162  1.00  0.00     0.037 A 
BRANCH  41  55
ATOM     55  C   UNL A   1      44.005  32.907  31.253  1.00  0.00     0.058 A 
ATOM     56  C   UNL A   1      44.248  33.971  30.369  1.00  0.00     0.135 A 
ATOM     57  C   UNL A   1      43.821  33.216  32.611  1.00  0.00     0.135 A 
ATOM     58  F   UNL A   1      44.451  33.734  29.063  1.00  0.00    -0.206 F 
ATOM     59  C   UNL A   1      44.326  35.286  30.817  1.00  0.00     0.059 A 
ATOM     60  C   UNL A   1      43.863  34.527  33.076  1.00  0.00     0.059 A 
ATOM     61  F   UNL A   1      43.592  32.238  33.502  1.00  0.00    -0.206 F 
ATOM     62  C   UNL A   1      44.126  35.554  32.171  1.00  0.00     0.060 A 
BRANCH  62  63
ATOM     63  S   UNL A   1      44.201  37.270  32.728  1.00  0.00     0.124 S 
ATOM     64  O   UNL A   1      43.002  37.362  33.556  1.00  0.00    -0.237 OA
ATOM     65  O   UNL A   1      45.471  37.308  33.446  1.00  0.00    -0.237 OA
ATOM     66  O   UNL A   1      44.163  38.033  31.484  1.00  0.00    -0.744 OA
ENDBRANCH  62  63
ENDBRANCH  41  55
BRANCH  42  67
ATOM     67  C   UNL A   1      42.918  23.642  27.601  1.00  0.00     0.058 A 
ATOM     68  C   UNL A   1      43.183  23.409  26.243  1.00  0.00     0.135 A 
ATOM     69  C   UNL A   1      42.542  22.544  28.391  1.00  0.00     0.135 A 
ATOM     70  F   UNL A   1      43.541  24.426  25.445  1.00  0.00    -0.206 F 
ATOM     71  C   UNL A   1      43.068  22.139  25.686  1.00  0.00     0.059 A 
ATOM     72  C   UNL A   1      42.448  21.260  27.862  1.00  0.00     0.059 A 
ATOM     73  F   UNL A   1      42.298  22.708  29.699  1.00  0.00    -0.206 F 
ATOM     74  C   UNL A   1      42.705  21.069  26.505  1.00  0.00     0.060 A 
BRANCH  74  75
ATOM     75  S   UNL A   1      42.621  19.416  25.784  1.00  0.00     0.124 S 
ATOM     76  O   UNL A   1      42.980  18.579  26.923  1.00  0.00    -0.237 OA
ATOM     77  O   UNL A   1      41.229  19.342  25.349  1.00  0.00    -0.237 OA
ATOM     78  O   UNL A   1      43.604  19.470  24.705  1.00  0.00    -0.744 OA
ENDBRANCH  74  75
ENDBRANCH  42  67
BRANCH  54  79
ATOM     79  C   UNL A   1      48.251  27.135  30.461  1.00  0.00     0.058 A 
ATOM     80  C   UNL A   1      49.313  27.551  29.644  1.00  0.00     0.135 A 
ATOM     81  C   UNL A   1      48.560  26.398  31.616  1.00  0.00     0.135 A 
ATOM     82  F   UNL A   1      49.072  28.254  28.525  1.00  0.00    -0.206 F 
ATOM     83  C   UNL A   1      50.632  27.229  29.948  1.00  0.00     0.059 A 
ATOM     84  C   UNL A   1      49.874  26.092  31.957  1.00  0.00     0.059 A 
ATOM     85  F   UNL A   1      47.582  25.987  32.438  1.00  0.00    -0.206 F 
ATOM     86  C   UNL A   1      50.902  26.502  31.109  1.00  0.00     0.060 A 
BRANCH  86  87
ATOM     87  S   UNL A   1      52.619  26.119  31.509  1.00  0.00     0.124 S 
ATOM     88  O   UNL A   1      53.040  27.335  32.198  1.00  0.00    -0.237 OA
ATOM     89  O   UNL A   1      52.486  24.930  32.345  1.00  0.00    -0.237 OA
ATOM     90  O   UNL A   1      53.231  25.895  30.202  1.00  0.00    -0.744 OA
ENDBRANCH  86  87
ENDBRANCH  54  79
ENDBRANCH  28  29
ENDBRANCH  20  23
ENDBRANCH  18  19
ENDBRANCH   1  18
TORSDOF 16
ENDMDL
MODEL 2
REMARK VINA RESULT:      -9.9      5.323     12.039
REMARK SMILES C[C@H](C(=O)NCCCNC(=O)c1ccc(-c2c3nc(c(-c4c(F)cc(S(=O)(=O)[O-])cc4F)c4ccc([nH]4)c(-c4c(F)cc(S(=O)(=O)[O-])cc4F)c4nc(c(-c5c(F)cc(S(=O)(=O)[O-])cc5F)c5ccc2[nH]5)C=C4)C=C3)cc1)[C@H](C)[S@@](=O)c1cccs1
REMARK SMILES IDX 7 1 6 2 5 3 3 4 4 5 2 7 1 8 78 9 79 10 80 11 81 12 82 13
REMARK SMILES IDX 83 14 86 15 84 16 85 17 8 18 9 19 10 20 11 22 12 23 13 24
REMARK SMILES IDX 77 25 14 26 76 27 15 28 16 29 17 30 70 31 18 32 75 33 69 34
REMARK SMILES IDX 71 35 19 36 74 37 68 38 67 39 20 41 54 42 33 43 53 44 34 45
REMARK SMILES IDX 37 46 52 47 72 48 35 49 36 50 51 52 73 53 38 54 21 55 22 56
REMARK SMILES IDX 31 57 23 58 24 59 30 60 32 61 25 62 26 63 27 64 28 65 29 66
REMARK SMILES IDX 55 67 56 68 65 69 57 70 58 71 64 72 66 73 59 74 60 75 61 76
REMARK SMILES IDX 62 77 63 78 39 79 40 80 49 81 41 82 42 83 48 84 50 85 43 86
REMARK SMILES IDX 44 87 45 88 46 89 47 90
REMARK H PARENT 5 6 9 21 71 40 37 51
REMARK Flexibility Score: inf
ROOT
ATOM      1  C   UNL A   1      38.091  23.811  26.034  1.00  0.00     0.042 C 
ENDROOT
BRANCH   1   2
ATOM      2  C   UNL A   1      37.449  22.522  25.551  1.00  0.00     0.117 C 
BRANCH   2   3
ATOM      3  N   UNL A   1      36.370  22.103  26.416  1.00  0.00    -0.356 N 
ATOM      4  C   UNL A   1      35.121  21.639  26.160  1.00  0.00     0.224 C 
ATOM      5  O   UNL A   1      34.431  21.435  27.167  1.00  0.00    -0.275 OA
ATOM      6  H   UNL A   1      36.581  22.167  27.375  1.00  0.00     0.163 HD
BRANCH   4   7
ATOM      7  C   UNL A   1      34.607  21.256  24.749  1.00  0.00     0.091 C 
ATOM      8  C   UNL A   1      34.156  19.785  24.822  1.00  0.00     0.019 C 
BRANCH   7   9
ATOM      9  C   UNL A   1      33.524  22.191  24.137  1.00  0.00     0.094 C 
ATOM     10  C   UNL A   1      32.520  21.625  23.124  1.00  0.00     0.023 C 
BRANCH   9  11
ATOM     11  S   UNL A   1      34.262  23.815  23.499  1.00  0.00     0.067 S 
ATOM     12  O   UNL A   1      33.678  24.011  22.125  1.00  0.00    -0.253 OA
BRANCH  11  13
ATOM     13  C   UNL A   1      33.435  25.018  24.444  1.00  0.00     0.091 A 
ATOM     14  C   UNL A   1      34.029  26.155  24.942  1.00  0.00     0.029 A 
ATOM     15  S   UNL A   1      31.917  24.711  25.148  1.00  0.00    -0.135 S 
ATOM     16  C   UNL A   1      33.255  26.740  25.984  1.00  0.00     0.013 A 
ATOM     17  C   UNL A   1      32.119  26.005  26.252  1.00  0.00     0.066 A 
ENDBRANCH  11  13
ENDBRANCH   9  11
ENDBRANCH   7   9
ENDBRANCH   4   7
ENDBRANCH   2   3
ENDBRANCH   1   2
BRANCH   1  18
ATOM     18  C   UNL A   1      39.305  23.544  26.901  1.00  0.00     0.118 C 
BRANCH  18  19
ATOM     19  N   UNL A   1      40.547  23.866  26.205  1.00  0.00    -0.352 N 
ATOM     20  C   UNL A   1      41.314  25.001  26.260  1.00  0.00     0.251 C 
ATOM     21  H   UNL A   1      40.884  23.163  25.605  1.00  0.00     0.163 HD
ATOM     22  O   UNL A   1      42.199  25.179  25.422  1.00  0.00    -0.269 OA
BRANCH  20  23
ATOM     23  C   UNL A   1      41.066  26.007  27.309  1.00  0.00     0.039 A 
ATOM     24  C   UNL A   1      40.148  25.725  28.321  1.00  0.00     0.014 A 
ATOM     25  C   UNL A   1      41.747  27.226  27.296  1.00  0.00     0.014 A 
ATOM     26  C   UNL A   1      39.963  26.645  29.354  1.00  0.00     0.010 A 
ATOM     27  C   UNL A   1      41.650  28.083  28.380  1.00  0.00     0.010 A 
ATOM     28  C   UNL A   1      40.741  27.812  29.412  1.00  0.00    -0.014 A 
BRANCH  28  29
ATOM     29  C   UNL A   1      40.608  28.779  30.528  1.00  0.00     0.031 A 
ATOM     30  C   UNL A   1      41.475  28.633  31.750  1.00  0.00     0.074 A 
ATOM     31  C   UNL A   1      39.662  29.736  30.468  1.00  0.00     0.049 A 
ATOM     32  N   UNL A   1      41.456  29.322  32.861  1.00  0.00    -0.248 NA
ATOM     33  C   UNL A   1      42.470  27.547  31.739  1.00  0.00     0.031 C 
ATOM     34  C   UNL A   1      38.723  29.932  29.360  1.00  0.00     0.029 A 
ATOM     35  N   UNL A   1      39.324  30.717  31.365  1.00  0.00    -0.354 N 
ATOM     36  C   UNL A   1      42.414  28.740  33.683  1.00  0.00     0.074 A 
ATOM     37  C   UNL A   1      42.955  27.607  32.969  1.00  0.00     0.031 C 
ATOM     38  C   UNL A   1      37.937  30.985  29.630  1.00  0.00     0.029 A 
ATOM     39  C   UNL A   1      38.281  31.511  30.947  1.00  0.00     0.049 A 
ATOM     40  H   UNL A   1      39.783  30.842  32.226  1.00  0.00     0.167 HD
ATOM     41  C   UNL A   1      42.824  29.136  34.910  1.00  0.00     0.037 A 
ATOM     42  C   UNL A   1      37.665  32.540  31.561  1.00  0.00     0.037 A 
ATOM     43  C   UNL A   1      42.303  30.290  35.593  1.00  0.00     0.049 A 
ATOM     44  C   UNL A   1      38.153  32.973  32.917  1.00  0.00     0.074 A 
ATOM     45  C   UNL A   1      42.701  30.821  36.806  1.00  0.00     0.029 A 
ATOM     46  N   UNL A   1      41.270  31.089  35.123  1.00  0.00    -0.354 N 
ATOM     47  N   UNL A   1      39.110  32.456  33.651  1.00  0.00    -0.248 NA
ATOM     48  C   UNL A   1      37.485  34.130  33.525  1.00  0.00     0.031 C 
ATOM     49  C   UNL A   1      41.872  31.909  37.096  1.00  0.00     0.029 A 
ATOM     50  C   UNL A   1      40.999  32.095  36.035  1.00  0.00     0.049 A 
ATOM     51  H   UNL A   1      40.800  30.960  34.268  1.00  0.00     0.167 HD
ATOM     52  C   UNL A   1      39.178  33.241  34.796  1.00  0.00     0.074 A 
ATOM     53  C   UNL A   1      38.173  34.275  34.650  1.00  0.00     0.031 C 
ATOM     54  C   UNL A   1      39.996  33.118  35.871  1.00  0.00     0.037 A 
BRANCH  41  55
ATOM     55  C   UNL A   1      43.890  28.321  35.592  1.00  0.00     0.058 A 
ATOM     56  C   UNL A   1      43.573  27.270  36.468  1.00  0.00     0.135 A 
ATOM     57  C   UNL A   1      45.248  28.564  35.329  1.00  0.00     0.135 A 
ATOM     58  F   UNL A   1      42.293  27.004  36.772  1.00  0.00    -0.206 F 
ATOM     59  C   UNL A   1      44.564  26.503  37.074  1.00  0.00     0.059 A 
ATOM     60  C   UNL A   1      46.255  27.790  35.899  1.00  0.00     0.059 A 
ATOM     61  F   UNL A   1      45.609  29.560  34.505  1.00  0.00    -0.206 F 
ATOM     62  C   UNL A   1      45.901  26.767  36.778  1.00  0.00     0.060 A 
BRANCH  62  63
ATOM     63  S   UNL A   1      47.171  25.743  37.551  1.00  0.00     0.124 S 
ATOM     64  O   UNL A   1      47.878  26.723  38.370  1.00  0.00    -0.237 OA
ATOM     65  O   UNL A   1      46.376  24.762  38.282  1.00  0.00    -0.237 OA
ATOM     66  O   UNL A   1      47.922  25.217  36.415  1.00  0.00    -0.744 OA
ENDBRANCH  62  63
ENDBRANCH  41  55
BRANCH  42  67
ATOM     67  C   UNL A   1      36.539  33.237  30.885  1.00  0.00     0.058 A 
ATOM     68  C   UNL A   1      35.219  33.089  31.337  1.00  0.00     0.135 A 
ATOM     69  C   UNL A   1      36.764  34.093  29.796  1.00  0.00     0.135 A 
ATOM     70  F   UNL A   1      34.951  32.279  32.372  1.00  0.00    -0.206 F 
ATOM     71  C   UNL A   1      34.160  33.754  30.727  1.00  0.00     0.059 A 
ATOM     72  C   UNL A   1      35.725  34.790  29.186  1.00  0.00     0.059 A 
ATOM     73  F   UNL A   1      38.009  34.285  29.337  1.00  0.00    -0.206 F 
ATOM     74  C   UNL A   1      34.424  34.607  29.654  1.00  0.00     0.060 A 
BRANCH  74  75
ATOM     75  S   UNL A   1      33.052  35.514  28.909  1.00  0.00     0.124 S 
ATOM     76  O   UNL A   1      33.754  36.545  28.155  1.00  0.00    -0.237 OA
ATOM     77  O   UNL A   1      32.395  34.477  28.118  1.00  0.00    -0.237 OA
ATOM     78  O   UNL A   1      32.293  35.983  30.066  1.00  0.00    -0.744 OA
ENDBRANCH  74  75
ENDBRANCH  42  67
BRANCH  54  79
ATOM     79  C   UNL A   1      39.867  34.144  36.961  1.00  0.00     0.058 A 
ATOM     80  C   UNL A   1      40.451  35.416  36.852  1.00  0.00     0.135 A 
ATOM     81  C   UNL A   1      39.097  33.871  38.103  1.00  0.00     0.135 A 
ATOM     82  F   UNL A   1      41.202  35.727  35.784  1.00  0.00    -0.206 F 
ATOM     83  C   UNL A   1      40.295  36.373  37.850  1.00  0.00     0.059 A 
ATOM     84  C   UNL A   1      38.901  34.824  39.097  1.00  0.00     0.059 A 
ATOM     85  F   UNL A   1      38.506  32.675  38.251  1.00  0.00    -0.206 F 
ATOM     86  C   UNL A   1      39.515  36.069  38.967  1.00  0.00     0.060 A 
BRANCH  86  87
ATOM     87  S   UNL A   1      39.296  37.331  40.237  1.00  0.00     0.124 S 
ATOM     88  O   UNL A   1      40.677  37.696  40.532  1.00  0.00    -0.237 OA
ATOM     89  O   UNL A   1      38.509  38.342  39.537  1.00  0.00    -0.237 OA
ATOM     90  O   UNL A   1      38.592  36.624  41.303  1.00  0.00    -0.744 OA
ENDBRANCH  86  87
ENDBRANCH  54  79
ENDBRANCH  28  29
ENDBRANCH  20  23
ENDBRANCH  18  19
ENDBRANCH   1  18
TORSDOF 16
ENDMDL
MODEL 3
REMARK VINA RESULT:      -9.8      4.461     10.665
REMARK SMILES C[C@H](C(=O)NCCCNC(=O)c1ccc(-c2c3nc(c(-c4c(F)cc(S(=O)(=O)[O-])cc4F)c4ccc([nH]4)c(-c4c(F)cc(S(=O)(=O)[O-])cc4F)c4nc(c(-c5c(F)cc(S(=O)(=O)[O-])cc5F)c5ccc2[nH]5)C=C4)C=C3)cc1)[C@H](C)[S@@](=O)c1cccs1
REMARK SMILES IDX 7 1 6 2 5 3 3 4 4 5 2 7 1 8 78 9 79 10 80 11 81 12 82 13
REMARK SMILES IDX 83 14 86 15 84 16 85 17 8 18 9 19 10 20 11 22 12 23 13 24
REMARK SMILES IDX 77 25 14 26 76 27 15 28 16 29 17 30 70 31 18 32 75 33 69 34
REMARK SMILES IDX 71 35 19 36 74 37 68 38 67 39 20 41 54 42 33 43 53 44 34 45
REMARK SMILES IDX 37 46 52 47 72 48 35 49 36 50 51 52 73 53 38 54 21 55 22 56
REMARK SMILES IDX 31 57 23 58 24 59 30 60 32 61 25 62 26 63 27 64 28 65 29 66
REMARK SMILES IDX 55 67 56 68 65 69 57 70 58 71 64 72 66 73 59 74 60 75 61 76
REMARK SMILES IDX 62 77 63 78 39 79 40 80 49 81 41 82 42 83 48 84 50 85 43 86
REMARK SMILES IDX 44 87 45 88 46 89 47 90
REMARK H PARENT 5 6 9 21 71 40 37 51
REMARK Flexibility Score: inf
ROOT
ATOM      1  C   UNL A   1      38.155  19.931  25.001  1.00  0.00     0.042 C 
ENDROOT
BRANCH   1   2
ATOM      2  C   UNL A   1      36.982  20.896  25.030  1.00  0.00     0.117 C 
BRANCH   2   3
ATOM      3  N   UNL A   1      35.720  20.203  25.157  1.00  0.00    -0.356 N 
ATOM      4  C   UNL A   1      34.436  20.640  25.169  1.00  0.00     0.224 C 
ATOM      5  O   UNL A   1      33.593  19.755  25.365  1.00  0.00    -0.275 OA
ATOM      6  H   UNL A   1      35.809  19.228  25.255  1.00  0.00     0.163 HD
BRANCH   4   7
ATOM      7  C   UNL A   1      34.007  22.091  24.837  1.00  0.00     0.091 C 
ATOM      8  C   UNL A   1      32.772  21.993  23.921  1.00  0.00     0.019 C 
BRANCH   7   9
ATOM      9  C   UNL A   1      33.784  23.036  26.053  1.00  0.00     0.094 C 
ATOM     10  C   UNL A   1      34.065  22.523  27.472  1.00  0.00     0.023 C 
BRANCH   9  11
ATOM     11  S   UNL A   1      32.101  23.902  25.985  1.00  0.00     0.067 S 
ATOM     12  O   UNL A   1      31.538  23.799  27.378  1.00  0.00    -0.253 OA
BRANCH  11  13
ATOM     13  C   UNL A   1      32.531  25.583  25.867  1.00  0.00     0.091 A 
ATOM     14  C   UNL A   1      33.767  26.041  25.475  1.00  0.00     0.029 A 
ATOM     15  S   UNL A   1      31.579  26.799  26.582  1.00  0.00    -0.135 S 
ATOM     16  C   UNL A   1      33.966  27.402  25.844  1.00  0.00     0.013 A 
ATOM     17  C   UNL A   1      32.881  27.910  26.528  1.00  0.00     0.066 A 
ENDBRANCH  11  13
ENDBRANCH   9  11
ENDBRANCH   7   9
ENDBRANCH   4   7
ENDBRANCH   2   3
ENDBRANCH   1   2
BRANCH   1  18
ATOM     18  C   UNL A   1      39.308  20.420  25.854  1.00  0.00     0.118 C 
BRANCH  18  19
ATOM     19  N   UNL A   1      40.319  19.384  26.041  1.00  0.00    -0.352 N 
ATOM     20  C   UNL A   1      41.680  19.498  26.165  1.00  0.00     0.251 C 
ATOM     21  H   UNL A   1      39.971  18.464  26.084  1.00  0.00     0.163 HD
ATOM     22  O   UNL A   1      42.386  18.493  26.080  1.00  0.00    -0.269 OA
BRANCH  20  23
ATOM     23  C   UNL A   1      42.290  20.822  26.384  1.00  0.00     0.039 A 
ATOM     24  C   UNL A   1      42.652  21.598  25.281  1.00  0.00     0.014 A 
ATOM     25  C   UNL A   1      42.497  21.300  27.679  1.00  0.00     0.014 A 
ATOM     26  C   UNL A   1      43.165  22.879  25.484  1.00  0.00     0.010 A 
ATOM     27  C   UNL A   1      42.894  22.613  27.875  1.00  0.00     0.010 A 
ATOM     28  C   UNL A   1      43.252  23.411  26.781  1.00  0.00    -0.014 A 
BRANCH  28  29
ATOM     29  C   UNL A   1      43.739  24.791  27.022  1.00  0.00     0.031 A 
ATOM     30  C   UNL A   1      45.194  25.117  26.816  1.00  0.00     0.074 A 
ATOM     31  C   UNL A   1      42.888  25.722  27.494  1.00  0.00     0.049 A 
ATOM     32  N   UNL A   1      45.829  26.235  27.049  1.00  0.00    -0.248 NA
ATOM     33  C   UNL A   1      46.059  24.033  26.316  1.00  0.00     0.031 C 
ATOM     34  C   UNL A   1      41.469  25.502  27.791  1.00  0.00     0.029 A 
ATOM     35  N   UNL A   1      43.092  27.039  27.819  1.00  0.00    -0.354 N 
ATOM     36  C   UNL A   1      47.163  25.983  26.748  1.00  0.00     0.074 A 
ATOM     37  C   UNL A   1      47.257  24.591  26.373  1.00  0.00     0.031 C 
ATOM     38  C   UNL A   1      40.927  26.649  28.226  1.00  0.00     0.029 A 
ATOM     39  C   UNL A   1      41.965  27.674  28.284  1.00  0.00     0.049 A 
ATOM     40  H   UNL A   1      43.964  27.488  27.728  1.00  0.00     0.167 HD
ATOM     41  C   UNL A   1      48.206  26.843  26.757  1.00  0.00     0.037 A 
ATOM     42  C   UNL A   1      41.789  28.937  28.718  1.00  0.00     0.037 A 
ATOM     43  C   UNL A   1      48.091  28.236  27.096  1.00  0.00     0.049 A 
ATOM     44  C   UNL A   1      42.961  29.880  28.700  1.00  0.00     0.074 A 
ATOM     45  C   UNL A   1      49.070  29.212  27.065  1.00  0.00     0.029 A 
ATOM     46  N   UNL A   1      46.924  28.851  27.531  1.00  0.00    -0.354 N 
ATOM     47  N   UNL A   1      44.202  29.645  28.343  1.00  0.00    -0.248 NA
ATOM     48  C   UNL A   1      42.710  31.261  29.133  1.00  0.00     0.031 C 
ATOM     49  C   UNL A   1      48.510  30.405  27.533  1.00  0.00     0.029 A 
ATOM     50  C   UNL A   1      47.166  30.188  27.796  1.00  0.00     0.049 A 
ATOM     51  H   UNL A   1      46.054  28.403  27.634  1.00  0.00     0.167 HD
ATOM     52  C   UNL A   1      44.874  30.853  28.484  1.00  0.00     0.074 A 
ATOM     53  C   UNL A   1      43.899  31.819  28.946  1.00  0.00     0.031 C 
ATOM     54  C   UNL A   1      46.180  31.137  28.253  1.00  0.00     0.037 A 
BRANCH  41  55
ATOM     55  C   UNL A   1      49.563  26.308  26.384  1.00  0.00     0.058 A 
ATOM     56  C   UNL A   1      50.087  26.454  25.089  1.00  0.00     0.135 A 
ATOM     57  C   UNL A   1      50.370  25.683  27.348  1.00  0.00     0.135 A 
ATOM     58  F   UNL A   1      49.353  27.026  24.121  1.00  0.00    -0.206 F 
ATOM     59  C   UNL A   1      51.354  25.981  24.758  1.00  0.00     0.059 A 
ATOM     60  C   UNL A   1      51.652  25.231  27.048  1.00  0.00     0.059 A 
ATOM     61  F   UNL A   1      49.918  25.511  28.600  1.00  0.00    -0.206 F 
ATOM     62  C   UNL A   1      52.131  25.377  25.747  1.00  0.00     0.060 A 
BRANCH  62  63
ATOM     63  S   UNL A   1      53.782  24.796  25.307  1.00  0.00     0.124 S 
ATOM     64  O   UNL A   1      53.530  23.386  25.022  1.00  0.00    -0.237 OA
ATOM     65  O   UNL A   1      54.106  25.627  24.152  1.00  0.00    -0.237 OA
ATOM     66  O   UNL A   1      54.568  25.061  26.508  1.00  0.00    -0.744 OA
ENDBRANCH  62  63
ENDBRANCH  41  55
BRANCH  42  67
ATOM     67  C   UNL A   1      40.448  29.380  29.184  1.00  0.00     0.058 A 
ATOM     68  C   UNL A   1      40.181  29.574  30.548  1.00  0.00     0.135 A 
ATOM     69  C   UNL A   1      39.415  29.650  28.272  1.00  0.00     0.135 A 
ATOM     70  F   UNL A   1      41.133  29.325  31.459  1.00  0.00    -0.206 F 
ATOM     71  C   UNL A   1      38.937  30.009  30.992  1.00  0.00     0.059 A 
ATOM     72  C   UNL A   1      38.171  30.113  28.690  1.00  0.00     0.059 A 
ATOM     73  F   UNL A   1      39.624  29.500  26.955  1.00  0.00    -0.206 F 
ATOM     74  C   UNL A   1      37.939  30.281  30.055  1.00  0.00     0.060 A 
BRANCH  74  75
ATOM     75  S   UNL A   1      36.349  30.905  30.639  1.00  0.00     0.124 S 
ATOM     76  O   UNL A   1      35.570  30.927  29.406  1.00  0.00    -0.237 OA
ATOM     77  O   UNL A   1      35.965  29.894  31.620  1.00  0.00    -0.237 OA
ATOM     78  O   UNL A   1      36.685  32.213  31.197  1.00  0.00    -0.744 OA
ENDBRANCH  74  75
ENDBRANCH  42  67
BRANCH  54  79
ATOM     79  C   UNL A   1      46.628  32.556  28.461  1.00  0.00     0.058 A 
ATOM     80  C   UNL A   1      47.185  32.986  29.676  1.00  0.00     0.135 A 
ATOM     81  C   UNL A   1      46.556  33.483  27.408  1.00  0.00     0.135 A 
ATOM     82  F   UNL A   1      47.272  32.141  30.716  1.00  0.00    -0.206 F 
ATOM     83  C   UNL A   1      47.631  34.292  29.847  1.00  0.00     0.059 A 
ATOM     84  C   UNL A   1      47.026  34.785  27.547  1.00  0.00     0.059 A 
ATOM     85  F   UNL A   1      46.044  33.120  26.221  1.00  0.00    -0.206 F 
ATOM     86  C   UNL A   1      47.551  35.183  28.776  1.00  0.00     0.060 A 
BRANCH  86  87
ATOM     87  S   UNL A   1      48.164  36.865  29.003  1.00  0.00     0.124 S 
ATOM     88  O   UNL A   1      49.434  36.627  29.681  1.00  0.00    -0.237 OA
ATOM     89  O   UNL A   1      48.260  37.349  27.629  1.00  0.00    -0.237 OA
ATOM     90  O   UNL A   1      47.128  37.499  29.814  1.00  0.00    -0.744 OA
ENDBRANCH  86  87
ENDBRANCH  54  79
ENDBRANCH  28  29
ENDBRANCH  20  23
ENDBRANCH  18  19
ENDBRANCH   1  18
TORSDOF 16
ENDMDL
