MODEL 1
REMARK VINA RESULT:     -10.8      0.000      0.000
REMARK SMILES CC[C@H](C)[C@@H](NC(=O)[C@@H]1CCCN1C(=O)C1CC1)C(=O)NCCCNC(=O)c1ccc(-c2c3nc(c(-c4c(F)cc(S(=O)(=O)[O-])cc4F)c4ccc([nH]4)c(-c4c(F)cc(S(=O)(=O)[O-])cc4F)c4nc(c(-c5c(F)cc(S(=O)(=O)[O-])cc5F)c5ccc2[nH]5)C=C4)C=C3)cc1
REMARK SMILES IDX 22 1 21 2 19 3 20 4 5 6 3 7 4 8 2 9 1 10 6 11 7 12 8 14 9 15
REMARK SMILES IDX 10 16 13 17 11 18 12 19 14 20 15 21 16 22 17 23 18 24 23 25
REMARK SMILES IDX 24 26 25 27 26 28 27 30 28 31 29 32 93 33 30 34 92 35 31 36
REMARK SMILES IDX 32 37 33 38 86 39 34 40 91 41 85 42 87 43 35 44 90 45 84 46
REMARK SMILES IDX 83 47 36 49 70 50 49 51 69 52 50 53 53 54 68 55 88 56 51 57
REMARK SMILES IDX 52 58 67 60 89 61 54 62 37 63 38 64 47 65 39 66 40 67 46 68
REMARK SMILES IDX 48 69 41 70 42 71 43 72 44 73 45 74 71 75 72 76 81 77 73 78
REMARK SMILES IDX 74 79 80 80 82 81 75 82 76 83 77 84 78 85 79 86 55 87 56 88
REMARK SMILES IDX 65 89 57 90 58 91 64 92 66 93 59 94 60 95 61 96 62 97 63 98
REMARK H PARENT 21 5 6 13 25 29 87 48 53 59
REMARK Flexibility Score: inf
ROOT
ATOM      1  C   UNL A   1      32.785  28.218  24.958  1.00  0.00     0.117 C 
ENDROOT
BRANCH   1   2
ATOM      2  N   UNL A   1      33.644  27.078  24.670  1.00  0.00    -0.354 N 
ATOM      3  C   UNL A   1      33.500  26.271  23.559  1.00  0.00     0.242 C 
ATOM      4  O   UNL A   1      33.490  26.751  22.423  1.00  0.00    -0.273 OA
ATOM      5  H   UNL A   1      34.369  26.871  25.302  1.00  0.00     0.163 HD
BRANCH   3   6
ATOM      6  C   UNL A   1      33.537  24.723  23.782  1.00  0.00     0.174 C 
BRANCH   6   7
ATOM      7  C   UNL A   1      32.152  23.990  23.702  1.00  0.00     0.018 C 
ATOM      8  C   UNL A   1      32.177  22.641  22.964  1.00  0.00     0.010 C 
BRANCH   7   9
ATOM      9  C   UNL A   1      31.518  23.758  25.111  1.00  0.00     0.002 C 
ATOM     10  C   UNL A   1      32.453  23.932  26.306  1.00  0.00     0.004 C 
ENDBRANCH   7   9
ENDBRANCH   6   7
BRANCH   6  11
ATOM     11  N   UNL A   1      34.711  23.880  23.387  1.00  0.00    -0.342 N 
ATOM     12  C   UNL A   1      35.913  23.435  23.814  1.00  0.00     0.243 C 
ATOM     13  H   UNL A   1      34.545  23.515  22.487  1.00  0.00     0.164 HD
ATOM     14  O   UNL A   1      36.689  23.150  22.881  1.00  0.00    -0.273 OA
BRANCH  12  15
ATOM     15  C   UNL A   1      36.339  22.977  25.226  1.00  0.00     0.174 C 
ATOM     16  C   UNL A   1      37.528  23.843  25.687  1.00  0.00     0.037 C 
ATOM     17  N   UNL A   1      36.761  21.620  25.403  1.00  0.00    -0.330 N 
ATOM     18  C   UNL A   1      38.640  22.886  26.095  1.00  0.00     0.024 C 
ATOM     19  C   UNL A   1      38.191  21.533  25.600  1.00  0.00     0.120 C 
BRANCH  17  20
ATOM     20  C   UNL A   1      36.015  20.535  25.019  1.00  0.00     0.226 C 
ATOM     21  O   UNL A   1      36.544  19.448  24.886  1.00  0.00    -0.275 OA
BRANCH  20  22
ATOM     22  C   UNL A   1      34.550  20.558  24.827  1.00  0.00     0.079 C 
ATOM     23  C   UNL A   1      33.529  19.472  24.919  1.00  0.00     0.014 C 
ATOM     24  C   UNL A   1      33.619  20.503  26.009  1.00  0.00     0.014 C 
ENDBRANCH  20  22
ENDBRANCH  17  20
ENDBRANCH  12  15
ENDBRANCH   6  11
ENDBRANCH   3   6
ENDBRANCH   1   2
BRANCH   1  25
ATOM     25  C   UNL A   1      33.575  29.368  25.597  1.00  0.00     0.042 C 
BRANCH  25  26
ATOM     26  C   UNL A   1      33.627  29.265  27.112  1.00  0.00     0.118 C 
BRANCH  26  27
ATOM     27  N   UNL A   1      33.686  30.509  27.878  1.00  0.00    -0.352 N 
ATOM     28  C   UNL A   1      34.782  30.967  28.603  1.00  0.00     0.251 C 
ATOM     29  H   UNL A   1      32.878  31.073  27.882  1.00  0.00     0.163 HD
ATOM     30  O   UNL A   1      34.725  31.976  29.297  1.00  0.00    -0.269 OA
BRANCH  28  31
ATOM     31  C   UNL A   1      36.017  30.143  28.564  1.00  0.00     0.039 A 
ATOM     32  C   UNL A   1      36.880  30.222  27.469  1.00  0.00     0.014 A 
ATOM     33  C   UNL A   1      36.409  29.469  29.718  1.00  0.00     0.014 A 
ATOM     34  C   UNL A   1      38.192  29.745  27.595  1.00  0.00     0.010 A 
ATOM     35  C   UNL A   1      37.745  29.146  29.891  1.00  0.00     0.010 A 
ATOM     36  C   UNL A   1      38.660  29.276  28.834  1.00  0.00    -0.014 A 
BRANCH  36  37
ATOM     37  C   UNL A   1      40.081  28.895  29.073  1.00  0.00     0.031 A 
ATOM     38  C   UNL A   1      41.037  29.927  29.621  1.00  0.00     0.074 A 
ATOM     39  C   UNL A   1      40.546  27.689  28.684  1.00  0.00     0.049 A 
ATOM     40  N   UNL A   1      42.340  29.882  29.724  1.00  0.00    -0.248 NA
ATOM     41  C   UNL A   1      40.450  31.209  30.048  1.00  0.00     0.031 C 
ATOM     42  C   UNL A   1      39.752  26.628  28.059  1.00  0.00     0.029 A 
ATOM     43  N   UNL A   1      41.811  27.155  28.744  1.00  0.00    -0.354 N 
ATOM     44  C   UNL A   1      42.724  31.142  30.169  1.00  0.00     0.074 A 
ATOM     45  C   UNL A   1      41.529  31.950  30.240  1.00  0.00     0.031 C 
ATOM     46  C   UNL A   1      40.538  25.562  27.830  1.00  0.00     0.029 A 
ATOM     47  C   UNL A   1      41.899  25.872  28.253  1.00  0.00     0.049 A 
ATOM     48  H   UNL A   1      42.584  27.647  29.105  1.00  0.00     0.167 HD
ATOM     49  C   UNL A   1      43.954  31.580  30.529  1.00  0.00     0.037 A 
ATOM     50  C   UNL A   1      42.957  25.042  28.159  1.00  0.00     0.037 A 
ATOM     51  C   UNL A   1      45.123  30.743  30.542  1.00  0.00     0.049 A 
ATOM     52  C   UNL A   1      44.300  25.514  28.648  1.00  0.00     0.074 A 
ATOM     53  C   UNL A   1      46.399  31.051  30.977  1.00  0.00     0.029 A 
ATOM     54  N   UNL A   1      45.149  29.422  30.122  1.00  0.00    -0.354 N 
ATOM     55  N   UNL A   1      44.635  26.691  29.124  1.00  0.00    -0.248 NA
ATOM     56  C   UNL A   1      45.406  24.547  28.600  1.00  0.00     0.031 C 
ATOM     57  C   UNL A   1      47.203  29.920  30.800  1.00  0.00     0.029 A 
ATOM     58  C   UNL A   1      46.418  28.898  30.288  1.00  0.00     0.049 A 
ATOM     59  H   UNL A   1      44.377  28.930  29.758  1.00  0.00     0.167 HD
ATOM     60  C   UNL A   1      45.982  26.598  29.456  1.00  0.00     0.074 A 
ATOM     61  C   UNL A   1      46.398  25.247  29.135  1.00  0.00     0.031 C 
ATOM     62  C   UNL A   1      46.802  27.544  29.977  1.00  0.00     0.037 A 
BRANCH  49  63
ATOM     63  C   UNL A   1      44.077  33.014  30.966  1.00  0.00     0.058 A 
ATOM     64  C   UNL A   1      44.417  34.035  30.061  1.00  0.00     0.135 A 
ATOM     65  C   UNL A   1      43.870  33.376  32.307  1.00  0.00     0.135 A 
ATOM     66  F   UNL A   1      44.641  33.744  28.768  1.00  0.00    -0.206 F 
ATOM     67  C   UNL A   1      44.606  35.347  30.478  1.00  0.00     0.059 A 
ATOM     68  C   UNL A   1      44.020  34.690  32.741  1.00  0.00     0.059 A 
ATOM     69  F   UNL A   1      43.539  32.445  33.216  1.00  0.00    -0.206 F 
ATOM     70  C   UNL A   1      44.413  35.664  31.823  1.00  0.00     0.060 A 
BRANCH  70  71
ATOM     71  S   UNL A   1      44.687  37.367  32.355  1.00  0.00     0.124 S 
ATOM     72  O   UNL A   1      46.115  37.524  32.097  1.00  0.00    -0.237 OA
ATOM     73  O   UNL A   1      43.798  38.119  31.475  1.00  0.00    -0.237 OA
ATOM     74  O   UNL A   1      44.301  37.348  33.762  1.00  0.00    -0.744 OA
ENDBRANCH  70  71
ENDBRANCH  49  63
BRANCH  50  75
ATOM     75  C   UNL A   1      42.776  23.661  27.632  1.00  0.00     0.058 A 
ATOM     76  C   UNL A   1      42.566  22.583  28.507  1.00  0.00     0.135 A 
ATOM     77  C   UNL A   1      42.782  23.390  26.256  1.00  0.00     0.135 A 
ATOM     78  F   UNL A   1      42.559  22.790  29.834  1.00  0.00    -0.206 F 
ATOM     79  C   UNL A   1      42.376  21.287  28.040  1.00  0.00     0.059 A 
ATOM     80  C   UNL A   1      42.573  22.103  25.763  1.00  0.00     0.059 A 
ATOM     81  F   UNL A   1      42.963  24.385  25.375  1.00  0.00    -0.206 F 
ATOM     82  C   UNL A   1      42.376  21.057  26.664  1.00  0.00     0.060 A 
BRANCH  82  83
ATOM     83  S   UNL A   1      42.063  19.380  26.065  1.00  0.00     0.124 S 
ATOM     84  O   UNL A   1      42.882  19.340  24.860  1.00  0.00    -0.237 OA
ATOM     85  O   UNL A   1      42.529  18.564  27.182  1.00  0.00    -0.237 OA
ATOM     86  O   UNL A   1      40.619  19.366  25.850  1.00  0.00    -0.744 OA
ENDBRANCH  82  83
ENDBRANCH  50  75
BRANCH  62  87
ATOM     87  C   UNL A   1      48.220  27.146  30.271  1.00  0.00     0.058 A 
ATOM     88  C   UNL A   1      49.244  27.324  29.329  1.00  0.00     0.135 A 
ATOM     89  C   UNL A   1      48.567  26.651  31.539  1.00  0.00     0.135 A 
ATOM     90  F   UNL A   1      48.959  27.790  28.103  1.00  0.00    -0.206 F 
ATOM     91  C   UNL A   1      50.565  27.010  29.628  1.00  0.00     0.059 A 
ATOM     92  C   UNL A   1      49.885  26.352  31.867  1.00  0.00     0.059 A 
ATOM     93  F   UNL A   1      47.624  26.474  32.477  1.00  0.00    -0.206 F 
ATOM     94  C   UNL A   1      50.875  26.528  30.902  1.00  0.00     0.060 A 
BRANCH  94  95
ATOM     95  S   UNL A   1      52.601  26.170  31.294  1.00  0.00     0.124 S 
ATOM     96  O   UNL A   1      52.497  24.842  31.890  1.00  0.00    -0.237 OA
ATOM     97  O   UNL A   1      53.239  26.227  29.982  1.00  0.00    -0.237 OA
ATOM     98  O   UNL A   1      52.970  27.244  32.211  1.00  0.00    -0.744 OA
ENDBRANCH  94  95
ENDBRANCH  62  87
ENDBRANCH  36  37
ENDBRANCH  28  31
ENDBRANCH  26  27
ENDBRANCH  25  26
ENDBRANCH   1  25
TORSDOF 19
ENDMDL
MODEL 2
REMARK VINA RESULT:     -10.0      2.936      3.892
REMARK SMILES CC[C@H](C)[C@@H](NC(=O)[C@@H]1CCCN1C(=O)C1CC1)C(=O)NCCCNC(=O)c1ccc(-c2c3nc(c(-c4c(F)cc(S(=O)(=O)[O-])cc4F)c4ccc([nH]4)c(-c4c(F)cc(S(=O)(=O)[O-])cc4F)c4nc(c(-c5c(F)cc(S(=O)(=O)[O-])cc5F)c5ccc2[nH]5)C=C4)C=C3)cc1
REMARK SMILES IDX 22 1 21 2 19 3 20 4 5 6 3 7 4 8 2 9 1 10 6 11 7 12 8 14 9 15
REMARK SMILES IDX 10 16 13 17 11 18 12 19 14 20 15 21 16 22 17 23 18 24 23 25
REMARK SMILES IDX 24 26 25 27 26 28 27 30 28 31 29 32 93 33 30 34 92 35 31 36
REMARK SMILES IDX 32 37 33 38 86 39 34 40 91 41 85 42 87 43 35 44 90 45 84 46
REMARK SMILES IDX 83 47 36 49 70 50 49 51 69 52 50 53 53 54 68 55 88 56 51 57
REMARK SMILES IDX 52 58 67 60 89 61 54 62 37 63 38 64 47 65 39 66 40 67 46 68
REMARK SMILES IDX 48 69 41 70 42 71 43 72 44 73 45 74 71 75 72 76 81 77 73 78
REMARK SMILES IDX 74 79 80 80 82 81 75 82 76 83 77 84 78 85 79 86 55 87 56 88
REMARK SMILES IDX 65 89 57 90 58 91 64 92 66 93 59 94 60 95 61 96 62 97 63 98
REMARK H PARENT 21 5 6 13 25 29 87 48 53 59
REMARK Flexibility Score: inf
ROOT
ATOM      1  C   UNL A   1      31.870  28.000  27.159  1.00  0.00     0.117 C 
ENDROOT
BRANCH   1   2
ATOM      2  N   UNL A   1      30.977  27.682  26.054  1.00  0.00    -0.354 N 
ATOM      3  C   UNL A   1      30.675  26.395  25.657  1.00  0.00     0.242 C 
ATOM      4  O   UNL A   1      30.230  25.572  26.460  1.00  0.00    -0.273 OA
ATOM      5  H   UNL A   1      30.563  28.428  25.562  1.00  0.00     0.163 HD
BRANCH   3   6
ATOM      6  C   UNL A   1      30.743  26.078  24.127  1.00  0.00     0.174 C 
BRANCH   6   7
ATOM      7  C   UNL A   1      29.684  26.810  23.231  1.00  0.00     0.018 C 
ATOM      8  C   UNL A   1      28.277  26.909  23.842  1.00  0.00     0.010 C 
BRANCH   7   9
ATOM      9  C   UNL A   1      30.138  28.250  22.829  1.00  0.00     0.002 C 
ATOM     10  C   UNL A   1      29.025  29.285  22.664  1.00  0.00     0.004 C 
ENDBRANCH   7   9
ENDBRANCH   6   7
BRANCH   6  11
ATOM     11  N   UNL A   1      32.028  25.750  23.428  1.00  0.00    -0.342 N 
ATOM     12  C   UNL A   1      33.288  25.308  23.636  1.00  0.00     0.243 C 
ATOM     13  H   UNL A   1      31.911  25.918  22.464  1.00  0.00     0.164 HD
ATOM     14  O   UNL A   1      34.089  25.684  22.759  1.00  0.00    -0.273 OA
BRANCH  12  15
ATOM     15  C   UNL A   1      33.791  24.215  24.604  1.00  0.00     0.174 C 
ATOM     16  C   UNL A   1      35.071  24.722  25.297  1.00  0.00     0.037 C 
ATOM     17  N   UNL A   1      34.130  22.932  24.065  1.00  0.00    -0.330 N 
ATOM     18  C   UNL A   1      36.142  23.662  25.080  1.00  0.00     0.024 C 
ATOM     19  C   UNL A   1      35.561  22.728  24.047  1.00  0.00     0.120 C 
BRANCH  17  20
ATOM     20  C   UNL A   1      33.281  22.186  23.289  1.00  0.00     0.226 C 
ATOM     21  O   UNL A   1      32.980  22.569  22.174  1.00  0.00    -0.275 OA
BRANCH  20  22
ATOM     22  C   UNL A   1      32.747  20.862  23.673  1.00  0.00     0.079 C 
ATOM     23  C   UNL A   1      33.324  19.779  24.523  1.00  0.00     0.014 C 
ATOM     24  C   UNL A   1      32.203  20.626  25.056  1.00  0.00     0.014 C 
ENDBRANCH  20  22
ENDBRANCH  17  20
ENDBRANCH  12  15
ENDBRANCH   6  11
ENDBRANCH   3   6
ENDBRANCH   1   2
BRANCH   1  25
ATOM     25  C   UNL A   1      33.342  27.901  26.736  1.00  0.00     0.042 C 
BRANCH  25  26
ATOM     26  C   UNL A   1      33.816  29.138  25.991  1.00  0.00     0.118 C 
BRANCH  26  27
ATOM     27  N   UNL A   1      33.677  30.431  26.659  1.00  0.00    -0.352 N 
ATOM     28  C   UNL A   1      34.558  30.961  27.596  1.00  0.00     0.251 C 
ATOM     29  H   UNL A   1      32.890  30.975  26.425  1.00  0.00     0.163 HD
ATOM     30  O   UNL A   1      34.326  32.012  28.183  1.00  0.00    -0.269 OA
BRANCH  28  31
ATOM     31  C   UNL A   1      35.769  30.165  27.920  1.00  0.00     0.039 A 
ATOM     32  C   UNL A   1      36.964  30.393  27.233  1.00  0.00     0.014 A 
ATOM     33  C   UNL A   1      35.756  29.355  29.052  1.00  0.00     0.014 A 
ATOM     34  C   UNL A   1      38.167  29.922  27.776  1.00  0.00     0.010 A 
ATOM     35  C   UNL A   1      36.956  29.031  29.665  1.00  0.00     0.010 A 
ATOM     36  C   UNL A   1      38.181  29.305  29.038  1.00  0.00    -0.014 A 
BRANCH  36  37
ATOM     37  C   UNL A   1      39.439  28.916  29.736  1.00  0.00     0.031 A 
ATOM     38  C   UNL A   1      39.883  29.702  30.947  1.00  0.00     0.074 A 
ATOM     39  C   UNL A   1      40.245  27.962  29.224  1.00  0.00     0.049 A 
ATOM     40  N   UNL A   1      41.023  29.670  31.586  1.00  0.00    -0.248 NA
ATOM     41  C   UNL A   1      38.938  30.708  31.462  1.00  0.00     0.031 C 
ATOM     42  C   UNL A   1      39.983  27.184  28.010  1.00  0.00     0.029 A 
ATOM     43  N   UNL A   1      41.463  27.492  29.654  1.00  0.00    -0.354 N 
ATOM     44  C   UNL A   1      40.948  30.686  32.534  1.00  0.00     0.074 A 
ATOM     45  C   UNL A   1      39.688  31.363  32.333  1.00  0.00     0.031 C 
ATOM     46  C   UNL A   1      40.987  26.311  27.817  1.00  0.00     0.029 A 
ATOM     47  C   UNL A   1      41.984  26.491  28.866  1.00  0.00     0.049 A 
ATOM     48  H   UNL A   1      41.920  27.841  30.453  1.00  0.00     0.167 HD
ATOM     49  C   UNL A   1      41.828  31.002  33.514  1.00  0.00     0.037 A 
ATOM     50  C   UNL A   1      43.134  25.797  28.981  1.00  0.00     0.037 A 
ATOM     51  C   UNL A   1      43.036  30.266  33.766  1.00  0.00     0.049 A 
ATOM     52  C   UNL A   1      44.057  26.101  30.130  1.00  0.00     0.074 A 
ATOM     53  C   UNL A   1      43.953  30.436  34.786  1.00  0.00     0.029 A 
ATOM     54  N   UNL A   1      43.482  29.200  32.998  1.00  0.00    -0.354 N 
ATOM     55  N   UNL A   1      43.944  27.025  31.055  1.00  0.00    -0.248 NA
ATOM     56  C   UNL A   1      45.259  25.264  30.261  1.00  0.00     0.031 C 
ATOM     57  C   UNL A   1      44.966  29.484  34.624  1.00  0.00     0.029 A 
ATOM     58  C   UNL A   1      44.660  28.700  33.522  1.00  0.00     0.049 A 
ATOM     59  H   UNL A   1      43.027  28.852  32.197  1.00  0.00     0.167 HD
ATOM     60  C   UNL A   1      45.042  26.865  31.891  1.00  0.00     0.074 A 
ATOM     61  C   UNL A   1      45.805  25.749  31.368  1.00  0.00     0.031 C 
ATOM     62  C   UNL A   1      45.391  27.576  32.992  1.00  0.00     0.037 A 
BRANCH  49  63
ATOM     63  C   UNL A   1      41.487  32.172  34.397  1.00  0.00     0.058 A 
ATOM     64  C   UNL A   1      40.717  32.018  35.562  1.00  0.00     0.135 A 
ATOM     65  C   UNL A   1      41.919  33.468  34.068  1.00  0.00     0.135 A 
ATOM     66  F   UNL A   1      40.265  30.804  35.917  1.00  0.00    -0.206 F 
ATOM     67  C   UNL A   1      40.338  33.109  36.336  1.00  0.00     0.059 A 
ATOM     68  C   UNL A   1      41.580  34.571  34.847  1.00  0.00     0.059 A 
ATOM     69  F   UNL A   1      42.661  33.675  32.969  1.00  0.00    -0.206 F 
ATOM     70  C   UNL A   1      40.768  34.384  35.965  1.00  0.00     0.060 A 
BRANCH  70  71
ATOM     71  S   UNL A   1      40.246  35.794  36.963  1.00  0.00     0.124 S 
ATOM     72  O   UNL A   1      39.791  36.724  35.934  1.00  0.00    -0.237 OA
ATOM     73  O   UNL A   1      39.199  35.217  37.801  1.00  0.00    -0.237 OA
ATOM     74  O   UNL A   1      41.464  36.181  37.666  1.00  0.00    -0.744 OA
ENDBRANCH  70  71
ENDBRANCH  49  63
BRANCH  50  75
ATOM     75  C   UNL A   1      43.447  24.708  28.015  1.00  0.00     0.058 A 
ATOM     76  C   UNL A   1      44.272  24.950  26.905  1.00  0.00     0.135 A 
ATOM     77  C   UNL A   1      42.957  23.405  28.188  1.00  0.00     0.135 A 
ATOM     78  F   UNL A   1      44.760  26.183  26.691  1.00  0.00    -0.206 F 
ATOM     79  C   UNL A   1      44.595  23.946  25.998  1.00  0.00     0.059 A 
ATOM     80  C   UNL A   1      43.283  22.377  27.305  1.00  0.00     0.059 A 
ATOM     81  F   UNL A   1      42.176  23.114  29.239  1.00  0.00    -0.206 F 
ATOM     82  C   UNL A   1      44.099  22.659  26.210  1.00  0.00     0.060 A 
BRANCH  82  83
ATOM     83  S   UNL A   1      44.577  21.347  25.063  1.00  0.00     0.124 S 
ATOM     84  O   UNL A   1      45.944  21.068  25.487  1.00  0.00    -0.237 OA
ATOM     85  O   UNL A   1      43.593  20.310  25.356  1.00  0.00    -0.237 OA
ATOM     86  O   UNL A   1      44.438  21.979  23.754  1.00  0.00    -0.744 OA
ENDBRANCH  82  83
ENDBRANCH  50  75
BRANCH  62  87
ATOM     87  C   UNL A   1      46.628  27.150  33.729  1.00  0.00     0.058 A 
ATOM     88  C   UNL A   1      46.584  26.177  34.737  1.00  0.00     0.135 A 
ATOM     89  C   UNL A   1      47.882  27.669  33.367  1.00  0.00     0.135 A 
ATOM     90  F   UNL A   1      45.408  25.654  35.120  1.00  0.00    -0.206 F 
ATOM     91  C   UNL A   1      47.740  25.742  35.375  1.00  0.00     0.059 A 
ATOM     92  C   UNL A   1      49.054  27.232  33.974  1.00  0.00     0.059 A 
ATOM     93  F   UNL A   1      47.976  28.595  32.399  1.00  0.00    -0.206 F 
ATOM     94  C   UNL A   1      48.971  26.273  34.983  1.00  0.00     0.060 A 
BRANCH  94  95
ATOM     95  S   UNL A   1      50.470  25.666  35.784  1.00  0.00     0.124 S 
ATOM     96  O   UNL A   1      50.873  26.826  36.573  1.00  0.00    -0.237 OA
ATOM     97  O   UNL A   1      49.977  24.522  36.546  1.00  0.00    -0.237 OA
ATOM     98  O   UNL A   1      51.343  25.334  34.662  1.00  0.00    -0.744 OA
ENDBRANCH  94  95
ENDBRANCH  62  87
ENDBRANCH  36  37
ENDBRANCH  28  31
ENDBRANCH  26  27
ENDBRANCH  25  26
ENDBRANCH   1  25
TORSDOF 19
ENDMDL
MODEL 3
REMARK VINA RESULT:     -10.0      2.949      3.841
REMARK SMILES CC[C@H](C)[C@@H](NC(=O)[C@@H]1CCCN1C(=O)C1CC1)C(=O)NCCCNC(=O)c1ccc(-c2c3nc(c(-c4c(F)cc(S(=O)(=O)[O-])cc4F)c4ccc([nH]4)c(-c4c(F)cc(S(=O)(=O)[O-])cc4F)c4nc(c(-c5c(F)cc(S(=O)(=O)[O-])cc5F)c5ccc2[nH]5)C=C4)C=C3)cc1
REMARK SMILES IDX 22 1 21 2 19 3 20 4 5 6 3 7 4 8 2 9 1 10 6 11 7 12 8 14 9 15
REMARK SMILES IDX 10 16 13 17 11 18 12 19 14 20 15 21 16 22 17 23 18 24 23 25
REMARK SMILES IDX 24 26 25 27 26 28 27 30 28 31 29 32 93 33 30 34 92 35 31 36
REMARK SMILES IDX 32 37 33 38 86 39 34 40 91 41 85 42 87 43 35 44 90 45 84 46
REMARK SMILES IDX 83 47 36 49 70 50 49 51 69 52 50 53 53 54 68 55 88 56 51 57
REMARK SMILES IDX 52 58 67 60 89 61 54 62 37 63 38 64 47 65 39 66 40 67 46 68
REMARK SMILES IDX 48 69 41 70 42 71 43 72 44 73 45 74 71 75 72 76 81 77 73 78
REMARK SMILES IDX 74 79 80 80 82 81 75 82 76 83 77 84 78 85 79 86 55 87 56 88
REMARK SMILES IDX 65 89 57 90 58 91 64 92 66 93 59 94 60 95 61 96 62 97 63 98
REMARK H PARENT 21 5 6 13 25 29 87 48 53 59
REMARK Flexibility Score: inf
ROOT
ATOM      1  C   UNL A   1      32.466  26.689  25.722  1.00  0.00     0.117 C 
ENDROOT
BRANCH   1   2
ATOM      2  N   UNL A   1      33.579  25.859  25.281  1.00  0.00    -0.354 N 
ATOM      3  C   UNL A   1      33.883  25.626  23.955  1.00  0.00     0.242 C 
ATOM      4  O   UNL A   1      34.064  26.560  23.172  1.00  0.00    -0.273 OA
ATOM      5  H   UNL A   1      34.148  25.441  25.967  1.00  0.00     0.163 HD
BRANCH   3   6
ATOM      6  C   UNL A   1      34.168  24.148  23.529  1.00  0.00     0.174 C 
BRANCH   6   7
ATOM      7  C   UNL A   1      35.395  23.462  24.227  1.00  0.00     0.018 C 
ATOM      8  C   UNL A   1      36.536  23.061  23.279  1.00  0.00     0.010 C 
BRANCH   7   9
ATOM      9  C   UNL A   1      36.001  24.342  25.367  1.00  0.00     0.002 C 
ATOM     10  C   UNL A   1      37.234  23.777  26.070  1.00  0.00     0.004 C 
ENDBRANCH   7   9
ENDBRANCH   6   7
BRANCH   6  11
ATOM     11  N   UNL A   1      33.080  23.203  23.118  1.00  0.00    -0.342 N 
ATOM     12  C   UNL A   1      32.517  22.010  23.413  1.00  0.00     0.243 C 
ATOM     13  H   UNL A   1      32.596  23.596  22.355  1.00  0.00     0.164 HD
ATOM     14  O   UNL A   1      31.944  21.485  22.438  1.00  0.00    -0.273 OA
BRANCH  12  15
ATOM     15  C   UNL A   1      32.248  21.372  24.793  1.00  0.00     0.174 C 
ATOM     16  C   UNL A   1      31.719  22.464  25.745  1.00  0.00     0.037 C 
ATOM     17  N   UNL A   1      33.341  20.757  25.484  1.00  0.00    -0.330 N 
ATOM     18  C   UNL A   1      32.605  22.437  26.984  1.00  0.00     0.024 C 
ATOM     19  C   UNL A   1      33.772  21.557  26.609  1.00  0.00     0.120 C 
BRANCH  17  20
ATOM     20  C   UNL A   1      34.143  19.792  24.932  1.00  0.00     0.226 C 
ATOM     21  O   UNL A   1      35.325  20.013  24.749  1.00  0.00    -0.275 OA
BRANCH  20  22
ATOM     22  C   UNL A   1      33.693  18.422  24.605  1.00  0.00     0.079 C 
ATOM     23  C   UNL A   1      32.374  17.749  24.796  1.00  0.00     0.014 C 
ATOM     24  C   UNL A   1      32.803  18.168  23.418  1.00  0.00     0.014 C 
ENDBRANCH  20  22
ENDBRANCH  17  20
ENDBRANCH  12  15
ENDBRANCH   6  11
ENDBRANCH   3   6
ENDBRANCH   1   2
BRANCH   1  25
ATOM     25  C   UNL A   1      32.938  27.804  26.665  1.00  0.00     0.042 C 
BRANCH  25  26
ATOM     26  C   UNL A   1      33.576  28.964  25.917  1.00  0.00     0.118 C 
BRANCH  26  27
ATOM     27  N   UNL A   1      33.462  30.298  26.505  1.00  0.00    -0.352 N 
ATOM     28  C   UNL A   1      34.349  30.865  27.414  1.00  0.00     0.251 C 
ATOM     29  H   UNL A   1      32.688  30.843  26.233  1.00  0.00     0.163 HD
ATOM     30  O   UNL A   1      34.136  31.955  27.934  1.00  0.00    -0.269 OA
BRANCH  28  31
ATOM     31  C   UNL A   1      35.540  30.064  27.794  1.00  0.00     0.039 A 
ATOM     32  C   UNL A   1      36.734  30.199  27.082  1.00  0.00     0.014 A 
ATOM     33  C   UNL A   1      35.516  29.353  28.991  1.00  0.00     0.014 A 
ATOM     34  C   UNL A   1      37.929  29.741  27.653  1.00  0.00     0.010 A 
ATOM     35  C   UNL A   1      36.712  29.047  29.620  1.00  0.00     0.010 A 
ATOM     36  C   UNL A   1      37.938  29.232  28.963  1.00  0.00    -0.014 A 
BRANCH  36  37
ATOM     37  C   UNL A   1      39.192  28.867  29.681  1.00  0.00     0.031 A 
ATOM     38  C   UNL A   1      39.591  29.650  30.909  1.00  0.00     0.074 A 
ATOM     39  C   UNL A   1      40.031  27.939  29.175  1.00  0.00     0.049 A 
ATOM     40  N   UNL A   1      40.719  29.639  31.571  1.00  0.00    -0.248 NA
ATOM     41  C   UNL A   1      38.612  30.626  31.416  1.00  0.00     0.031 C 
ATOM     42  C   UNL A   1      39.814  27.168  27.948  1.00  0.00     0.029 A 
ATOM     43  N   UNL A   1      41.252  27.495  29.624  1.00  0.00    -0.354 N 
ATOM     44  C   UNL A   1      40.601  30.642  32.528  1.00  0.00     0.074 A 
ATOM     45  C   UNL A   1      39.328  31.289  32.309  1.00  0.00     0.031 C 
ATOM     46  C   UNL A   1      40.842  26.324  27.765  1.00  0.00     0.029 A 
ATOM     47  C   UNL A   1      41.814  26.516  28.836  1.00  0.00     0.049 A 
ATOM     48  H   UNL A   1      41.685  27.846  30.435  1.00  0.00     0.167 HD
ATOM     49  C   UNL A   1      41.452  30.969  33.529  1.00  0.00     0.037 A 
ATOM     50  C   UNL A   1      42.979  25.850  28.965  1.00  0.00     0.037 A 
ATOM     51  C   UNL A   1      42.674  30.260  33.796  1.00  0.00     0.049 A 
ATOM     52  C   UNL A   1      43.871  26.164  30.136  1.00  0.00     0.074 A 
ATOM     53  C   UNL A   1      43.566  30.442  34.837  1.00  0.00     0.029 A 
ATOM     54  N   UNL A   1      43.161  29.215  33.025  1.00  0.00    -0.354 N 
ATOM     55  N   UNL A   1      43.716  27.074  31.069  1.00  0.00    -0.248 NA
ATOM     56  C   UNL A   1      45.092  25.356  30.282  1.00  0.00     0.031 C 
ATOM     57  C   UNL A   1      44.605  29.517  34.684  1.00  0.00     0.029 A 
ATOM     58  C   UNL A   1      44.341  28.739  33.568  1.00  0.00     0.049 A 
ATOM     59  H   UNL A   1      42.731  28.865  32.212  1.00  0.00     0.167 HD
ATOM     60  C   UNL A   1      44.802  26.932  31.925  1.00  0.00     0.074 A 
ATOM     61  C   UNL A   1      45.603  25.842  31.405  1.00  0.00     0.031 C 
ATOM     62  C   UNL A   1      45.111  27.640  33.040  1.00  0.00     0.037 A 
BRANCH  49  63
ATOM     63  C   UNL A   1      41.065  32.120  34.417  1.00  0.00     0.058 A 
ATOM     64  C   UNL A   1      41.447  33.440  34.123  1.00  0.00     0.135 A 
ATOM     65  C   UNL A   1      40.319  31.903  35.587  1.00  0.00     0.135 A 
ATOM     66  F   UNL A   1      42.174  33.704  33.024  1.00  0.00    -0.206 F 
ATOM     67  C   UNL A   1      41.156  34.493  34.982  1.00  0.00     0.059 A 
ATOM     68  C   UNL A   1      39.986  32.948  36.445  1.00  0.00     0.059 A 
ATOM     69  F   UNL A   1      39.923  30.664  35.918  1.00  0.00    -0.206 F 
ATOM     70  C   UNL A   1      40.431  34.235  36.146  1.00  0.00     0.060 A 
BRANCH  70  71
ATOM     71  S   UNL A   1      40.083  35.607  37.267  1.00  0.00     0.124 S 
ATOM     72  O   UNL A   1      39.795  36.684  36.324  1.00  0.00    -0.237 OA
ATOM     73  O   UNL A   1      38.941  35.110  38.028  1.00  0.00    -0.237 OA
ATOM     74  O   UNL A   1      41.322  35.750  38.023  1.00  0.00    -0.744 OA
ENDBRANCH  70  71
ENDBRANCH  49  63
BRANCH  50  75
ATOM     75  C   UNL A   1      43.338  24.780  27.994  1.00  0.00     0.058 A 
ATOM     76  C   UNL A   1      44.183  25.055  26.907  1.00  0.00     0.135 A 
ATOM     77  C   UNL A   1      42.874  23.465  28.140  1.00  0.00     0.135 A 
ATOM     78  F   UNL A   1      44.647  26.301  26.718  1.00  0.00    -0.206 F 
ATOM     79  C   UNL A   1      44.548  24.069  25.995  1.00  0.00     0.059 A 
ATOM     80  C   UNL A   1      43.243  22.455  27.253  1.00  0.00     0.059 A 
ATOM     81  F   UNL A   1      42.077  23.143  29.171  1.00  0.00    -0.206 F 
ATOM     82  C   UNL A   1      44.077  22.770  26.180  1.00  0.00     0.060 A 
BRANCH  82  83
ATOM     83  S   UNL A   1      44.611  21.482  25.029  1.00  0.00     0.124 S 
ATOM     84  O   UNL A   1      45.980  21.244  25.468  1.00  0.00    -0.237 OA
ATOM     85  O   UNL A   1      43.657  20.412  25.302  1.00  0.00    -0.237 OA
ATOM     86  O   UNL A   1      44.468  22.120  23.724  1.00  0.00    -0.744 OA
ENDBRANCH  82  83
ENDBRANCH  50  75
BRANCH  62  87
ATOM     87  C   UNL A   1      46.343  27.237  33.797  1.00  0.00     0.058 A 
ATOM     88  C   UNL A   1      47.569  27.891  33.608  1.00  0.00     0.135 A 
ATOM     89  C   UNL A   1      46.275  26.233  34.777  1.00  0.00     0.135 A 
ATOM     90  F   UNL A   1      47.684  28.855  32.681  1.00  0.00    -0.206 F 
ATOM     91  C   UNL A   1      48.692  27.555  34.355  1.00  0.00     0.059 A 
ATOM     92  C   UNL A   1      47.379  25.896  35.552  1.00  0.00     0.059 A 
ATOM     93  F   UNL A   1      45.121  25.585  35.002  1.00  0.00    -0.206 F 
ATOM     94  C   UNL A   1      48.586  26.557  35.327  1.00  0.00     0.060 A 
BRANCH  94  95
ATOM     95  S   UNL A   1      50.038  26.163  36.324  1.00  0.00     0.124 S 
ATOM     96  O   UNL A   1      50.336  27.455  36.933  1.00  0.00    -0.237 OA
ATOM     97  O   UNL A   1      49.528  25.138  37.230  1.00  0.00    -0.237 OA
ATOM     98  O   UNL A   1      51.008  25.693  35.338  1.00  0.00    -0.744 OA
ENDBRANCH  94  95
ENDBRANCH  62  87
ENDBRANCH  36  37
ENDBRANCH  28  31
ENDBRANCH  26  27
ENDBRANCH  25  26
ENDBRANCH   1  25
TORSDOF 19
ENDMDL
