MODEL 1
REMARK VINA RESULT:     -11.8      0.000      0.000
REMARK SMILES CC(C)[NH2+][C@]1(C(=O)NCCCNC(=O)c2ccc(-c3c4nc(c(-c5c(F)cc(S(=O)(=O)[O-])cc5F)c5ccc([nH]5)c(-c5c(F)cc(S(=O)(=O)[O-])cc5F)c5nc(c(-c6c(F)cc(S(=O)(=O)[O-])cc6F)c6ccc3[nH]6)C=C5)C=C4)cc2)CCC[C@@H](Sc2nnnn2C)C1
REMARK SMILES IDX 10 1 9 2 8 3 6 4 7 5 5 7 81 8 92 9 82 10 84 11 83 12 4 13
REMARK SMILES IDX 2 16 1 17 3 18 85 19 86 20 87 21 90 22 88 23 89 24 91 25
REMARK SMILES IDX 11 26 12 27 13 28 14 30 15 31 16 32 80 33 17 34 79 35 18 36
REMARK SMILES IDX 19 37 20 38 73 39 21 40 78 41 72 42 74 43 22 44 77 45 71 46
REMARK SMILES IDX 70 47 23 49 57 50 36 51 56 52 37 53 40 54 55 55 75 56 38 57
REMARK SMILES IDX 39 58 54 60 76 61 41 62 24 63 25 64 34 65 26 66 27 67 33 68
REMARK SMILES IDX 35 69 28 70 29 71 30 72 31 73 32 74 58 75 59 76 68 77 60 78
REMARK SMILES IDX 61 79 67 80 69 81 62 82 63 83 64 84 65 85 66 86 42 87 43 88
REMARK SMILES IDX 52 89 44 90 45 91 51 92 53 93 46 94 47 95 48 96 49 97 50 98
REMARK H PARENT 8 6 4 14 4 15 12 29 74 48 40 59
REMARK Flexibility Score: inf
ROOT
ATOM      1  C   UNL A   1      32.218  27.862  27.217  1.00  0.00     0.042 C 
ENDROOT
BRANCH   1   2
ATOM      2  C   UNL A   1      32.012  26.765  26.180  1.00  0.00     0.118 C 
BRANCH   2   3
ATOM      3  N   UNL A   1      31.430  25.559  26.743  1.00  0.00    -0.351 N 
ATOM      4  C   UNL A   1      31.601  24.228  26.564  1.00  0.00     0.281 C 
ATOM      5  O   UNL A   1      30.894  23.519  27.301  1.00  0.00    -0.268 OA
ATOM      6  H   UNL A   1      30.744  25.758  27.420  1.00  0.00     0.163 HD
BRANCH   4   7
ATOM      7  C   UNL A   1      32.554  23.540  25.526  1.00  0.00     0.176 C 
ATOM      8  C   UNL A   1      34.057  23.859  25.624  1.00  0.00     0.079 C 
ATOM      9  C   UNL A   1      32.377  22.028  25.873  1.00  0.00     0.094 C 
ATOM     10  C   UNL A   1      34.981  22.891  24.879  1.00  0.00     0.008 C 
ATOM     11  C   UNL A   1      33.313  21.059  25.154  1.00  0.00     0.061 C 
ATOM     12  C   UNL A   1      34.774  21.453  25.353  1.00  0.00     0.015 C 
BRANCH   7  13
ATOM     13  N   UNL A   1      32.028  23.714  24.142  1.00  0.00    -0.332 N 
ATOM     14  H   UNL A   1      31.900  22.783  23.743  1.00  0.00     0.347 HD
ATOM     15  H   UNL A   1      31.172  24.258  24.254  1.00  0.00     0.347 HD
BRANCH  13  16
ATOM     16  C   UNL A   1      32.850  24.490  23.201  1.00  0.00     0.176 C 
ATOM     17  C   UNL A   1      33.127  23.599  21.985  1.00  0.00     0.075 C 
ATOM     18  C   UNL A   1      32.142  25.761  22.707  1.00  0.00     0.075 C 
ENDBRANCH  13  16
ENDBRANCH   7  13
BRANCH  11  19
ATOM     19  S   UNL A   1      32.958  19.326  25.655  1.00  0.00    -0.081 SA
BRANCH  19  20
ATOM     20  C   UNL A   1      33.024  18.452  24.167  1.00  0.00     0.209 A 
ATOM     21  N   UNL A   1      32.269  18.671  23.115  1.00  0.00    -0.102 NA
ATOM     22  N   UNL A   1      33.825  17.375  23.908  1.00  0.00    -0.224 N 
ATOM     23  N   UNL A   1      32.629  17.722  22.187  1.00  0.00    -0.023 NA
ATOM     24  N   UNL A   1      33.583  16.932  22.660  1.00  0.00    -0.045 NA
ATOM     25  C   UNL A   1      34.851  16.742  24.690  1.00  0.00     0.179 C 
ENDBRANCH  19  20
ENDBRANCH  11  19
ENDBRANCH   4   7
ENDBRANCH   2   3
ENDBRANCH   1   2
BRANCH   1  26
ATOM     26  C   UNL A   1      33.606  28.496  27.164  1.00  0.00     0.118 C 
BRANCH  26  27
ATOM     27  N   UNL A   1      33.581  29.905  27.535  1.00  0.00    -0.352 N 
ATOM     28  C   UNL A   1      34.498  30.660  28.227  1.00  0.00     0.251 C 
ATOM     29  H   UNL A   1      32.780  30.395  27.243  1.00  0.00     0.163 HD
ATOM     30  O   UNL A   1      34.162  31.755  28.667  1.00  0.00    -0.269 OA
BRANCH  28  31
ATOM     31  C   UNL A   1      35.872  30.162  28.453  1.00  0.00     0.039 A 
ATOM     32  C   UNL A   1      36.775  30.146  27.386  1.00  0.00     0.014 A 
ATOM     33  C   UNL A   1      36.260  29.672  29.703  1.00  0.00     0.014 A 
ATOM     34  C   UNL A   1      38.089  29.716  27.595  1.00  0.00     0.010 A 
ATOM     35  C   UNL A   1      37.585  29.311  29.926  1.00  0.00     0.010 A 
ATOM     36  C   UNL A   1      38.516  29.338  28.877  1.00  0.00    -0.014 A 
BRANCH  36  37
ATOM     37  C   UNL A   1      39.935  29.004  29.161  1.00  0.00     0.031 A 
ATOM     38  C   UNL A   1      40.872  30.057  29.685  1.00  0.00     0.074 A 
ATOM     39  C   UNL A   1      40.399  27.779  28.848  1.00  0.00     0.049 A 
ATOM     40  N   UNL A   1      42.167  29.996  29.858  1.00  0.00    -0.248 NA
ATOM     41  C   UNL A   1      40.279  31.357  30.037  1.00  0.00     0.031 C 
ATOM     42  C   UNL A   1      39.595  26.685  28.296  1.00  0.00     0.029 A 
ATOM     43  N   UNL A   1      41.665  27.252  28.924  1.00  0.00    -0.354 N 
ATOM     44  C   UNL A   1      42.548  31.250  30.321  1.00  0.00     0.074 A 
ATOM     45  C   UNL A   1      41.351  32.063  30.366  1.00  0.00     0.031 C 
ATOM     46  C   UNL A   1      40.384  25.619  28.089  1.00  0.00     0.029 A 
ATOM     47  C   UNL A   1      41.754  25.965  28.449  1.00  0.00     0.049 A 
ATOM     48  H   UNL A   1      42.434  27.749  29.284  1.00  0.00     0.167 HD
ATOM     49  C   UNL A   1      43.779  31.676  30.690  1.00  0.00     0.037 A 
ATOM     50  C   UNL A   1      42.825  25.160  28.295  1.00  0.00     0.037 A 
ATOM     51  C   UNL A   1      44.959  30.851  30.667  1.00  0.00     0.049 A 
ATOM     52  C   UNL A   1      44.185  25.665  28.687  1.00  0.00     0.074 A 
ATOM     53  C   UNL A   1      46.238  31.167  31.094  1.00  0.00     0.029 A 
ATOM     54  N   UNL A   1      45.009  29.552  30.184  1.00  0.00    -0.354 N 
ATOM     55  N   UNL A   1      44.517  26.833  29.183  1.00  0.00    -0.248 NA
ATOM     56  C   UNL A   1      45.316  24.748  28.493  1.00  0.00     0.031 C 
ATOM     57  C   UNL A   1      47.069  30.073  30.829  1.00  0.00     0.029 A 
ATOM     58  C   UNL A   1      46.302  29.062  30.273  1.00  0.00     0.049 A 
ATOM     59  H   UNL A   1      44.238  29.051  29.831  1.00  0.00     0.167 HD
ATOM     60  C   UNL A   1      45.893  26.788  29.370  1.00  0.00     0.074 A 
ATOM     61  C   UNL A   1      46.330  25.472  28.951  1.00  0.00     0.031 C 
ATOM     62  C   UNL A   1      46.721  27.752  29.843  1.00  0.00     0.037 A 
BRANCH  49  63
ATOM     63  C   UNL A   1      43.915  33.100  31.153  1.00  0.00     0.058 A 
ATOM     64  C   UNL A   1      43.824  33.443  32.512  1.00  0.00     0.135 A 
ATOM     65  C   UNL A   1      44.182  34.128  30.235  1.00  0.00     0.135 A 
ATOM     66  F   UNL A   1      43.557  32.501  33.430  1.00  0.00    -0.206 F 
ATOM     67  C   UNL A   1      43.962  34.759  32.941  1.00  0.00     0.059 A 
ATOM     68  C   UNL A   1      44.349  35.448  30.645  1.00  0.00     0.059 A 
ATOM     69  F   UNL A   1      44.280  33.855  28.925  1.00  0.00    -0.206 F 
ATOM     70  C   UNL A   1      44.223  35.755  31.999  1.00  0.00     0.060 A 
BRANCH  70  71
ATOM     71  S   UNL A   1      44.401  37.459  32.571  1.00  0.00     0.124 S 
ATOM     72  O   UNL A   1      43.227  37.601  33.427  1.00  0.00    -0.237 OA
ATOM     73  O   UNL A   1      45.686  37.424  33.261  1.00  0.00    -0.237 OA
ATOM     74  O   UNL A   1      44.375  38.237  31.337  1.00  0.00    -0.744 OA
ENDBRANCH  70  71
ENDBRANCH  49  63
BRANCH  50  75
ATOM     75  C   UNL A   1      42.647  23.795  27.736  1.00  0.00     0.058 A 
ATOM     76  C   UNL A   1      42.525  22.683  28.582  1.00  0.00     0.135 A 
ATOM     77  C   UNL A   1      42.570  23.577  26.351  1.00  0.00     0.135 A 
ATOM     78  F   UNL A   1      42.600  22.841  29.912  1.00  0.00    -0.206 F 
ATOM     79  C   UNL A   1      42.340  21.400  28.076  1.00  0.00     0.059 A 
ATOM     80  C   UNL A   1      42.363  22.308  25.822  1.00  0.00     0.059 A 
ATOM     81  F   UNL A   1      42.664  24.611  25.502  1.00  0.00    -0.206 F 
ATOM     82  C   UNL A   1      42.256  21.224  26.694  1.00  0.00     0.060 A 
BRANCH  82  83
ATOM     83  S   UNL A   1      41.953  19.564  26.048  1.00  0.00     0.124 S 
ATOM     84  O   UNL A   1      40.528  19.624  25.746  1.00  0.00    -0.237 OA
ATOM     85  O   UNL A   1      42.848  19.515  24.897  1.00  0.00    -0.237 OA
ATOM     86  O   UNL A   1      42.329  18.699  27.162  1.00  0.00    -0.744 OA
ENDBRANCH  82  83
ENDBRANCH  50  75
BRANCH  62  87
ATOM     87  C   UNL A   1      48.184  27.423  29.934  1.00  0.00     0.058 A 
ATOM     88  C   UNL A   1      49.040  27.598  28.837  1.00  0.00     0.135 A 
ATOM     89  C   UNL A   1      48.746  26.991  31.145  1.00  0.00     0.135 A 
ATOM     90  F   UNL A   1      48.548  27.997  27.653  1.00  0.00    -0.206 F 
ATOM     91  C   UNL A   1      50.404  27.349  28.934  1.00  0.00     0.059 A 
ATOM     92  C   UNL A   1      50.112  26.759  31.272  1.00  0.00     0.059 A 
ATOM     93  F   UNL A   1      47.969  26.815  32.226  1.00  0.00    -0.206 F 
ATOM     94  C   UNL A   1      50.932  26.934  30.158  1.00  0.00     0.060 A 
BRANCH  94  95
ATOM     95  S   UNL A   1      52.713  26.668  30.286  1.00  0.00     0.124 S 
ATOM     96  O   UNL A   1      53.063  26.354  28.906  1.00  0.00    -0.237 OA
ATOM     97  O   UNL A   1      53.187  27.957  30.783  1.00  0.00    -0.237 OA
ATOM     98  O   UNL A   1      52.824  25.561  31.231  1.00  0.00    -0.744 OA
ENDBRANCH  94  95
ENDBRANCH  62  87
ENDBRANCH  36  37
ENDBRANCH  28  31
ENDBRANCH  26  27
ENDBRANCH   1  26
TORSDOF 17
ENDMDL
MODEL 2
REMARK VINA RESULT:     -11.5      3.691      9.845
REMARK SMILES CC(C)[NH2+][C@]1(C(=O)NCCCNC(=O)c2ccc(-c3c4nc(c(-c5c(F)cc(S(=O)(=O)[O-])cc5F)c5ccc([nH]5)c(-c5c(F)cc(S(=O)(=O)[O-])cc5F)c5nc(c(-c6c(F)cc(S(=O)(=O)[O-])cc6F)c6ccc3[nH]6)C=C5)C=C4)cc2)CCC[C@@H](Sc2nnnn2C)C1
REMARK SMILES IDX 10 1 9 2 8 3 6 4 7 5 5 7 81 8 92 9 82 10 84 11 83 12 4 13
REMARK SMILES IDX 2 16 1 17 3 18 85 19 86 20 87 21 90 22 88 23 89 24 91 25
REMARK SMILES IDX 11 26 12 27 13 28 14 30 15 31 16 32 80 33 17 34 79 35 18 36
REMARK SMILES IDX 19 37 20 38 73 39 21 40 78 41 72 42 74 43 22 44 77 45 71 46
REMARK SMILES IDX 70 47 23 49 57 50 36 51 56 52 37 53 40 54 55 55 75 56 38 57
REMARK SMILES IDX 39 58 54 60 76 61 41 62 24 63 25 64 34 65 26 66 27 67 33 68
REMARK SMILES IDX 35 69 28 70 29 71 30 72 31 73 32 74 58 75 59 76 68 77 60 78
REMARK SMILES IDX 61 79 67 80 69 81 62 82 63 83 64 84 65 85 66 86 42 87 43 88
REMARK SMILES IDX 52 89 44 90 45 91 51 92 53 93 46 94 47 95 48 96 49 97 50 98
REMARK H PARENT 8 6 4 14 4 15 12 29 74 48 40 59
REMARK Flexibility Score: inf
ROOT
ATOM      1  C   UNL A   1      35.581  23.575  25.562  1.00  0.00     0.042 C 
ENDROOT
BRANCH   1   2
ATOM      2  C   UNL A   1      34.470  23.174  24.599  1.00  0.00     0.118 C 
BRANCH   2   3
ATOM      3  N   UNL A   1      34.378  24.052  23.445  1.00  0.00    -0.351 N 
ATOM      4  C   UNL A   1      33.733  25.207  23.157  1.00  0.00     0.281 C 
ATOM      5  O   UNL A   1      33.966  25.652  22.020  1.00  0.00    -0.268 OA
ATOM      6  H   UNL A   1      34.918  23.730  22.688  1.00  0.00     0.163 HD
BRANCH   4   7
ATOM      7  C   UNL A   1      32.735  25.977  24.090  1.00  0.00     0.176 C 
ATOM      8  C   UNL A   1      33.330  26.752  25.279  1.00  0.00     0.079 C 
ATOM      9  C   UNL A   1      32.119  27.027  23.112  1.00  0.00     0.094 C 
ATOM     10  C   UNL A   1      32.401  27.790  25.914  1.00  0.00     0.008 C 
ATOM     11  C   UNL A   1      31.212  28.082  23.743  1.00  0.00     0.061 C 
ATOM     12  C   UNL A   1      31.921  28.809  24.882  1.00  0.00     0.015 C 
BRANCH   7  13
ATOM     13  N   UNL A   1      31.614  25.084  24.501  1.00  0.00    -0.332 N 
ATOM     14  H   UNL A   1      30.772  25.409  24.026  1.00  0.00     0.347 HD
ATOM     15  H   UNL A   1      31.920  24.144  24.245  1.00  0.00     0.347 HD
BRANCH  13  16
ATOM     16  C   UNL A   1      31.308  25.004  25.938  1.00  0.00     0.176 C 
ATOM     17  C   UNL A   1      29.848  25.433  26.125  1.00  0.00     0.075 C 
ATOM     18  C   UNL A   1      31.461  23.582  26.496  1.00  0.00     0.075 C 
ENDBRANCH  13  16
ENDBRANCH   7  13
BRANCH  11  19
ATOM     19  S   UNL A   1      30.554  29.221  22.458  1.00  0.00    -0.081 SA
BRANCH  19  20
ATOM     20  C   UNL A   1      28.910  29.457  22.929  1.00  0.00     0.209 A 
ATOM     21  N   UNL A   1      27.961  28.550  22.884  1.00  0.00    -0.102 NA
ATOM     22  N   UNL A   1      28.363  30.637  23.351  1.00  0.00    -0.224 N 
ATOM     23  N   UNL A   1      26.815  29.182  23.305  1.00  0.00    -0.023 NA
ATOM     24  N   UNL A   1      27.051  30.454  23.599  1.00  0.00    -0.045 NA
ATOM     25  C   UNL A   1      28.952  31.922  23.609  1.00  0.00     0.179 C 
ENDBRANCH  19  20
ENDBRANCH  11  19
ENDBRANCH   4   7
ENDBRANCH   2   3
ENDBRANCH   1   2
BRANCH   1  26
ATOM     26  C   UNL A   1      36.928  23.793  24.878  1.00  0.00     0.118 C 
BRANCH  26  27
ATOM     27  N   UNL A   1      37.914  22.797  25.276  1.00  0.00    -0.352 N 
ATOM     28  C   UNL A   1      39.093  22.938  25.968  1.00  0.00     0.251 C 
ATOM     29  H   UNL A   1      37.701  21.875  25.009  1.00  0.00     0.163 HD
ATOM     30  O   UNL A   1      39.905  22.018  25.962  1.00  0.00    -0.269 OA
BRANCH  28  31
ATOM     31  C   UNL A   1      39.394  24.185  26.704  1.00  0.00     0.039 A 
ATOM     32  C   UNL A   1      38.854  24.370  27.980  1.00  0.00     0.014 A 
ATOM     33  C   UNL A   1      40.172  25.190  26.124  1.00  0.00     0.014 A 
ATOM     34  C   UNL A   1      39.163  25.525  28.704  1.00  0.00     0.010 A 
ATOM     35  C   UNL A   1      40.535  26.306  26.872  1.00  0.00     0.010 A 
ATOM     36  C   UNL A   1      40.042  26.481  28.173  1.00  0.00    -0.014 A 
BRANCH  36  37
ATOM     37  C   UNL A   1      40.496  27.651  28.966  1.00  0.00     0.031 A 
ATOM     38  C   UNL A   1      41.787  27.593  29.735  1.00  0.00     0.074 A 
ATOM     39  C   UNL A   1      39.691  28.727  29.074  1.00  0.00     0.049 A 
ATOM     40  N   UNL A   1      42.277  28.453  30.590  1.00  0.00    -0.248 NA
ATOM     41  C   UNL A   1      42.626  26.400  29.534  1.00  0.00     0.031 C 
ATOM     42  C   UNL A   1      38.396  28.884  28.407  1.00  0.00     0.029 A 
ATOM     43  N   UNL A   1      39.829  29.882  29.803  1.00  0.00    -0.354 N 
ATOM     44  C   UNL A   1      43.468  27.900  31.044  1.00  0.00     0.074 A 
ATOM     45  C   UNL A   1      43.609  26.613  30.396  1.00  0.00     0.031 C 
ATOM     46  C   UNL A   1      37.863  30.066  28.753  1.00  0.00     0.029 A 
ATOM     47  C   UNL A   1      38.751  30.730  29.699  1.00  0.00     0.049 A 
ATOM     48  H   UNL A   1      40.624  30.083  30.349  1.00  0.00     0.167 HD
ATOM     49  C   UNL A   1      44.369  28.426  31.907  1.00  0.00     0.037 A 
ATOM     50  C   UNL A   1      38.496  31.900  30.317  1.00  0.00     0.037 A 
ATOM     51  C   UNL A   1      44.233  29.719  32.527  1.00  0.00     0.049 A 
ATOM     52  C   UNL A   1      39.498  32.451  31.291  1.00  0.00     0.074 A 
ATOM     53  C   UNL A   1      45.128  30.374  33.356  1.00  0.00     0.029 A 
ATOM     54  N   UNL A   1      43.131  30.551  32.393  1.00  0.00    -0.354 N 
ATOM     55  N   UNL A   1      40.650  31.945  31.660  1.00  0.00    -0.248 NA
ATOM     56  C   UNL A   1      39.166  33.727  31.938  1.00  0.00     0.031 C 
ATOM     57  C   UNL A   1      44.548  31.582  33.758  1.00  0.00     0.029 A 
ATOM     58  C   UNL A   1      43.309  31.698  33.148  1.00  0.00     0.049 A 
ATOM     59  H   UNL A   1      42.340  30.354  31.842  1.00  0.00     0.167 HD
ATOM     60  C   UNL A   1      41.185  32.844  32.574  1.00  0.00     0.074 A 
ATOM     61  C   UNL A   1      40.239  33.936  32.690  1.00  0.00     0.031 C 
ATOM     62  C   UNL A   1      42.353  32.771  33.259  1.00  0.00     0.037 A 
BRANCH  49  63
ATOM     63  C   UNL A   1      45.585  27.605  32.235  1.00  0.00     0.058 A 
ATOM     64  C   UNL A   1      46.763  27.699  31.474  1.00  0.00     0.135 A 
ATOM     65  C   UNL A   1      45.590  26.746  33.345  1.00  0.00     0.135 A 
ATOM     66  F   UNL A   1      46.807  28.495  30.395  1.00  0.00    -0.206 F 
ATOM     67  C   UNL A   1      47.891  26.947  31.786  1.00  0.00     0.059 A 
ATOM     68  C   UNL A   1      46.716  26.003  33.689  1.00  0.00     0.059 A 
ATOM     69  F   UNL A   1      44.492  26.619  34.107  1.00  0.00    -0.206 F 
ATOM     70  C   UNL A   1      47.858  26.100  32.894  1.00  0.00     0.060 A 
BRANCH  70  71
ATOM     71  S   UNL A   1      49.331  25.132  33.285  1.00  0.00     0.124 S 
ATOM     72  O   UNL A   1      50.068  26.059  34.137  1.00  0.00    -0.237 OA
ATOM     73  O   UNL A   1      48.769  23.965  33.958  1.00  0.00    -0.237 OA
ATOM     74  O   UNL A   1      49.925  24.873  31.977  1.00  0.00    -0.744 OA
ENDBRANCH  70  71
ENDBRANCH  49  63
BRANCH  50  75
ATOM     75  C   UNL A   1      37.228  32.622  30.032  1.00  0.00     0.058 A 
ATOM     76  C   UNL A   1      37.188  33.656  29.086  1.00  0.00     0.135 A 
ATOM     77  C   UNL A   1      36.031  32.278  30.679  1.00  0.00     0.135 A 
ATOM     78  F   UNL A   1      38.309  34.025  28.448  1.00  0.00    -0.206 F 
ATOM     79  C   UNL A   1      36.006  34.330  28.794  1.00  0.00     0.059 A 
ATOM     80  C   UNL A   1      34.833  32.922  30.388  1.00  0.00     0.059 A 
ATOM     81  F   UNL A   1      36.015  31.285  31.580  1.00  0.00    -0.206 F 
ATOM     82  C   UNL A   1      34.833  33.953  29.448  1.00  0.00     0.060 A 
BRANCH  82  83
ATOM     83  S   UNL A   1      33.291  34.790  29.018  1.00  0.00     0.124 S 
ATOM     84  O   UNL A   1      32.615  34.840  30.308  1.00  0.00    -0.237 OA
ATOM     85  O   UNL A   1      33.771  36.067  28.498  1.00  0.00    -0.237 OA
ATOM     86  O   UNL A   1      32.696  33.903  28.023  1.00  0.00    -0.744 OA
ENDBRANCH  82  83
ENDBRANCH  50  75
BRANCH  62  87
ATOM     87  C   UNL A   1      42.676  33.900  34.196  1.00  0.00     0.058 A 
ATOM     88  C   UNL A   1      42.417  33.803  35.571  1.00  0.00     0.135 A 
ATOM     89  C   UNL A   1      43.309  35.061  33.725  1.00  0.00     0.135 A 
ATOM     90  F   UNL A   1      41.803  32.717  36.068  1.00  0.00    -0.206 F 
ATOM     91  C   UNL A   1      42.768  34.822  36.449  1.00  0.00     0.059 A 
ATOM     92  C   UNL A   1      43.690  36.084  34.588  1.00  0.00     0.059 A 
ATOM     93  F   UNL A   1      43.583  35.199  32.418  1.00  0.00    -0.206 F 
ATOM     94  C   UNL A   1      43.409  35.958  35.948  1.00  0.00     0.060 A 
BRANCH  94  95
ATOM     95  S   UNL A   1      43.909  37.249  37.106  1.00  0.00     0.124 S 
ATOM     96  O   UNL A   1      45.065  36.635  37.751  1.00  0.00    -0.237 OA
ATOM     97  O   UNL A   1      44.200  38.371  36.218  1.00  0.00    -0.237 OA
ATOM     98  O   UNL A   1      42.733  37.419  37.955  1.00  0.00    -0.744 OA
ENDBRANCH  94  95
ENDBRANCH  62  87
ENDBRANCH  36  37
ENDBRANCH  28  31
ENDBRANCH  26  27
ENDBRANCH   1  26
TORSDOF 17
ENDMDL
MODEL 3
REMARK VINA RESULT:     -11.4      5.053     10.605
REMARK SMILES CC(C)[NH2+][C@]1(C(=O)NCCCNC(=O)c2ccc(-c3c4nc(c(-c5c(F)cc(S(=O)(=O)[O-])cc5F)c5ccc([nH]5)c(-c5c(F)cc(S(=O)(=O)[O-])cc5F)c5nc(c(-c6c(F)cc(S(=O)(=O)[O-])cc6F)c6ccc3[nH]6)C=C5)C=C4)cc2)CCC[C@@H](Sc2nnnn2C)C1
REMARK SMILES IDX 10 1 9 2 8 3 6 4 7 5 5 7 81 8 92 9 82 10 84 11 83 12 4 13
REMARK SMILES IDX 2 16 1 17 3 18 85 19 86 20 87 21 90 22 88 23 89 24 91 25
REMARK SMILES IDX 11 26 12 27 13 28 14 30 15 31 16 32 80 33 17 34 79 35 18 36
REMARK SMILES IDX 19 37 20 38 73 39 21 40 78 41 72 42 74 43 22 44 77 45 71 46
REMARK SMILES IDX 70 47 23 49 57 50 36 51 56 52 37 53 40 54 55 55 75 56 38 57
REMARK SMILES IDX 39 58 54 60 76 61 41 62 24 63 25 64 34 65 26 66 27 67 33 68
REMARK SMILES IDX 35 69 28 70 29 71 30 72 31 73 32 74 58 75 59 76 68 77 60 78
REMARK SMILES IDX 61 79 67 80 69 81 62 82 63 83 64 84 65 85 66 86 42 87 43 88
REMARK SMILES IDX 52 89 44 90 45 91 51 92 53 93 46 94 47 95 48 96 49 97 50 98
REMARK H PARENT 8 6 4 14 4 15 12 29 74 48 40 59
REMARK Flexibility Score: inf
ROOT
ATOM      1  C   UNL A   1      37.094  23.596  25.025  1.00  0.00     0.042 C 
ENDROOT
BRANCH   1   2
ATOM      2  C   UNL A   1      36.435  22.241  25.253  1.00  0.00     0.118 C 
BRANCH   2   3
ATOM      3  N   UNL A   1      35.683  22.181  26.494  1.00  0.00    -0.351 N 
ATOM      4  C   UNL A   1      34.392  22.376  26.853  1.00  0.00     0.281 C 
ATOM      5  O   UNL A   1      34.163  22.183  28.060  1.00  0.00    -0.268 OA
ATOM      6  H   UNL A   1      36.249  21.939  27.262  1.00  0.00     0.163 HD
BRANCH   4   7
ATOM      7  C   UNL A   1      33.221  22.836  25.917  1.00  0.00     0.176 C 
ATOM      8  C   UNL A   1      31.791  22.761  26.481  1.00  0.00     0.079 C 
ATOM      9  C   UNL A   1      33.555  24.345  25.694  1.00  0.00     0.094 C 
ATOM     10  C   UNL A   1      30.741  23.569  25.714  1.00  0.00     0.008 C 
ATOM     11  C   UNL A   1      32.500  25.164  24.953  1.00  0.00     0.061 C 
ATOM     12  C   UNL A   1      31.135  25.043  25.624  1.00  0.00     0.015 C 
BRANCH   7  13
ATOM     13  N   UNL A   1      33.337  22.183  24.582  1.00  0.00    -0.332 N 
ATOM     14  H   UNL A   1      32.934  22.819  23.892  1.00  0.00     0.347 HD
ATOM     15  H   UNL A   1      34.333  21.995  24.467  1.00  0.00     0.347 HD
BRANCH  13  16
ATOM     16  C   UNL A   1      32.683  20.875  24.411  1.00  0.00     0.176 C 
ATOM     17  C   UNL A   1      32.155  20.806  22.974  1.00  0.00     0.075 C 
ATOM     18  C   UNL A   1      33.650  19.700  24.621  1.00  0.00     0.075 C 
ENDBRANCH  13  16
ENDBRANCH   7  13
BRANCH  11  19
ATOM     19  S   UNL A   1      33.056  26.905  24.754  1.00  0.00    -0.081 SA
BRANCH  19  20
ATOM     20  C   UNL A   1      31.768  27.644  23.874  1.00  0.00     0.209 A 
ATOM     21  N   UNL A   1      31.000  28.617  24.309  1.00  0.00    -0.102 NA
ATOM     22  N   UNL A   1      31.333  27.272  22.633  1.00  0.00    -0.224 N 
ATOM     23  N   UNL A   1      30.091  28.859  23.307  1.00  0.00    -0.023 NA
ATOM     24  N   UNL A   1      30.291  28.048  22.276  1.00  0.00    -0.045 NA
ATOM     25  C   UNL A   1      31.830  26.297  21.702  1.00  0.00     0.179 C 
ENDBRANCH  19  20
ENDBRANCH  11  19
ENDBRANCH   4   7
ENDBRANCH   2   3
ENDBRANCH   1   2
BRANCH   1  26
ATOM     26  C   UNL A   1      37.910  24.083  26.220  1.00  0.00     0.118 C 
BRANCH  26  27
ATOM     27  N   UNL A   1      39.320  23.733  26.102  1.00  0.00    -0.352 N 
ATOM     28  C   UNL A   1      40.442  24.400  26.528  1.00  0.00     0.251 C 
ATOM     29  H   UNL A   1      39.496  22.880  25.645  1.00  0.00     0.163 HD
ATOM     30  O   UNL A   1      41.540  24.068  26.091  1.00  0.00    -0.269 OA
BRANCH  28  31
ATOM     31  C   UNL A   1      40.338  25.516  27.494  1.00  0.00     0.039 A 
ATOM     32  C   UNL A   1      39.402  25.435  28.529  1.00  0.00     0.014 A 
ATOM     33  C   UNL A   1      41.131  26.658  27.358  1.00  0.00     0.014 A 
ATOM     34  C   UNL A   1      39.320  26.462  29.473  1.00  0.00     0.010 A 
ATOM     35  C   UNL A   1      41.098  27.647  28.337  1.00  0.00     0.010 A 
ATOM     36  C   UNL A   1      40.199  27.556  29.409  1.00  0.00    -0.014 A 
BRANCH  36  37
ATOM     37  C   UNL A   1      40.229  28.596  30.469  1.00  0.00     0.031 A 
ATOM     38  C   UNL A   1      41.136  28.442  31.658  1.00  0.00     0.074 A 
ATOM     39  C   UNL A   1      39.363  29.627  30.405  1.00  0.00     0.049 A 
ATOM     40  N   UNL A   1      41.200  29.167  32.745  1.00  0.00    -0.248 NA
ATOM     41  C   UNL A   1      42.077  27.311  31.633  1.00  0.00     0.031 C 
ATOM     42  C   UNL A   1      38.406  29.862  29.321  1.00  0.00     0.029 A 
ATOM     43  N   UNL A   1      39.127  30.656  31.283  1.00  0.00    -0.354 N 
ATOM     44  C   UNL A   1      42.172  28.572  33.541  1.00  0.00     0.074 A 
ATOM     45  C   UNL A   1      42.645  27.404  32.827  1.00  0.00     0.031 C 
ATOM     46  C   UNL A   1      37.693  30.965  29.594  1.00  0.00     0.029 A 
ATOM     47  C   UNL A   1      38.106  31.490  30.890  1.00  0.00     0.049 A 
ATOM     48  H   UNL A   1      39.640  30.784  32.113  1.00  0.00     0.167 HD
ATOM     49  C   UNL A   1      42.638  28.973  34.747  1.00  0.00     0.037 A 
ATOM     50  C   UNL A   1      37.548  32.545  31.517  1.00  0.00     0.037 A 
ATOM     51  C   UNL A   1      42.180  30.152  35.438  1.00  0.00     0.049 A 
ATOM     52  C   UNL A   1      38.065  32.956  32.866  1.00  0.00     0.074 A 
ATOM     53  C   UNL A   1      42.644  30.685  36.628  1.00  0.00     0.029 A 
ATOM     54  N   UNL A   1      41.150  30.973  35.006  1.00  0.00    -0.354 N 
ATOM     55  N   UNL A   1      39.028  32.419  33.576  1.00  0.00    -0.248 NA
ATOM     56  C   UNL A   1      37.416  34.109  33.505  1.00  0.00     0.031 C 
ATOM     57  C   UNL A   1      41.865  31.805  36.938  1.00  0.00     0.029 A 
ATOM     58  C   UNL A   1      40.941  31.992  35.922  1.00  0.00     0.049 A 
ATOM     59  H   UNL A   1      40.641  30.851  34.172  1.00  0.00     0.167 HD
ATOM     60  C   UNL A   1      39.109  33.174  34.740  1.00  0.00     0.074 A 
ATOM     61  C   UNL A   1      38.108  34.217  34.632  1.00  0.00     0.031 C 
ATOM     62  C   UNL A   1      39.935  33.017  35.803  1.00  0.00     0.037 A 
BRANCH  49  63
ATOM     63  C   UNL A   1      43.701  28.134  35.400  1.00  0.00     0.058 A 
ATOM     64  C   UNL A   1      43.374  27.047  36.228  1.00  0.00     0.135 A 
ATOM     65  C   UNL A   1      45.060  28.390  35.164  1.00  0.00     0.135 A 
ATOM     66  F   UNL A   1      42.089  26.767  36.498  1.00  0.00    -0.206 F 
ATOM     67  C   UNL A   1      44.358  26.264  36.822  1.00  0.00     0.059 A 
ATOM     68  C   UNL A   1      46.061  27.604  35.728  1.00  0.00     0.059 A 
ATOM     69  F   UNL A   1      45.429  29.415  34.379  1.00  0.00    -0.206 F 
ATOM     70  C   UNL A   1      45.699  26.551  36.568  1.00  0.00     0.060 A 
BRANCH  70  71
ATOM     71  S   UNL A   1      46.965  25.525  37.346  1.00  0.00     0.124 S 
ATOM     72  O   UNL A   1      48.168  25.975  36.655  1.00  0.00    -0.237 OA
ATOM     73  O   UNL A   1      46.859  25.909  38.750  1.00  0.00    -0.237 OA
ATOM     74  O   UNL A   1      46.536  24.164  37.037  1.00  0.00    -0.744 OA
ENDBRANCH  70  71
ENDBRANCH  49  63
BRANCH  50  75
ATOM     75  C   UNL A   1      36.430  33.279  30.869  1.00  0.00     0.058 A 
ATOM     76  C   UNL A   1      35.122  33.177  31.363  1.00  0.00     0.135 A 
ATOM     77  C   UNL A   1      36.650  34.115  29.762  1.00  0.00     0.135 A 
ATOM     78  F   UNL A   1      34.862  32.385  32.414  1.00  0.00    -0.206 F 
ATOM     79  C   UNL A   1      34.067  33.872  30.780  1.00  0.00     0.059 A 
ATOM     80  C   UNL A   1      35.616  34.837  29.176  1.00  0.00     0.059 A 
ATOM     81  F   UNL A   1      37.887  34.258  29.263  1.00  0.00    -0.206 F 
ATOM     82  C   UNL A   1      34.326  34.703  29.688  1.00  0.00     0.060 A 
BRANCH  82  83
ATOM     83  S   UNL A   1      32.962  35.650  28.977  1.00  0.00     0.124 S 
ATOM     84  O   UNL A   1      33.669  36.773  28.374  1.00  0.00    -0.237 OA
ATOM     85  O   UNL A   1      32.375  34.690  28.046  1.00  0.00    -0.237 OA
ATOM     86  O   UNL A   1      32.136  35.969  30.137  1.00  0.00    -0.744 OA
ENDBRANCH  82  83
ENDBRANCH  50  75
BRANCH  62  87
ATOM     87  C   UNL A   1      39.794  33.991  36.937  1.00  0.00     0.058 A 
ATOM     88  C   UNL A   1      40.460  35.225  36.926  1.00  0.00     0.135 A 
ATOM     89  C   UNL A   1      38.935  33.717  38.013  1.00  0.00     0.135 A 
ATOM     90  F   UNL A   1      41.302  35.530  35.925  1.00  0.00    -0.206 F 
ATOM     91  C   UNL A   1      40.286  36.154  37.947  1.00  0.00     0.059 A 
ATOM     92  C   UNL A   1      38.727  34.640  39.033  1.00  0.00     0.059 A 
ATOM     93  F   UNL A   1      38.270  32.551  38.067  1.00  0.00    -0.206 F 
ATOM     94  C   UNL A   1      39.413  35.853  38.994  1.00  0.00     0.060 A 
BRANCH  94  95
ATOM     95  S   UNL A   1      39.153  37.089  40.284  1.00  0.00     0.124 S 
ATOM     96  O   UNL A   1      40.504  37.256  40.808  1.00  0.00    -0.237 OA
ATOM     97  O   UNL A   1      38.620  38.221  39.531  1.00  0.00    -0.237 OA
ATOM     98  O   UNL A   1      38.203  36.444  41.187  1.00  0.00    -0.744 OA
ENDBRANCH  94  95
ENDBRANCH  62  87
ENDBRANCH  36  37
ENDBRANCH  28  31
ENDBRANCH  26  27
ENDBRANCH   1  26
TORSDOF 17
ENDMDL
