MODEL 1
REMARK VINA RESULT:     -11.8      0.000      0.000
REMARK SMILES C[C@H](CC(=O)NCCCNC(=O)c1ccc(-c2c3nc(c(-c4c(F)cc(S(=O)(=O)[O-])cc4F)c4ccc([nH]4)c(-c4c(F)cc(S(=O)(=O)[O-])cc4F)c4nc(c(-c5c(F)cc(S(=O)(=O)[O-])cc5F)c5ccc2[nH]5)C=C4)C=C3)cc1)NC(=O)Cn1nc2ccccn2c1=O
REMARK SMILES IDX 7 1 6 2 4 3 5 4 3 6 2 7 1 8 79 9 80 10 81 12 82 13 83 14
REMARK SMILES IDX 84 15 91 16 85 17 90 18 92 19 86 20 89 21 87 22 88 23 8 24
REMARK SMILES IDX 9 25 10 26 11 27 12 29 13 30 14 31 78 32 15 33 77 34 16 35
REMARK SMILES IDX 17 36 18 37 71 38 19 39 76 40 70 41 72 42 20 43 75 44 69 45
REMARK SMILES IDX 68 46 21 48 55 49 34 50 54 51 35 52 38 53 53 54 73 55 36 56
REMARK SMILES IDX 37 57 52 59 74 60 39 61 22 62 23 63 32 64 24 65 25 66 31 67
REMARK SMILES IDX 33 68 26 69 27 70 28 71 29 72 30 73 56 74 57 75 66 76 58 77
REMARK SMILES IDX 59 78 65 79 67 80 60 81 61 82 62 83 63 84 64 85 40 86 41 87
REMARK SMILES IDX 50 88 42 89 43 90 49 91 51 92 44 93 45 94 46 95 47 96 48 97
REMARK H PARENT 6 5 79 11 10 28 72 47 38 58
REMARK Flexibility Score: inf
ROOT
ATOM      1  C   UNL A   1      39.878  21.490  26.444  1.00  0.00     0.117 C 
ENDROOT
BRANCH   1   2
ATOM      2  N   UNL A   1      38.914  22.553  26.654  1.00  0.00    -0.356 N 
ATOM      3  C   UNL A   1      37.843  22.909  25.894  1.00  0.00     0.222 C 
ATOM      4  O   UNL A   1      37.246  23.951  26.163  1.00  0.00    -0.275 OA
ATOM      5  H   UNL A   1      39.055  23.097  27.463  1.00  0.00     0.163 HD
BRANCH   3   6
ATOM      6  C   UNL A   1      37.373  21.999  24.786  1.00  0.00     0.124 C 
BRANCH   6   7
ATOM      7  C   UNL A   1      36.151  21.094  25.036  1.00  0.00     0.088 C 
ATOM      8  C   UNL A   1      36.428  19.607  24.834  1.00  0.00     0.031 C 
BRANCH   7   9
ATOM      9  N   UNL A   1      35.542  21.351  26.350  1.00  0.00    -0.352 N 
ATOM     10  C   UNL A   1      34.318  21.870  26.680  1.00  0.00     0.242 C 
ATOM     11  H   UNL A   1      36.107  21.111  27.119  1.00  0.00     0.163 HD
ATOM     12  O   UNL A   1      34.179  22.323  27.819  1.00  0.00    -0.273 OA
BRANCH  10  13
ATOM     13  C   UNL A   1      33.175  21.877  25.669  1.00  0.00     0.249 C 
BRANCH  13  14
ATOM     14  N   UNL A   1      32.642  20.576  25.313  1.00  0.00    -0.203 N 
ATOM     15  N   UNL A   1      32.903  19.469  26.127  1.00  0.00    -0.149 NA
ATOM     16  C   UNL A   1      32.530  20.150  23.982  1.00  0.00     0.350 A 
ATOM     17  C   UNL A   1      32.948  18.473  25.295  1.00  0.00     0.161 A 
ATOM     18  N   UNL A   1      32.754  18.806  23.999  1.00  0.00    -0.250 N 
ATOM     19  O   UNL A   1      32.374  20.832  22.984  1.00  0.00    -0.246 OA
ATOM     20  C   UNL A   1      33.252  17.056  25.580  1.00  0.00     0.050 A 
ATOM     21  C   UNL A   1      32.953  17.976  22.931  1.00  0.00     0.098 A 
ATOM     22  C   UNL A   1      33.461  16.241  24.531  1.00  0.00     0.005 A 
ATOM     23  C   UNL A   1      33.341  16.715  23.162  1.00  0.00     0.019 A 
ENDBRANCH  13  14
ENDBRANCH  10  13
ENDBRANCH   7   9
ENDBRANCH   6   7
ENDBRANCH   3   6
ENDBRANCH   1   2
BRANCH   1  24
ATOM     24  C   UNL A   1      40.940  21.495  27.538  1.00  0.00     0.042 C 
BRANCH  24  25
ATOM     25  C   UNL A   1      41.500  22.877  27.836  1.00  0.00     0.118 C 
BRANCH  25  26
ATOM     26  N   UNL A   1      41.975  23.544  26.638  1.00  0.00    -0.352 N 
ATOM     27  C   UNL A   1      42.032  24.888  26.367  1.00  0.00     0.251 C 
ATOM     28  H   UNL A   1      42.300  22.952  25.922  1.00  0.00     0.163 HD
ATOM     29  O   UNL A   1      42.272  25.266  25.225  1.00  0.00    -0.269 OA
BRANCH  27  30
ATOM     30  C   UNL A   1      41.790  25.873  27.445  1.00  0.00     0.039 A 
ATOM     31  C   UNL A   1      40.677  25.703  28.271  1.00  0.00     0.014 A 
ATOM     32  C   UNL A   1      42.640  26.968  27.628  1.00  0.00     0.014 A 
ATOM     33  C   UNL A   1      40.439  26.609  29.307  1.00  0.00     0.010 A 
ATOM     34  C   UNL A   1      42.443  27.827  28.706  1.00  0.00     0.010 A 
ATOM     35  C   UNL A   1      41.333  27.666  29.546  1.00  0.00    -0.014 A 
BRANCH  35  36
ATOM     36  C   UNL A   1      41.106  28.626  30.656  1.00  0.00     0.031 A 
ATOM     37  C   UNL A   1      41.930  28.531  31.911  1.00  0.00     0.074 A 
ATOM     38  C   UNL A   1      40.122  29.540  30.557  1.00  0.00     0.049 A 
ATOM     39  N   UNL A   1      41.840  29.230  33.013  1.00  0.00    -0.248 NA
ATOM     40  C   UNL A   1      42.976  27.495  31.944  1.00  0.00     0.031 C 
ATOM     41  C   UNL A   1      39.221  29.693  29.411  1.00  0.00     0.029 A 
ATOM     42  N   UNL A   1      39.704  30.505  31.438  1.00  0.00    -0.354 N 
ATOM     43  C   UNL A   1      42.797  28.706  33.875  1.00  0.00     0.074 A 
ATOM     44  C   UNL A   1      43.427  27.601  33.185  1.00  0.00     0.031 C 
ATOM     45  C   UNL A   1      38.367  30.702  29.655  1.00  0.00     0.029 A 
ATOM     46  C   UNL A   1      38.638  31.244  30.983  1.00  0.00     0.049 A 
ATOM     47  H   UNL A   1      40.127  30.654  32.315  1.00  0.00     0.167 HD
ATOM     48  C   UNL A   1      43.133  29.121  35.119  1.00  0.00     0.037 A 
ATOM     49  C   UNL A   1      37.951  32.242  31.573  1.00  0.00     0.037 A 
ATOM     50  C   UNL A   1      42.529  30.247  35.782  1.00  0.00     0.049 A 
ATOM     51  C   UNL A   1      38.363  32.705  32.943  1.00  0.00     0.074 A 
ATOM     52  C   UNL A   1      42.852  30.796  37.011  1.00  0.00     0.029 A 
ATOM     53  N   UNL A   1      41.479  30.996  35.272  1.00  0.00    -0.354 N 
ATOM     54  N   UNL A   1      39.319  32.244  33.714  1.00  0.00    -0.248 NA
ATOM     55  C   UNL A   1      37.611  33.827  33.521  1.00  0.00     0.031 C 
ATOM     56  C   UNL A   1      41.972  31.854  37.260  1.00  0.00     0.029 A 
ATOM     57  C   UNL A   1      41.129  31.992  36.168  1.00  0.00     0.049 A 
ATOM     58  H   UNL A   1      41.047  30.843  34.401  1.00  0.00     0.167 HD
ATOM     59  C   UNL A   1      39.298  33.034  34.859  1.00  0.00     0.074 A 
ATOM     60  C   UNL A   1      38.244  34.009  34.672  1.00  0.00     0.031 C 
ATOM     61  C   UNL A   1      40.081  32.959  35.963  1.00  0.00     0.037 A 
BRANCH  48  62
ATOM     62  C   UNL A   1      44.209  28.359  35.844  1.00  0.00     0.058 A 
ATOM     63  C   UNL A   1      45.567  28.687  35.703  1.00  0.00     0.135 A 
ATOM     64  C   UNL A   1      43.876  27.312  36.719  1.00  0.00     0.135 A 
ATOM     65  F   UNL A   1      45.943  29.669  34.868  1.00  0.00    -0.206 F 
ATOM     66  C   UNL A   1      46.559  27.988  36.384  1.00  0.00     0.059 A 
ATOM     67  C   UNL A   1      44.849  26.617  37.430  1.00  0.00     0.059 A 
ATOM     68  F   UNL A   1      42.593  26.957  36.890  1.00  0.00    -0.206 F 
ATOM     69  C   UNL A   1      46.190  26.953  37.245  1.00  0.00     0.060 A 
BRANCH  69  70
ATOM     70  S   UNL A   1      47.487  26.061  38.129  1.00  0.00     0.124 S 
ATOM     71  O   UNL A   1      48.677  26.478  37.394  1.00  0.00    -0.237 OA
ATOM     72  O   UNL A   1      47.362  26.589  39.484  1.00  0.00    -0.237 OA
ATOM     73  O   UNL A   1      47.107  24.662  37.968  1.00  0.00    -0.744 OA
ENDBRANCH  69  70
ENDBRANCH  48  62
BRANCH  49  74
ATOM     74  C   UNL A   1      36.814  32.882  30.859  1.00  0.00     0.058 A 
ATOM     75  C   UNL A   1      35.488  32.523  31.142  1.00  0.00     0.135 A 
ATOM     76  C   UNL A   1      37.030  33.873  29.889  1.00  0.00     0.135 A 
ATOM     77  F   UNL A   1      35.231  31.577  32.059  1.00  0.00    -0.206 F 
ATOM     78  C   UNL A   1      34.416  33.109  30.478  1.00  0.00     0.059 A 
ATOM     79  C   UNL A   1      35.974  34.491  29.228  1.00  0.00     0.059 A 
ATOM     80  F   UNL A   1      38.280  34.264  29.594  1.00  0.00    -0.206 F 
ATOM     81  C   UNL A   1      34.670  34.094  29.521  1.00  0.00     0.060 A 
BRANCH  81  82
ATOM     82  S   UNL A   1      33.270  34.880  28.694  1.00  0.00     0.124 S 
ATOM     83  O   UNL A   1      32.793  33.800  27.837  1.00  0.00    -0.237 OA
ATOM     84  O   UNL A   1      32.408  35.235  29.815  1.00  0.00    -0.237 OA
ATOM     85  O   UNL A   1      33.884  36.010  28.002  1.00  0.00    -0.744 OA
ENDBRANCH  81  82
ENDBRANCH  49  74
BRANCH  61  86
ATOM     86  C   UNL A   1      39.851  33.977  37.043  1.00  0.00     0.058 A 
ATOM     87  C   UNL A   1      39.082  33.681  38.179  1.00  0.00     0.135 A 
ATOM     88  C   UNL A   1      40.450  35.245  36.966  1.00  0.00     0.135 A 
ATOM     89  F   UNL A   1      38.482  32.486  38.297  1.00  0.00    -0.206 F 
ATOM     90  C   UNL A   1      38.896  34.616  39.193  1.00  0.00     0.059 A 
ATOM     91  C   UNL A   1      40.299  36.185  37.979  1.00  0.00     0.059 A 
ATOM     92  F   UNL A   1      41.204  35.572  35.905  1.00  0.00    -0.206 F 
ATOM     93  C   UNL A   1      39.512  35.866  39.084  1.00  0.00     0.060 A 
BRANCH  93  94
ATOM     94  S   UNL A   1      39.294  37.057  40.423  1.00  0.00     0.124 S 
ATOM     95  O   UNL A   1      40.678  37.332  40.798  1.00  0.00    -0.237 OA
ATOM     96  O   UNL A   1      38.588  38.149  39.761  1.00  0.00    -0.237 OA
ATOM     97  O   UNL A   1      38.512  36.319  41.409  1.00  0.00    -0.744 OA
ENDBRANCH  93  94
ENDBRANCH  61  86
ENDBRANCH  35  36
ENDBRANCH  27  30
ENDBRANCH  25  26
ENDBRANCH  24  25
ENDBRANCH   1  24
TORSDOF 17
ENDMDL
MODEL 2
REMARK VINA RESULT:     -11.5      2.280      4.497
REMARK SMILES C[C@H](CC(=O)NCCCNC(=O)c1ccc(-c2c3nc(c(-c4c(F)cc(S(=O)(=O)[O-])cc4F)c4ccc([nH]4)c(-c4c(F)cc(S(=O)(=O)[O-])cc4F)c4nc(c(-c5c(F)cc(S(=O)(=O)[O-])cc5F)c5ccc2[nH]5)C=C4)C=C3)cc1)NC(=O)Cn1nc2ccccn2c1=O
REMARK SMILES IDX 7 1 6 2 4 3 5 4 3 6 2 7 1 8 79 9 80 10 81 12 82 13 83 14
REMARK SMILES IDX 84 15 91 16 85 17 90 18 92 19 86 20 89 21 87 22 88 23 8 24
REMARK SMILES IDX 9 25 10 26 11 27 12 29 13 30 14 31 78 32 15 33 77 34 16 35
REMARK SMILES IDX 17 36 18 37 71 38 19 39 76 40 70 41 72 42 20 43 75 44 69 45
REMARK SMILES IDX 68 46 21 48 55 49 34 50 54 51 35 52 38 53 53 54 73 55 36 56
REMARK SMILES IDX 37 57 52 59 74 60 39 61 22 62 23 63 32 64 24 65 25 66 31 67
REMARK SMILES IDX 33 68 26 69 27 70 28 71 29 72 30 73 56 74 57 75 66 76 58 77
REMARK SMILES IDX 59 78 65 79 67 80 60 81 61 82 62 83 63 84 64 85 40 86 41 87
REMARK SMILES IDX 50 88 42 89 43 90 49 91 51 92 44 93 45 94 46 95 47 96 48 97
REMARK H PARENT 6 5 79 11 10 28 72 47 38 58
REMARK Flexibility Score: inf
ROOT
ATOM      1  C   UNL A   1      36.008  23.580  26.069  1.00  0.00     0.117 C 
ENDROOT
BRANCH   1   2
ATOM      2  N   UNL A   1      35.267  22.335  25.986  1.00  0.00    -0.356 N 
ATOM      3  C   UNL A   1      34.022  22.040  26.450  1.00  0.00     0.222 C 
ATOM      4  O   UNL A   1      33.642  20.870  26.422  1.00  0.00    -0.275 OA
ATOM      5  H   UNL A   1      35.732  21.597  25.530  1.00  0.00     0.163 HD
BRANCH   3   6
ATOM      6  C   UNL A   1      33.117  23.148  26.927  1.00  0.00     0.124 C 
BRANCH   6   7
ATOM      7  C   UNL A   1      32.124  23.778  25.931  1.00  0.00     0.088 C 
ATOM      8  C   UNL A   1      31.218  22.767  25.233  1.00  0.00     0.031 C 
BRANCH   7   9
ATOM      9  N   UNL A   1      31.342  24.858  26.551  1.00  0.00    -0.352 N 
ATOM     10  C   UNL A   1      31.369  26.212  26.343  1.00  0.00     0.242 C 
ATOM     11  H   UNL A   1      30.691  24.559  27.227  1.00  0.00     0.163 HD
ATOM     12  O   UNL A   1      30.892  26.933  27.224  1.00  0.00    -0.273 OA
BRANCH  10  13
ATOM     13  C   UNL A   1      31.964  26.794  25.065  1.00  0.00     0.249 C 
BRANCH  13  14
ATOM     14  N   UNL A   1      32.845  27.931  25.243  1.00  0.00    -0.203 N 
ATOM     15  N   UNL A   1      34.042  27.783  25.953  1.00  0.00    -0.149 NA
ATOM     16  C   UNL A   1      32.361  29.234  25.429  1.00  0.00     0.350 A 
ATOM     17  C   UNL A   1      34.214  28.938  26.519  1.00  0.00     0.161 A 
ATOM     18  N   UNL A   1      33.244  29.846  26.268  1.00  0.00    -0.250 N 
ATOM     19  O   UNL A   1      31.315  29.712  25.026  1.00  0.00    -0.246 OA
ATOM     20  C   UNL A   1      35.287  29.351  27.447  1.00  0.00     0.050 A 
ATOM     21  C   UNL A   1      33.100  31.047  26.905  1.00  0.00     0.098 A 
ATOM     22  C   UNL A   1      35.141  30.527  28.084  1.00  0.00     0.005 A 
ATOM     23  C   UNL A   1      34.001  31.392  27.834  1.00  0.00     0.019 A 
ENDBRANCH  13  14
ENDBRANCH  10  13
ENDBRANCH   7   9
ENDBRANCH   6   7
ENDBRANCH   3   6
ENDBRANCH   1   2
BRANCH   1  24
ATOM     24  C   UNL A   1      37.481  23.358  25.740  1.00  0.00     0.042 C 
BRANCH  24  25
ATOM     25  C   UNL A   1      38.423  24.232  26.552  1.00  0.00     0.118 C 
BRANCH  25  26
ATOM     26  N   UNL A   1      39.800  24.109  26.109  1.00  0.00    -0.352 N 
ATOM     27  C   UNL A   1      40.888  24.868  26.460  1.00  0.00     0.251 C 
ATOM     28  H   UNL A   1      39.977  23.382  25.470  1.00  0.00     0.163 HD
ATOM     29  O   UNL A   1      41.936  24.751  25.833  1.00  0.00    -0.269 OA
BRANCH  27  30
ATOM     30  C   UNL A   1      40.790  25.833  27.578  1.00  0.00     0.039 A 
ATOM     31  C   UNL A   1      41.716  26.877  27.646  1.00  0.00     0.014 A 
ATOM     32  C   UNL A   1      39.806  25.702  28.563  1.00  0.00     0.014 A 
ATOM     33  C   UNL A   1      41.632  27.811  28.681  1.00  0.00     0.010 A 
ATOM     34  C   UNL A   1      39.679  26.675  29.550  1.00  0.00     0.010 A 
ATOM     35  C   UNL A   1      40.599  27.729  29.629  1.00  0.00    -0.014 A 
BRANCH  35  36
ATOM     36  C   UNL A   1      40.482  28.726  30.724  1.00  0.00     0.031 A 
ATOM     37  C   UNL A   1      41.341  28.595  31.953  1.00  0.00     0.074 A 
ATOM     38  C   UNL A   1      39.564  29.708  30.637  1.00  0.00     0.049 A 
ATOM     39  N   UNL A   1      41.340  29.320  33.041  1.00  0.00    -0.248 NA
ATOM     40  C   UNL A   1      42.308  27.485  31.974  1.00  0.00     0.031 C 
ATOM     41  C   UNL A   1      38.638  29.905  29.519  1.00  0.00     0.029 A 
ATOM     42  N   UNL A   1      39.250  30.718  31.509  1.00  0.00    -0.354 N 
ATOM     43  C   UNL A   1      42.286  28.744  33.882  1.00  0.00     0.074 A 
ATOM     44  C   UNL A   1      42.809  27.582  33.196  1.00  0.00     0.031 C 
ATOM     45  C   UNL A   1      37.870  30.978  29.768  1.00  0.00     0.029 A 
ATOM     46  C   UNL A   1      38.226  31.525  31.074  1.00  0.00     0.049 A 
ATOM     47  H   UNL A   1      39.713  30.853  32.368  1.00  0.00     0.167 HD
ATOM     48  C   UNL A   1      42.695  29.158  35.104  1.00  0.00     0.037 A 
ATOM     49  C   UNL A   1      37.634  32.583  31.664  1.00  0.00     0.037 A 
ATOM     50  C   UNL A   1      42.199  30.338  35.762  1.00  0.00     0.049 A 
ATOM     51  C   UNL A   1      38.127  33.041  33.009  1.00  0.00     0.074 A 
ATOM     52  C   UNL A   1      42.604  30.887  36.966  1.00  0.00     0.029 A 
ATOM     53  N   UNL A   1      41.189  31.153  35.271  1.00  0.00    -0.354 N 
ATOM     54  N   UNL A   1      39.073  32.526  33.758  1.00  0.00    -0.248 NA
ATOM     55  C   UNL A   1      37.480  34.227  33.587  1.00  0.00     0.031 C 
ATOM     56  C   UNL A   1      41.813  32.012  37.221  1.00  0.00     0.029 A 
ATOM     57  C   UNL A   1      40.945  32.190  36.155  1.00  0.00     0.049 A 
ATOM     58  H   UNL A   1      40.717  31.015  34.418  1.00  0.00     0.167 HD
ATOM     59  C   UNL A   1      39.150  33.338  34.884  1.00  0.00     0.074 A 
ATOM     60  C   UNL A   1      38.165  34.385  34.711  1.00  0.00     0.031 C 
ATOM     61  C   UNL A   1      39.964  33.228  35.963  1.00  0.00     0.037 A 
BRANCH  48  62
ATOM     62  C   UNL A   1      43.737  28.333  35.809  1.00  0.00     0.058 A 
ATOM     63  C   UNL A   1      45.110  28.570  35.632  1.00  0.00     0.135 A 
ATOM     64  C   UNL A   1      43.358  27.318  36.702  1.00  0.00     0.135 A 
ATOM     65  F   UNL A   1      45.527  29.519  34.779  1.00  0.00    -0.206 F 
ATOM     66  C   UNL A   1      46.070  27.814  36.295  1.00  0.00     0.059 A 
ATOM     67  C   UNL A   1      44.301  26.565  37.396  1.00  0.00     0.059 A 
ATOM     68  F   UNL A   1      42.059  27.049  36.908  1.00  0.00    -0.206 F 
ATOM     69  C   UNL A   1      45.656  26.812  37.175  1.00  0.00     0.060 A 
BRANCH  69  70
ATOM     70  S   UNL A   1      46.914  25.844  38.035  1.00  0.00     0.124 S 
ATOM     71  O   UNL A   1      47.041  26.583  39.288  1.00  0.00    -0.237 OA
ATOM     72  O   UNL A   1      46.285  24.531  38.135  1.00  0.00    -0.237 OA
ATOM     73  O   UNL A   1      48.067  25.917  37.145  1.00  0.00    -0.744 OA
ENDBRANCH  69  70
ENDBRANCH  48  62
BRANCH  49  74
ATOM     74  C   UNL A   1      36.524  33.291  30.975  1.00  0.00     0.058 A 
ATOM     75  C   UNL A   1      36.770  34.120  29.870  1.00  0.00     0.135 A 
ATOM     76  C   UNL A   1      35.194  33.145  31.398  1.00  0.00     0.135 A 
ATOM     77  F   UNL A   1      38.026  34.296  29.431  1.00  0.00    -0.206 F 
ATOM     78  C   UNL A   1      35.741  34.793  29.219  1.00  0.00     0.059 A 
ATOM     79  C   UNL A   1      34.145  33.788  30.749  1.00  0.00     0.059 A 
ATOM     80  F   UNL A   1      34.903  32.348  32.439  1.00  0.00    -0.206 F 
ATOM     81  C   UNL A   1      34.430  34.620  29.668  1.00  0.00     0.060 A 
BRANCH  81  82
ATOM     82  S   UNL A   1      33.096  35.464  28.791  1.00  0.00     0.124 S 
ATOM     83  O   UNL A   1      33.837  36.442  28.002  1.00  0.00    -0.237 OA
ATOM     84  O   UNL A   1      32.479  34.373  28.042  1.00  0.00    -0.237 OA
ATOM     85  O   UNL A   1      32.281  36.012  29.871  1.00  0.00    -0.744 OA
ENDBRANCH  81  82
ENDBRANCH  49  74
BRANCH  61  86
ATOM     86  C   UNL A   1      39.847  34.281  37.027  1.00  0.00     0.058 A 
ATOM     87  C   UNL A   1      40.479  35.528  36.901  1.00  0.00     0.135 A 
ATOM     88  C   UNL A   1      39.049  34.060  38.162  1.00  0.00     0.135 A 
ATOM     89  F   UNL A   1      41.257  35.786  35.838  1.00  0.00    -0.206 F 
ATOM     90  C   UNL A   1      40.342  36.513  37.874  1.00  0.00     0.059 A 
ATOM     91  C   UNL A   1      38.878  35.039  39.135  1.00  0.00     0.059 A 
ATOM     92  F   UNL A   1      38.415  32.888  38.325  1.00  0.00    -0.206 F 
ATOM     93  C   UNL A   1      39.538  36.259  38.988  1.00  0.00     0.060 A 
BRANCH  93  94
ATOM     94  S   UNL A   1      39.338  37.557  40.226  1.00  0.00     0.124 S 
ATOM     95  O   UNL A   1      40.689  38.107  40.294  1.00  0.00    -0.237 OA
ATOM     96  O   UNL A   1      38.332  38.420  39.617  1.00  0.00    -0.237 OA
ATOM     97  O   UNL A   1      38.897  36.829  41.411  1.00  0.00    -0.744 OA
ENDBRANCH  93  94
ENDBRANCH  61  86
ENDBRANCH  35  36
ENDBRANCH  27  30
ENDBRANCH  25  26
ENDBRANCH  24  25
ENDBRANCH   1  24
TORSDOF 17
ENDMDL
MODEL 3
REMARK VINA RESULT:     -11.5      3.667      5.777
REMARK SMILES C[C@H](CC(=O)NCCCNC(=O)c1ccc(-c2c3nc(c(-c4c(F)cc(S(=O)(=O)[O-])cc4F)c4ccc([nH]4)c(-c4c(F)cc(S(=O)(=O)[O-])cc4F)c4nc(c(-c5c(F)cc(S(=O)(=O)[O-])cc5F)c5ccc2[nH]5)C=C4)C=C3)cc1)NC(=O)Cn1nc2ccccn2c1=O
REMARK SMILES IDX 7 1 6 2 4 3 5 4 3 6 2 7 1 8 79 9 80 10 81 12 82 13 83 14
REMARK SMILES IDX 84 15 91 16 85 17 90 18 92 19 86 20 89 21 87 22 88 23 8 24
REMARK SMILES IDX 9 25 10 26 11 27 12 29 13 30 14 31 78 32 15 33 77 34 16 35
REMARK SMILES IDX 17 36 18 37 71 38 19 39 76 40 70 41 72 42 20 43 75 44 69 45
REMARK SMILES IDX 68 46 21 48 55 49 34 50 54 51 35 52 38 53 53 54 73 55 36 56
REMARK SMILES IDX 37 57 52 59 74 60 39 61 22 62 23 63 32 64 24 65 25 66 31 67
REMARK SMILES IDX 33 68 26 69 27 70 28 71 29 72 30 73 56 74 57 75 66 76 58 77
REMARK SMILES IDX 59 78 65 79 67 80 60 81 61 82 62 83 63 84 64 85 40 86 41 87
REMARK SMILES IDX 50 88 42 89 43 90 49 91 51 92 44 93 45 94 46 95 47 96 48 97
REMARK H PARENT 6 5 79 11 10 28 72 47 38 58
REMARK Flexibility Score: inf
ROOT
ATOM      1  C   UNL A   1      42.153  20.789  27.289  1.00  0.00     0.117 C 
ENDROOT
BRANCH   1   2
ATOM      2  N   UNL A   1      42.055  19.465  26.704  1.00  0.00    -0.356 N 
ATOM      3  C   UNL A   1      42.991  18.753  26.020  1.00  0.00     0.222 C 
ATOM      4  O   UNL A   1      42.651  17.711  25.461  1.00  0.00    -0.275 OA
ATOM      5  H   UNL A   1      41.186  19.017  26.818  1.00  0.00     0.163 HD
BRANCH   3   6
ATOM      6  C   UNL A   1      44.427  19.217  26.009  1.00  0.00     0.124 C 
BRANCH   6   7
ATOM      7  C   UNL A   1      44.998  19.838  24.720  1.00  0.00     0.088 C 
ATOM      8  C   UNL A   1      45.273  18.826  23.611  1.00  0.00     0.031 C 
BRANCH   7   9
ATOM      9  N   UNL A   1      44.165  20.948  24.234  1.00  0.00    -0.352 N 
ATOM     10  C   UNL A   1      44.247  22.295  24.471  1.00  0.00     0.242 C 
ATOM     11  H   UNL A   1      43.426  20.680  23.642  1.00  0.00     0.163 HD
ATOM     12  O   UNL A   1      43.239  22.974  24.257  1.00  0.00    -0.273 OA
BRANCH  10  13
ATOM     13  C   UNL A   1      45.543  22.921  24.977  1.00  0.00     0.249 C 
BRANCH  13  14
ATOM     14  N   UNL A   1      45.657  23.057  26.416  1.00  0.00    -0.203 N 
ATOM     15  N   UNL A   1      44.526  22.895  27.223  1.00  0.00    -0.149 NA
ATOM     16  C   UNL A   1      46.520  23.984  27.016  1.00  0.00     0.350 A 
ATOM     17  C   UNL A   1      44.736  23.700  28.219  1.00  0.00     0.161 A 
ATOM     18  N   UNL A   1      45.894  24.396  28.155  1.00  0.00    -0.250 N 
ATOM     19  O   UNL A   1      47.567  24.430  26.580  1.00  0.00    -0.246 OA
ATOM     20  C   UNL A   1      43.845  23.996  29.360  1.00  0.00     0.050 A 
ATOM     21  C   UNL A   1      46.237  25.438  28.970  1.00  0.00     0.098 A 
ATOM     22  C   UNL A   1      44.174  25.029  30.156  1.00  0.00     0.005 A 
ATOM     23  C   UNL A   1      45.389  25.798  29.942  1.00  0.00     0.019 A 
ENDBRANCH  13  14
ENDBRANCH  10  13
ENDBRANCH   7   9
ENDBRANCH   6   7
ENDBRANCH   3   6
ENDBRANCH   1   2
BRANCH   1  24
ATOM     24  C   UNL A   1      40.794  21.481  27.298  1.00  0.00     0.042 C 
BRANCH  24  25
ATOM     25  C   UNL A   1      40.875  22.978  27.553  1.00  0.00     0.118 C 
BRANCH  25  26
ATOM     26  N   UNL A   1      41.340  23.707  26.387  1.00  0.00    -0.352 N 
ATOM     27  C   UNL A   1      41.448  25.063  26.206  1.00  0.00     0.251 C 
ATOM     28  H   UNL A   1      41.614  23.153  25.621  1.00  0.00     0.163 HD
ATOM     29  O   UNL A   1      41.667  25.509  25.085  1.00  0.00    -0.269 OA
BRANCH  27  30
ATOM     30  C   UNL A   1      41.285  25.980  27.357  1.00  0.00     0.039 A 
ATOM     31  C   UNL A   1      42.271  26.940  27.593  1.00  0.00     0.014 A 
ATOM     32  C   UNL A   1      40.179  25.884  28.208  1.00  0.00     0.014 A 
ATOM     33  C   UNL A   1      42.129  27.829  28.661  1.00  0.00     0.010 A 
ATOM     34  C   UNL A   1      40.003  26.818  29.225  1.00  0.00     0.010 A 
ATOM     35  C   UNL A   1      40.983  27.789  29.472  1.00  0.00    -0.014 A 
BRANCH  35  36
ATOM     36  C   UNL A   1      40.807  28.741  30.599  1.00  0.00     0.031 A 
ATOM     37  C   UNL A   1      41.635  28.588  31.846  1.00  0.00     0.074 A 
ATOM     38  C   UNL A   1      39.863  29.698  30.522  1.00  0.00     0.049 A 
ATOM     39  N   UNL A   1      41.583  29.272  32.960  1.00  0.00    -0.248 NA
ATOM     40  C   UNL A   1      42.634  27.507  31.854  1.00  0.00     0.031 C 
ATOM     41  C   UNL A   1      38.962  29.910  29.386  1.00  0.00     0.029 A 
ATOM     42  N   UNL A   1      39.495  30.666  31.421  1.00  0.00    -0.354 N 
ATOM     43  C   UNL A   1      42.522  28.693  33.806  1.00  0.00     0.074 A 
ATOM     44  C   UNL A   1      43.098  27.573  33.093  1.00  0.00     0.031 C 
ATOM     45  C   UNL A   1      38.156  30.950  29.652  1.00  0.00     0.029 A 
ATOM     46  C   UNL A   1      38.459  31.459  30.986  1.00  0.00     0.049 A 
ATOM     47  H   UNL A   1      39.930  30.782  32.297  1.00  0.00     0.167 HD
ATOM     48  C   UNL A   1      42.885  29.073  35.054  1.00  0.00     0.037 A 
ATOM     49  C   UNL A   1      37.821  32.476  31.598  1.00  0.00     0.037 A 
ATOM     50  C   UNL A   1      42.336  30.213  35.739  1.00  0.00     0.049 A 
ATOM     51  C   UNL A   1      38.262  32.898  32.972  1.00  0.00     0.074 A 
ATOM     52  C   UNL A   1      42.692  30.727  36.974  1.00  0.00     0.029 A 
ATOM     53  N   UNL A   1      41.316  31.015  35.249  1.00  0.00    -0.354 N 
ATOM     54  N   UNL A   1      39.203  32.383  33.728  1.00  0.00    -0.248 NA
ATOM     55  C   UNL A   1      37.565  34.042  33.573  1.00  0.00     0.031 C 
ATOM     56  C   UNL A   1      41.861  31.819  37.247  1.00  0.00     0.029 A 
ATOM     57  C   UNL A   1      41.017  32.011  36.164  1.00  0.00     0.049 A 
ATOM     58  H   UNL A   1      40.872  30.896  34.379  1.00  0.00     0.167 HD
ATOM     59  C   UNL A   1      39.225  33.154  34.885  1.00  0.00     0.074 A 
ATOM     60  C   UNL A   1      38.214  34.178  34.722  1.00  0.00     0.031 C 
ATOM     61  C   UNL A   1      40.011  33.027  35.982  1.00  0.00     0.037 A 
BRANCH  48  62
ATOM     62  C   UNL A   1      43.932  28.252  35.758  1.00  0.00     0.058 A 
ATOM     63  C   UNL A   1      45.302  28.515  35.602  1.00  0.00     0.135 A 
ATOM     64  C   UNL A   1      43.559  27.215  36.627  1.00  0.00     0.135 A 
ATOM     65  F   UNL A   1      45.715  29.485  34.771  1.00  0.00    -0.206 F 
ATOM     66  C   UNL A   1      46.267  27.762  36.264  1.00  0.00     0.059 A 
ATOM     67  C   UNL A   1      44.505  26.466  37.320  1.00  0.00     0.059 A 
ATOM     68  F   UNL A   1      42.262  26.921  36.812  1.00  0.00    -0.206 F 
ATOM     69  C   UNL A   1      45.858  26.738  37.121  1.00  0.00     0.060 A 
BRANCH  69  70
ATOM     70  S   UNL A   1      47.121  25.776  37.981  1.00  0.00     0.124 S 
ATOM     71  O   UNL A   1      47.750  25.067  36.871  1.00  0.00    -0.237 OA
ATOM     72  O   UNL A   1      47.932  26.815  38.610  1.00  0.00    -0.237 OA
ATOM     73  O   UNL A   1      46.349  24.946  38.899  1.00  0.00    -0.744 OA
ENDBRANCH  69  70
ENDBRANCH  48  62
BRANCH  49  74
ATOM     74  C   UNL A   1      36.709  33.177  30.903  1.00  0.00     0.058 A 
ATOM     75  C   UNL A   1      35.375  32.979  31.291  1.00  0.00     0.135 A 
ATOM     76  C   UNL A   1      36.957  34.066  29.846  1.00  0.00     0.135 A 
ATOM     77  F   UNL A   1      35.087  32.134  32.293  1.00  0.00    -0.206 F 
ATOM     78  C   UNL A   1      34.325  33.624  30.645  1.00  0.00     0.059 A 
ATOM     79  C   UNL A   1      35.926  34.741  29.201  1.00  0.00     0.059 A 
ATOM     80  F   UNL A   1      38.218  34.303  29.449  1.00  0.00    -0.206 F 
ATOM     81  C   UNL A   1      34.612  34.504  29.600  1.00  0.00     0.060 A 
BRANCH  81  82
ATOM     82  S   UNL A   1      33.245  35.369  28.796  1.00  0.00     0.124 S 
ATOM     83  O   UNL A   1      32.504  35.879  29.945  1.00  0.00    -0.237 OA
ATOM     84  O   UNL A   1      33.942  36.367  27.991  1.00  0.00    -0.237 OA
ATOM     85  O   UNL A   1      32.582  34.313  28.037  1.00  0.00    -0.744 OA
ENDBRANCH  81  82
ENDBRANCH  49  74
BRANCH  61  86
ATOM     86  C   UNL A   1      39.834  34.036  37.080  1.00  0.00     0.058 A 
ATOM     87  C   UNL A   1      40.309  35.351  36.954  1.00  0.00     0.135 A 
ATOM     88  C   UNL A   1      39.133  33.699  38.250  1.00  0.00     0.135 A 
ATOM     89  F   UNL A   1      40.990  35.721  35.859  1.00  0.00    -0.206 F 
ATOM     90  C   UNL A   1      40.115  36.292  37.961  1.00  0.00     0.059 A 
ATOM     91  C   UNL A   1      38.905  34.630  39.257  1.00  0.00     0.059 A 
ATOM     92  F   UNL A   1      38.649  32.457  38.413  1.00  0.00    -0.206 F 
ATOM     93  C   UNL A   1      39.409  35.921  39.109  1.00  0.00     0.060 A 
BRANCH  93  94
ATOM     94  S   UNL A   1      39.132  37.160  40.392  1.00  0.00     0.124 S 
ATOM     95  O   UNL A   1      38.527  38.245  39.625  1.00  0.00    -0.237 OA
ATOM     96  O   UNL A   1      38.243  36.463  41.315  1.00  0.00    -0.237 OA
ATOM     97  O   UNL A   1      40.473  37.424  40.903  1.00  0.00    -0.744 OA
ENDBRANCH  93  94
ENDBRANCH  61  86
ENDBRANCH  35  36
ENDBRANCH  27  30
ENDBRANCH  25  26
ENDBRANCH  24  25
ENDBRANCH   1  24
TORSDOF 17
ENDMDL
