MODEL 1
REMARK VINA RESULT:     -13.5      0.000      0.000
REMARK SMILES O=C(Nc1ccccc1)N[C@H]1C[C@@H](C(=O)NCCCNC(=O)c2ccc(-c3c4nc(c(-c5c(F)cc(S(=O)(=O)[O-])cc5F)c5ccc([nH]5)c(-c5c(F)cc(S(=O)(=O)[O-])cc5F)c5nc(c(-c6c(F)cc(S(=O)(=O)[O-])cc6F)c6ccc3[nH]6)C=C5)C=C4)cc2)Nc2cc(Cl)cc(Cl)c21
REMARK SMILES IDX 18 1 17 2 16 3 14 4 15 5 13 7 11 8 12 9 97 10 90 11 95 12
REMARK SMILES IDX 89 13 91 14 94 15 96 16 92 18 93 19 10 20 1 21 2 22 3 23
REMARK SMILES IDX 4 26 5 27 9 28 6 29 8 30 7 31 19 32 20 33 21 34 22 36 23 37
REMARK SMILES IDX 24 38 88 39 25 40 87 41 26 42 27 43 28 44 81 45 29 46 86 47
REMARK SMILES IDX 80 48 82 49 30 50 85 51 79 52 78 53 31 55 65 56 44 57 64 58
REMARK SMILES IDX 45 59 48 60 63 61 83 62 46 63 47 64 62 66 84 67 49 68 32 69
REMARK SMILES IDX 33 70 42 71 34 72 35 73 41 74 43 75 36 76 37 77 38 78 39 79
REMARK SMILES IDX 40 80 66 81 67 82 76 83 68 84 69 85 75 86 77 87 70 88 71 89
REMARK SMILES IDX 72 90 73 91 74 92 50 93 51 94 60 95 52 96 53 97 59 98 61 99
REMARK SMILES IDX 54 100 55 101 56 102 57 103 58 104
REMARK H PARENT 16 6 89 17 3 24 10 25 20 35 82 54 48 65
REMARK Flexibility Score: inf
ROOT
ATOM      1  C   UNL A   1      40.358  21.770  27.136  1.00  0.00     0.042 C 
ENDROOT
BRANCH   1   2
ATOM      2  C   UNL A   1      39.251  21.808  26.082  1.00  0.00     0.117 C 
BRANCH   2   3
ATOM      3  N   UNL A   1      38.275  22.826  26.409  1.00  0.00    -0.354 N 
ATOM      4  C   UNL A   1      37.112  23.168  25.786  1.00  0.00     0.242 C 
ATOM      5  O   UNL A   1      36.601  24.237  26.144  1.00  0.00    -0.273 OA
ATOM      6  H   UNL A   1      38.486  23.356  27.211  1.00  0.00     0.163 HD
BRANCH   4   7
ATOM      7  C   UNL A   1      36.371  22.207  24.812  1.00  0.00     0.171 C 
ATOM      8  C   UNL A   1      34.129  22.705  23.575  1.00  0.00     0.120 C 
ATOM      9  C   UNL A   1      35.663  22.772  23.577  1.00  0.00     0.065 C 
ATOM     10  C   UNL A   1      33.730  21.295  23.937  1.00  0.00     0.016 A 
ATOM     11  C   UNL A   1      34.426  20.688  24.999  1.00  0.00     0.043 A 
ATOM     12  C   UNL A   1      32.656  20.618  23.346  1.00  0.00     0.049 A 
ATOM     13  N   UNL A   1      35.497  21.331  25.597  1.00  0.00    -0.373 N 
ATOM     14  C   UNL A   1      33.986  19.470  25.513  1.00  0.00     0.046 A 
ATOM     15  C   UNL A   1      32.257  19.370  23.828  1.00  0.00     0.041 A 
ATOM     16  Cl  UNL A   1      31.782  21.276  22.009  1.00  0.00    -0.084 Cl
ATOM     17  H   UNL A   1      35.671  21.199  26.557  1.00  0.00     0.161 HD
ATOM     18  C   UNL A   1      32.913  18.815  24.922  1.00  0.00     0.044 A 
ATOM     19  Cl  UNL A   1      32.398  17.294  25.543  1.00  0.00    -0.084 Cl
BRANCH   8  20
ATOM     20  N   UNL A   1      33.480  23.796  24.332  1.00  0.00    -0.331 N 
ATOM     21  O   UNL A   1      31.545  24.033  23.118  1.00  0.00    -0.248 OA
ATOM     22  C   UNL A   1      32.296  24.391  24.023  1.00  0.00     0.319 C 
ATOM     23  N   UNL A   1      31.827  25.379  24.819  1.00  0.00    -0.308 N 
ATOM     24  H   UNL A   1      30.845  25.435  24.792  1.00  0.00     0.171 HD
ATOM     25  H   UNL A   1      33.948  24.123  25.134  1.00  0.00     0.166 HD
BRANCH  23  26
ATOM     26  C   UNL A   1      32.378  26.344  25.671  1.00  0.00     0.042 A 
ATOM     27  C   UNL A   1      31.472  26.966  26.548  1.00  0.00     0.026 A 
ATOM     28  C   UNL A   1      33.690  26.809  25.616  1.00  0.00     0.026 A 
ATOM     29  C   UNL A   1      31.867  28.023  27.366  1.00  0.00     0.002 A 
ATOM     30  C   UNL A   1      34.082  27.884  26.428  1.00  0.00     0.002 A 
ATOM     31  C   UNL A   1      33.174  28.487  27.302  1.00  0.00     0.000 A 
ENDBRANCH  23  26
ENDBRANCH   8  20
ENDBRANCH   4   7
ENDBRANCH   2   3
ENDBRANCH   1   2
BRANCH   1  32
ATOM     32  C   UNL A   1      40.899  23.139  27.512  1.00  0.00     0.118 C 
BRANCH  32  33
ATOM     33  N   UNL A   1      41.426  23.850  26.364  1.00  0.00    -0.352 N 
ATOM     34  C   UNL A   1      41.506  25.199  26.142  1.00  0.00     0.251 C 
ATOM     35  H   UNL A   1      41.775  23.282  25.640  1.00  0.00     0.163 HD
ATOM     36  O   UNL A   1      41.730  25.605  24.998  1.00  0.00    -0.269 OA
BRANCH  34  37
ATOM     37  C   UNL A   1      41.312  26.163  27.248  1.00  0.00     0.039 A 
ATOM     38  C   UNL A   1      40.241  25.978  28.125  1.00  0.00     0.014 A 
ATOM     39  C   UNL A   1      42.156  27.268  27.403  1.00  0.00     0.014 A 
ATOM     40  C   UNL A   1      40.044  26.875  29.178  1.00  0.00     0.010 A 
ATOM     41  C   UNL A   1      42.016  28.104  28.508  1.00  0.00     0.010 A 
ATOM     42  C   UNL A   1      40.946  27.930  29.395  1.00  0.00    -0.014 A 
BRANCH  42  43
ATOM     43  C   UNL A   1      40.769  28.876  30.526  1.00  0.00     0.031 A 
ATOM     44  C   UNL A   1      41.617  28.739  31.764  1.00  0.00     0.074 A 
ATOM     45  C   UNL A   1      39.810  29.821  30.459  1.00  0.00     0.049 A 
ATOM     46  N   UNL A   1      41.568  29.425  32.877  1.00  0.00    -0.248 NA
ATOM     47  C   UNL A   1      42.636  27.674  31.763  1.00  0.00     0.031 C 
ATOM     48  C   UNL A   1      38.892  30.018  29.334  1.00  0.00     0.029 A 
ATOM     49  N   UNL A   1      39.439  30.788  31.359  1.00  0.00    -0.354 N 
ATOM     50  C   UNL A   1      42.530  28.865  33.710  1.00  0.00     0.074 A 
ATOM     51  C   UNL A   1      43.114  27.752  32.997  1.00  0.00     0.031 C 
ATOM     52  C   UNL A   1      38.080  31.054  29.602  1.00  0.00     0.029 A 
ATOM     53  C   UNL A   1      38.390  31.569  30.932  1.00  0.00     0.049 A 
ATOM     54  H   UNL A   1      39.883  30.913  32.229  1.00  0.00     0.167 HD
ATOM     55  C   UNL A   1      42.908  29.259  34.949  1.00  0.00     0.037 A 
ATOM     56  C   UNL A   1      37.743  32.578  31.547  1.00  0.00     0.037 A 
ATOM     57  C   UNL A   1      42.349  30.395  35.636  1.00  0.00     0.049 A 
ATOM     58  C   UNL A   1      38.196  33.006  32.919  1.00  0.00     0.074 A 
ATOM     59  C   UNL A   1      42.712  30.919  36.865  1.00  0.00     0.029 A 
ATOM     60  N   UNL A   1      41.313  31.182  35.156  1.00  0.00    -0.354 N 
ATOM     61  N   UNL A   1      39.155  32.509  33.661  1.00  0.00    -0.248 NA
ATOM     62  C   UNL A   1      37.487  34.138  33.531  1.00  0.00     0.031 C 
ATOM     63  C   UNL A   1      41.861  31.991  37.151  1.00  0.00     0.029 A 
ATOM     64  C   UNL A   1      41.008  32.172  36.074  1.00  0.00     0.049 A 
ATOM     65  H   UNL A   1      40.861  31.054  34.291  1.00  0.00     0.167 HD
ATOM     66  C   UNL A   1      39.187  33.288  34.813  1.00  0.00     0.074 A 
ATOM     67  C   UNL A   1      38.159  34.298  34.661  1.00  0.00     0.031 C 
ATOM     68  C   UNL A   1      39.993  33.179  35.899  1.00  0.00     0.037 A 
BRANCH  55  69
ATOM     69  C   UNL A   1      43.981  28.472  35.649  1.00  0.00     0.058 A 
ATOM     70  C   UNL A   1      45.343  28.753  35.466  1.00  0.00     0.135 A 
ATOM     71  C   UNL A   1      43.640  27.472  36.575  1.00  0.00     0.135 A 
ATOM     72  F   UNL A   1      45.728  29.686  34.579  1.00  0.00    -0.206 F 
ATOM     73  C   UNL A   1      46.330  28.068  36.167  1.00  0.00     0.059 A 
ATOM     74  C   UNL A   1      44.607  26.793  37.310  1.00  0.00     0.059 A 
ATOM     75  F   UNL A   1      42.351  27.157  36.786  1.00  0.00    -0.206 F 
ATOM     76  C   UNL A   1      45.951  27.094  37.094  1.00  0.00     0.060 A 
BRANCH  76  77
ATOM     77  S   UNL A   1      47.243  26.247  38.029  1.00  0.00     0.124 S 
ATOM     78  O   UNL A   1      47.867  27.361  38.738  1.00  0.00    -0.237 OA
ATOM     79  O   UNL A   1      46.473  25.323  38.854  1.00  0.00    -0.237 OA
ATOM     80  O   UNL A   1      48.062  25.626  36.993  1.00  0.00    -0.744 OA
ENDBRANCH  76  77
ENDBRANCH  55  69
BRANCH  56  81
ATOM     81  C   UNL A   1      36.604  33.260  30.875  1.00  0.00     0.058 A 
ATOM     82  C   UNL A   1      36.816  34.150  29.811  1.00  0.00     0.135 A 
ATOM     83  C   UNL A   1      35.281  33.047  31.294  1.00  0.00     0.135 A 
ATOM     84  F   UNL A   1      38.062  34.388  29.373  1.00  0.00    -0.206 F 
ATOM     85  C   UNL A   1      35.763  34.832  29.210  1.00  0.00     0.059 A 
ATOM     86  C   UNL A   1      34.209  33.695  30.689  1.00  0.00     0.059 A 
ATOM     87  F   UNL A   1      35.020  32.188  32.291  1.00  0.00    -0.206 F 
ATOM     88  C   UNL A   1      34.462  34.600  29.660  1.00  0.00     0.060 A 
BRANCH  88  89
ATOM     89  S   UNL A   1      33.099  35.478  28.863  1.00  0.00     0.124 S 
ATOM     90  O   UNL A   1      32.464  34.405  28.107  1.00  0.00    -0.237 OA
ATOM     91  O   UNL A   1      32.351  35.985  30.008  1.00  0.00    -0.237 OA
ATOM     92  O   UNL A   1      33.780  36.495  28.067  1.00  0.00    -0.744 OA
ENDBRANCH  88  89
ENDBRANCH  56  81
BRANCH  68  93
ATOM     93  C   UNL A   1      39.831  34.205  36.987  1.00  0.00     0.058 A 
ATOM     94  C   UNL A   1      40.438  35.468  36.911  1.00  0.00     0.135 A 
ATOM     95  C   UNL A   1      39.014  33.935  38.098  1.00  0.00     0.135 A 
ATOM     96  F   UNL A   1      41.231  35.776  35.873  1.00  0.00    -0.206 F 
ATOM     97  C   UNL A   1      40.266  36.416  37.914  1.00  0.00     0.059 A 
ATOM     98  C   UNL A   1      38.802  34.880  39.096  1.00  0.00     0.059 A 
ATOM     99  F   UNL A   1      38.399  32.747  38.212  1.00  0.00    -0.206 F 
ATOM    100  C   UNL A   1      39.445  36.113  39.002  1.00  0.00     0.060 A 
BRANCH 100 101
ATOM    101  S   UNL A   1      39.210  37.362  40.284  1.00  0.00     0.124 S 
ATOM    102  O   UNL A   1      38.301  38.294  39.624  1.00  0.00    -0.237 OA
ATOM    103  O   UNL A   1      38.638  36.583  41.377  1.00  0.00    -0.237 OA
ATOM    104  O   UNL A   1      40.561  37.864  40.520  1.00  0.00    -0.744 OA
ENDBRANCH 100 101
ENDBRANCH  68  93
ENDBRANCH  42  43
ENDBRANCH  34  37
ENDBRANCH  32  33
ENDBRANCH   1  32
TORSDOF 15
ENDMDL
MODEL 2
REMARK VINA RESULT:     -13.4      1.512      3.520
REMARK SMILES O=C(Nc1ccccc1)N[C@H]1C[C@@H](C(=O)NCCCNC(=O)c2ccc(-c3c4nc(c(-c5c(F)cc(S(=O)(=O)[O-])cc5F)c5ccc([nH]5)c(-c5c(F)cc(S(=O)(=O)[O-])cc5F)c5nc(c(-c6c(F)cc(S(=O)(=O)[O-])cc6F)c6ccc3[nH]6)C=C5)C=C4)cc2)Nc2cc(Cl)cc(Cl)c21
REMARK SMILES IDX 18 1 17 2 16 3 14 4 15 5 13 7 11 8 12 9 97 10 90 11 95 12
REMARK SMILES IDX 89 13 91 14 94 15 96 16 92 18 93 19 10 20 1 21 2 22 3 23
REMARK SMILES IDX 4 26 5 27 9 28 6 29 8 30 7 31 19 32 20 33 21 34 22 36 23 37
REMARK SMILES IDX 24 38 88 39 25 40 87 41 26 42 27 43 28 44 81 45 29 46 86 47
REMARK SMILES IDX 80 48 82 49 30 50 85 51 79 52 78 53 31 55 65 56 44 57 64 58
REMARK SMILES IDX 45 59 48 60 63 61 83 62 46 63 47 64 62 66 84 67 49 68 32 69
REMARK SMILES IDX 33 70 42 71 34 72 35 73 41 74 43 75 36 76 37 77 38 78 39 79
REMARK SMILES IDX 40 80 66 81 67 82 76 83 68 84 69 85 75 86 77 87 70 88 71 89
REMARK SMILES IDX 72 90 73 91 74 92 50 93 51 94 60 95 52 96 53 97 59 98 61 99
REMARK SMILES IDX 54 100 55 101 56 102 57 103 58 104
REMARK H PARENT 16 6 89 17 3 24 10 25 20 35 82 54 48 65
REMARK Flexibility Score: inf
ROOT
ATOM      1  C   UNL A   1      40.257  22.294  27.088  1.00  0.00     0.042 C 
ENDROOT
BRANCH   1   2
ATOM      2  C   UNL A   1      39.002  23.082  26.708  1.00  0.00     0.117 C 
BRANCH   2   3
ATOM      3  N   UNL A   1      38.465  22.605  25.452  1.00  0.00    -0.354 N 
ATOM      4  C   UNL A   1      37.199  22.671  24.950  1.00  0.00     0.242 C 
ATOM      5  O   UNL A   1      36.974  21.965  23.959  1.00  0.00    -0.273 OA
ATOM      6  H   UNL A   1      39.119  22.161  24.866  1.00  0.00     0.163 HD
BRANCH   4   7
ATOM      7  C   UNL A   1      36.146  23.692  25.470  1.00  0.00     0.171 C 
ATOM      8  C   UNL A   1      33.649  23.173  26.021  1.00  0.00     0.120 C 
ATOM      9  C   UNL A   1      35.105  23.251  26.503  1.00  0.00     0.065 C 
ATOM     10  C   UNL A   1      33.327  24.470  25.320  1.00  0.00     0.016 A 
ATOM     11  C   UNL A   1      34.300  24.976  24.438  1.00  0.00     0.043 A 
ATOM     12  C   UNL A   1      32.093  25.122  25.426  1.00  0.00     0.049 A 
ATOM     13  N   UNL A   1      35.532  24.355  24.317  1.00  0.00    -0.373 N 
ATOM     14  C   UNL A   1      33.996  26.057  23.613  1.00  0.00     0.046 A 
ATOM     15  C   UNL A   1      31.816  26.242  24.641  1.00  0.00     0.041 A 
ATOM     16  Cl  UNL A   1      30.866  24.589  26.520  1.00  0.00    -0.084 Cl
ATOM     17  H   UNL A   1      35.998  24.360  23.450  1.00  0.00     0.161 HD
ATOM     18  C   UNL A   1      32.763  26.689  23.724  1.00  0.00     0.044 A 
ATOM     19  Cl  UNL A   1      32.409  28.046  22.726  1.00  0.00    -0.084 Cl
BRANCH   8  20
ATOM     20  N   UNL A   1      33.323  21.925  25.298  1.00  0.00    -0.331 N 
ATOM     21  O   UNL A   1      31.131  21.656  25.926  1.00  0.00    -0.248 OA
ATOM     22  C   UNL A   1      32.139  21.258  25.346  1.00  0.00     0.319 C 
ATOM     23  N   UNL A   1      31.990  20.125  24.621  1.00  0.00    -0.308 N 
ATOM     24  H   UNL A   1      31.049  19.971  24.373  1.00  0.00     0.171 HD
ATOM     25  H   UNL A   1      34.029  21.542  24.729  1.00  0.00     0.166 HD
BRANCH  23  26
ATOM     26  C   UNL A   1      32.827  19.116  24.132  1.00  0.00     0.042 A 
ATOM     27  C   UNL A   1      32.366  18.450  22.983  1.00  0.00     0.026 A 
ATOM     28  C   UNL A   1      33.979  18.652  24.764  1.00  0.00     0.026 A 
ATOM     29  C   UNL A   1      33.045  17.349  22.463  1.00  0.00     0.002 A 
ATOM     30  C   UNL A   1      34.653  17.534  24.248  1.00  0.00     0.002 A 
ATOM     31  C   UNL A   1      34.189  16.887  23.101  1.00  0.00     0.000 A 
ENDBRANCH  23  26
ENDBRANCH   8  20
ENDBRANCH   4   7
ENDBRANCH   2   3
ENDBRANCH   1   2
BRANCH   1  32
ATOM     32  C   UNL A   1      41.469  23.164  27.371  1.00  0.00     0.118 C 
BRANCH  32  33
ATOM     33  N   UNL A   1      41.833  23.978  26.226  1.00  0.00    -0.352 N 
ATOM     34  C   UNL A   1      41.760  25.337  26.072  1.00  0.00     0.251 C 
ATOM     35  H   UNL A   1      42.183  23.483  25.451  1.00  0.00     0.163 HD
ATOM     36  O   UNL A   1      41.856  25.814  24.937  1.00  0.00    -0.269 OA
BRANCH  34  37
ATOM     37  C   UNL A   1      41.555  26.224  27.238  1.00  0.00     0.039 A 
ATOM     38  C   UNL A   1      42.446  27.280  27.447  1.00  0.00     0.014 A 
ATOM     39  C   UNL A   1      40.517  25.999  28.146  1.00  0.00     0.014 A 
ATOM     40  C   UNL A   1      42.267  28.131  28.540  1.00  0.00     0.010 A 
ATOM     41  C   UNL A   1      40.283  26.904  29.178  1.00  0.00     0.010 A 
ATOM     42  C   UNL A   1      41.168  27.967  29.399  1.00  0.00    -0.014 A 
BRANCH  42  43
ATOM     43  C   UNL A   1      40.945  28.881  30.549  1.00  0.00     0.031 A 
ATOM     44  C   UNL A   1      41.772  28.734  31.800  1.00  0.00     0.074 A 
ATOM     45  C   UNL A   1      39.965  29.804  30.485  1.00  0.00     0.049 A 
ATOM     46  N   UNL A   1      41.684  29.390  32.929  1.00  0.00    -0.248 NA
ATOM     47  C   UNL A   1      42.816  27.695  31.795  1.00  0.00     0.031 C 
ATOM     48  C   UNL A   1      39.065  30.006  29.347  1.00  0.00     0.029 A 
ATOM     49  N   UNL A   1      39.553  30.739  31.401  1.00  0.00    -0.354 N 
ATOM     50  C   UNL A   1      42.643  28.834  33.768  1.00  0.00     0.074 A 
ATOM     51  C   UNL A   1      43.268  27.753  33.040  1.00  0.00     0.031 C 
ATOM     52  C   UNL A   1      38.223  31.015  29.623  1.00  0.00     0.029 A 
ATOM     53  C   UNL A   1      38.493  31.504  30.971  1.00  0.00     0.049 A 
ATOM     54  H   UNL A   1      39.976  30.853  32.283  1.00  0.00     0.167 HD
ATOM     55  C   UNL A   1      42.986  29.206  35.023  1.00  0.00     0.037 A 
ATOM     56  C   UNL A   1      37.809  32.482  31.598  1.00  0.00     0.037 A 
ATOM     57  C   UNL A   1      42.386  30.310  35.726  1.00  0.00     0.049 A 
ATOM     58  C   UNL A   1      38.225  32.887  32.988  1.00  0.00     0.074 A 
ATOM     59  C   UNL A   1      42.711  30.812  36.974  1.00  0.00     0.029 A 
ATOM     60  N   UNL A   1      41.340  31.084  35.244  1.00  0.00    -0.354 N 
ATOM     61  N   UNL A   1      39.181  32.395  33.738  1.00  0.00    -0.248 NA
ATOM     62  C   UNL A   1      37.476  33.986  33.613  1.00  0.00     0.031 C 
ATOM     63  C   UNL A   1      41.828  31.856  37.269  1.00  0.00     0.029 A 
ATOM     64  C   UNL A   1      40.992  32.044  36.179  1.00  0.00     0.049 A 
ATOM     65  H   UNL A   1      40.909  30.967  34.367  1.00  0.00     0.167 HD
ATOM     66  C   UNL A   1      39.170  33.145  34.909  1.00  0.00     0.074 A 
ATOM     67  C   UNL A   1      38.121  34.134  34.761  1.00  0.00     0.031 C 
ATOM     68  C   UNL A   1      39.957  33.030  36.008  1.00  0.00     0.037 A 
BRANCH  55  69
ATOM     69  C   UNL A   1      44.064  28.428  35.725  1.00  0.00     0.058 A 
ATOM     70  C   UNL A   1      45.421  28.764  35.599  1.00  0.00     0.135 A 
ATOM     71  C   UNL A   1      43.730  27.379  36.599  1.00  0.00     0.135 A 
ATOM     72  F   UNL A   1      45.800  29.745  34.763  1.00  0.00    -0.206 F 
ATOM     73  C   UNL A   1      46.408  28.084  36.304  1.00  0.00     0.059 A 
ATOM     74  C   UNL A   1      44.698  26.704  37.337  1.00  0.00     0.059 A 
ATOM     75  F   UNL A   1      42.448  27.011  36.755  1.00  0.00    -0.206 F 
ATOM     76  C   UNL A   1      46.036  27.060  37.177  1.00  0.00     0.060 A 
BRANCH  76  77
ATOM     77  S   UNL A   1      47.327  26.220  38.120  1.00  0.00     0.124 S 
ATOM     78  O   UNL A   1      47.105  26.755  39.460  1.00  0.00    -0.237 OA
ATOM     79  O   UNL A   1      46.983  24.815  37.933  1.00  0.00    -0.237 OA
ATOM     80  O   UNL A   1      48.560  26.653  37.469  1.00  0.00    -0.744 OA
ENDBRANCH  76  77
ENDBRANCH  55  69
BRANCH  56  81
ATOM     81  C   UNL A   1      36.668  33.153  30.919  1.00  0.00     0.058 A 
ATOM     82  C   UNL A   1      36.879  34.086  29.892  1.00  0.00     0.135 A 
ATOM     83  C   UNL A   1      35.341  32.886  31.295  1.00  0.00     0.135 A 
ATOM     84  F   UNL A   1      38.128  34.376  29.497  1.00  0.00    -0.206 F 
ATOM     85  C   UNL A   1      35.821  34.757  29.288  1.00  0.00     0.059 A 
ATOM     86  C   UNL A   1      34.265  33.522  30.684  1.00  0.00     0.059 A 
ATOM     87  F   UNL A   1      35.082  31.984  32.255  1.00  0.00    -0.206 F 
ATOM     88  C   UNL A   1      34.517  34.470  29.694  1.00  0.00     0.060 A 
BRANCH  88  89
ATOM     89  S   UNL A   1      33.149  35.334  28.892  1.00  0.00     0.124 S 
ATOM     90  O   UNL A   1      32.582  34.276  28.063  1.00  0.00    -0.237 OA
ATOM     91  O   UNL A   1      32.342  35.755  30.032  1.00  0.00    -0.237 OA
ATOM     92  O   UNL A   1      33.815  36.414  28.170  1.00  0.00    -0.744 OA
ENDBRANCH  88  89
ENDBRANCH  56  81
BRANCH  68  93
ATOM     93  C   UNL A   1      39.748  34.024  37.117  1.00  0.00     0.058 A 
ATOM     94  C   UNL A   1      38.919  33.748  38.215  1.00  0.00     0.135 A 
ATOM     95  C   UNL A   1      40.431  35.252  37.102  1.00  0.00     0.135 A 
ATOM     96  F   UNL A   1      38.242  32.591  38.277  1.00  0.00    -0.206 F 
ATOM     97  C   UNL A   1      38.750  34.668  39.244  1.00  0.00     0.059 A 
ATOM     98  C   UNL A   1      40.301  36.173  38.136  1.00  0.00     0.059 A 
ATOM     99  F   UNL A   1      41.247  35.560  36.081  1.00  0.00    -0.206 F 
ATOM    100  C   UNL A   1      39.446  35.877  39.197  1.00  0.00     0.060 A 
BRANCH 100 101
ATOM    101  S   UNL A   1      39.235  37.051  40.552  1.00  0.00     0.124 S 
ATOM    102  O   UNL A   1      40.600  37.529  40.741  1.00  0.00    -0.237 OA
ATOM    103  O   UNL A   1      38.297  38.015  39.986  1.00  0.00    -0.237 OA
ATOM    104  O   UNL A   1      38.702  36.227  41.634  1.00  0.00    -0.744 OA
ENDBRANCH 100 101
ENDBRANCH  68  93
ENDBRANCH  42  43
ENDBRANCH  34  37
ENDBRANCH  32  33
ENDBRANCH   1  32
TORSDOF 15
ENDMDL
MODEL 3
REMARK VINA RESULT:     -13.3      0.498      8.029
REMARK SMILES O=C(Nc1ccccc1)N[C@H]1C[C@@H](C(=O)NCCCNC(=O)c2ccc(-c3c4nc(c(-c5c(F)cc(S(=O)(=O)[O-])cc5F)c5ccc([nH]5)c(-c5c(F)cc(S(=O)(=O)[O-])cc5F)c5nc(c(-c6c(F)cc(S(=O)(=O)[O-])cc6F)c6ccc3[nH]6)C=C5)C=C4)cc2)Nc2cc(Cl)cc(Cl)c21
REMARK SMILES IDX 18 1 17 2 16 3 14 4 15 5 13 7 11 8 12 9 97 10 90 11 95 12
REMARK SMILES IDX 89 13 91 14 94 15 96 16 92 18 93 19 10 20 1 21 2 22 3 23
REMARK SMILES IDX 4 26 5 27 9 28 6 29 8 30 7 31 19 32 20 33 21 34 22 36 23 37
REMARK SMILES IDX 24 38 88 39 25 40 87 41 26 42 27 43 28 44 81 45 29 46 86 47
REMARK SMILES IDX 80 48 82 49 30 50 85 51 79 52 78 53 31 55 65 56 44 57 64 58
REMARK SMILES IDX 45 59 48 60 63 61 83 62 46 63 47 64 62 66 84 67 49 68 32 69
REMARK SMILES IDX 33 70 42 71 34 72 35 73 41 74 43 75 36 76 37 77 38 78 39 79
REMARK SMILES IDX 40 80 66 81 67 82 76 83 68 84 69 85 75 86 77 87 70 88 71 89
REMARK SMILES IDX 72 90 73 91 74 92 50 93 51 94 60 95 52 96 53 97 59 98 61 99
REMARK SMILES IDX 54 100 55 101 56 102 57 103 58 104
REMARK H PARENT 16 6 89 17 3 24 10 25 20 35 82 54 48 65
REMARK Flexibility Score: inf
ROOT
ATOM      1  C   UNL A   1      40.399  21.708  26.992  1.00  0.00     0.042 C 
ENDROOT
BRANCH   1   2
ATOM      2  C   UNL A   1      39.270  21.744  25.961  1.00  0.00     0.117 C 
BRANCH   2   3
ATOM      3  N   UNL A   1      38.271  22.721  26.337  1.00  0.00    -0.354 N 
ATOM      4  C   UNL A   1      37.083  23.040  25.751  1.00  0.00     0.242 C 
ATOM      5  O   UNL A   1      36.547  24.083  26.148  1.00  0.00    -0.273 OA
ATOM      6  H   UNL A   1      38.485  23.239  27.147  1.00  0.00     0.163 HD
BRANCH   4   7
ATOM      7  C   UNL A   1      36.349  22.079  24.771  1.00  0.00     0.171 C 
ATOM      8  C   UNL A   1      34.113  22.576  23.522  1.00  0.00     0.120 C 
ATOM      9  C   UNL A   1      35.647  22.645  23.533  1.00  0.00     0.065 C 
ATOM     10  C   UNL A   1      33.714  21.165  23.879  1.00  0.00     0.016 A 
ATOM     11  C   UNL A   1      34.405  20.559  24.944  1.00  0.00     0.043 A 
ATOM     12  C   UNL A   1      32.644  20.488  23.281  1.00  0.00     0.049 A 
ATOM     13  N   UNL A   1      35.471  21.202  25.550  1.00  0.00    -0.373 N 
ATOM     14  C   UNL A   1      33.963  19.339  25.454  1.00  0.00     0.046 A 
ATOM     15  C   UNL A   1      32.245  19.239  23.759  1.00  0.00     0.041 A 
ATOM     16  Cl  UNL A   1      31.777  21.147  21.940  1.00  0.00    -0.084 Cl
ATOM     17  H   UNL A   1      35.639  21.069  26.511  1.00  0.00     0.161 HD
ATOM     18  C   UNL A   1      32.894  18.683  24.856  1.00  0.00     0.044 A 
ATOM     19  Cl  UNL A   1      32.377  17.161  25.472  1.00  0.00    -0.084 Cl
BRANCH   8  20
ATOM     20  N   UNL A   1      33.458  23.666  24.276  1.00  0.00    -0.331 N 
ATOM     21  O   UNL A   1      31.515  23.880  23.070  1.00  0.00    -0.248 OA
ATOM     22  C   UNL A   1      32.268  24.249  23.970  1.00  0.00     0.319 C 
ATOM     23  N   UNL A   1      31.794  25.237  24.764  1.00  0.00    -0.308 N 
ATOM     24  H   UNL A   1      30.811  25.284  24.741  1.00  0.00     0.171 HD
ATOM     25  H   UNL A   1      33.928  24.001  25.074  1.00  0.00     0.166 HD
BRANCH  23  26
ATOM     26  C   UNL A   1      32.341  26.211  25.608  1.00  0.00     0.042 A 
ATOM     27  C   UNL A   1      31.437  26.815  26.500  1.00  0.00     0.026 A 
ATOM     28  C   UNL A   1      33.643  26.700  25.532  1.00  0.00     0.026 A 
ATOM     29  C   UNL A   1      31.825  27.879  27.312  1.00  0.00     0.002 A 
ATOM     30  C   UNL A   1      34.028  27.782  26.339  1.00  0.00     0.002 A 
ATOM     31  C   UNL A   1      33.123  28.367  27.228  1.00  0.00     0.000 A 
ENDBRANCH  23  26
ENDBRANCH   8  20
ENDBRANCH   4   7
ENDBRANCH   2   3
ENDBRANCH   1   2
BRANCH   1  32
ATOM     32  C   UNL A   1      40.891  23.082  27.416  1.00  0.00     0.118 C 
BRANCH  32  33
ATOM     33  N   UNL A   1      41.207  23.921  26.277  1.00  0.00    -0.352 N 
ATOM     34  C   UNL A   1      41.141  25.285  26.160  1.00  0.00     0.251 C 
ATOM     35  H   UNL A   1      41.513  23.444  25.473  1.00  0.00     0.163 HD
ATOM     36  O   UNL A   1      41.186  25.791  25.035  1.00  0.00    -0.269 OA
BRANCH  34  37
ATOM     37  C   UNL A   1      41.002  26.143  27.357  1.00  0.00     0.039 A 
ATOM     38  C   UNL A   1      41.915  27.182  27.553  1.00  0.00     0.014 A 
ATOM     39  C   UNL A   1      40.003  25.907  28.307  1.00  0.00     0.014 A 
ATOM     40  C   UNL A   1      41.799  28.005  28.674  1.00  0.00     0.010 A 
ATOM     41  C   UNL A   1      39.829  26.787  29.371  1.00  0.00     0.010 A 
ATOM     42  C   UNL A   1      40.738  27.833  29.579  1.00  0.00    -0.014 A 
BRANCH  42  43
ATOM     43  C   UNL A   1      40.582  28.718  30.762  1.00  0.00     0.031 A 
ATOM     44  C   UNL A   1      39.530  29.796  30.763  1.00  0.00     0.074 A 
ATOM     45  C   UNL A   1      41.421  28.584  31.808  1.00  0.00     0.049 A 
ATOM     46  N   UNL A   1      39.282  30.706  31.671  1.00  0.00    -0.248 NA
ATOM     47  C   UNL A   1      38.660  29.885  29.577  1.00  0.00     0.031 C 
ATOM     48  C   UNL A   1      42.511  27.610  31.901  1.00  0.00     0.029 A 
ATOM     49  N   UNL A   1      41.495  29.274  32.992  1.00  0.00    -0.354 N 
ATOM     50  C   UNL A   1      38.246  31.480  31.160  1.00  0.00     0.074 A 
ATOM     51  C   UNL A   1      37.944  30.969  29.842  1.00  0.00     0.031 C 
ATOM     52  C   UNL A   1      43.131  27.751  33.084  1.00  0.00     0.029 A 
ATOM     53  C   UNL A   1      42.511  28.850  33.817  1.00  0.00     0.049 A 
ATOM     54  H   UNL A   1      40.879  30.005  33.230  1.00  0.00     0.167 HD
ATOM     55  C   UNL A   1      37.591  32.510  31.747  1.00  0.00     0.037 A 
ATOM     56  C   UNL A   1      42.905  29.303  35.024  1.00  0.00     0.037 A 
ATOM     57  C   UNL A   1      37.872  32.986  33.076  1.00  0.00     0.049 A 
ATOM     58  C   UNL A   1      42.147  30.438  35.660  1.00  0.00     0.074 A 
ATOM     59  C   UNL A   1      37.218  33.977  33.788  1.00  0.00     0.029 A 
ATOM     60  N   UNL A   1      38.884  32.508  33.894  1.00  0.00    -0.354 N 
ATOM     61  N   UNL A   1      41.125  31.112  35.190  1.00  0.00    -0.248 NA
ATOM     62  C   UNL A   1      42.589  30.869  36.993  1.00  0.00     0.031 C 
ATOM     63  C   UNL A   1      37.869  34.133  35.016  1.00  0.00     0.029 A 
ATOM     64  C   UNL A   1      38.889  33.198  35.094  1.00  0.00     0.049 A 
ATOM     65  H   UNL A   1      39.508  31.784  33.656  1.00  0.00     0.167 HD
ATOM     66  C   UNL A   1      40.781  32.022  36.183  1.00  0.00     0.074 A 
ATOM     67  C   UNL A   1      41.695  31.803  37.285  1.00  0.00     0.031 C 
ATOM     68  C   UNL A   1      39.796  32.956  36.186  1.00  0.00     0.037 A 
BRANCH  55  69
ATOM     69  C   UNL A   1      36.500  33.192  30.969  1.00  0.00     0.058 A 
ATOM     70  C   UNL A   1      35.145  33.030  31.298  1.00  0.00     0.135 A 
ATOM     71  C   UNL A   1      36.817  34.083  29.931  1.00  0.00     0.135 A 
ATOM     72  F   UNL A   1      34.782  32.177  32.270  1.00  0.00    -0.206 F 
ATOM     73  C   UNL A   1      34.144  33.717  30.620  1.00  0.00     0.059 A 
ATOM     74  C   UNL A   1      35.835  34.804  29.258  1.00  0.00     0.059 A 
ATOM     75  F   UNL A   1      38.097  34.273  29.570  1.00  0.00    -0.206 F 
ATOM     76  C   UNL A   1      34.499  34.609  29.606  1.00  0.00     0.060 A 
BRANCH  76  77
ATOM     77  S   UNL A   1      33.189  35.527  28.769  1.00  0.00     0.124 S 
ATOM     78  O   UNL A   1      33.961  36.499  27.999  1.00  0.00    -0.237 OA
ATOM     79  O   UNL A   1      32.528  34.484  27.992  1.00  0.00    -0.237 OA
ATOM     80  O   UNL A   1      32.405  36.080  29.868  1.00  0.00    -0.744 OA
ENDBRANCH  76  77
ENDBRANCH  55  69
BRANCH  56  81
ATOM     81  C   UNL A   1      44.068  28.682  35.715  1.00  0.00     0.058 A 
ATOM     82  C   UNL A   1      45.377  29.124  35.475  1.00  0.00     0.135 A 
ATOM     83  C   UNL A   1      43.893  27.620  36.617  1.00  0.00     0.135 A 
ATOM     84  F   UNL A   1      45.597  30.135  34.621  1.00  0.00    -0.206 F 
ATOM     85  C   UNL A   1      46.474  28.515  36.075  1.00  0.00     0.059 A 
ATOM     86  C   UNL A   1      44.972  27.015  37.253  1.00  0.00     0.059 A 
ATOM     87  F   UNL A   1      42.659  27.173  36.901  1.00  0.00    -0.206 F 
ATOM     88  C   UNL A   1      46.260  27.458  36.961  1.00  0.00     0.060 A 
BRANCH  88  89
ATOM     89  S   UNL A   1      47.690  26.684  37.749  1.00  0.00     0.124 S 
ATOM     90  O   UNL A   1      47.537  27.128  39.130  1.00  0.00    -0.237 OA
ATOM     91  O   UNL A   1      47.447  25.267  37.501  1.00  0.00    -0.237 OA
ATOM     92  O   UNL A   1      48.820  27.256  37.022  1.00  0.00    -0.744 OA
ENDBRANCH  88  89
ENDBRANCH  56  81
BRANCH  68  93
ATOM     93  C   UNL A   1      39.624  33.777  37.433  1.00  0.00     0.058 A 
ATOM     94  C   UNL A   1      40.278  35.006  37.609  1.00  0.00     0.135 A 
ATOM     95  C   UNL A   1      38.749  33.348  38.447  1.00  0.00     0.135 A 
ATOM     96  F   UNL A   1      41.126  35.460  36.673  1.00  0.00    -0.206 F 
ATOM     97  C   UNL A   1      40.095  35.767  38.759  1.00  0.00     0.059 A 
ATOM     98  C   UNL A   1      38.528  34.108  39.590  1.00  0.00     0.059 A 
ATOM     99  F   UNL A   1      38.088  32.186  38.322  1.00  0.00    -0.206 F 
ATOM    100  C   UNL A   1      39.217  35.310  39.743  1.00  0.00     0.060 A 
BRANCH 100 101
ATOM    101  S   UNL A   1      38.971  36.319  41.219  1.00  0.00     0.124 S 
ATOM    102  O   UNL A   1      38.711  37.632  40.638  1.00  0.00    -0.237 OA
ATOM    103  O   UNL A   1      37.830  35.668  41.855  1.00  0.00    -0.237 OA
ATOM    104  O   UNL A   1      40.238  36.189  41.934  1.00  0.00    -0.744 OA
ENDBRANCH 100 101
ENDBRANCH  68  93
ENDBRANCH  42  43
ENDBRANCH  34  37
ENDBRANCH  32  33
ENDBRANCH   1  32
TORSDOF 15
ENDMDL
