MODEL 1
REMARK VINA RESULT:     -11.1      0.000      0.000
REMARK SMILES Cc1ncccc1C(=O)N1CC[C@H](C(=O)NCCCNC(=O)c2ccc(-c3c4nc(c(-c5c(F)cc(S(=O)(=O)[O-])cc5F)c5ccc([nH]5)c(-c5c(F)cc(S(=O)(=O)[O-])cc5F)c5nc(c(-c6c(F)cc(S(=O)(=O)[O-])cc6F)c6ccc3[nH]6)C=C5)C=C4)cc2)C1
REMARK SMILES IDX 18 1 17 2 16 3 14 4 15 5 13 7 10 8 11 9 89 10 12 11 8 12
REMARK SMILES IDX 9 13 7 14 1 15 2 16 3 17 4 18 6 19 5 20 19 21 20 22 21 23
REMARK SMILES IDX 22 25 23 26 24 27 88 28 25 29 87 30 26 31 27 32 28 33 81 34
REMARK SMILES IDX 29 35 86 36 80 37 82 38 30 39 85 40 79 41 78 42 31 44 65 45
REMARK SMILES IDX 44 46 64 47 45 48 48 49 63 50 83 51 46 52 47 53 62 55 84 56
REMARK SMILES IDX 49 57 32 58 33 59 42 60 34 61 35 62 41 63 43 64 36 65 37 66
REMARK SMILES IDX 38 67 39 68 40 69 66 70 67 71 76 72 68 73 69 74 75 75 77 76
REMARK SMILES IDX 70 77 71 78 72 79 73 80 74 81 50 82 51 83 60 84 52 85 53 86
REMARK SMILES IDX 59 87 61 88 54 89 55 90 56 91 57 92 58 93
REMARK H PARENT 16 6 20 24 82 43 48 54
REMARK Flexibility Score: inf
ROOT
ATOM      1  C   UNL A   1      34.274  28.145  25.593  1.00  0.00     0.042 C 
ENDROOT
BRANCH   1   2
ATOM      2  C   UNL A   1      33.336  28.231  24.395  1.00  0.00     0.117 C 
BRANCH   2   3
ATOM      3  N   UNL A   1      33.732  27.356  23.304  1.00  0.00    -0.356 N 
ATOM      4  C   UNL A   1      33.318  26.123  22.912  1.00  0.00     0.224 C 
ATOM      5  O   UNL A   1      33.830  25.675  21.880  1.00  0.00    -0.275 OA
ATOM      6  H   UNL A   1      34.443  27.731  22.736  1.00  0.00     0.163 HD
BRANCH   4   7
ATOM      7  C   UNL A   1      32.322  25.259  23.677  1.00  0.00     0.099 C 
ATOM      8  N   UNL A   1      32.785  23.441  25.112  1.00  0.00    -0.338 N 
ATOM      9  C   UNL A   1      31.843  22.935  24.137  1.00  0.00     0.120 C 
ATOM     10  C   UNL A   1      32.722  24.899  25.102  1.00  0.00     0.133 C 
ATOM     11  C   UNL A   1      31.989  23.926  22.986  1.00  0.00     0.037 C 
BRANCH   8  12
ATOM     12  C   UNL A   1      33.580  22.810  26.048  1.00  0.00     0.255 C 
ATOM     13  O   UNL A   1      33.114  22.620  27.178  1.00  0.00    -0.269 OA
BRANCH  12  14
ATOM     14  C   UNL A   1      35.012  22.410  25.848  1.00  0.00     0.061 A 
ATOM     15  C   UNL A   1      34.764  20.032  24.867  1.00  0.00     0.067 C 
ATOM     16  C   UNL A   1      35.525  21.258  25.240  1.00  0.00     0.050 A 
ATOM     17  N   UNL A   1      36.842  21.138  24.891  1.00  0.00    -0.261 NA
ATOM     18  C   UNL A   1      37.672  22.177  25.090  1.00  0.00     0.111 A 
ATOM     19  C   UNL A   1      35.937  23.455  26.074  1.00  0.00     0.017 A 
ATOM     20  C   UNL A   1      37.270  23.348  25.684  1.00  0.00     0.021 A 
ENDBRANCH  12  14
ENDBRANCH   8  12
ENDBRANCH   4   7
ENDBRANCH   2   3
ENDBRANCH   1   2
BRANCH   1  21
ATOM     21  C   UNL A   1      33.592  28.273  26.946  1.00  0.00     0.118 C 
BRANCH  21  22
ATOM     22  N   UNL A   1      33.467  29.659  27.371  1.00  0.00    -0.352 N 
ATOM     23  C   UNL A   1      34.337  30.471  28.058  1.00  0.00     0.251 C 
ATOM     24  H   UNL A   1      32.615  30.087  27.126  1.00  0.00     0.163 HD
ATOM     25  O   UNL A   1      33.922  31.545  28.491  1.00  0.00    -0.269 OA
BRANCH  23  26
ATOM     26  C   UNL A   1      35.750  30.084  28.290  1.00  0.00     0.039 A 
ATOM     27  C   UNL A   1      36.123  29.629  29.561  1.00  0.00     0.014 A 
ATOM     28  C   UNL A   1      36.727  30.232  27.303  1.00  0.00     0.014 A 
ATOM     29  C   UNL A   1      37.454  29.287  29.825  1.00  0.00     0.010 A 
ATOM     30  C   UNL A   1      38.034  29.809  27.539  1.00  0.00     0.010 A 
ATOM     31  C   UNL A   1      38.420  29.354  28.809  1.00  0.00    -0.014 A 
BRANCH  31  32
ATOM     32  C   UNL A   1      39.843  29.003  29.061  1.00  0.00     0.031 A 
ATOM     33  C   UNL A   1      40.782  30.037  29.630  1.00  0.00     0.074 A 
ATOM     34  C   UNL A   1      40.311  27.784  28.724  1.00  0.00     0.049 A 
ATOM     35  N   UNL A   1      42.074  29.966  29.821  1.00  0.00    -0.248 NA
ATOM     36  C   UNL A   1      40.193  31.334  30.002  1.00  0.00     0.031 C 
ATOM     37  C   UNL A   1      39.517  26.707  28.128  1.00  0.00     0.029 A 
ATOM     38  N   UNL A   1      41.571  27.250  28.821  1.00  0.00    -0.354 N 
ATOM     39  C   UNL A   1      42.456  31.213  30.307  1.00  0.00     0.074 A 
ATOM     40  C   UNL A   1      41.266  32.035  30.335  1.00  0.00     0.031 C 
ATOM     41  C   UNL A   1      40.304  25.638  27.930  1.00  0.00     0.029 A 
ATOM     42  C   UNL A   1      41.664  25.961  28.351  1.00  0.00     0.049 A 
ATOM     43  H   UNL A   1      42.337  27.744  29.195  1.00  0.00     0.167 HD
ATOM     44  C   UNL A   1      43.679  31.629  30.714  1.00  0.00     0.037 A 
ATOM     45  C   UNL A   1      42.726  25.137  28.261  1.00  0.00     0.037 A 
ATOM     46  C   UNL A   1      44.851  30.794  30.731  1.00  0.00     0.049 A 
ATOM     47  C   UNL A   1      44.070  25.611  28.745  1.00  0.00     0.074 A 
ATOM     48  C   UNL A   1      46.122  31.102  31.181  1.00  0.00     0.029 A 
ATOM     49  N   UNL A   1      44.893  29.481  30.284  1.00  0.00    -0.354 N 
ATOM     50  N   UNL A   1      44.402  26.779  29.242  1.00  0.00    -0.248 NA
ATOM     51  C   UNL A   1      45.182  24.655  28.662  1.00  0.00     0.031 C 
ATOM     52  C   UNL A   1      46.940  29.985  30.979  1.00  0.00     0.029 A 
ATOM     53  C   UNL A   1      46.169  28.969  30.439  1.00  0.00     0.049 A 
ATOM     54  H   UNL A   1      44.127  28.986  29.911  1.00  0.00     0.167 HD
ATOM     55  C   UNL A   1      45.753  26.688  29.556  1.00  0.00     0.074 A 
ATOM     56  C   UNL A   1      46.176  25.348  29.201  1.00  0.00     0.031 C 
ATOM     57  C   UNL A   1      46.570  27.628  30.093  1.00  0.00     0.037 A 
BRANCH  44  58
ATOM     58  C   UNL A   1      43.809  33.052  31.185  1.00  0.00     0.058 A 
ATOM     59  C   UNL A   1      43.723  33.388  32.547  1.00  0.00     0.135 A 
ATOM     60  C   UNL A   1      44.046  34.089  30.269  1.00  0.00     0.135 A 
ATOM     61  F   UNL A   1      43.483  32.437  33.463  1.00  0.00    -0.206 F 
ATOM     62  C   UNL A   1      43.833  34.705  32.978  1.00  0.00     0.059 A 
ATOM     63  C   UNL A   1      44.187  35.412  30.683  1.00  0.00     0.059 A 
ATOM     64  F   UNL A   1      44.139  33.825  28.956  1.00  0.00    -0.206 F 
ATOM     65  C   UNL A   1      44.061  35.711  32.039  1.00  0.00     0.060 A 
BRANCH  65  66
ATOM     66  S   UNL A   1      44.197  37.418  32.612  1.00  0.00     0.124 S 
ATOM     67  O   UNL A   1      45.558  37.437  33.143  1.00  0.00    -0.237 OA
ATOM     68  O   UNL A   1      43.989  38.179  31.382  1.00  0.00    -0.237 OA
ATOM     69  O   UNL A   1      43.135  37.530  33.602  1.00  0.00    -0.744 OA
ENDBRANCH  65  66
ENDBRANCH  44  58
BRANCH  45  70
ATOM     70  C   UNL A   1      42.555  23.765  27.714  1.00  0.00     0.058 A 
ATOM     71  C   UNL A   1      42.413  22.663  28.569  1.00  0.00     0.135 A 
ATOM     72  C   UNL A   1      42.515  23.530  26.331  1.00  0.00     0.135 A 
ATOM     73  F   UNL A   1      42.451  22.837  29.899  1.00  0.00    -0.206 F 
ATOM     74  C   UNL A   1      42.252  21.373  28.076  1.00  0.00     0.059 A 
ATOM     75  C   UNL A   1      42.332  22.252  25.812  1.00  0.00     0.059 A 
ATOM     76  F   UNL A   1      42.631  24.553  25.471  1.00  0.00    -0.206 F 
ATOM     77  C   UNL A   1      42.211  21.177  26.693  1.00  0.00     0.060 A 
BRANCH  77  78
ATOM     78  S   UNL A   1      41.952  19.505  26.062  1.00  0.00     0.124 S 
ATOM     79  O   UNL A   1      42.396  18.693  27.189  1.00  0.00    -0.237 OA
ATOM     80  O   UNL A   1      40.517  19.495  25.793  1.00  0.00    -0.237 OA
ATOM     81  O   UNL A   1      42.803  19.459  24.876  1.00  0.00    -0.744 OA
ENDBRANCH  77  78
ENDBRANCH  45  70
BRANCH  57  82
ATOM     82  C   UNL A   1      47.995  27.234  30.363  1.00  0.00     0.058 A 
ATOM     83  C   UNL A   1      49.020  27.492  29.441  1.00  0.00     0.135 A 
ATOM     84  C   UNL A   1      48.344  26.637  31.586  1.00  0.00     0.135 A 
ATOM     85  F   UNL A   1      48.736  28.055  28.257  1.00  0.00    -0.206 F 
ATOM     86  C   UNL A   1      50.342  27.154  29.713  1.00  0.00     0.059 A 
ATOM     87  C   UNL A   1      49.663  26.312  31.888  1.00  0.00     0.059 A 
ATOM     88  F   UNL A   1      47.402  26.378  32.506  1.00  0.00    -0.206 F 
ATOM     89  C   UNL A   1      50.653  26.566  30.940  1.00  0.00     0.060 A 
BRANCH  89  90
ATOM     90  S   UNL A   1      52.378  26.165  31.296  1.00  0.00     0.124 S 
ATOM     91  O   UNL A   1      52.961  26.167  29.959  1.00  0.00    -0.237 OA
ATOM     92  O   UNL A   1      52.783  27.263  32.167  1.00  0.00    -0.237 OA
ATOM     93  O   UNL A   1      52.294  24.858  31.943  1.00  0.00    -0.744 OA
ENDBRANCH  89  90
ENDBRANCH  57  82
ENDBRANCH  31  32
ENDBRANCH  23  26
ENDBRANCH  21  22
ENDBRANCH   1  21
TORSDOF 15
ENDMDL
MODEL 2
REMARK VINA RESULT:     -11.0      1.329      2.002
REMARK SMILES Cc1ncccc1C(=O)N1CC[C@H](C(=O)NCCCNC(=O)c2ccc(-c3c4nc(c(-c5c(F)cc(S(=O)(=O)[O-])cc5F)c5ccc([nH]5)c(-c5c(F)cc(S(=O)(=O)[O-])cc5F)c5nc(c(-c6c(F)cc(S(=O)(=O)[O-])cc6F)c6ccc3[nH]6)C=C5)C=C4)cc2)C1
REMARK SMILES IDX 18 1 17 2 16 3 14 4 15 5 13 7 10 8 11 9 89 10 12 11 8 12
REMARK SMILES IDX 9 13 7 14 1 15 2 16 3 17 4 18 6 19 5 20 19 21 20 22 21 23
REMARK SMILES IDX 22 25 23 26 24 27 88 28 25 29 87 30 26 31 27 32 28 33 81 34
REMARK SMILES IDX 29 35 86 36 80 37 82 38 30 39 85 40 79 41 78 42 31 44 65 45
REMARK SMILES IDX 44 46 64 47 45 48 48 49 63 50 83 51 46 52 47 53 62 55 84 56
REMARK SMILES IDX 49 57 32 58 33 59 42 60 34 61 35 62 41 63 43 64 36 65 37 66
REMARK SMILES IDX 38 67 39 68 40 69 66 70 67 71 76 72 68 73 69 74 75 75 77 76
REMARK SMILES IDX 70 77 71 78 72 79 73 80 74 81 50 82 51 83 60 84 52 85 53 86
REMARK SMILES IDX 59 87 61 88 54 89 55 90 56 91 57 92 58 93
REMARK H PARENT 16 6 20 24 82 43 48 54
REMARK Flexibility Score: inf
ROOT
ATOM      1  C   UNL A   1      33.203  28.532  24.977  1.00  0.00     0.042 C 
ENDROOT
BRANCH   1   2
ATOM      2  C   UNL A   1      31.777  29.066  25.045  1.00  0.00     0.117 C 
BRANCH   2   3
ATOM      3  N   UNL A   1      31.255  29.448  23.742  1.00  0.00    -0.356 N 
ATOM      4  C   UNL A   1      30.578  28.765  22.784  1.00  0.00     0.224 C 
ATOM      5  O   UNL A   1      30.219  29.417  21.797  1.00  0.00    -0.275 OA
ATOM      6  H   UNL A   1      31.428  30.388  23.509  1.00  0.00     0.163 HD
BRANCH   4   7
ATOM      7  C   UNL A   1      30.285  27.270  22.826  1.00  0.00     0.099 C 
ATOM      8  N   UNL A   1      31.046  25.690  24.408  1.00  0.00    -0.338 N 
ATOM      9  C   UNL A   1      31.424  25.158  23.117  1.00  0.00     0.120 C 
ATOM     10  C   UNL A   1      30.006  26.693  24.209  1.00  0.00     0.133 C 
ATOM     11  C   UNL A   1      31.398  26.395  22.225  1.00  0.00     0.037 C 
BRANCH   8  12
ATOM     12  C   UNL A   1      31.406  25.343  25.695  1.00  0.00     0.255 C 
ATOM     13  O   UNL A   1      30.910  25.980  26.633  1.00  0.00    -0.269 OA
BRANCH  12  14
ATOM     14  C   UNL A   1      32.429  24.311  26.066  1.00  0.00     0.061 A 
ATOM     15  C   UNL A   1      34.531  25.188  24.845  1.00  0.00     0.067 C 
ATOM     16  C   UNL A   1      33.802  24.297  25.792  1.00  0.00     0.050 A 
ATOM     17  N   UNL A   1      34.664  23.432  26.407  1.00  0.00    -0.261 NA
ATOM     18  C   UNL A   1      34.194  22.594  27.348  1.00  0.00     0.111 A 
ATOM     19  C   UNL A   1      31.981  23.379  27.030  1.00  0.00     0.017 A 
ATOM     20  C   UNL A   1      32.864  22.524  27.686  1.00  0.00     0.021 A 
ENDBRANCH  12  14
ENDBRANCH   8  12
ENDBRANCH   4   7
ENDBRANCH   2   3
ENDBRANCH   1   2
BRANCH   1  21
ATOM     21  C   UNL A   1      33.971  28.599  26.287  1.00  0.00     0.118 C 
BRANCH  21  22
ATOM     22  N   UNL A   1      33.762  29.859  26.985  1.00  0.00    -0.352 N 
ATOM     23  C   UNL A   1      34.537  30.513  27.912  1.00  0.00     0.251 C 
ATOM     24  H   UNL A   1      32.924  30.322  26.753  1.00  0.00     0.163 HD
ATOM     25  O   UNL A   1      34.050  31.464  28.522  1.00  0.00    -0.269 OA
BRANCH  23  26
ATOM     26  C   UNL A   1      35.934  30.100  28.195  1.00  0.00     0.039 A 
ATOM     27  C   UNL A   1      36.253  29.644  29.480  1.00  0.00     0.014 A 
ATOM     28  C   UNL A   1      36.947  30.224  27.243  1.00  0.00     0.014 A 
ATOM     29  C   UNL A   1      37.567  29.278  29.792  1.00  0.00     0.010 A 
ATOM     30  C   UNL A   1      38.237  29.777  27.526  1.00  0.00     0.010 A 
ATOM     31  C   UNL A   1      38.569  29.321  28.810  1.00  0.00    -0.014 A 
BRANCH  31  32
ATOM     32  C   UNL A   1      39.976  28.944  29.113  1.00  0.00     0.031 A 
ATOM     33  C   UNL A   1      40.906  29.954  29.738  1.00  0.00     0.074 A 
ATOM     34  C   UNL A   1      40.439  27.725  28.773  1.00  0.00     0.049 A 
ATOM     35  N   UNL A   1      42.188  29.860  29.981  1.00  0.00    -0.248 NA
ATOM     36  C   UNL A   1      40.321  31.253  30.110  1.00  0.00     0.031 C 
ATOM     37  C   UNL A   1      39.655  26.671  28.126  1.00  0.00     0.029 A 
ATOM     38  N   UNL A   1      41.687  27.170  28.912  1.00  0.00    -0.354 N 
ATOM     39  C   UNL A   1      42.567  31.092  30.504  1.00  0.00     0.074 A 
ATOM     40  C   UNL A   1      41.390  31.932  30.499  1.00  0.00     0.031 C 
ATOM     41  C   UNL A   1      40.434  25.593  27.941  1.00  0.00     0.029 A 
ATOM     42  C   UNL A   1      41.780  25.889  28.422  1.00  0.00     0.049 A 
ATOM     43  H   UNL A   1      42.443  27.646  29.325  1.00  0.00     0.167 HD
ATOM     44  C   UNL A   1      43.778  31.482  30.968  1.00  0.00     0.037 A 
ATOM     45  C   UNL A   1      42.832  25.050  28.361  1.00  0.00     0.037 A 
ATOM     46  C   UNL A   1      44.937  30.629  31.017  1.00  0.00     0.049 A 
ATOM     47  C   UNL A   1      44.162  25.494  28.907  1.00  0.00     0.074 A 
ATOM     48  C   UNL A   1      46.193  30.910  31.524  1.00  0.00     0.029 A 
ATOM     49  N   UNL A   1      44.978  29.324  30.548  1.00  0.00    -0.354 N 
ATOM     50  N   UNL A   1      44.491  26.648  29.439  1.00  0.00    -0.248 NA
ATOM     51  C   UNL A   1      45.263  24.523  28.852  1.00  0.00     0.031 C 
ATOM     52  C   UNL A   1      47.003  29.784  31.335  1.00  0.00     0.029 A 
ATOM     53  C   UNL A   1      46.239  28.790  30.746  1.00  0.00     0.049 A 
ATOM     54  H   UNL A   1      44.221  28.848  30.136  1.00  0.00     0.167 HD
ATOM     55  C   UNL A   1      45.827  26.531  29.805  1.00  0.00     0.074 A 
ATOM     56  C   UNL A   1      46.244  25.192  29.443  1.00  0.00     0.031 C 
ATOM     57  C   UNL A   1      46.635  27.450  30.391  1.00  0.00     0.037 A 
BRANCH  44  58
ATOM     58  C   UNL A   1      43.910  32.894  31.470  1.00  0.00     0.058 A 
ATOM     59  C   UNL A   1      43.665  33.225  32.813  1.00  0.00     0.135 A 
ATOM     60  C   UNL A   1      44.309  33.926  30.605  1.00  0.00     0.135 A 
ATOM     61  F   UNL A   1      43.267  32.280  33.679  1.00  0.00    -0.206 F 
ATOM     62  C   UNL A   1      43.777  34.533  33.272  1.00  0.00     0.059 A 
ATOM     63  C   UNL A   1      44.453  35.238  31.050  1.00  0.00     0.059 A 
ATOM     64  F   UNL A   1      44.557  33.667  29.311  1.00  0.00    -0.206 F 
ATOM     65  C   UNL A   1      44.168  35.534  32.382  1.00  0.00     0.060 A 
BRANCH  65  66
ATOM     66  S   UNL A   1      44.305  37.228  32.990  1.00  0.00     0.124 S 
ATOM     67  O   UNL A   1      44.195  37.991  31.749  1.00  0.00    -0.237 OA
ATOM     68  O   UNL A   1      43.163  37.329  33.896  1.00  0.00    -0.237 OA
ATOM     69  O   UNL A   1      45.613  37.255  33.630  1.00  0.00    -0.744 OA
ENDBRANCH  65  66
ENDBRANCH  44  58
BRANCH  45  70
ATOM     70  C   UNL A   1      42.664  23.690  27.782  1.00  0.00     0.058 A 
ATOM     71  C   UNL A   1      42.768  23.480  26.399  1.00  0.00     0.135 A 
ATOM     72  C   UNL A   1      42.410  22.576  28.596  1.00  0.00     0.135 A 
ATOM     73  F   UNL A   1      43.003  24.517  25.580  1.00  0.00    -0.206 F 
ATOM     74  C   UNL A   1      42.613  22.217  25.840  1.00  0.00     0.059 A 
ATOM     75  C   UNL A   1      42.274  21.298  28.063  1.00  0.00     0.059 A 
ATOM     76  F   UNL A   1      42.317  22.722  29.927  1.00  0.00    -0.206 F 
ATOM     77  C   UNL A   1      42.367  21.129  26.682  1.00  0.00     0.060 A 
BRANCH  77  78
ATOM     78  S   UNL A   1      42.217  19.484  25.951  1.00  0.00     0.124 S 
ATOM     79  O   UNL A   1      42.668  18.635  27.048  1.00  0.00    -0.237 OA
ATOM     80  O   UNL A   1      40.795  19.416  25.633  1.00  0.00    -0.237 OA
ATOM     81  O   UNL A   1      43.107  19.549  24.796  1.00  0.00    -0.744 OA
ENDBRANCH  77  78
ENDBRANCH  45  70
BRANCH  57  82
ATOM     82  C   UNL A   1      48.041  27.029  30.712  1.00  0.00     0.058 A 
ATOM     83  C   UNL A   1      49.092  27.215  29.803  1.00  0.00     0.135 A 
ATOM     84  C   UNL A   1      48.347  26.480  31.969  1.00  0.00     0.135 A 
ATOM     85  F   UNL A   1      48.851  27.730  28.587  1.00  0.00    -0.206 F 
ATOM     86  C   UNL A   1      50.398  26.854  30.120  1.00  0.00     0.059 A 
ATOM     87  C   UNL A   1      49.649  26.134  32.315  1.00  0.00     0.059 A 
ATOM     88  F   UNL A   1      47.378  26.291  32.879  1.00  0.00    -0.206 F 
ATOM     89  C   UNL A   1      50.666  26.315  31.380  1.00  0.00     0.060 A 
BRANCH  89  90
ATOM     90  S   UNL A   1      52.371  25.883  31.793  1.00  0.00     0.124 S 
ATOM     91  O   UNL A   1      52.251  24.457  32.077  1.00  0.00    -0.237 OA
ATOM     92  O   UNL A   1      53.088  26.228  30.570  1.00  0.00    -0.237 OA
ATOM     93  O   UNL A   1      52.664  26.731  32.945  1.00  0.00    -0.744 OA
ENDBRANCH  89  90
ENDBRANCH  57  82
ENDBRANCH  31  32
ENDBRANCH  23  26
ENDBRANCH  21  22
ENDBRANCH   1  21
TORSDOF 15
ENDMDL
MODEL 3
REMARK VINA RESULT:     -11.0      4.775     10.461
REMARK SMILES Cc1ncccc1C(=O)N1CC[C@H](C(=O)NCCCNC(=O)c2ccc(-c3c4nc(c(-c5c(F)cc(S(=O)(=O)[O-])cc5F)c5ccc([nH]5)c(-c5c(F)cc(S(=O)(=O)[O-])cc5F)c5nc(c(-c6c(F)cc(S(=O)(=O)[O-])cc6F)c6ccc3[nH]6)C=C5)C=C4)cc2)C1
REMARK SMILES IDX 18 1 17 2 16 3 14 4 15 5 13 7 10 8 11 9 89 10 12 11 8 12
REMARK SMILES IDX 9 13 7 14 1 15 2 16 3 17 4 18 6 19 5 20 19 21 20 22 21 23
REMARK SMILES IDX 22 25 23 26 24 27 88 28 25 29 87 30 26 31 27 32 28 33 81 34
REMARK SMILES IDX 29 35 86 36 80 37 82 38 30 39 85 40 79 41 78 42 31 44 65 45
REMARK SMILES IDX 44 46 64 47 45 48 48 49 63 50 83 51 46 52 47 53 62 55 84 56
REMARK SMILES IDX 49 57 32 58 33 59 42 60 34 61 35 62 41 63 43 64 36 65 37 66
REMARK SMILES IDX 38 67 39 68 40 69 66 70 67 71 76 72 68 73 69 74 75 75 77 76
REMARK SMILES IDX 70 77 71 78 72 79 73 80 74 81 50 82 51 83 60 84 52 85 53 86
REMARK SMILES IDX 59 87 61 88 54 89 55 90 56 91 57 92 58 93
REMARK H PARENT 16 6 20 24 82 43 48 54
REMARK Flexibility Score: inf
ROOT
ATOM      1  C   UNL A   1      38.174  23.307  25.758  1.00  0.00     0.042 C 
ENDROOT
BRANCH   1   2
ATOM      2  C   UNL A   1      37.400  21.997  25.680  1.00  0.00     0.117 C 
BRANCH   2   3
ATOM      3  N   UNL A   1      36.071  22.092  26.264  1.00  0.00    -0.356 N 
ATOM      4  C   UNL A   1      34.824  22.055  25.728  1.00  0.00     0.224 C 
ATOM      5  O   UNL A   1      33.883  22.102  26.529  1.00  0.00    -0.275 OA
ATOM      6  H   UNL A   1      36.077  22.206  27.241  1.00  0.00     0.163 HD
BRANCH   4   7
ATOM      7  C   UNL A   1      34.520  22.012  24.236  1.00  0.00     0.099 C 
ATOM      8  N   UNL A   1      33.474  23.672  22.923  1.00  0.00    -0.338 N 
ATOM      9  C   UNL A   1      32.719  22.460  22.689  1.00  0.00     0.120 C 
ATOM     10  C   UNL A   1      34.774  23.308  23.475  1.00  0.00     0.133 C 
ATOM     11  C   UNL A   1      33.075  21.606  23.901  1.00  0.00     0.037 C 
BRANCH   8  12
ATOM     12  C   UNL A   1      33.219  24.996  22.622  1.00  0.00     0.255 C 
ATOM     13  O   UNL A   1      34.036  25.602  21.917  1.00  0.00    -0.269 OA
BRANCH  12  14
ATOM     14  C   UNL A   1      32.076  25.807  23.154  1.00  0.00     0.061 A 
ATOM     15  C   UNL A   1      32.322  25.457  25.703  1.00  0.00     0.067 C 
ATOM     16  C   UNL A   1      31.749  26.096  24.485  1.00  0.00     0.050 A 
ATOM     17  N   UNL A   1      30.836  27.057  24.823  1.00  0.00    -0.261 NA
ATOM     18  C   UNL A   1      30.264  27.790  23.853  1.00  0.00     0.111 A 
ATOM     19  C   UNL A   1      31.411  26.576  22.173  1.00  0.00     0.017 A 
ATOM     20  C   UNL A   1      30.511  27.582  22.517  1.00  0.00     0.021 A 
ENDBRANCH  12  14
ENDBRANCH   8  12
ENDBRANCH   4   7
ENDBRANCH   2   3
ENDBRANCH   1   2
BRANCH   1  21
ATOM     21  C   UNL A   1      39.289  23.327  26.793  1.00  0.00     0.118 C 
BRANCH  21  22
ATOM     22  N   UNL A   1      40.590  23.590  26.196  1.00  0.00    -0.352 N 
ATOM     23  C   UNL A   1      41.455  24.646  26.354  1.00  0.00     0.251 C 
ATOM     24  H   UNL A   1      40.904  22.893  25.575  1.00  0.00     0.163 HD
ATOM     25  O   UNL A   1      42.404  24.750  25.579  1.00  0.00    -0.269 OA
BRANCH  23  26
ATOM     26  C   UNL A   1      41.269  25.655  27.426  1.00  0.00     0.039 A 
ATOM     27  C   UNL A   1      42.196  26.699  27.534  1.00  0.00     0.014 A 
ATOM     28  C   UNL A   1      40.246  25.549  28.370  1.00  0.00     0.014 A 
ATOM     29  C   UNL A   1      42.072  27.649  28.554  1.00  0.00     0.010 A 
ATOM     30  C   UNL A   1      40.070  26.543  29.331  1.00  0.00     0.010 A 
ATOM     31  C   UNL A   1      40.994  27.592  29.451  1.00  0.00    -0.014 A 
BRANCH  31  32
ATOM     32  C   UNL A   1      40.838  28.584  30.548  1.00  0.00     0.031 A 
ATOM     33  C   UNL A   1      41.704  28.484  31.779  1.00  0.00     0.074 A 
ATOM     34  C   UNL A   1      39.883  29.533  30.473  1.00  0.00     0.049 A 
ATOM     35  N   UNL A   1      41.652  29.179  32.886  1.00  0.00    -0.248 NA
ATOM     36  C   UNL A   1      42.744  27.442  31.775  1.00  0.00     0.031 C 
ATOM     37  C   UNL A   1      38.953  29.713  29.357  1.00  0.00     0.029 A 
ATOM     38  N   UNL A   1      39.528  30.517  31.362  1.00  0.00    -0.354 N 
ATOM     39  C   UNL A   1      42.629  28.641  33.718  1.00  0.00     0.074 A 
ATOM     40  C   UNL A   1      43.225  27.532  33.006  1.00  0.00     0.031 C 
ATOM     41  C   UNL A   1      38.147  30.755  29.619  1.00  0.00     0.029 A 
ATOM     42  C   UNL A   1      38.477  31.294  30.934  1.00  0.00     0.049 A 
ATOM     43  H   UNL A   1      39.985  30.654  32.223  1.00  0.00     0.167 HD
ATOM     44  C   UNL A   1      43.012  29.047  34.953  1.00  0.00     0.037 A 
ATOM     45  C   UNL A   1      37.846  32.320  31.538  1.00  0.00     0.037 A 
ATOM     46  C   UNL A   1      42.451  30.181  35.639  1.00  0.00     0.049 A 
ATOM     47  C   UNL A   1      38.306  32.772  32.897  1.00  0.00     0.074 A 
ATOM     48  C   UNL A   1      42.812  30.710  36.866  1.00  0.00     0.029 A 
ATOM     49  N   UNL A   1      41.416  30.966  35.154  1.00  0.00    -0.354 N 
ATOM     50  N   UNL A   1      39.261  32.279  33.650  1.00  0.00    -0.248 NA
ATOM     51  C   UNL A   1      37.608  33.922  33.488  1.00  0.00     0.031 C 
ATOM     52  C   UNL A   1      41.975  31.799  37.135  1.00  0.00     0.029 A 
ATOM     53  C   UNL A   1      41.119  31.970  36.059  1.00  0.00     0.049 A 
ATOM     54  H   UNL A   1      40.960  30.831  34.292  1.00  0.00     0.167 HD
ATOM     55  C   UNL A   1      39.297  33.075  34.789  1.00  0.00     0.074 A 
ATOM     56  C   UNL A   1      38.273  34.088  34.624  1.00  0.00     0.031 C 
ATOM     57  C   UNL A   1      40.106  32.978  35.874  1.00  0.00     0.037 A 
BRANCH  44  58
ATOM     58  C   UNL A   1      44.099  28.263  35.637  1.00  0.00     0.058 A 
ATOM     59  C   UNL A   1      45.457  28.568  35.449  1.00  0.00     0.135 A 
ATOM     60  C   UNL A   1      43.779  27.211  36.511  1.00  0.00     0.135 A 
ATOM     61  F   UNL A   1      45.819  29.554  34.613  1.00  0.00    -0.206 F 
ATOM     62  C   UNL A   1      46.460  27.834  36.074  1.00  0.00     0.059 A 
ATOM     63  C   UNL A   1      44.766  26.482  37.169  1.00  0.00     0.059 A 
ATOM     64  F   UNL A   1      42.497  26.878  36.729  1.00  0.00    -0.206 F 
ATOM     65  C   UNL A   1      46.105  26.790  36.930  1.00  0.00     0.060 A 
BRANCH  65  66
ATOM     66  S   UNL A   1      47.416  25.844  37.733  1.00  0.00     0.124 S 
ATOM     67  O   UNL A   1      48.604  26.380  37.075  1.00  0.00    -0.237 OA
ATOM     68  O   UNL A   1      47.253  26.212  39.138  1.00  0.00    -0.237 OA
ATOM     69  O   UNL A   1      47.087  24.463  37.408  1.00  0.00    -0.744 OA
ENDBRANCH  65  66
ENDBRANCH  44  58
BRANCH  45  70
ATOM     70  C   UNL A   1      36.725  33.010  30.846  1.00  0.00     0.058 A 
ATOM     71  C   UNL A   1      35.397  32.803  31.247  1.00  0.00     0.135 A 
ATOM     72  C   UNL A   1      36.957  33.898  29.784  1.00  0.00     0.135 A 
ATOM     73  F   UNL A   1      35.125  31.959  32.253  1.00  0.00    -0.206 F 
ATOM     74  C   UNL A   1      34.336  33.440  30.612  1.00  0.00     0.059 A 
ATOM     75  C   UNL A   1      35.914  34.564  29.147  1.00  0.00     0.059 A 
ATOM     76  F   UNL A   1      38.211  34.141  29.372  1.00  0.00    -0.206 F 
ATOM     77  C   UNL A   1      34.605  34.321  29.562  1.00  0.00     0.060 A 
BRANCH  77  78
ATOM     78  S   UNL A   1      33.224  35.181  28.776  1.00  0.00     0.124 S 
ATOM     79  O   UNL A   1      32.466  35.637  29.935  1.00  0.00    -0.237 OA
ATOM     80  O   UNL A   1      33.904  36.219  28.009  1.00  0.00    -0.237 OA
ATOM     81  O   UNL A   1      32.591  34.136  27.977  1.00  0.00    -0.744 OA
ENDBRANCH  77  78
ENDBRANCH  45  70
BRANCH  57  82
ATOM     82  C   UNL A   1      39.944  34.013  36.951  1.00  0.00     0.058 A 
ATOM     83  C   UNL A   1      40.549  35.276  36.857  1.00  0.00     0.135 A 
ATOM     84  C   UNL A   1      39.131  33.755  38.066  1.00  0.00     0.135 A 
ATOM     85  F   UNL A   1      41.341  35.569  35.814  1.00  0.00    -0.206 F 
ATOM     86  C   UNL A   1      40.368  36.242  37.842  1.00  0.00     0.059 A 
ATOM     87  C   UNL A   1      38.917  34.714  39.051  1.00  0.00     0.059 A 
ATOM     88  F   UNL A   1      38.521  32.566  38.198  1.00  0.00    -0.206 F 
ATOM     89  C   UNL A   1      39.549  35.951  38.935  1.00  0.00     0.060 A 
BRANCH  89  90
ATOM     90  S   UNL A   1      39.293  37.225  40.189  1.00  0.00     0.124 S 
ATOM     91  O   UNL A   1      38.557  36.488  41.210  1.00  0.00    -0.237 OA
ATOM     92  O   UNL A   1      40.658  37.601  40.539  1.00  0.00    -0.237 OA
ATOM     93  O   UNL A   1      38.529  38.249  39.480  1.00  0.00    -0.744 OA
ENDBRANCH  89  90
ENDBRANCH  57  82
ENDBRANCH  31  32
ENDBRANCH  23  26
ENDBRANCH  21  22
ENDBRANCH   1  21
TORSDOF 15
ENDMDL
