MODEL 1
REMARK VINA RESULT:     -12.1      0.000      0.000
REMARK SMILES O=C(NCCCNC(=O)[C@@H]1CCc2[nH]ncc2C1)c1ccc(-c2c3nc(c(-c4c(F)cc(S(=O)(=O)[O-])cc4F)c4ccc([nH]4)c(-c4c(F)cc(S(=O)(=O)[O-])cc4F)c4nc(c(-c5c(F)cc(S(=O)(=O)[O-])cc5F)c5ccc2[nH]5)C=C4)C=C3)cc1
REMARK SMILES IDX 1 1 2 2 3 3 19 5 20 6 84 7 21 8 83 9 22 10 23 11 24 12 77 13
REMARK SMILES IDX 25 14 82 15 76 16 78 17 26 18 81 19 75 20 74 21 27 23 61 24
REMARK SMILES IDX 40 25 60 26 41 27 44 28 59 29 79 30 42 31 43 32 58 34 80 35
REMARK SMILES IDX 45 36 28 37 29 38 38 39 30 40 31 41 37 42 39 43 32 44 33 45
REMARK SMILES IDX 34 46 35 47 36 48 62 49 63 50 72 51 64 52 65 53 71 54 73 55
REMARK SMILES IDX 66 56 67 57 68 58 69 59 70 60 46 61 47 62 56 63 48 64 49 65
REMARK SMILES IDX 55 66 57 67 50 68 51 69 52 70 53 71 54 72 4 73 5 74 6 75
REMARK SMILES IDX 7 76 8 77 9 79 10 80 11 81 18 82 12 83 17 84 13 85 16 86
REMARK SMILES IDX 14 87 15 88
REMARK H PARENT 3 4 78 22 44 33 7 78 14 89
REMARK Flexibility Score: inf
ROOT
ATOM      1  O   UNL A   1      41.722  24.816  25.973  1.00  0.00    -0.269 OA
ATOM      2  C   UNL A   1      40.624  24.892  26.519  1.00  0.00     0.251 C 
ATOM      3  N   UNL A   1      39.605  24.069  26.100  1.00  0.00    -0.352 N 
ATOM      4  H   UNL A   1      39.878  23.353  25.482  1.00  0.00     0.163 HD
ENDROOT
BRANCH   2   5
ATOM      5  C   UNL A   1      40.395  25.882  27.596  1.00  0.00     0.039 A 
ATOM      6  C   UNL A   1      41.062  27.108  27.598  1.00  0.00     0.014 A 
ATOM      7  C   UNL A   1      39.486  25.583  28.617  1.00  0.00     0.014 A 
ATOM      8  C   UNL A   1      40.959  27.950  28.699  1.00  0.00     0.010 A 
ATOM      9  C   UNL A   1      39.309  26.480  29.676  1.00  0.00     0.010 A 
ATOM     10  C   UNL A   1      40.078  27.651  29.750  1.00  0.00    -0.014 A 
BRANCH  10  11
ATOM     11  C   UNL A   1      39.971  28.592  30.896  1.00  0.00     0.031 A 
ATOM     12  C   UNL A   1      40.900  28.489  32.078  1.00  0.00     0.074 A 
ATOM     13  C   UNL A   1      39.057  29.582  30.841  1.00  0.00     0.049 A 
ATOM     14  N   UNL A   1      40.981  29.264  33.130  1.00  0.00    -0.248 NA
ATOM     15  C   UNL A   1      41.854  27.370  32.086  1.00  0.00     0.031 C 
ATOM     16  C   UNL A   1      38.089  29.775  29.758  1.00  0.00     0.029 A 
ATOM     17  N   UNL A   1      38.810  30.626  31.695  1.00  0.00    -0.354 N 
ATOM     18  C   UNL A   1      41.969  28.712  33.938  1.00  0.00     0.074 A 
ATOM     19  C   UNL A   1      42.447  27.524  33.263  1.00  0.00     0.031 C 
ATOM     20  C   UNL A   1      37.397  30.902  29.981  1.00  0.00     0.029 A 
ATOM     21  C   UNL A   1      37.832  31.482  31.246  1.00  0.00     0.049 A 
ATOM     22  H   UNL A   1      39.288  30.751  32.547  1.00  0.00     0.167 HD
ATOM     23  C   UNL A   1      42.440  29.158  35.127  1.00  0.00     0.037 A 
ATOM     24  C   UNL A   1      37.338  32.609  31.790  1.00  0.00     0.037 A 
ATOM     25  C   UNL A   1      41.984  30.360  35.779  1.00  0.00     0.049 A 
ATOM     26  C   UNL A   1      37.894  33.096  33.097  1.00  0.00     0.074 A 
ATOM     27  C   UNL A   1      42.428  30.917  36.968  1.00  0.00     0.029 A 
ATOM     28  N   UNL A   1      40.985  31.193  35.298  1.00  0.00    -0.354 N 
ATOM     29  N   UNL A   1      38.848  32.574  33.830  1.00  0.00    -0.248 NA
ATOM     30  C   UNL A   1      37.308  34.322  33.650  1.00  0.00     0.031 C 
ATOM     31  C   UNL A   1      41.674  32.069  37.220  1.00  0.00     0.029 A 
ATOM     32  C   UNL A   1      40.789  32.253  36.170  1.00  0.00     0.049 A 
ATOM     33  H   UNL A   1      40.488  31.053  34.460  1.00  0.00     0.167 HD
ATOM     34  C   UNL A   1      38.991  33.420  34.922  1.00  0.00     0.074 A 
ATOM     35  C   UNL A   1      38.034  34.495  34.747  1.00  0.00     0.031 C 
ATOM     36  C   UNL A   1      39.838  33.317  35.976  1.00  0.00     0.037 A 
BRANCH  23  37
ATOM     37  C   UNL A   1      43.494  28.335  35.814  1.00  0.00     0.058 A 
ATOM     38  C   UNL A   1      43.164  27.302  36.705  1.00  0.00     0.135 A 
ATOM     39  C   UNL A   1      44.856  28.562  35.552  1.00  0.00     0.135 A 
ATOM     40  F   UNL A   1      41.879  27.051  37.003  1.00  0.00    -0.206 F 
ATOM     41  C   UNL A   1      44.146  26.543  37.335  1.00  0.00     0.059 A 
ATOM     42  C   UNL A   1      45.854  27.800  36.154  1.00  0.00     0.059 A 
ATOM     43  F   UNL A   1      45.228  29.537  34.707  1.00  0.00    -0.206 F 
ATOM     44  C   UNL A   1      45.489  26.804  37.057  1.00  0.00     0.060 A 
BRANCH  44  45
ATOM     45  S   UNL A   1      46.754  25.820  37.890  1.00  0.00     0.124 S 
ATOM     46  O   UNL A   1      46.517  24.499  37.314  1.00  0.00    -0.237 OA
ATOM     47  O   UNL A   1      47.989  26.478  37.475  1.00  0.00    -0.237 OA
ATOM     48  O   UNL A   1      46.416  25.959  39.303  1.00  0.00    -0.744 OA
ENDBRANCH  44  45
ENDBRANCH  23  37
BRANCH  24  49
ATOM     49  C   UNL A   1      36.273  33.364  31.081  1.00  0.00     0.058 A 
ATOM     50  C   UNL A   1      34.960  33.391  31.572  1.00  0.00     0.135 A 
ATOM     51  C   UNL A   1      36.555  34.098  29.919  1.00  0.00     0.135 A 
ATOM     52  F   UNL A   1      34.643  32.703  32.679  1.00  0.00    -0.206 F 
ATOM     53  C   UNL A   1      33.958  34.112  30.930  1.00  0.00     0.059 A 
ATOM     54  C   UNL A   1      35.577  34.846  29.273  1.00  0.00     0.059 A 
ATOM     55  F   UNL A   1      37.802  34.118  29.422  1.00  0.00    -0.206 F 
ATOM     56  C   UNL A   1      34.278  34.839  29.782  1.00  0.00     0.060 A 
BRANCH  56  57
ATOM     57  S   UNL A   1      32.988  35.821  28.987  1.00  0.00     0.124 S 
ATOM     58  O   UNL A   1      33.776  36.843  28.308  1.00  0.00    -0.237 OA
ATOM     59  O   UNL A   1      32.337  34.839  28.127  1.00  0.00    -0.237 OA
ATOM     60  O   UNL A   1      32.184  36.287  30.113  1.00  0.00    -0.744 OA
ENDBRANCH  56  57
ENDBRANCH  24  49
BRANCH  36  61
ATOM     61  C   UNL A   1      39.790  34.416  37.000  1.00  0.00     0.058 A 
ATOM     62  C   UNL A   1      39.022  34.301  38.168  1.00  0.00     0.135 A 
ATOM     63  C   UNL A   1      40.540  35.588  36.815  1.00  0.00     0.135 A 
ATOM     64  F   UNL A   1      38.282  33.203  38.386  1.00  0.00    -0.206 F 
ATOM     65  C   UNL A   1      38.975  35.327  39.107  1.00  0.00     0.059 A 
ATOM     66  C   UNL A   1      40.526  36.616  37.752  1.00  0.00     0.059 A 
ATOM     67  F   UNL A   1      41.298  35.740  35.718  1.00  0.00    -0.206 F 
ATOM     68  C   UNL A   1      39.727  36.482  38.887  1.00  0.00     0.060 A 
BRANCH  68  69
ATOM     69  S   UNL A   1      39.672  37.804  40.116  1.00  0.00     0.124 S 
ATOM     70  O   UNL A   1      38.584  38.632  39.607  1.00  0.00    -0.237 OA
ATOM     71  O   UNL A   1      39.392  37.077  41.350  1.00  0.00    -0.237 OA
ATOM     72  O   UNL A   1      41.005  38.395  40.035  1.00  0.00    -0.744 OA
ENDBRANCH  68  69
ENDBRANCH  36  61
ENDBRANCH  10  11
ENDBRANCH   2   5
BRANCH   3  73
ATOM     73  C   UNL A   1      38.186  24.091  26.429  1.00  0.00     0.118 C 
BRANCH  73  74
ATOM     74  C   UNL A   1      37.306  23.712  25.246  1.00  0.00     0.042 C 
BRANCH  74  75
ATOM     75  C   UNL A   1      36.727  22.308  25.341  1.00  0.00     0.117 C 
BRANCH  75  76
ATOM     76  N   UNL A   1      35.813  22.161  26.465  1.00  0.00    -0.356 N 
ATOM     77  C   UNL A   1      34.581  21.568  26.512  1.00  0.00     0.223 C 
ATOM     78  H   UNL A   1      36.126  22.547  27.315  1.00  0.00     0.163 HD
ATOM     79  O   UNL A   1      33.988  21.518  27.588  1.00  0.00    -0.275 OA
BRANCH  77  80
ATOM     80  C   UNL A   1      34.007  20.995  25.234  1.00  0.00     0.083 C 
ATOM     81  C   UNL A   1      32.805  21.829  24.724  1.00  0.00     0.020 C 
ATOM     82  C   UNL A   1      33.585  19.515  25.404  1.00  0.00     0.052 C 
ATOM     83  C   UNL A   1      32.376  21.398  23.305  1.00  0.00     0.057 C 
ATOM     84  C   UNL A   1      33.002  19.050  24.116  1.00  0.00    -0.006 A 
ATOM     85  C   UNL A   1      32.455  19.919  23.196  1.00  0.00     0.038 A 
ATOM     86  C   UNL A   1      32.897  17.788  23.514  1.00  0.00     0.138 A 
ATOM     87  N   UNL A   1      32.078  19.165  22.128  1.00  0.00    -0.282 N 
ATOM     88  N   UNL A   1      32.337  17.853  22.300  1.00  0.00    -0.184 NA
ATOM     89  H   UNL A   1      31.662  19.537  21.317  1.00  0.00     0.190 HD
ENDBRANCH  77  80
ENDBRANCH  75  76
ENDBRANCH  74  75
ENDBRANCH  73  74
ENDBRANCH   3  73
TORSDOF 13
ENDMDL
MODEL 2
REMARK VINA RESULT:     -12.1      1.558      2.312
REMARK SMILES O=C(NCCCNC(=O)[C@@H]1CCc2[nH]ncc2C1)c1ccc(-c2c3nc(c(-c4c(F)cc(S(=O)(=O)[O-])cc4F)c4ccc([nH]4)c(-c4c(F)cc(S(=O)(=O)[O-])cc4F)c4nc(c(-c5c(F)cc(S(=O)(=O)[O-])cc5F)c5ccc2[nH]5)C=C4)C=C3)cc1
REMARK SMILES IDX 1 1 2 2 3 3 19 5 20 6 84 7 21 8 83 9 22 10 23 11 24 12 77 13
REMARK SMILES IDX 25 14 82 15 76 16 78 17 26 18 81 19 75 20 74 21 27 23 61 24
REMARK SMILES IDX 40 25 60 26 41 27 44 28 59 29 79 30 42 31 43 32 58 34 80 35
REMARK SMILES IDX 45 36 28 37 29 38 38 39 30 40 31 41 37 42 39 43 32 44 33 45
REMARK SMILES IDX 34 46 35 47 36 48 62 49 63 50 72 51 64 52 65 53 71 54 73 55
REMARK SMILES IDX 66 56 67 57 68 58 69 59 70 60 46 61 47 62 56 63 48 64 49 65
REMARK SMILES IDX 55 66 57 67 50 68 51 69 52 70 53 71 54 72 4 73 5 74 6 75
REMARK SMILES IDX 7 76 8 77 9 79 10 80 11 81 18 82 12 83 17 84 13 85 16 86
REMARK SMILES IDX 14 87 15 88
REMARK H PARENT 3 4 78 22 44 33 7 78 14 89
REMARK Flexibility Score: inf
ROOT
ATOM      1  O   UNL A   1      41.855  25.774  25.048  1.00  0.00    -0.269 OA
ATOM      2  C   UNL A   1      41.416  25.268  26.079  1.00  0.00     0.251 C 
ATOM      3  N   UNL A   1      41.020  23.952  26.066  1.00  0.00    -0.352 N 
ATOM      4  H   UNL A   1      41.266  23.452  25.255  1.00  0.00     0.163 HD
ENDROOT
BRANCH   2   5
ATOM      5  C   UNL A   1      41.290  26.080  27.311  1.00  0.00     0.039 A 
ATOM      6  C   UNL A   1      40.318  25.785  28.268  1.00  0.00     0.014 A 
ATOM      7  C   UNL A   1      42.170  27.147  27.519  1.00  0.00     0.014 A 
ATOM      8  C   UNL A   1      40.109  26.654  29.332  1.00  0.00     0.010 A 
ATOM      9  C   UNL A   1      42.021  27.963  28.646  1.00  0.00     0.010 A 
ATOM     10  C   UNL A   1      40.960  27.752  29.539  1.00  0.00    -0.014 A 
BRANCH  10  11
ATOM     11  C   UNL A   1      40.725  28.640  30.707  1.00  0.00     0.031 A 
ATOM     12  C   UNL A   1      41.606  28.573  31.927  1.00  0.00     0.074 A 
ATOM     13  C   UNL A   1      39.734  29.553  30.641  1.00  0.00     0.049 A 
ATOM     14  N   UNL A   1      41.576  29.315  33.005  1.00  0.00    -0.248 NA
ATOM     15  C   UNL A   1      42.650  27.537  31.945  1.00  0.00     0.031 C 
ATOM     16  C   UNL A   1      38.802  29.703  29.520  1.00  0.00     0.029 A 
ATOM     17  N   UNL A   1      39.363  30.542  31.514  1.00  0.00    -0.354 N 
ATOM     18  C   UNL A   1      42.571  28.818  33.840  1.00  0.00     0.074 A 
ATOM     19  C   UNL A   1      43.175  27.698  33.152  1.00  0.00     0.031 C 
ATOM     20  C   UNL A   1      38.008  30.760  29.746  1.00  0.00     0.029 A 
ATOM     21  C   UNL A   1      38.338  31.330  31.048  1.00  0.00     0.049 A 
ATOM     22  H   UNL A   1      39.791  30.677  32.391  1.00  0.00     0.167 HD
ATOM     23  C   UNL A   1      42.950  29.260  35.064  1.00  0.00     0.037 A 
ATOM     24  C   UNL A   1      37.728  32.393  31.603  1.00  0.00     0.037 A 
ATOM     25  C   UNL A   1      42.367  30.397  35.731  1.00  0.00     0.049 A 
ATOM     26  C   UNL A   1      38.183  32.878  32.948  1.00  0.00     0.074 A 
ATOM     27  C   UNL A   1      42.710  30.946  36.956  1.00  0.00     0.029 A 
ATOM     28  N   UNL A   1      41.323  31.161  35.230  1.00  0.00    -0.354 N 
ATOM     29  N   UNL A   1      39.144  32.411  33.708  1.00  0.00    -0.248 NA
ATOM     30  C   UNL A   1      37.472  34.032  33.512  1.00  0.00     0.031 C 
ATOM     31  C   UNL A   1      41.852  32.023  37.208  1.00  0.00     0.029 A 
ATOM     32  C   UNL A   1      41.002  32.170  36.125  1.00  0.00     0.049 A 
ATOM     33  H   UNL A   1      40.877  31.010  34.366  1.00  0.00     0.167 HD
ATOM     34  C   UNL A   1      39.168  33.228  34.832  1.00  0.00     0.074 A 
ATOM     35  C   UNL A   1      38.133  34.225  34.646  1.00  0.00     0.031 C 
ATOM     36  C   UNL A   1      39.974  33.158  35.920  1.00  0.00     0.037 A 
BRANCH  23  37
ATOM     37  C   UNL A   1      44.039  28.503  35.773  1.00  0.00     0.058 A 
ATOM     38  C   UNL A   1      45.393  28.846  35.632  1.00  0.00     0.135 A 
ATOM     39  C   UNL A   1      43.721  27.436  36.630  1.00  0.00     0.135 A 
ATOM     40  F   UNL A   1      45.755  29.848  34.814  1.00  0.00    -0.206 F 
ATOM     41  C   UNL A   1      46.394  28.141  36.293  1.00  0.00     0.059 A 
ATOM     42  C   UNL A   1      44.705  26.731  37.317  1.00  0.00     0.059 A 
ATOM     43  F   UNL A   1      42.442  27.065  36.800  1.00  0.00    -0.206 F 
ATOM     44  C   UNL A   1      46.040  27.081  37.129  1.00  0.00     0.060 A 
BRANCH  44  45
ATOM     45  S   UNL A   1      47.350  26.166  37.971  1.00  0.00     0.124 S 
ATOM     46  O   UNL A   1      48.519  26.545  37.182  1.00  0.00    -0.237 OA
ATOM     47  O   UNL A   1      47.297  26.713  39.324  1.00  0.00    -0.237 OA
ATOM     48  O   UNL A   1      46.930  24.775  37.844  1.00  0.00    -0.744 OA
ENDBRANCH  44  45
ENDBRANCH  23  37
BRANCH  24  49
ATOM     49  C   UNL A   1      36.634  33.082  30.869  1.00  0.00     0.058 A 
ATOM     50  C   UNL A   1      35.297  32.929  31.258  1.00  0.00     0.135 A 
ATOM     51  C   UNL A   1      36.911  33.932  29.787  1.00  0.00     0.135 A 
ATOM     52  F   UNL A   1      34.985  32.125  32.286  1.00  0.00    -0.206 F 
ATOM     53  C   UNL A   1      34.266  33.585  30.593  1.00  0.00     0.059 A 
ATOM     54  C   UNL A   1      35.900  34.618  29.122  1.00  0.00     0.059 A 
ATOM     55  F   UNL A   1      38.178  34.125  29.390  1.00  0.00    -0.206 F 
ATOM     56  C   UNL A   1      34.580  34.431  29.528  1.00  0.00     0.060 A 
BRANCH  56  57
ATOM     57  S   UNL A   1      33.244  35.327  28.707  1.00  0.00     0.124 S 
ATOM     58  O   UNL A   1      33.988  36.311  27.930  1.00  0.00    -0.237 OA
ATOM     59  O   UNL A   1      32.587  34.272  27.942  1.00  0.00    -0.237 OA
ATOM     60  O   UNL A   1      32.466  35.859  29.823  1.00  0.00    -0.744 OA
ENDBRANCH  56  57
ENDBRANCH  24  49
BRANCH  36  61
ATOM     61  C   UNL A   1      39.790  34.213  36.974  1.00  0.00     0.058 A 
ATOM     62  C   UNL A   1      38.984  33.994  38.102  1.00  0.00     0.135 A 
ATOM     63  C   UNL A   1      40.445  35.449  36.861  1.00  0.00     0.135 A 
ATOM     64  F   UNL A   1      38.331  32.832  38.252  1.00  0.00    -0.206 F 
ATOM     65  C   UNL A   1      38.810  34.979  39.069  1.00  0.00     0.059 A 
ATOM     66  C   UNL A   1      40.303  36.438  37.828  1.00  0.00     0.059 A 
ATOM     67  F   UNL A   1      41.234  35.702  35.805  1.00  0.00    -0.206 F 
ATOM     68  C   UNL A   1      39.471  36.200  38.920  1.00  0.00     0.060 A 
BRANCH  68  69
ATOM     69  S   UNL A   1      39.252  37.468  40.186  1.00  0.00     0.124 S 
ATOM     70  O   UNL A   1      38.785  36.674  41.318  1.00  0.00    -0.237 OA
ATOM     71  O   UNL A   1      40.595  38.025  40.313  1.00  0.00    -0.237 OA
ATOM     72  O   UNL A   1      38.262  38.366  39.596  1.00  0.00    -0.744 OA
ENDBRANCH  68  69
ENDBRANCH  36  61
ENDBRANCH  10  11
ENDBRANCH   2   5
BRANCH   3  73
ATOM     73  C   UNL A   1      40.296  23.180  27.068  1.00  0.00     0.118 C 
BRANCH  73  74
ATOM     74  C   UNL A   1      38.983  22.621  26.538  1.00  0.00     0.042 C 
BRANCH  74  75
ATOM     75  C   UNL A   1      38.018  23.690  26.047  1.00  0.00     0.117 C 
BRANCH  75  76
ATOM     76  N   UNL A   1      37.657  23.509  24.648  1.00  0.00    -0.356 N 
ATOM     77  C   UNL A   1      36.442  23.207  24.097  1.00  0.00     0.223 C 
ATOM     78  H   UNL A   1      38.395  23.618  24.005  1.00  0.00     0.163 HD
ATOM     79  O   UNL A   1      36.348  23.140  22.872  1.00  0.00    -0.275 OA
BRANCH  77  80
ATOM     80  C   UNL A   1      35.267  22.975  25.022  1.00  0.00     0.083 C 
ATOM     81  C   UNL A   1      34.619  21.588  24.782  1.00  0.00     0.020 C 
ATOM     82  C   UNL A   1      34.197  24.086  24.885  1.00  0.00     0.052 C 
ATOM     83  C   UNL A   1      33.585  21.249  25.878  1.00  0.00     0.057 C 
ATOM     84  C   UNL A   1      33.070  23.756  25.800  1.00  0.00    -0.006 A 
ATOM     85  C   UNL A   1      32.812  22.470  26.221  1.00  0.00     0.038 A 
ATOM     86  C   UNL A   1      32.109  24.540  26.454  1.00  0.00     0.138 A 
ATOM     87  N   UNL A   1      31.761  22.547  27.081  1.00  0.00    -0.282 N 
ATOM     88  N   UNL A   1      31.310  23.808  27.240  1.00  0.00    -0.184 NA
ATOM     89  H   UNL A   1      31.372  21.767  27.540  1.00  0.00     0.190 HD
ENDBRANCH  77  80
ENDBRANCH  75  76
ENDBRANCH  74  75
ENDBRANCH  73  74
ENDBRANCH   3  73
TORSDOF 13
ENDMDL
MODEL 3
REMARK VINA RESULT:     -12.1      7.283     14.249
REMARK SMILES O=C(NCCCNC(=O)[C@@H]1CCc2[nH]ncc2C1)c1ccc(-c2c3nc(c(-c4c(F)cc(S(=O)(=O)[O-])cc4F)c4ccc([nH]4)c(-c4c(F)cc(S(=O)(=O)[O-])cc4F)c4nc(c(-c5c(F)cc(S(=O)(=O)[O-])cc5F)c5ccc2[nH]5)C=C4)C=C3)cc1
REMARK SMILES IDX 1 1 2 2 3 3 19 5 20 6 84 7 21 8 83 9 22 10 23 11 24 12 77 13
REMARK SMILES IDX 25 14 82 15 76 16 78 17 26 18 81 19 75 20 74 21 27 23 61 24
REMARK SMILES IDX 40 25 60 26 41 27 44 28 59 29 79 30 42 31 43 32 58 34 80 35
REMARK SMILES IDX 45 36 28 37 29 38 38 39 30 40 31 41 37 42 39 43 32 44 33 45
REMARK SMILES IDX 34 46 35 47 36 48 62 49 63 50 72 51 64 52 65 53 71 54 73 55
REMARK SMILES IDX 66 56 67 57 68 58 69 59 70 60 46 61 47 62 56 63 48 64 49 65
REMARK SMILES IDX 55 66 57 67 50 68 51 69 52 70 53 71 54 72 4 73 5 74 6 75
REMARK SMILES IDX 7 76 8 77 9 79 10 80 11 81 18 82 12 83 17 84 13 85 16 86
REMARK SMILES IDX 14 87 15 88
REMARK H PARENT 3 4 78 22 44 33 7 78 14 89
REMARK Flexibility Score: inf
ROOT
ATOM      1  O   UNL A   1      35.833  29.700  30.976  1.00  0.00    -0.269 OA
ATOM      2  C   UNL A   1      36.755  30.488  30.778  1.00  0.00     0.251 C 
ATOM      3  N   UNL A   1      36.575  31.820  31.065  1.00  0.00    -0.352 N 
ATOM      4  H   UNL A   1      35.753  32.030  31.565  1.00  0.00     0.163 HD
ENDROOT
BRANCH   2   5
ATOM      5  C   UNL A   1      38.035  30.008  30.209  1.00  0.00     0.039 A 
ATOM      6  C   UNL A   1      39.058  29.541  31.036  1.00  0.00     0.014 A 
ATOM      7  C   UNL A   1      38.209  30.012  28.821  1.00  0.00     0.014 A 
ATOM      8  C   UNL A   1      40.306  29.252  30.496  1.00  0.00     0.010 A 
ATOM      9  C   UNL A   1      39.436  29.623  28.272  1.00  0.00     0.010 A 
ATOM     10  C   UNL A   1      40.511  29.283  29.108  1.00  0.00    -0.014 A 
BRANCH  10  11
ATOM     11  C   UNL A   1      41.851  28.936  28.565  1.00  0.00     0.031 A 
ATOM     12  C   UNL A   1      42.962  29.952  28.523  1.00  0.00     0.074 A 
ATOM     13  C   UNL A   1      42.078  27.671  28.155  1.00  0.00     0.049 A 
ATOM     14  N   UNL A   1      44.204  29.798  28.139  1.00  0.00    -0.248 NA
ATOM     15  C   UNL A   1      42.639  31.319  28.961  1.00  0.00     0.031 C 
ATOM     16  C   UNL A   1      41.076  26.602  28.129  1.00  0.00     0.029 A 
ATOM     17  N   UNL A   1      43.222  27.062  27.709  1.00  0.00    -0.354 N 
ATOM     18  C   UNL A   1      44.800  31.048  28.257  1.00  0.00     0.074 A 
ATOM     19  C   UNL A   1      43.779  31.956  28.733  1.00  0.00     0.031 C 
ATOM     20  C   UNL A   1      41.663  25.457  27.750  1.00  0.00     0.029 A 
ATOM     21  C   UNL A   1      43.067  25.720  27.455  1.00  0.00     0.049 A 
ATOM     22  H   UNL A   1      44.074  27.541  27.583  1.00  0.00     0.167 HD
ATOM     23  C   UNL A   1      46.083  31.404  28.002  1.00  0.00     0.037 A 
ATOM     24  C   UNL A   1      43.954  24.801  27.032  1.00  0.00     0.037 A 
ATOM     25  C   UNL A   1      47.105  30.488  27.560  1.00  0.00     0.049 A 
ATOM     26  C   UNL A   1      45.374  25.215  26.779  1.00  0.00     0.074 A 
ATOM     27  C   UNL A   1      48.443  30.746  27.312  1.00  0.00     0.029 A 
ATOM     28  N   UNL A   1      46.904  29.139  27.305  1.00  0.00    -0.354 N 
ATOM     29  N   UNL A   1      45.924  26.396  26.925  1.00  0.00    -0.248 NA
ATOM     30  C   UNL A   1      46.294  24.174  26.305  1.00  0.00     0.031 C 
ATOM     31  C   UNL A   1      49.044  29.559  26.876  1.00  0.00     0.029 A 
ATOM     32  C   UNL A   1      48.091  28.553  26.891  1.00  0.00     0.049 A 
ATOM     33  H   UNL A   1      46.046  28.668  27.403  1.00  0.00     0.167 HD
ATOM     34  C   UNL A   1      47.260  26.237  26.580  1.00  0.00     0.074 A 
ATOM     35  C   UNL A   1      47.437  24.841  26.231  1.00  0.00     0.031 C 
ATOM     36  C   UNL A   1      48.251  27.162  26.555  1.00  0.00     0.037 A 
BRANCH  23  37
ATOM     37  C   UNL A   1      46.453  32.850  28.177  1.00  0.00     0.058 A 
ATOM     38  C   UNL A   1      46.967  33.343  29.387  1.00  0.00     0.135 A 
ATOM     39  C   UNL A   1      46.321  33.752  27.108  1.00  0.00     0.135 A 
ATOM     40  F   UNL A   1      47.101  32.528  30.446  1.00  0.00    -0.206 F 
ATOM     41  C   UNL A   1      47.310  34.683  29.540  1.00  0.00     0.059 A 
ATOM     42  C   UNL A   1      46.678  35.092  27.232  1.00  0.00     0.059 A 
ATOM     43  F   UNL A   1      45.835  33.334  25.928  1.00  0.00    -0.206 F 
ATOM     44  C   UNL A   1      47.156  35.551  28.458  1.00  0.00     0.060 A 
BRANCH  44  45
ATOM     45  S   UNL A   1      47.592  37.291  28.674  1.00  0.00     0.124 S 
ATOM     46  O   UNL A   1      46.282  37.930  28.585  1.00  0.00    -0.237 OA
ATOM     47  O   UNL A   1      48.210  37.298  29.996  1.00  0.00    -0.237 OA
ATOM     48  O   UNL A   1      48.497  37.555  27.561  1.00  0.00    -0.744 OA
ENDBRANCH  44  45
ENDBRANCH  23  37
BRANCH  24  49
ATOM     49  C   UNL A   1      43.521  23.391  26.845  1.00  0.00     0.058 A 
ATOM     50  C   UNL A   1      43.263  22.565  27.947  1.00  0.00     0.135 A 
ATOM     51  C   UNL A   1      43.325  22.857  25.563  1.00  0.00     0.135 A 
ATOM     52  F   UNL A   1      43.438  23.032  29.193  1.00  0.00    -0.206 F 
ATOM     53  C   UNL A   1      42.836  21.251  27.786  1.00  0.00     0.059 A 
ATOM     54  C   UNL A   1      42.875  21.554  25.376  1.00  0.00     0.059 A 
ATOM     55  F   UNL A   1      43.541  23.616  24.477  1.00  0.00    -0.206 F 
ATOM     56  C   UNL A   1      42.642  20.756  26.496  1.00  0.00     0.060 A 
BRANCH  56  57
ATOM     57  S   UNL A   1      42.030  19.069  26.293  1.00  0.00     0.124 S 
ATOM     58  O   UNL A   1      42.094  18.570  27.662  1.00  0.00    -0.237 OA
ATOM     59  O   UNL A   1      40.691  19.288  25.754  1.00  0.00    -0.237 OA
ATOM     60  O   UNL A   1      42.984  18.478  25.359  1.00  0.00    -0.744 OA
ENDBRANCH  56  57
ENDBRANCH  24  49
BRANCH  36  61
ATOM     61  C   UNL A   1      49.622  26.683  26.170  1.00  0.00     0.058 A 
ATOM     62  C   UNL A   1      50.130  26.864  24.875  1.00  0.00     0.135 A 
ATOM     63  C   UNL A   1      50.443  26.052  27.118  1.00  0.00     0.135 A 
ATOM     64  F   UNL A   1      49.380  27.455  23.931  1.00  0.00    -0.206 F 
ATOM     65  C   UNL A   1      51.396  26.409  24.523  1.00  0.00     0.059 A 
ATOM     66  C   UNL A   1      51.721  25.610  26.794  1.00  0.00     0.059 A 
ATOM     67  F   UNL A   1      50.006  25.864  28.373  1.00  0.00    -0.206 F 
ATOM     68  C   UNL A   1      52.183  25.779  25.490  1.00  0.00     0.060 A 
BRANCH  68  69
ATOM     69  S   UNL A   1      53.831  25.203  25.030  1.00  0.00     0.124 S 
ATOM     70  O   UNL A   1      53.980  25.776  23.697  1.00  0.00    -0.237 OA
ATOM     71  O   UNL A   1      54.672  25.788  26.070  1.00  0.00    -0.237 OA
ATOM     72  O   UNL A   1      53.706  23.749  25.080  1.00  0.00    -0.744 OA
ENDBRANCH  68  69
ENDBRANCH  36  61
ENDBRANCH  10  11
ENDBRANCH   2   5
BRANCH   3  73
ATOM     73  C   UNL A   1      37.411  32.970  30.747  1.00  0.00     0.118 C 
BRANCH  73  74
ATOM     74  C   UNL A   1      38.464  33.240  31.812  1.00  0.00     0.042 C 
BRANCH  74  75
ATOM     75  C   UNL A   1      38.091  34.362  32.770  1.00  0.00     0.117 C 
BRANCH  75  76
ATOM     76  N   UNL A   1      37.112  33.939  33.762  1.00  0.00    -0.356 N 
ATOM     77  C   UNL A   1      35.787  34.260  33.866  1.00  0.00     0.223 C 
ATOM     78  H   UNL A   1      37.455  33.336  34.461  1.00  0.00     0.163 HD
ATOM     79  O   UNL A   1      35.124  33.753  34.769  1.00  0.00    -0.275 OA
BRANCH  77  80
ATOM     80  C   UNL A   1      35.195  35.222  32.858  1.00  0.00     0.083 C 
ATOM     81  C   UNL A   1      34.400  36.356  33.552  1.00  0.00     0.020 C 
ATOM     82  C   UNL A   1      34.291  34.497  31.831  1.00  0.00     0.052 C 
ATOM     83  C   UNL A   1      34.006  37.465  32.553  1.00  0.00     0.057 C 
ATOM     84  C   UNL A   1      33.728  35.521  30.909  1.00  0.00    -0.006 A 
ATOM     85  C   UNL A   1      33.602  36.847  31.264  1.00  0.00     0.038 A 
ATOM     86  C   UNL A   1      33.275  35.468  29.583  1.00  0.00     0.138 A 
ATOM     87  N   UNL A   1      33.113  37.495  30.173  1.00  0.00    -0.282 N 
ATOM     88  N   UNL A   1      32.902  36.670  29.128  1.00  0.00    -0.184 NA
ATOM     89  H   UNL A   1      32.932  38.463  30.149  1.00  0.00     0.190 HD
ENDBRANCH  77  80
ENDBRANCH  75  76
ENDBRANCH  74  75
ENDBRANCH  73  74
ENDBRANCH   3  73
TORSDOF 13
ENDMDL
