MODEL 1
REMARK VINA RESULT:     -12.7      0.000      0.000
REMARK SMILES O=C(NCCCNC(=O)c1ccc(-c2c3nc(c(-c4c(F)cc(S(=O)(=O)[O-])cc4F)c4ccc([nH]4)c(-c4c(F)cc(S(=O)(=O)[O-])cc4F)c4nc(c(-c5c(F)cc(S(=O)(=O)[O-])cc5F)c5ccc2[nH]5)C=C4)C=C3)cc1)c1ccc(NC(=O)[C@H]2CCS(=O)(=O)C2)cc1
REMARK SMILES IDX 5 1 4 2 3 3 1 4 2 5 76 7 77 8 91 9 78 10 90 11 79 12 80 13
REMARK SMILES IDX 81 14 82 16 83 17 84 18 89 19 85 20 86 21 87 22 88 23 6 24
REMARK SMILES IDX 7 25 8 26 9 28 10 29 11 30 75 31 12 32 74 33 13 34 14 35
REMARK SMILES IDX 15 36 68 37 16 38 73 39 67 40 69 41 17 42 72 43 66 44 65 45
REMARK SMILES IDX 18 47 52 48 31 49 51 50 32 51 35 52 50 53 70 54 33 55 34 56
REMARK SMILES IDX 49 58 71 59 36 60 19 61 20 62 29 63 21 64 22 65 28 66 30 67
REMARK SMILES IDX 23 68 24 69 25 70 26 71 27 72 53 73 54 74 63 75 55 76 56 77
REMARK SMILES IDX 62 78 64 79 57 80 58 81 59 82 60 83 61 84 37 85 38 86 47 87
REMARK SMILES IDX 39 88 40 89 46 90 48 91 41 92 42 93 43 94 44 95 45 96
REMARK H PARENT 3 6 80 15 7 27 69 46 35 57
REMARK Flexibility Score: inf
ROOT
ATOM      1  C   UNL A   1      39.031  22.175  26.429  1.00  0.00     0.042 C 
ENDROOT
BRANCH   1   2
ATOM      2  C   UNL A   1      37.642  22.467  25.892  1.00  0.00     0.118 C 
BRANCH   2   3
ATOM      3  N   UNL A   1      37.630  22.704  24.448  1.00  0.00    -0.352 N 
ATOM      4  O   UNL A   1      36.704  23.012  22.401  1.00  0.00    -0.269 OA
ATOM      5  C   UNL A   1      36.575  23.014  23.620  1.00  0.00     0.251 C 
ATOM      6  H   UNL A   1      38.506  22.630  24.004  1.00  0.00     0.163 HD
BRANCH   5   7
ATOM      7  C   UNL A   1      35.277  23.379  24.221  1.00  0.00     0.039 A 
ATOM      8  C   UNL A   1      35.202  24.531  24.984  1.00  0.00     0.016 A 
ATOM      9  C   UNL A   1      34.137  22.597  24.050  1.00  0.00     0.016 A 
ATOM     10  C   UNL A   1      34.058  24.806  25.720  1.00  0.00     0.027 A 
ATOM     11  C   UNL A   1      32.956  22.929  24.739  1.00  0.00     0.027 A 
ATOM     12  C   UNL A   1      32.909  24.023  25.622  1.00  0.00     0.041 A 
BRANCH  12  13
ATOM     13  N   UNL A   1      31.689  24.263  26.303  1.00  0.00    -0.326 N 
ATOM     14  C   UNL A   1      30.571  25.018  26.026  1.00  0.00     0.228 C 
ATOM     15  H   UNL A   1      31.628  23.787  27.163  1.00  0.00     0.169 HD
ATOM     16  O   UNL A   1      29.584  24.921  26.755  1.00  0.00    -0.274 OA
BRANCH  14  17
ATOM     17  C   UNL A   1      30.595  26.005  24.890  1.00  0.00     0.095 C 
ATOM     18  C   UNL A   1      29.297  26.444  24.212  1.00  0.00     0.030 C 
ATOM     19  C   UNL A   1      31.232  27.307  25.368  1.00  0.00     0.150 C 
ATOM     20  C   UNL A   1      29.769  27.473  23.170  1.00  0.00     0.138 C 
ATOM     21  S   UNL A   1      31.108  28.370  23.956  1.00  0.00     0.151 S 
ATOM     22  O   UNL A   1      32.312  28.193  23.171  1.00  0.00    -0.229 OA
ATOM     23  O   UNL A   1      30.630  29.668  24.380  1.00  0.00    -0.229 OA
ENDBRANCH  14  17
ENDBRANCH  12  13
ENDBRANCH   5   7
ENDBRANCH   2   3
ENDBRANCH   1   2
BRANCH   1  24
ATOM     24  C   UNL A   1      39.724  23.384  27.025  1.00  0.00     0.118 C 
BRANCH  24  25
ATOM     25  N   UNL A   1      40.654  24.016  26.101  1.00  0.00    -0.352 N 
ATOM     26  C   UNL A   1      41.214  25.269  26.131  1.00  0.00     0.251 C 
ATOM     27  H   UNL A   1      40.923  23.459  25.335  1.00  0.00     0.163 HD
ATOM     28  O   UNL A   1      41.858  25.660  25.161  1.00  0.00    -0.269 OA
BRANCH  26  29
ATOM     29  C   UNL A   1      41.032  26.149  27.308  1.00  0.00     0.039 A 
ATOM     30  C   UNL A   1      41.946  27.186  27.515  1.00  0.00     0.014 A 
ATOM     31  C   UNL A   1      39.990  25.951  28.216  1.00  0.00     0.014 A 
ATOM     32  C   UNL A   1      41.785  28.041  28.608  1.00  0.00     0.010 A 
ATOM     33  C   UNL A   1      39.767  26.870  29.236  1.00  0.00     0.010 A 
ATOM     34  C   UNL A   1      40.679  27.908  29.463  1.00  0.00    -0.014 A 
BRANCH  34  35
ATOM     35  C   UNL A   1      40.491  28.821  30.620  1.00  0.00     0.031 A 
ATOM     36  C   UNL A   1      41.340  28.663  31.855  1.00  0.00     0.074 A 
ATOM     37  C   UNL A   1      39.534  29.769  30.573  1.00  0.00     0.049 A 
ATOM     38  N   UNL A   1      41.324  29.362  32.961  1.00  0.00    -0.248 NA
ATOM     39  C   UNL A   1      42.314  27.559  31.862  1.00  0.00     0.031 C 
ATOM     40  C   UNL A   1      38.604  29.978  29.460  1.00  0.00     0.029 A 
ATOM     41  N   UNL A   1      39.183  30.735  31.482  1.00  0.00    -0.354 N 
ATOM     42  C   UNL A   1      42.271  28.775  33.796  1.00  0.00     0.074 A 
ATOM     43  C   UNL A   1      42.794  27.624  33.094  1.00  0.00     0.031 C 
ATOM     44  C   UNL A   1      37.815  31.029  29.737  1.00  0.00     0.029 A 
ATOM     45  C   UNL A   1      38.157  31.545  31.059  1.00  0.00     0.049 A 
ATOM     46  H   UNL A   1      39.627  30.838  32.355  1.00  0.00     0.167 HD
ATOM     47  C   UNL A   1      42.688  29.174  35.020  1.00  0.00     0.037 A 
ATOM     48  C   UNL A   1      37.558  32.588  31.666  1.00  0.00     0.037 A 
ATOM     49  C   UNL A   1      42.180  30.337  35.701  1.00  0.00     0.049 A 
ATOM     50  C   UNL A   1      38.052  33.028  33.017  1.00  0.00     0.074 A 
ATOM     51  C   UNL A   1      42.579  30.867  36.915  1.00  0.00     0.029 A 
ATOM     52  N   UNL A   1      41.156  31.147  35.229  1.00  0.00    -0.354 N 
ATOM     53  N   UNL A   1      39.004  32.508  33.758  1.00  0.00    -0.248 NA
ATOM     54  C   UNL A   1      37.405  34.205  33.609  1.00  0.00     0.031 C 
ATOM     55  C   UNL A   1      41.761  31.964  37.204  1.00  0.00     0.029 A 
ATOM     56  C   UNL A   1      40.894  32.158  36.140  1.00  0.00     0.049 A 
ATOM     57  H   UNL A   1      40.685  31.021  34.374  1.00  0.00     0.167 HD
ATOM     58  C   UNL A   1      39.088  33.313  34.889  1.00  0.00     0.074 A 
ATOM     59  C   UNL A   1      38.103  34.363  34.724  1.00  0.00     0.031 C 
ATOM     60  C   UNL A   1      39.908  33.196  35.964  1.00  0.00     0.037 A 
BRANCH  47  61
ATOM     61  C   UNL A   1      43.746  28.347  35.703  1.00  0.00     0.058 A 
ATOM     62  C   UNL A   1      45.117  28.558  35.474  1.00  0.00     0.135 A 
ATOM     63  C   UNL A   1      43.386  27.344  36.618  1.00  0.00     0.135 A 
ATOM     64  F   UNL A   1      45.521  29.491  34.598  1.00  0.00    -0.206 F 
ATOM     65  C   UNL A   1      46.088  27.781  36.099  1.00  0.00     0.059 A 
ATOM     66  C   UNL A   1      44.342  26.579  37.281  1.00  0.00     0.059 A 
ATOM     67  F   UNL A   1      42.093  27.097  36.876  1.00  0.00    -0.206 F 
ATOM     68  C   UNL A   1      45.691  26.794  37.001  1.00  0.00     0.060 A 
BRANCH  68  69
ATOM     69  S   UNL A   1      46.964  25.798  37.804  1.00  0.00     0.124 S 
ATOM     70  O   UNL A   1      47.157  24.730  36.828  1.00  0.00    -0.237 OA
ATOM     71  O   UNL A   1      48.067  26.746  37.931  1.00  0.00    -0.237 OA
ATOM     72  O   UNL A   1      46.340  25.395  39.060  1.00  0.00    -0.744 OA
ENDBRANCH  68  69
ENDBRANCH  47  61
BRANCH  48  73
ATOM     73  C   UNL A   1      36.447  33.304  30.983  1.00  0.00     0.058 A 
ATOM     74  C   UNL A   1      35.126  33.203  31.443  1.00  0.00     0.135 A 
ATOM     75  C   UNL A   1      36.688  34.124  29.868  1.00  0.00     0.135 A 
ATOM     76  F   UNL A   1      34.843  32.429  32.502  1.00  0.00    -0.206 F 
ATOM     77  C   UNL A   1      34.080  33.873  30.816  1.00  0.00     0.059 A 
ATOM     78  C   UNL A   1      35.665  34.827  29.241  1.00  0.00     0.059 A 
ATOM     79  F   UNL A   1      37.937  34.269  29.398  1.00  0.00    -0.206 F 
ATOM     80  C   UNL A   1      34.361  34.686  29.717  1.00  0.00     0.060 A 
BRANCH  80  81
ATOM     81  S   UNL A   1      33.006  35.595  28.943  1.00  0.00     0.124 S 
ATOM     82  O   UNL A   1      32.224  36.002  30.105  1.00  0.00    -0.237 OA
ATOM     83  O   UNL A   1      33.715  36.664  28.244  1.00  0.00    -0.237 OA
ATOM     84  O   UNL A   1      32.383  34.597  28.079  1.00  0.00    -0.744 OA
ENDBRANCH  80  81
ENDBRANCH  48  73
BRANCH  60  85
ATOM     85  C   UNL A   1      39.802  34.254  37.030  1.00  0.00     0.058 A 
ATOM     86  C   UNL A   1      39.052  34.059  38.201  1.00  0.00     0.135 A 
ATOM     87  C   UNL A   1      40.480  35.476  36.884  1.00  0.00     0.135 A 
ATOM     88  F   UNL A   1      38.382  32.911  38.392  1.00  0.00    -0.206 F 
ATOM     89  C   UNL A   1      38.941  35.054  39.167  1.00  0.00     0.059 A 
ATOM     90  C   UNL A   1      40.412  36.471  37.853  1.00  0.00     0.059 A 
ATOM     91  F   UNL A   1      41.224  35.710  35.792  1.00  0.00    -0.206 F 
ATOM     92  C   UNL A   1      39.622  36.259  38.982  1.00  0.00     0.060 A 
BRANCH  92  93
ATOM     93  S   UNL A   1      39.467  37.543  40.240  1.00  0.00     0.124 S 
ATOM     94  O   UNL A   1      38.858  36.804  41.341  1.00  0.00    -0.237 OA
ATOM     95  O   UNL A   1      40.854  37.951  40.442  1.00  0.00    -0.237 OA
ATOM     96  O   UNL A   1      38.612  38.542  39.605  1.00  0.00    -0.744 OA
ENDBRANCH  92  93
ENDBRANCH  60  85
ENDBRANCH  34  35
ENDBRANCH  26  29
ENDBRANCH  24  25
ENDBRANCH   1  24
TORSDOF 15
ENDMDL
MODEL 2
REMARK VINA RESULT:     -12.6      6.724     12.285
REMARK SMILES O=C(NCCCNC(=O)c1ccc(-c2c3nc(c(-c4c(F)cc(S(=O)(=O)[O-])cc4F)c4ccc([nH]4)c(-c4c(F)cc(S(=O)(=O)[O-])cc4F)c4nc(c(-c5c(F)cc(S(=O)(=O)[O-])cc5F)c5ccc2[nH]5)C=C4)C=C3)cc1)c1ccc(NC(=O)[C@H]2CCS(=O)(=O)C2)cc1
REMARK SMILES IDX 5 1 4 2 3 3 1 4 2 5 76 7 77 8 91 9 78 10 90 11 79 12 80 13
REMARK SMILES IDX 81 14 82 16 83 17 84 18 89 19 85 20 86 21 87 22 88 23 6 24
REMARK SMILES IDX 7 25 8 26 9 28 10 29 11 30 75 31 12 32 74 33 13 34 14 35
REMARK SMILES IDX 15 36 68 37 16 38 73 39 67 40 69 41 17 42 72 43 66 44 65 45
REMARK SMILES IDX 18 47 52 48 31 49 51 50 32 51 35 52 50 53 70 54 33 55 34 56
REMARK SMILES IDX 49 58 71 59 36 60 19 61 20 62 29 63 21 64 22 65 28 66 30 67
REMARK SMILES IDX 23 68 24 69 25 70 26 71 27 72 53 73 54 74 63 75 55 76 56 77
REMARK SMILES IDX 62 78 64 79 57 80 58 81 59 82 60 83 61 84 37 85 38 86 47 87
REMARK SMILES IDX 39 88 40 89 46 90 48 91 41 92 42 93 43 94 44 95 45 96
REMARK H PARENT 3 6 80 15 7 27 69 46 35 57
REMARK Flexibility Score: inf
ROOT
ATOM      1  C   UNL A   1      34.517  31.118  27.660  1.00  0.00     0.042 C 
ENDROOT
BRANCH   1   2
ATOM      2  C   UNL A   1      33.503  30.345  26.839  1.00  0.00     0.118 C 
BRANCH   2   3
ATOM      3  N   UNL A   1      32.663  29.467  27.654  1.00  0.00    -0.352 N 
ATOM      4  O   UNL A   1      31.250  27.742  28.070  1.00  0.00    -0.269 OA
ATOM      5  C   UNL A   1      32.067  28.270  27.324  1.00  0.00     0.251 C 
ATOM      6  H   UNL A   1      32.500  29.778  28.573  1.00  0.00     0.163 HD
BRANCH   5   7
ATOM      7  C   UNL A   1      32.445  27.607  26.060  1.00  0.00     0.039 A 
ATOM      8  C   UNL A   1      31.558  27.652  24.999  1.00  0.00     0.016 A 
ATOM      9  C   UNL A   1      33.656  26.934  25.912  1.00  0.00     0.016 A 
ATOM     10  C   UNL A   1      31.787  26.884  23.866  1.00  0.00     0.027 A 
ATOM     11  C   UNL A   1      33.914  26.222  24.726  1.00  0.00     0.027 A 
ATOM     12  C   UNL A   1      32.961  26.153  23.693  1.00  0.00     0.041 A 
BRANCH  12  13
ATOM     13  N   UNL A   1      33.291  25.382  22.549  1.00  0.00    -0.326 N 
ATOM     14  C   UNL A   1      33.254  24.037  22.259  1.00  0.00     0.228 C 
ATOM     15  H   UNL A   1      33.618  25.930  21.799  1.00  0.00     0.169 HD
ATOM     16  O   UNL A   1      33.473  23.664  21.106  1.00  0.00    -0.274 OA
BRANCH  14  17
ATOM     17  C   UNL A   1      33.026  23.037  23.360  1.00  0.00     0.095 C 
ATOM     18  C   UNL A   1      32.245  21.750  23.096  1.00  0.00     0.030 C 
ATOM     19  C   UNL A   1      34.374  22.559  23.892  1.00  0.00     0.150 C 
ATOM     20  C   UNL A   1      32.298  21.015  24.447  1.00  0.00     0.138 C 
ATOM     21  S   UNL A   1      33.933  21.345  25.106  1.00  0.00     0.151 S 
ATOM     22  O   UNL A   1      33.795  22.030  26.375  1.00  0.00    -0.229 OA
ATOM     23  O   UNL A   1      34.765  20.175  24.931  1.00  0.00    -0.229 OA
ENDBRANCH  14  17
ENDBRANCH  12  13
ENDBRANCH   5   7
ENDBRANCH   2   3
ENDBRANCH   1   2
BRANCH   1  24
ATOM     24  C   UNL A   1      35.421  30.240  28.502  1.00  0.00     0.118 C 
BRANCH  24  25
ATOM     25  N   UNL A   1      35.554  30.713  29.872  1.00  0.00    -0.352 N 
ATOM     26  C   UNL A   1      36.646  30.717  30.704  1.00  0.00     0.251 C 
ATOM     27  H   UNL A   1      34.732  31.089  30.264  1.00  0.00     0.163 HD
ATOM     28  O   UNL A   1      36.498  31.023  31.885  1.00  0.00    -0.269 OA
BRANCH  26  29
ATOM     29  C   UNL A   1      37.984  30.340  30.195  1.00  0.00     0.039 A 
ATOM     30  C   UNL A   1      38.948  29.902  31.106  1.00  0.00     0.014 A 
ATOM     31  C   UNL A   1      38.304  30.435  28.838  1.00  0.00     0.014 A 
ATOM     32  C   UNL A   1      40.212  29.524  30.648  1.00  0.00     0.010 A 
ATOM     33  C   UNL A   1      39.521  29.952  28.372  1.00  0.00     0.010 A 
ATOM     34  C   UNL A   1      40.502  29.519  29.273  1.00  0.00    -0.014 A 
BRANCH  34  35
ATOM     35  C   UNL A   1      41.838  29.105  28.774  1.00  0.00     0.031 A 
ATOM     36  C   UNL A   1      42.958  30.110  28.683  1.00  0.00     0.074 A 
ATOM     37  C   UNL A   1      42.035  27.834  28.370  1.00  0.00     0.049 A 
ATOM     38  N   UNL A   1      44.189  29.938  28.276  1.00  0.00    -0.248 NA
ATOM     39  C   UNL A   1      42.648  31.495  29.073  1.00  0.00     0.031 C 
ATOM     40  C   UNL A   1      41.012  26.786  28.346  1.00  0.00     0.029 A 
ATOM     41  N   UNL A   1      43.161  27.207  27.901  1.00  0.00    -0.354 N 
ATOM     42  C   UNL A   1      44.792  31.191  28.347  1.00  0.00     0.074 A 
ATOM     43  C   UNL A   1      43.773  32.124  28.772  1.00  0.00     0.031 C 
ATOM     44  C   UNL A   1      41.566  25.639  27.923  1.00  0.00     0.029 A 
ATOM     45  C   UNL A   1      42.972  25.877  27.610  1.00  0.00     0.049 A 
ATOM     46  H   UNL A   1      44.025  27.667  27.785  1.00  0.00     0.167 HD
ATOM     47  C   UNL A   1      46.081  31.528  28.109  1.00  0.00     0.037 A 
ATOM     48  C   UNL A   1      43.834  24.951  27.145  1.00  0.00     0.037 A 
ATOM     49  C   UNL A   1      47.096  30.586  27.710  1.00  0.00     0.049 A 
ATOM     50  C   UNL A   1      45.267  25.343  26.908  1.00  0.00     0.074 A 
ATOM     51  C   UNL A   1      48.446  30.810  27.507  1.00  0.00     0.029 A 
ATOM     52  N   UNL A   1      46.870  29.242  27.448  1.00  0.00    -0.354 N 
ATOM     53  N   UNL A   1      45.838  26.516  27.057  1.00  0.00    -0.248 NA
ATOM     54  C   UNL A   1      46.178  24.283  26.457  1.00  0.00     0.031 C 
ATOM     55  C   UNL A   1      49.026  29.616  27.068  1.00  0.00     0.029 A 
ATOM     56  C   UNL A   1      48.052  28.630  27.061  1.00  0.00     0.049 A 
ATOM     57  H   UNL A   1      46.000  28.790  27.526  1.00  0.00     0.167 HD
ATOM     58  C   UNL A   1      47.181  26.327  26.745  1.00  0.00     0.074 A 
ATOM     59  C   UNL A   1      47.337  24.925  26.418  1.00  0.00     0.031 C 
ATOM     60  C   UNL A   1      48.193  27.232  26.735  1.00  0.00     0.037 A 
BRANCH  47  61
ATOM     61  C   UNL A   1      46.468  32.974  28.274  1.00  0.00     0.058 A 
ATOM     62  C   UNL A   1      46.948  33.481  29.494  1.00  0.00     0.135 A 
ATOM     63  C   UNL A   1      46.381  33.863  27.190  1.00  0.00     0.135 A 
ATOM     64  F   UNL A   1      47.037  32.683  30.570  1.00  0.00    -0.206 F 
ATOM     65  C   UNL A   1      47.292  34.821  29.643  1.00  0.00     0.059 A 
ATOM     66  C   UNL A   1      46.753  35.200  27.307  1.00  0.00     0.059 A 
ATOM     67  F   UNL A   1      45.930  33.437  26.001  1.00  0.00    -0.206 F 
ATOM     68  C   UNL A   1      47.191  35.673  28.543  1.00  0.00     0.060 A 
BRANCH  68  69
ATOM     69  S   UNL A   1      47.643  37.408  28.752  1.00  0.00     0.124 S 
ATOM     70  O   UNL A   1      48.760  37.532  27.822  1.00  0.00    -0.237 OA
ATOM     71  O   UNL A   1      46.416  38.098  28.363  1.00  0.00    -0.237 OA
ATOM     72  O   UNL A   1      47.990  37.502  30.166  1.00  0.00    -0.744 OA
ENDBRANCH  68  69
ENDBRANCH  47  61
BRANCH  48  73
ATOM     73  C   UNL A   1      43.367  23.560  26.904  1.00  0.00     0.058 A 
ATOM     74  C   UNL A   1      43.134  23.086  25.605  1.00  0.00     0.135 A 
ATOM     75  C   UNL A   1      43.167  22.666  27.969  1.00  0.00     0.135 A 
ATOM     76  F   UNL A   1      43.306  23.901  24.553  1.00  0.00    -0.206 F 
ATOM     77  C   UNL A   1      42.702  21.784  25.367  1.00  0.00     0.059 A 
ATOM     78  C   UNL A   1      42.764  21.352  27.756  1.00  0.00     0.059 A 
ATOM     79  F   UNL A   1      43.393  23.063  29.231  1.00  0.00    -0.206 F 
ATOM     80  C   UNL A   1      42.525  20.923  26.451  1.00  0.00     0.060 A 
BRANCH  80  81
ATOM     81  S   UNL A   1      42.018  19.220  26.130  1.00  0.00     0.124 S 
ATOM     82  O   UNL A   1      42.806  18.897  24.947  1.00  0.00    -0.237 OA
ATOM     83  O   UNL A   1      42.413  18.546  27.365  1.00  0.00    -0.237 OA
ATOM     84  O   UNL A   1      40.578  19.332  25.920  1.00  0.00    -0.744 OA
ENDBRANCH  80  81
ENDBRANCH  48  73
BRANCH  60  85
ATOM     85  C   UNL A   1      49.568  26.723  26.396  1.00  0.00     0.058 A 
ATOM     86  C   UNL A   1      50.117  26.860  25.110  1.00  0.00     0.135 A 
ATOM     87  C   UNL A   1      50.358  26.107  27.381  1.00  0.00     0.135 A 
ATOM     88  F   UNL A   1      49.405  27.440  24.130  1.00  0.00    -0.206 F 
ATOM     89  C   UNL A   1      51.379  26.363  24.802  1.00  0.00     0.059 A 
ATOM     90  C   UNL A   1      51.636  25.634  27.104  1.00  0.00     0.059 A 
ATOM     91  F   UNL A   1      49.890  25.964  28.631  1.00  0.00    -0.206 F 
ATOM     92  C   UNL A   1      52.130  25.748  25.805  1.00  0.00     0.060 A 
BRANCH  92  93
ATOM     93  S   UNL A   1      53.764  25.104  25.393  1.00  0.00     0.124 S 
ATOM     94  O   UNL A   1      54.580  25.666  26.464  1.00  0.00    -0.237 OA
ATOM     95  O   UNL A   1      53.555  23.661  25.446  1.00  0.00    -0.237 OA
ATOM     96  O   UNL A   1      54.018  25.646  24.061  1.00  0.00    -0.744 OA
ENDBRANCH  92  93
ENDBRANCH  60  85
ENDBRANCH  34  35
ENDBRANCH  26  29
ENDBRANCH  24  25
ENDBRANCH   1  24
TORSDOF 15
ENDMDL
MODEL 3
REMARK VINA RESULT:     -12.4      6.246      8.499
REMARK SMILES O=C(NCCCNC(=O)c1ccc(-c2c3nc(c(-c4c(F)cc(S(=O)(=O)[O-])cc4F)c4ccc([nH]4)c(-c4c(F)cc(S(=O)(=O)[O-])cc4F)c4nc(c(-c5c(F)cc(S(=O)(=O)[O-])cc5F)c5ccc2[nH]5)C=C4)C=C3)cc1)c1ccc(NC(=O)[C@H]2CCS(=O)(=O)C2)cc1
REMARK SMILES IDX 5 1 4 2 3 3 1 4 2 5 76 7 77 8 91 9 78 10 90 11 79 12 80 13
REMARK SMILES IDX 81 14 82 16 83 17 84 18 89 19 85 20 86 21 87 22 88 23 6 24
REMARK SMILES IDX 7 25 8 26 9 28 10 29 11 30 75 31 12 32 74 33 13 34 14 35
REMARK SMILES IDX 15 36 68 37 16 38 73 39 67 40 69 41 17 42 72 43 66 44 65 45
REMARK SMILES IDX 18 47 52 48 31 49 51 50 32 51 35 52 50 53 70 54 33 55 34 56
REMARK SMILES IDX 49 58 71 59 36 60 19 61 20 62 29 63 21 64 22 65 28 66 30 67
REMARK SMILES IDX 23 68 24 69 25 70 26 71 27 72 53 73 54 74 63 75 55 76 56 77
REMARK SMILES IDX 62 78 64 79 57 80 58 81 59 82 60 83 61 84 37 85 38 86 47 87
REMARK SMILES IDX 39 88 40 89 46 90 48 91 41 92 42 93 43 94 44 95 45 96
REMARK H PARENT 3 6 80 15 7 27 69 46 35 57
REMARK Flexibility Score: inf
ROOT
ATOM      1  C   UNL A   1      38.325  19.845  25.145  1.00  0.00     0.042 C 
ENDROOT
BRANCH   1   2
ATOM      2  C   UNL A   1      37.207  20.869  25.094  1.00  0.00     0.118 C 
BRANCH   2   3
ATOM      3  N   UNL A   1      37.342  21.800  23.973  1.00  0.00    -0.352 N 
ATOM      4  O   UNL A   1      36.643  23.304  22.426  1.00  0.00    -0.269 OA
ATOM      5  C   UNL A   1      36.440  22.718  23.483  1.00  0.00     0.251 C 
ATOM      6  H   UNL A   1      38.204  21.763  23.499  1.00  0.00     0.163 HD
BRANCH   5   7
ATOM      7  C   UNL A   1      35.224  23.015  24.266  1.00  0.00     0.039 A 
ATOM      8  C   UNL A   1      34.038  22.402  23.901  1.00  0.00     0.016 A 
ATOM      9  C   UNL A   1      35.236  23.894  25.346  1.00  0.00     0.016 A 
ATOM     10  C   UNL A   1      32.842  22.797  24.484  1.00  0.00     0.027 A 
ATOM     11  C   UNL A   1      34.027  24.229  25.983  1.00  0.00     0.027 A 
ATOM     12  C   UNL A   1      32.798  23.713  25.534  1.00  0.00     0.041 A 
BRANCH  12  13
ATOM     13  N   UNL A   1      31.625  24.133  26.212  1.00  0.00    -0.326 N 
ATOM     14  C   UNL A   1      30.641  25.057  25.939  1.00  0.00     0.228 C 
ATOM     15  H   UNL A   1      31.484  23.661  27.065  1.00  0.00     0.169 HD
ATOM     16  O   UNL A   1      29.646  25.107  26.662  1.00  0.00    -0.274 OA
BRANCH  14  17
ATOM     17  C   UNL A   1      30.827  26.042  24.817  1.00  0.00     0.095 C 
ATOM     18  C   UNL A   1      29.671  26.380  23.877  1.00  0.00     0.030 C 
ATOM     19  C   UNL A   1      31.251  27.389  25.395  1.00  0.00     0.150 C 
ATOM     20  C   UNL A   1      30.271  27.442  22.938  1.00  0.00     0.138 C 
ATOM     21  S   UNL A   1      31.346  28.439  23.971  1.00  0.00     0.151 S 
ATOM     22  O   UNL A   1      32.696  28.355  23.456  1.00  0.00    -0.229 OA
ATOM     23  O   UNL A   1      30.694  29.697  24.265  1.00  0.00    -0.229 OA
ENDBRANCH  14  17
ENDBRANCH  12  13
ENDBRANCH   5   7
ENDBRANCH   2   3
ENDBRANCH   1   2
BRANCH   1  24
ATOM     24  C   UNL A   1      39.420  20.182  26.137  1.00  0.00     0.118 C 
BRANCH  24  25
ATOM     25  N   UNL A   1      40.537  19.250  26.085  1.00  0.00    -0.352 N 
ATOM     26  C   UNL A   1      41.888  19.488  26.122  1.00  0.00     0.251 C 
ATOM     27  H   UNL A   1      40.284  18.301  26.012  1.00  0.00     0.163 HD
ATOM     28  O   UNL A   1      42.665  18.561  25.907  1.00  0.00    -0.269 OA
BRANCH  26  29
ATOM     29  C   UNL A   1      42.408  20.846  26.400  1.00  0.00     0.039 A 
ATOM     30  C   UNL A   1      42.673  21.695  25.322  1.00  0.00     0.014 A 
ATOM     31  C   UNL A   1      42.658  21.281  27.704  1.00  0.00     0.014 A 
ATOM     32  C   UNL A   1      43.148  22.987  25.559  1.00  0.00     0.010 A 
ATOM     33  C   UNL A   1      43.021  22.602  27.942  1.00  0.00     0.010 A 
ATOM     34  C   UNL A   1      43.300  23.462  26.873  1.00  0.00    -0.014 A 
BRANCH  34  35
ATOM     35  C   UNL A   1      43.790  24.840  27.136  1.00  0.00     0.031 A 
ATOM     36  C   UNL A   1      45.245  25.177  26.936  1.00  0.00     0.074 A 
ATOM     37  C   UNL A   1      42.934  25.778  27.588  1.00  0.00     0.049 A 
ATOM     38  N   UNL A   1      45.859  26.319  27.112  1.00  0.00    -0.248 NA
ATOM     39  C   UNL A   1      46.134  24.083  26.510  1.00  0.00     0.031 C 
ATOM     40  C   UNL A   1      41.516  25.556  27.885  1.00  0.00     0.029 A 
ATOM     41  N   UNL A   1      43.129  27.104  27.878  1.00  0.00    -0.354 N 
ATOM     42  C   UNL A   1      47.201  26.077  26.834  1.00  0.00     0.074 A 
ATOM     43  C   UNL A   1      47.322  24.667  26.543  1.00  0.00     0.031 C 
ATOM     44  C   UNL A   1      40.963  26.714  28.278  1.00  0.00     0.029 A 
ATOM     45  C   UNL A   1      41.991  27.750  28.298  1.00  0.00     0.049 A 
ATOM     46  H   UNL A   1      44.002  27.551  27.792  1.00  0.00     0.167 HD
ATOM     47  C   UNL A   1      48.232  26.954  26.795  1.00  0.00     0.037 A 
ATOM     48  C   UNL A   1      41.795  29.034  28.657  1.00  0.00     0.037 A 
ATOM     49  C   UNL A   1      48.097  28.363  27.061  1.00  0.00     0.049 A 
ATOM     50  C   UNL A   1      42.950  29.996  28.585  1.00  0.00     0.074 A 
ATOM     51  C   UNL A   1      49.064  29.350  26.985  1.00  0.00     0.029 A 
ATOM     52  N   UNL A   1      46.922  28.985  27.461  1.00  0.00    -0.354 N 
ATOM     53  N   UNL A   1      44.197  29.765  28.243  1.00  0.00    -0.248 NA
ATOM     54  C   UNL A   1      42.670  31.395  28.931  1.00  0.00     0.031 C 
ATOM     55  C   UNL A   1      48.489  30.558  27.392  1.00  0.00     0.029 A 
ATOM     56  C   UNL A   1      47.146  30.338  27.658  1.00  0.00     0.049 A 
ATOM     57  H   UNL A   1      46.058  28.532  27.584  1.00  0.00     0.167 HD
ATOM     58  C   UNL A   1      44.842  30.996  28.305  1.00  0.00     0.074 A 
ATOM     59  C   UNL A   1      43.843  31.968  28.699  1.00  0.00     0.031 C 
ATOM     60  C   UNL A   1      46.142  31.295  28.055  1.00  0.00     0.037 A 
BRANCH  47  61
ATOM     61  C   UNL A   1      49.596  26.415  26.452  1.00  0.00     0.058 A 
ATOM     62  C   UNL A   1      50.433  25.837  27.422  1.00  0.00     0.135 A 
ATOM     63  C   UNL A   1      50.066  26.454  25.128  1.00  0.00     0.135 A 
ATOM     64  F   UNL A   1      50.045  25.785  28.706  1.00  0.00    -0.206 F 
ATOM     65  C   UNL A   1      51.697  25.352  27.100  1.00  0.00     0.059 A 
ATOM     66  C   UNL A   1      51.312  25.944  24.778  1.00  0.00     0.059 A 
ATOM     67  F   UNL A   1      49.311  26.995  24.159  1.00  0.00    -0.206 F 
ATOM     68  C   UNL A   1      52.128  25.411  25.774  1.00  0.00     0.060 A 
BRANCH  68  69
ATOM     69  S   UNL A   1      53.770  24.776  25.373  1.00  0.00     0.124 S 
ATOM     70  O   UNL A   1      53.467  23.398  25.000  1.00  0.00    -0.237 OA
ATOM     71  O   UNL A   1      54.183  25.651  24.281  1.00  0.00    -0.237 OA
ATOM     72  O   UNL A   1      54.512  24.940  26.619  1.00  0.00    -0.744 OA
ENDBRANCH  68  69
ENDBRANCH  47  61
BRANCH  48  73
ATOM     73  C   UNL A   1      40.444  29.486  29.085  1.00  0.00     0.058 A 
ATOM     74  C   UNL A   1      40.155  29.735  30.435  1.00  0.00     0.135 A 
ATOM     75  C   UNL A   1      39.419  29.700  28.149  1.00  0.00     0.135 A 
ATOM     76  F   UNL A   1      41.098  29.541  31.369  1.00  0.00    -0.206 F 
ATOM     77  C   UNL A   1      38.896  30.163  30.846  1.00  0.00     0.059 A 
ATOM     78  C   UNL A   1      38.162  30.156  28.531  1.00  0.00     0.059 A 
ATOM     79  F   UNL A   1      39.648  29.494  26.843  1.00  0.00    -0.206 F 
ATOM     80  C   UNL A   1      37.907  30.375  29.885  1.00  0.00     0.060 A 
BRANCH  80  81
ATOM     81  S   UNL A   1      36.294  30.983  30.421  1.00  0.00     0.124 S 
ATOM     82  O   UNL A   1      35.989  30.075  31.522  1.00  0.00    -0.237 OA
ATOM     83  O   UNL A   1      36.596  32.362  30.795  1.00  0.00    -0.237 OA
ATOM     84  O   UNL A   1      35.465  30.832  29.230  1.00  0.00    -0.744 OA
ENDBRANCH  80  81
ENDBRANCH  48  73
BRANCH  60  85
ATOM     85  C   UNL A   1      46.549  32.740  28.161  1.00  0.00     0.058 A 
ATOM     86  C   UNL A   1      46.415  33.633  27.085  1.00  0.00     0.135 A 
ATOM     87  C   UNL A   1      47.063  33.244  29.367  1.00  0.00     0.135 A 
ATOM     88  F   UNL A   1      45.930  33.204  25.908  1.00  0.00    -0.206 F 
ATOM     89  C   UNL A   1      46.818  34.960  27.187  1.00  0.00     0.059 A 
ATOM     90  C   UNL A   1      47.440  34.576  29.503  1.00  0.00     0.059 A 
ATOM     91  F   UNL A   1      47.199  32.439  30.433  1.00  0.00    -0.206 F 
ATOM     92  C   UNL A   1      47.333  35.422  28.400  1.00  0.00     0.060 A 
BRANCH  92  93
ATOM     93  S   UNL A   1      47.856  37.145  28.519  1.00  0.00     0.124 S 
ATOM     94  O   UNL A   1      49.108  37.021  29.258  1.00  0.00    -0.237 OA
ATOM     95  O   UNL A   1      47.984  37.530  27.118  1.00  0.00    -0.237 OA
ATOM     96  O   UNL A   1      46.760  37.784  29.242  1.00  0.00    -0.744 OA
ENDBRANCH  92  93
ENDBRANCH  60  85
ENDBRANCH  34  35
ENDBRANCH  26  29
ENDBRANCH  24  25
ENDBRANCH   1  24
TORSDOF 15
ENDMDL
