MODEL 1
REMARK VINA RESULT:     -10.1      0.000      0.000
REMARK SMILES COCCN(CC(=O)NCCCNC(=O)c1ccc(-c2c3nc(c(-c4c(F)cc(S(=O)(=O)[O-])cc4F)c4ccc([nH]4)c(-c4c(F)cc(S(=O)(=O)[O-])cc4F)c4nc(c(-c5c(F)cc(S(=O)(=O)[O-])cc5F)c5ccc2[nH]5)C=C4)C=C3)cc1)C(=O)c1cccc(N)c1
REMARK SMILES IDX 10 1 9 2 7 3 8 4 6 6 5 7 4 8 3 9 2 10 1 11 82 12 83 13 84 14
REMARK SMILES IDX 85 15 90 16 86 17 88 18 87 19 89 20 11 23 12 24 13 25 14 26
REMARK SMILES IDX 15 28 16 29 17 30 81 31 18 32 80 33 19 34 20 35 21 36 74 37
REMARK SMILES IDX 22 38 79 39 73 40 75 41 23 42 78 43 72 44 71 45 24 47 58 48
REMARK SMILES IDX 37 49 57 50 38 51 41 52 56 53 76 54 39 55 40 56 55 58 77 59
REMARK SMILES IDX 42 60 25 61 26 62 35 63 27 64 28 65 34 66 36 67 29 68 30 69
REMARK SMILES IDX 31 70 32 71 33 72 59 73 60 74 69 75 61 76 62 77 68 78 70 79
REMARK SMILES IDX 63 80 64 81 65 82 66 83 67 84 43 85 44 86 53 87 45 88 46 89
REMARK SMILES IDX 52 90 54 91 47 92 48 93 49 94 50 95 51 96
REMARK H PARENT 9 5 89 21 89 22 13 27 75 46 41 57
REMARK Flexibility Score: inf
ROOT
ATOM      1  C   UNL A   1      34.126  32.562  28.283  1.00  0.00     0.117 C 
ENDROOT
BRANCH   1   2
ATOM      2  N   UNL A   1      34.150  33.968  27.936  1.00  0.00    -0.354 N 
ATOM      3  C   UNL A   1      33.921  35.073  28.701  1.00  0.00     0.239 C 
ATOM      4  O   UNL A   1      34.373  36.141  28.273  1.00  0.00    -0.273 OA
ATOM      5  H   UNL A   1      34.367  34.157  26.995  1.00  0.00     0.163 HD
BRANCH   3   6
ATOM      6  C   UNL A   1      33.267  35.015  30.096  1.00  0.00     0.219 C 
BRANCH   6   7
ATOM      7  N   UNL A   1      34.133  34.767  31.255  1.00  0.00    -0.327 N 
BRANCH   7   8
ATOM      8  C   UNL A   1      34.124  35.762  32.343  1.00  0.00     0.149 C 
BRANCH   8   9
ATOM      9  C   UNL A   1      32.733  36.322  32.691  1.00  0.00     0.181 C 
BRANCH   9  10
ATOM     10  O   UNL A   1      32.691  37.741  32.598  1.00  0.00    -0.383 OA
ATOM     11  C   UNL A   1      33.963  38.339  32.422  1.00  0.00     0.194 C 
ENDBRANCH   9  10
ENDBRANCH   8   9
ENDBRANCH   7   8
BRANCH   7  12
ATOM     12  C   UNL A   1      34.805  33.559  31.493  1.00  0.00     0.254 C 
ATOM     13  O   UNL A   1      34.223  32.490  31.659  1.00  0.00    -0.269 OA
BRANCH  12  14
ATOM     14  C   UNL A   1      36.284  33.502  31.477  1.00  0.00     0.042 A 
ATOM     15  C   UNL A   1      36.930  33.693  30.251  1.00  0.00     0.014 A 
ATOM     16  C   UNL A   1      37.025  33.163  32.610  1.00  0.00     0.039 A 
ATOM     17  C   UNL A   1      38.316  33.595  30.174  1.00  0.00     0.003 A 
ATOM     18  C   UNL A   1      38.421  33.133  32.558  1.00  0.00     0.032 A 
ATOM     19  C   UNL A   1      39.056  33.317  31.326  1.00  0.00     0.025 A 
BRANCH  18  20
ATOM     20  N   UNL A   1      39.157  32.784  33.681  1.00  0.00    -0.399 N 
ATOM     21  H   UNL A   1      39.255  31.836  33.929  1.00  0.00     0.156 HD
ATOM     22  H   UNL A   1      39.580  33.483  34.229  1.00  0.00     0.156 HD
ENDBRANCH  18  20
ENDBRANCH  12  14
ENDBRANCH   7  12
ENDBRANCH   6   7
ENDBRANCH   3   6
ENDBRANCH   1   2
BRANCH   1  23
ATOM     23  C   UNL A   1      35.165  31.705  27.566  1.00  0.00     0.042 C 
BRANCH  23  24
ATOM     24  C   UNL A   1      35.429  30.344  28.202  1.00  0.00     0.118 C 
BRANCH  24  25
ATOM     25  N   UNL A   1      35.505  30.405  29.652  1.00  0.00    -0.352 N 
ATOM     26  C   UNL A   1      36.503  30.037  30.520  1.00  0.00     0.251 C 
ATOM     27  H   UNL A   1      34.702  30.774  30.088  1.00  0.00     0.163 HD
ATOM     28  O   UNL A   1      36.246  29.996  31.724  1.00  0.00    -0.269 OA
BRANCH  26  29
ATOM     29  C   UNL A   1      37.864  29.686  30.049  1.00  0.00     0.039 A 
ATOM     30  C   UNL A   1      38.797  29.228  30.986  1.00  0.00     0.014 A 
ATOM     31  C   UNL A   1      38.258  29.872  28.722  1.00  0.00     0.014 A 
ATOM     32  C   UNL A   1      40.100  28.913  30.586  1.00  0.00     0.010 A 
ATOM     33  C   UNL A   1      39.534  29.488  28.308  1.00  0.00     0.010 A 
ATOM     34  C   UNL A   1      40.474  29.016  29.236  1.00  0.00    -0.014 A 
BRANCH  34  35
ATOM     35  C   UNL A   1      41.844  28.655  28.785  1.00  0.00     0.031 A 
ATOM     36  C   UNL A   1      42.931  29.696  28.745  1.00  0.00     0.074 A 
ATOM     37  C   UNL A   1      42.099  27.402  28.359  1.00  0.00     0.049 A 
ATOM     38  N   UNL A   1      44.168  29.588  28.329  1.00  0.00    -0.248 NA
ATOM     39  C   UNL A   1      42.573  31.045  29.211  1.00  0.00     0.031 C 
ATOM     40  C   UNL A   1      41.125  26.310  28.314  1.00  0.00     0.029 A 
ATOM     41  N   UNL A   1      43.253  26.837  27.876  1.00  0.00    -0.354 N 
ATOM     42  C   UNL A   1      44.727  30.854  28.461  1.00  0.00     0.074 A 
ATOM     43  C   UNL A   1      43.681  31.725  28.954  1.00  0.00     0.031 C 
ATOM     44  C   UNL A   1      41.729  25.200  27.860  1.00  0.00     0.029 A 
ATOM     45  C   UNL A   1      43.121  25.509  27.545  1.00  0.00     0.049 A 
ATOM     46  H   UNL A   1      44.096  27.335  27.776  1.00  0.00     0.167 HD
ATOM     47  C   UNL A   1      45.998  31.252  28.211  1.00  0.00     0.037 A 
ATOM     48  C   UNL A   1      44.018  24.639  27.044  1.00  0.00     0.037 A 
ATOM     49  C   UNL A   1      47.044  30.377  27.749  1.00  0.00     0.049 A 
ATOM     50  C   UNL A   1      45.424  25.103  26.773  1.00  0.00     0.074 A 
ATOM     51  C   UNL A   1      48.378  30.668  27.528  1.00  0.00     0.029 A 
ATOM     52  N   UNL A   1      46.870  29.037  27.431  1.00  0.00    -0.354 N 
ATOM     53  N   UNL A   1      45.950  26.290  26.959  1.00  0.00    -0.248 NA
ATOM     54  C   UNL A   1      46.357  24.108  26.227  1.00  0.00     0.031 C 
ATOM     55  C   UNL A   1      49.004  29.514  27.042  1.00  0.00     0.029 A 
ATOM     56  C   UNL A   1      48.070  28.493  27.000  1.00  0.00     0.049 A 
ATOM     57  H   UNL A   1      46.021  28.545  27.502  1.00  0.00     0.167 HD
ATOM     58  C   UNL A   1      47.284  26.176  26.584  1.00  0.00     0.074 A 
ATOM     59  C   UNL A   1      47.483  24.804  26.163  1.00  0.00     0.031 C 
ATOM     60  C   UNL A   1      48.256  27.122  26.592  1.00  0.00     0.037 A 
BRANCH  47  61
ATOM     61  C   UNL A   1      46.322  32.707  28.431  1.00  0.00     0.058 A 
ATOM     62  C   UNL A   1      46.203  33.654  27.400  1.00  0.00     0.135 A 
ATOM     63  C   UNL A   1      46.755  33.160  29.687  1.00  0.00     0.135 A 
ATOM     64  F   UNL A   1      45.805  33.274  26.175  1.00  0.00    -0.206 F 
ATOM     65  C   UNL A   1      46.550  34.987  27.593  1.00  0.00     0.059 A 
ATOM     66  C   UNL A   1      47.079  34.495  29.911  1.00  0.00     0.059 A 
ATOM     67  F   UNL A   1      46.879  32.300  30.711  1.00  0.00    -0.206 F 
ATOM     68  C   UNL A   1      46.996  35.396  28.851  1.00  0.00     0.060 A 
BRANCH  68  69
ATOM     69  S   UNL A   1      47.474  37.121  29.083  1.00  0.00     0.124 S 
ATOM     70  O   UNL A   1      47.430  37.621  27.709  1.00  0.00    -0.237 OA
ATOM     71  O   UNL A   1      46.425  37.623  29.969  1.00  0.00    -0.237 OA
ATOM     72  O   UNL A   1      48.800  37.032  29.676  1.00  0.00    -0.744 OA
ENDBRANCH  68  69
ENDBRANCH  47  61
BRANCH  48  73
ATOM     73  C   UNL A   1      43.626  23.223  26.811  1.00  0.00     0.058 A 
ATOM     74  C   UNL A   1      43.437  22.350  27.891  1.00  0.00     0.135 A 
ATOM     75  C   UNL A   1      43.408  22.723  25.519  1.00  0.00     0.135 A 
ATOM     76  F   UNL A   1      43.641  22.781  29.146  1.00  0.00    -0.206 F 
ATOM     77  C   UNL A   1      43.054  21.027  27.701  1.00  0.00     0.059 A 
ATOM     78  C   UNL A   1      43.003  21.410  25.303  1.00  0.00     0.059 A 
ATOM     79  F   UNL A   1      43.563  23.524  24.453  1.00  0.00    -0.206 F 
ATOM     80  C   UNL A   1      42.836  20.567  26.402  1.00  0.00     0.060 A 
BRANCH  80  81
ATOM     81  S   UNL A   1      42.281  18.863  26.170  1.00  0.00     0.124 S 
ATOM     82  O   UNL A   1      42.449  18.315  27.511  1.00  0.00    -0.237 OA
ATOM     83  O   UNL A   1      40.902  19.047  25.726  1.00  0.00    -0.237 OA
ATOM     84  O   UNL A   1      43.194  18.347  25.156  1.00  0.00    -0.744 OA
ENDBRANCH  80  81
ENDBRANCH  48  73
BRANCH  60  85
ATOM     85  C   UNL A   1      49.635  26.697  26.172  1.00  0.00     0.058 A 
ATOM     86  C   UNL A   1      50.093  26.867  24.856  1.00  0.00     0.135 A 
ATOM     87  C   UNL A   1      50.525  26.148  27.111  1.00  0.00     0.135 A 
ATOM     88  F   UNL A   1      49.280  27.379  23.919  1.00  0.00    -0.206 F 
ATOM     89  C   UNL A   1      51.378  26.487  24.480  1.00  0.00     0.059 A 
ATOM     90  C   UNL A   1      51.822  25.785  26.762  1.00  0.00     0.059 A 
ATOM     91  F   UNL A   1      50.139  25.973  28.385  1.00  0.00    -0.206 F 
ATOM     92  C   UNL A   1      52.235  25.947  25.440  1.00  0.00     0.060 A 
BRANCH  92  93
ATOM     93  S   UNL A   1      53.911  25.486  24.949  1.00  0.00     0.124 S 
ATOM     94  O   UNL A   1      54.064  26.224  23.700  1.00  0.00    -0.237 OA
ATOM     95  O   UNL A   1      54.711  25.964  26.072  1.00  0.00    -0.237 OA
ATOM     96  O   UNL A   1      53.837  24.034  24.815  1.00  0.00    -0.744 OA
ENDBRANCH  92  93
ENDBRANCH  60  85
ENDBRANCH  34  35
ENDBRANCH  26  29
ENDBRANCH  24  25
ENDBRANCH  23  24
ENDBRANCH   1  23
TORSDOF 20
ENDMDL
MODEL 2
REMARK VINA RESULT:     -10.0      3.706      5.979
REMARK SMILES COCCN(CC(=O)NCCCNC(=O)c1ccc(-c2c3nc(c(-c4c(F)cc(S(=O)(=O)[O-])cc4F)c4ccc([nH]4)c(-c4c(F)cc(S(=O)(=O)[O-])cc4F)c4nc(c(-c5c(F)cc(S(=O)(=O)[O-])cc5F)c5ccc2[nH]5)C=C4)C=C3)cc1)C(=O)c1cccc(N)c1
REMARK SMILES IDX 10 1 9 2 7 3 8 4 6 6 5 7 4 8 3 9 2 10 1 11 82 12 83 13 84 14
REMARK SMILES IDX 85 15 90 16 86 17 88 18 87 19 89 20 11 23 12 24 13 25 14 26
REMARK SMILES IDX 15 28 16 29 17 30 81 31 18 32 80 33 19 34 20 35 21 36 74 37
REMARK SMILES IDX 22 38 79 39 73 40 75 41 23 42 78 43 72 44 71 45 24 47 58 48
REMARK SMILES IDX 37 49 57 50 38 51 41 52 56 53 76 54 39 55 40 56 55 58 77 59
REMARK SMILES IDX 42 60 25 61 26 62 35 63 27 64 28 65 34 66 36 67 29 68 30 69
REMARK SMILES IDX 31 70 32 71 33 72 59 73 60 74 69 75 61 76 62 77 68 78 70 79
REMARK SMILES IDX 63 80 64 81 65 82 66 83 67 84 43 85 44 86 53 87 45 88 46 89
REMARK SMILES IDX 52 90 54 91 47 92 48 93 49 94 50 95 51 96
REMARK H PARENT 9 5 89 21 89 22 13 27 75 46 41 57
REMARK Flexibility Score: inf
ROOT
ATOM      1  C   UNL A   1      33.328  29.238  26.089  1.00  0.00     0.117 C 
ENDROOT
BRANCH   1   2
ATOM      2  N   UNL A   1      33.883  29.194  24.752  1.00  0.00    -0.354 N 
ATOM      3  C   UNL A   1      33.794  28.234  23.788  1.00  0.00     0.239 C 
ATOM      4  O   UNL A   1      34.022  28.597  22.628  1.00  0.00    -0.273 OA
ATOM      5  H   UNL A   1      34.410  29.985  24.497  1.00  0.00     0.163 HD
BRANCH   3   6
ATOM      6  C   UNL A   1      33.299  26.800  24.065  1.00  0.00     0.219 C 
BRANCH   6   7
ATOM      7  N   UNL A   1      31.924  26.459  23.681  1.00  0.00    -0.327 N 
BRANCH   7   8
ATOM      8  C   UNL A   1      31.738  25.386  22.687  1.00  0.00     0.149 C 
BRANCH   8   9
ATOM      9  C   UNL A   1      32.579  25.540  21.407  1.00  0.00     0.181 C 
BRANCH   9  10
ATOM     10  O   UNL A   1      33.250  24.333  21.062  1.00  0.00    -0.383 OA
ATOM     11  C   UNL A   1      33.353  23.411  22.133  1.00  0.00     0.194 C 
ENDBRANCH   9  10
ENDBRANCH   8   9
ENDBRANCH   7   8
BRANCH   7  12
ATOM     12  C   UNL A   1      30.781  26.932  24.339  1.00  0.00     0.254 C 
ATOM     13  O   UNL A   1      30.529  26.675  25.514  1.00  0.00    -0.269 OA
BRANCH  12  14
ATOM     14  C   UNL A   1      29.842  27.851  23.656  1.00  0.00     0.042 A 
ATOM     15  C   UNL A   1      28.478  27.542  23.703  1.00  0.00     0.014 A 
ATOM     16  C   UNL A   1      30.286  28.932  22.893  1.00  0.00     0.039 A 
ATOM     17  C   UNL A   1      27.562  28.346  23.031  1.00  0.00     0.003 A 
ATOM     18  C   UNL A   1      29.368  29.785  22.274  1.00  0.00     0.032 A 
ATOM     19  C   UNL A   1      28.009  29.462  22.320  1.00  0.00     0.025 A 
BRANCH  18  20
ATOM     20  N   UNL A   1      29.810  30.851  21.506  1.00  0.00    -0.399 N 
ATOM     21  H   UNL A   1      29.218  31.246  20.825  1.00  0.00     0.156 HD
ATOM     22  H   UNL A   1      30.715  31.213  21.640  1.00  0.00     0.156 HD
ENDBRANCH  18  20
ENDBRANCH  12  14
ENDBRANCH   7  12
ENDBRANCH   6   7
ENDBRANCH   3   6
ENDBRANCH   1   2
BRANCH   1  23
ATOM     23  C   UNL A   1      34.313  28.907  27.206  1.00  0.00     0.042 C 
BRANCH  23  24
ATOM     24  C   UNL A   1      35.237  30.050  27.613  1.00  0.00     0.118 C 
BRANCH  24  25
ATOM     25  N   UNL A   1      35.269  30.263  29.050  1.00  0.00    -0.352 N 
ATOM     26  C   UNL A   1      36.255  30.025  29.976  1.00  0.00     0.251 C 
ATOM     27  H   UNL A   1      34.442  30.644  29.425  1.00  0.00     0.163 HD
ATOM     28  O   UNL A   1      35.965  30.099  31.171  1.00  0.00    -0.269 OA
BRANCH  26  29
ATOM     29  C   UNL A   1      37.640  29.681  29.578  1.00  0.00     0.039 A 
ATOM     30  C   UNL A   1      38.554  29.328  30.578  1.00  0.00     0.014 A 
ATOM     31  C   UNL A   1      38.074  29.773  28.253  1.00  0.00     0.014 A 
ATOM     32  C   UNL A   1      39.878  29.023  30.245  1.00  0.00     0.010 A 
ATOM     33  C   UNL A   1      39.374  29.398  27.912  1.00  0.00     0.010 A 
ATOM     34  C   UNL A   1      40.295  29.031  28.905  1.00  0.00    -0.014 A 
BRANCH  34  35
ATOM     35  C   UNL A   1      41.689  28.678  28.527  1.00  0.00     0.031 A 
ATOM     36  C   UNL A   1      42.765  29.731  28.520  1.00  0.00     0.074 A 
ATOM     37  C   UNL A   1      41.978  27.421  28.137  1.00  0.00     0.049 A 
ATOM     38  N   UNL A   1      44.022  29.630  28.168  1.00  0.00    -0.248 NA
ATOM     39  C   UNL A   1      42.370  31.084  28.943  1.00  0.00     0.031 C 
ATOM     40  C   UNL A   1      41.020  26.316  28.065  1.00  0.00     0.029 A 
ATOM     41  N   UNL A   1      43.160  26.861  27.721  1.00  0.00    -0.354 N 
ATOM     42  C   UNL A   1      44.560  30.906  28.303  1.00  0.00     0.074 A 
ATOM     43  C   UNL A   1      43.482  31.772  28.728  1.00  0.00     0.031 C 
ATOM     44  C   UNL A   1      41.658  25.206  27.661  1.00  0.00     0.029 A 
ATOM     45  C   UNL A   1      43.059  25.525  27.409  1.00  0.00     0.049 A 
ATOM     46  H   UNL A   1      44.002  27.367  27.654  1.00  0.00     0.167 HD
ATOM     47  C   UNL A   1      45.837  31.314  28.108  1.00  0.00     0.037 A 
ATOM     48  C   UNL A   1      43.990  24.657  26.969  1.00  0.00     0.037 A 
ATOM     49  C   UNL A   1      46.914  30.443  27.713  1.00  0.00     0.049 A 
ATOM     50  C   UNL A   1      45.401  25.133  26.758  1.00  0.00     0.074 A 
ATOM     51  C   UNL A   1      48.254  30.746  27.552  1.00  0.00     0.029 A 
ATOM     52  N   UNL A   1      46.771  29.096  27.413  1.00  0.00    -0.354 N 
ATOM     53  N   UNL A   1      45.905  26.330  26.947  1.00  0.00    -0.248 NA
ATOM     54  C   UNL A   1      46.371  24.140  26.277  1.00  0.00     0.031 C 
ATOM     55  C   UNL A   1      48.916  29.591  27.119  1.00  0.00     0.029 A 
ATOM     56  C   UNL A   1      47.996  28.558  27.050  1.00  0.00     0.049 A 
ATOM     57  H   UNL A   1      45.925  28.595  27.451  1.00  0.00     0.167 HD
ATOM     58  C   UNL A   1      47.257  26.225  26.639  1.00  0.00     0.074 A 
ATOM     59  C   UNL A   1      47.492  24.848  26.254  1.00  0.00     0.031 C 
ATOM     60  C   UNL A   1      48.217  27.182  26.677  1.00  0.00     0.037 A 
BRANCH  47  61
ATOM     61  C   UNL A   1      46.133  32.776  28.316  1.00  0.00     0.058 A 
ATOM     62  C   UNL A   1      46.464  33.290  29.580  1.00  0.00     0.135 A 
ATOM     63  C   UNL A   1      46.087  33.674  27.238  1.00  0.00     0.135 A 
ATOM     64  F   UNL A   1      46.511  32.479  30.649  1.00  0.00    -0.206 F 
ATOM     65  C   UNL A   1      46.688  34.649  29.777  1.00  0.00     0.059 A 
ATOM     66  C   UNL A   1      46.336  35.033  27.406  1.00  0.00     0.059 A 
ATOM     67  F   UNL A   1      45.784  33.236  26.005  1.00  0.00    -0.206 F 
ATOM     68  C   UNL A   1      46.613  35.514  28.685  1.00  0.00     0.060 A 
BRANCH  68  69
ATOM     69  S   UNL A   1      46.874  37.280  28.957  1.00  0.00     0.124 S 
ATOM     70  O   UNL A   1      45.749  37.855  28.220  1.00  0.00    -0.237 OA
ATOM     71  O   UNL A   1      46.795  37.390  30.412  1.00  0.00    -0.237 OA
ATOM     72  O   UNL A   1      48.190  37.523  28.384  1.00  0.00    -0.744 OA
ENDBRANCH  68  69
ENDBRANCH  47  61
BRANCH  48  73
ATOM     73  C   UNL A   1      43.625  23.234  26.743  1.00  0.00     0.058 A 
ATOM     74  C   UNL A   1      43.365  22.385  27.828  1.00  0.00     0.135 A 
ATOM     75  C   UNL A   1      43.504  22.700  25.452  1.00  0.00     0.135 A 
ATOM     76  F   UNL A   1      43.475  22.848  29.083  1.00  0.00    -0.206 F 
ATOM     77  C   UNL A   1      43.006  21.054  27.644  1.00  0.00     0.059 A 
ATOM     78  C   UNL A   1      43.124  21.379  25.240  1.00  0.00     0.059 A 
ATOM     79  F   UNL A   1      43.730  23.477  24.380  1.00  0.00    -0.206 F 
ATOM     80  C   UNL A   1      42.885  20.561  26.344  1.00  0.00     0.060 A 
BRANCH  80  81
ATOM     81  S   UNL A   1      42.359  18.848  26.115  1.00  0.00     0.124 S 
ATOM     82  O   UNL A   1      40.974  19.019  25.695  1.00  0.00    -0.237 OA
ATOM     83  O   UNL A   1      43.283  18.377  25.087  1.00  0.00    -0.237 OA
ATOM     84  O   UNL A   1      42.552  18.258  27.436  1.00  0.00    -0.744 OA
ENDBRANCH  80  81
ENDBRANCH  48  73
BRANCH  60  85
ATOM     85  C   UNL A   1      49.620  26.767  26.332  1.00  0.00     0.058 A 
ATOM     86  C   UNL A   1      50.432  26.075  27.245  1.00  0.00     0.135 A 
ATOM     87  C   UNL A   1      50.144  27.030  25.056  1.00  0.00     0.135 A 
ATOM     88  F   UNL A   1      49.981  25.806  28.481  1.00  0.00    -0.206 F 
ATOM     89  C   UNL A   1      51.723  25.679  26.911  1.00  0.00     0.059 A 
ATOM     90  C   UNL A   1      51.423  26.621  24.693  1.00  0.00     0.059 A 
ATOM     91  F   UNL A   1      49.405  27.680  24.143  1.00  0.00    -0.206 F 
ATOM     92  C   UNL A   1      52.210  25.956  25.632  1.00  0.00     0.060 A 
BRANCH  92  93
ATOM     93  S   UNL A   1      53.876  25.410  25.200  1.00  0.00     0.124 S 
ATOM     94  O   UNL A   1      54.698  26.316  25.995  1.00  0.00    -0.237 OA
ATOM     95  O   UNL A   1      53.871  24.015  25.630  1.00  0.00    -0.237 OA
ATOM     96  O   UNL A   1      53.935  25.613  23.755  1.00  0.00    -0.744 OA
ENDBRANCH  92  93
ENDBRANCH  60  85
ENDBRANCH  34  35
ENDBRANCH  26  29
ENDBRANCH  24  25
ENDBRANCH  23  24
ENDBRANCH   1  23
TORSDOF 20
ENDMDL
MODEL 3
REMARK VINA RESULT:     -10.0      0.395      8.418
REMARK SMILES COCCN(CC(=O)NCCCNC(=O)c1ccc(-c2c3nc(c(-c4c(F)cc(S(=O)(=O)[O-])cc4F)c4ccc([nH]4)c(-c4c(F)cc(S(=O)(=O)[O-])cc4F)c4nc(c(-c5c(F)cc(S(=O)(=O)[O-])cc5F)c5ccc2[nH]5)C=C4)C=C3)cc1)C(=O)c1cccc(N)c1
REMARK SMILES IDX 10 1 9 2 7 3 8 4 6 6 5 7 4 8 3 9 2 10 1 11 82 12 83 13 84 14
REMARK SMILES IDX 85 15 90 16 86 17 88 18 87 19 89 20 11 23 12 24 13 25 14 26
REMARK SMILES IDX 15 28 16 29 17 30 81 31 18 32 80 33 19 34 20 35 21 36 74 37
REMARK SMILES IDX 22 38 79 39 73 40 75 41 23 42 78 43 72 44 71 45 24 47 58 48
REMARK SMILES IDX 37 49 57 50 38 51 41 52 56 53 76 54 39 55 40 56 55 58 77 59
REMARK SMILES IDX 42 60 25 61 26 62 35 63 27 64 28 65 34 66 36 67 29 68 30 69
REMARK SMILES IDX 31 70 32 71 33 72 59 73 60 74 69 75 61 76 62 77 68 78 70 79
REMARK SMILES IDX 63 80 64 81 65 82 66 83 67 84 43 85 44 86 53 87 45 88 46 89
REMARK SMILES IDX 52 90 54 91 47 92 48 93 49 94 50 95 51 96
REMARK H PARENT 9 5 89 21 89 22 13 27 75 46 41 57
REMARK Flexibility Score: inf
ROOT
ATOM      1  C   UNL A   1      34.155  32.353  28.218  1.00  0.00     0.117 C 
ENDROOT
BRANCH   1   2
ATOM      2  N   UNL A   1      34.198  33.757  27.865  1.00  0.00    -0.354 N 
ATOM      3  C   UNL A   1      33.962  34.867  28.619  1.00  0.00     0.239 C 
ATOM      4  O   UNL A   1      34.433  35.930  28.196  1.00  0.00    -0.273 OA
ATOM      5  H   UNL A   1      34.437  33.940  26.927  1.00  0.00     0.163 HD
BRANCH   3   6
ATOM      6  C   UNL A   1      33.277  34.822  30.000  1.00  0.00     0.219 C 
BRANCH   6   7
ATOM      7  N   UNL A   1      34.122  34.624  31.183  1.00  0.00    -0.327 N 
BRANCH   7   8
ATOM      8  C   UNL A   1      34.054  35.638  32.251  1.00  0.00     0.149 C 
BRANCH   8   9
ATOM      9  C   UNL A   1      32.651  36.219  32.498  1.00  0.00     0.181 C 
BRANCH   9  10
ATOM     10  O   UNL A   1      32.689  37.621  32.737  1.00  0.00    -0.383 OA
ATOM     11  C   UNL A   1      33.913  38.230  32.367  1.00  0.00     0.194 C 
ENDBRANCH   9  10
ENDBRANCH   8   9
ENDBRANCH   7   8
BRANCH   7  12
ATOM     12  C   UNL A   1      34.826  33.443  31.460  1.00  0.00     0.254 C 
ATOM     13  O   UNL A   1      34.272  32.368  31.679  1.00  0.00    -0.269 OA
BRANCH  12  14
ATOM     14  C   UNL A   1      36.305  33.420  31.424  1.00  0.00     0.042 A 
ATOM     15  C   UNL A   1      36.930  33.616  30.187  1.00  0.00     0.014 A 
ATOM     16  C   UNL A   1      37.070  33.107  32.549  1.00  0.00     0.039 A 
ATOM     17  C   UNL A   1      38.317  33.549  30.092  1.00  0.00     0.003 A 
ATOM     18  C   UNL A   1      38.466  33.108  32.478  1.00  0.00     0.032 A 
ATOM     19  C   UNL A   1      39.079  33.297  31.235  1.00  0.00     0.025 A 
BRANCH  18  20
ATOM     20  N   UNL A   1      39.225  32.785  33.592  1.00  0.00    -0.399 N 
ATOM     21  H   UNL A   1      39.625  33.500  34.139  1.00  0.00     0.156 HD
ATOM     22  H   UNL A   1      39.364  31.842  33.836  1.00  0.00     0.156 HD
ENDBRANCH  18  20
ENDBRANCH  12  14
ENDBRANCH   7  12
ENDBRANCH   6   7
ENDBRANCH   3   6
ENDBRANCH   1   2
BRANCH   1  23
ATOM     23  C   UNL A   1      35.256  31.499  27.596  1.00  0.00     0.042 C 
BRANCH  23  24
ATOM     24  C   UNL A   1      35.482  30.148  28.267  1.00  0.00     0.118 C 
BRANCH  24  25
ATOM     25  N   UNL A   1      35.554  30.244  29.716  1.00  0.00    -0.352 N 
ATOM     26  C   UNL A   1      36.567  29.937  30.591  1.00  0.00     0.251 C 
ATOM     27  H   UNL A   1      34.736  30.588  30.144  1.00  0.00     0.163 HD
ATOM     28  O   UNL A   1      36.311  29.912  31.795  1.00  0.00    -0.269 OA
BRANCH  26  29
ATOM     29  C   UNL A   1      37.941  29.635  30.127  1.00  0.00     0.039 A 
ATOM     30  C   UNL A   1      38.269  29.905  28.793  1.00  0.00     0.014 A 
ATOM     31  C   UNL A   1      38.885  29.023  30.955  1.00  0.00     0.014 A 
ATOM     32  C   UNL A   1      39.548  29.609  28.309  1.00  0.00     0.010 A 
ATOM     33  C   UNL A   1      40.182  28.795  30.494  1.00  0.00     0.010 A 
ATOM     34  C   UNL A   1      40.526  29.073  29.163  1.00  0.00    -0.014 A 
BRANCH  34  35
ATOM     35  C   UNL A   1      41.900  28.781  28.676  1.00  0.00     0.031 A 
ATOM     36  C   UNL A   1      42.261  27.399  28.199  1.00  0.00     0.074 A 
ATOM     37  C   UNL A   1      42.841  29.745  28.713  1.00  0.00     0.049 A 
ATOM     38  N   UNL A   1      43.417  26.938  27.793  1.00  0.00    -0.248 NA
ATOM     39  C   UNL A   1      41.184  26.395  28.203  1.00  0.00     0.031 C 
ATOM     40  C   UNL A   1      42.630  31.115  29.185  1.00  0.00     0.029 A 
ATOM     41  N   UNL A   1      44.165  29.719  28.353  1.00  0.00    -0.354 N 
ATOM     42  C   UNL A   1      43.213  25.590  27.517  1.00  0.00     0.074 A 
ATOM     43  C   UNL A   1      41.834  25.299  27.843  1.00  0.00     0.031 C 
ATOM     44  C   UNL A   1      43.775  31.805  29.057  1.00  0.00     0.029 A 
ATOM     45  C   UNL A   1      44.810  30.921  28.532  1.00  0.00     0.049 A 
ATOM     46  H   UNL A   1      44.612  28.916  28.000  1.00  0.00     0.167 HD
ATOM     47  C   UNL A   1      44.090  24.683  27.020  1.00  0.00     0.037 A 
ATOM     48  C   UNL A   1      46.089  31.270  28.299  1.00  0.00     0.037 A 
ATOM     49  C   UNL A   1      45.453  24.984  26.669  1.00  0.00     0.049 A 
ATOM     50  C   UNL A   1      47.045  30.246  27.749  1.00  0.00     0.074 A 
ATOM     51  C   UNL A   1      46.401  24.152  26.099  1.00  0.00     0.029 A 
ATOM     52  N   UNL A   1      46.066  26.214  26.860  1.00  0.00    -0.354 N 
ATOM     53  N   UNL A   1      46.820  28.992  27.437  1.00  0.00    -0.248 NA
ATOM     54  C   UNL A   1      48.427  30.687  27.516  1.00  0.00     0.031 C 
ATOM     55  C   UNL A   1      47.598  24.869  25.979  1.00  0.00     0.029 A 
ATOM     56  C   UNL A   1      47.384  26.159  26.434  1.00  0.00     0.049 A 
ATOM     57  H   UNL A   1      45.629  27.010  27.240  1.00  0.00     0.167 HD
ATOM     58  C   UNL A   1      48.023  28.503  26.942  1.00  0.00     0.074 A 
ATOM     59  C   UNL A   1      48.971  29.597  26.993  1.00  0.00     0.031 C 
ATOM     60  C   UNL A   1      48.315  27.260  26.482  1.00  0.00     0.037 A 
BRANCH  47  61
ATOM     61  C   UNL A   1      43.593  23.274  26.835  1.00  0.00     0.058 A 
ATOM     62  C   UNL A   1      43.411  22.405  27.923  1.00  0.00     0.135 A 
ATOM     63  C   UNL A   1      43.293  22.785  25.553  1.00  0.00     0.135 A 
ATOM     64  F   UNL A   1      43.694  22.815  29.170  1.00  0.00    -0.206 F 
ATOM     65  C   UNL A   1      42.999  21.088  27.743  1.00  0.00     0.059 A 
ATOM     66  C   UNL A   1      42.851  21.481  25.352  1.00  0.00     0.059 A 
ATOM     67  F   UNL A   1      43.441  23.575  24.477  1.00  0.00    -0.206 F 
ATOM     68  C   UNL A   1      42.730  20.632  26.452  1.00  0.00     0.060 A 
BRANCH  68  69
ATOM     69  S   UNL A   1      42.228  18.914  26.225  1.00  0.00     0.124 S 
ATOM     70  O   UNL A   1      40.853  19.074  25.752  1.00  0.00    -0.237 OA
ATOM     71  O   UNL A   1      43.184  18.434  25.228  1.00  0.00    -0.237 OA
ATOM     72  O   UNL A   1      42.372  18.337  27.554  1.00  0.00    -0.744 OA
ENDBRANCH  68  69
ENDBRANCH  47  61
BRANCH  48  73
ATOM     73  C   UNL A   1      46.530  32.669  28.541  1.00  0.00     0.058 A 
ATOM     74  C   UNL A   1      46.484  33.618  27.509  1.00  0.00     0.135 A 
ATOM     75  C   UNL A   1      46.978  33.093  29.800  1.00  0.00     0.135 A 
ATOM     76  F   UNL A   1      46.069  33.258  26.284  1.00  0.00    -0.206 F 
ATOM     77  C   UNL A   1      46.874  34.937  27.714  1.00  0.00     0.059 A 
ATOM     78  C   UNL A   1      47.352  34.412  30.036  1.00  0.00     0.059 A 
ATOM     79  F   UNL A   1      47.027  32.225  30.823  1.00  0.00    -0.206 F 
ATOM     80  C   UNL A   1      47.304  35.325  28.983  1.00  0.00     0.060 A 
BRANCH  80  81
ATOM     81  S   UNL A   1      47.752  37.055  29.253  1.00  0.00     0.124 S 
ATOM     82  O   UNL A   1      48.366  36.996  30.574  1.00  0.00    -0.237 OA
ATOM     83  O   UNL A   1      48.660  37.314  28.138  1.00  0.00    -0.237 OA
ATOM     84  O   UNL A   1      46.470  37.749  29.181  1.00  0.00    -0.744 OA
ENDBRANCH  80  81
ENDBRANCH  48  73
BRANCH  60  85
ATOM     85  C   UNL A   1      49.703  27.027  25.958  1.00  0.00     0.058 A 
ATOM     86  C   UNL A   1      50.752  26.615  26.795  1.00  0.00     0.135 A 
ATOM     87  C   UNL A   1      49.979  27.180  24.588  1.00  0.00     0.135 A 
ATOM     88  F   UNL A   1      50.543  26.462  28.113  1.00  0.00    -0.206 F 
ATOM     89  C   UNL A   1      52.030  26.384  26.298  1.00  0.00     0.059 A 
ATOM     90  C   UNL A   1      51.244  26.930  24.066  1.00  0.00     0.059 A 
ATOM     91  F   UNL A   1      49.009  27.562  23.743  1.00  0.00    -0.206 F 
ATOM     92  C   UNL A   1      52.267  26.544  24.931  1.00  0.00     0.060 A 
BRANCH  92  93
ATOM     93  S   UNL A   1      53.923  26.212  24.290  1.00  0.00     0.124 S 
ATOM     94  O   UNL A   1      54.710  27.239  24.965  1.00  0.00    -0.237 OA
ATOM     95  O   UNL A   1      54.160  24.840  24.729  1.00  0.00    -0.237 OA
ATOM     96  O   UNL A   1      53.769  26.384  22.849  1.00  0.00    -0.744 OA
ENDBRANCH  92  93
ENDBRANCH  60  85
ENDBRANCH  34  35
ENDBRANCH  26  29
ENDBRANCH  24  25
ENDBRANCH  23  24
ENDBRANCH   1  23
TORSDOF 20
ENDMDL
