MODEL 1
REMARK VINA RESULT:     -15.6      0.000      0.000
REMARK SMILES Cc1ccc([C@@]23C[C@@H]4C[C@@H](C[C@@](C(=O)N5CCC(C(=O)NCCCNC(=O)c6ccc(-c7c8nc(c(-c9c(F)cc(S(=O)(=O)[O-])cc9F)c9ccc([nH]9)c(-c9c(F)cc(S(=O)(=O)[O-])cc9F)c9nc(c(-c%10c(F)cc(S(=O)(=O)[O-])cc%10F)c%10ccc7[nH]%10)C=C9)C=C8)cc6)CC5)(C4)C2)C3)cc1
REMARK SMILES IDX 23 1 22 2 21 3 19 4 20 5 18 7 13 8 14 9 15 10 16 11 95 12
REMARK SMILES IDX 17 13 94 14 12 15 6 16 7 17 97 18 98 19 8 20 10 21 9 22
REMARK SMILES IDX 96 23 11 24 5 25 1 26 2 27 3 28 100 29 4 30 99 31 24 32
REMARK SMILES IDX 25 33 26 34 27 36 28 37 29 38 93 39 30 40 92 41 31 42 32 43
REMARK SMILES IDX 33 44 86 45 34 46 91 47 85 48 87 49 35 50 90 51 84 52 83 53
REMARK SMILES IDX 36 55 70 56 49 57 69 58 50 59 53 60 68 61 88 62 51 63 52 64
REMARK SMILES IDX 67 66 89 67 54 68 37 69 38 70 47 71 39 72 40 73 46 74 48 75
REMARK SMILES IDX 41 76 42 77 43 78 44 79 45 80 71 81 72 82 81 83 73 84 74 85
REMARK SMILES IDX 80 86 82 87 75 88 76 89 77 90 78 91 79 92 55 93 56 94 65 95
REMARK SMILES IDX 57 96 58 97 64 98 66 99 59 100 60 101 61 102 62 103 63 104
REMARK H PARENT 21 6 25 35 87 54 53 65
REMARK Flexibility Score: inf
ROOT
ATOM      1  C   UNL A   1      33.926  29.426  25.675  1.00  0.00     0.042 C 
ENDROOT
BRANCH   1   2
ATOM      2  C   UNL A   1      32.555  28.802  25.458  1.00  0.00     0.117 C 
BRANCH   2   3
ATOM      3  N   UNL A   1      31.797  29.459  24.393  1.00  0.00    -0.356 N 
ATOM      4  C   UNL A   1      30.953  28.958  23.447  1.00  0.00     0.223 C 
ATOM      5  O   UNL A   1      30.421  29.744  22.657  1.00  0.00    -0.275 OA
ATOM      6  H   UNL A   1      31.917  30.435  24.353  1.00  0.00     0.163 HD
BRANCH   4   7
ATOM      7  C   UNL A   1      30.682  27.464  23.319  1.00  0.00     0.082 C 
ATOM      8  C   UNL A   1      32.382  24.652  25.585  1.00  0.00     0.228 C 
ATOM      9  O   UNL A   1      32.023  24.818  26.755  1.00  0.00    -0.274 OA
ATOM     10  N   UNL A   1      31.544  25.026  24.534  1.00  0.00    -0.342 N 
ATOM     11  C   UNL A   1      30.174  25.430  24.825  1.00  0.00     0.120 C 
ATOM     12  C   UNL A   1      31.894  25.246  23.134  1.00  0.00     0.120 C 
ATOM     13  C   UNL A   1      29.939  26.909  24.549  1.00  0.00     0.035 C 
ATOM     14  C   UNL A   1      31.961  26.736  22.882  1.00  0.00     0.035 C 
BRANCH   8  15
ATOM     15  C   UNL A   1      33.717  23.918  25.299  1.00  0.00     0.051 C 
ATOM     16  C   UNL A   1      34.639  21.537  24.933  1.00  0.00    -0.003 C 
ATOM     17  C   UNL A   1      35.286  22.091  23.627  1.00  0.00     0.015 C 
ATOM     18  C   UNL A   1      33.404  22.413  25.232  1.00  0.00     0.028 C 
ATOM     19  C   UNL A   1      35.630  21.745  26.105  1.00  0.00     0.015 C 
ATOM     20  C   UNL A   1      35.703  23.566  23.782  1.00  0.00    -0.009 C 
ATOM     21  C   UNL A   1      35.992  23.237  26.252  1.00  0.00    -0.009 C 
ATOM     22  C   UNL A   1      36.677  23.706  24.960  1.00  0.00     0.007 C 
ATOM     23  C   UNL A   1      34.464  24.433  24.053  1.00  0.00     0.020 C 
ATOM     24  C   UNL A   1      34.716  24.078  26.489  1.00  0.00     0.020 C 
BRANCH  16  25
ATOM     25  C   UNL A   1      34.242  20.056  24.778  1.00  0.00    -0.042 A 
ATOM     26  C   UNL A   1      33.147  15.857  24.581  1.00  0.00     0.044 C 
ATOM     27  C   UNL A   1      33.504  17.312  24.622  1.00  0.00    -0.051 A 
ATOM     28  C   UNL A   1      34.841  17.689  24.537  1.00  0.00     0.004 A 
ATOM     29  C   UNL A   1      32.533  18.307  24.762  1.00  0.00     0.004 A 
ATOM     30  C   UNL A   1      35.199  19.036  24.605  1.00  0.00     0.004 A 
ATOM     31  C   UNL A   1      32.897  19.659  24.834  1.00  0.00     0.004 A 
ENDBRANCH  16  25
ENDBRANCH   8  15
ENDBRANCH   4   7
ENDBRANCH   2   3
ENDBRANCH   1   2
BRANCH   1  32
ATOM     32  C   UNL A   1      34.333  29.471  27.136  1.00  0.00     0.118 C 
BRANCH  32  33
ATOM     33  N   UNL A   1      35.020  30.708  27.490  1.00  0.00    -0.352 N 
ATOM     34  C   UNL A   1      36.259  30.836  28.088  1.00  0.00     0.251 C 
ATOM     35  H   UNL A   1      34.547  31.546  27.280  1.00  0.00     0.163 HD
ATOM     36  O   UNL A   1      36.682  31.900  28.526  1.00  0.00    -0.269 OA
BRANCH  34  37
ATOM     37  C   UNL A   1      37.110  29.635  28.074  1.00  0.00     0.039 A 
ATOM     38  C   UNL A   1      37.255  28.950  29.285  1.00  0.00     0.014 A 
ATOM     39  C   UNL A   1      37.997  29.447  27.019  1.00  0.00     0.014 A 
ATOM     40  C   UNL A   1      38.409  28.207  29.510  1.00  0.00     0.010 A 
ATOM     41  C   UNL A   1      39.185  28.795  27.282  1.00  0.00     0.010 A 
ATOM     42  C   UNL A   1      39.410  28.212  28.541  1.00  0.00    -0.014 A 
BRANCH  42  43
ATOM     43  C   UNL A   1      40.757  27.700  28.770  1.00  0.00     0.031 A 
ATOM     44  C   UNL A   1      41.091  26.313  28.380  1.00  0.00     0.074 A 
ATOM     45  C   UNL A   1      41.729  28.515  29.235  1.00  0.00     0.049 A 
ATOM     46  N   UNL A   1      42.122  25.668  28.811  1.00  0.00    -0.248 NA
ATOM     47  C   UNL A   1      40.255  25.527  27.475  1.00  0.00     0.031 C 
ATOM     48  C   UNL A   1      43.170  28.274  29.208  1.00  0.00     0.029 A 
ATOM     49  N   UNL A   1      41.584  29.657  30.030  1.00  0.00    -0.354 N 
ATOM     50  C   UNL A   1      42.236  24.526  28.059  1.00  0.00     0.074 A 
ATOM     51  C   UNL A   1      41.027  24.458  27.270  1.00  0.00     0.031 C 
ATOM     52  C   UNL A   1      43.755  29.040  30.140  1.00  0.00     0.029 A 
ATOM     53  C   UNL A   1      42.699  29.683  30.899  1.00  0.00     0.049 A 
ATOM     54  H   UNL A   1      40.851  30.312  29.992  1.00  0.00     0.167 HD
ATOM     55  C   UNL A   1      43.388  23.803  28.081  1.00  0.00     0.037 A 
ATOM     56  C   UNL A   1      42.523  29.560  32.249  1.00  0.00     0.037 A 
ATOM     57  C   UNL A   1      44.357  24.324  29.036  1.00  0.00     0.049 A 
ATOM     58  C   UNL A   1      43.111  28.298  32.851  1.00  0.00     0.074 A 
ATOM     59  C   UNL A   1      45.474  25.138  28.953  1.00  0.00     0.029 A 
ATOM     60  N   UNL A   1      44.039  24.261  30.382  1.00  0.00    -0.354 N 
ATOM     61  N   UNL A   1      43.760  27.384  32.181  1.00  0.00    -0.248 NA
ATOM     62  C   UNL A   1      42.944  27.934  34.259  1.00  0.00     0.031 C 
ATOM     63  C   UNL A   1      45.792  25.598  30.266  1.00  0.00     0.029 A 
ATOM     64  C   UNL A   1      44.878  25.049  31.146  1.00  0.00     0.049 A 
ATOM     65  H   UNL A   1      43.304  23.720  30.751  1.00  0.00     0.167 HD
ATOM     66  C   UNL A   1      44.032  26.322  33.003  1.00  0.00     0.074 A 
ATOM     67  C   UNL A   1      43.520  26.720  34.301  1.00  0.00     0.031 C 
ATOM     68  C   UNL A   1      44.615  25.167  32.570  1.00  0.00     0.037 A 
BRANCH  55  69
ATOM     69  C   UNL A   1      43.658  22.775  27.021  1.00  0.00     0.058 A 
ATOM     70  C   UNL A   1      42.971  21.549  27.012  1.00  0.00     0.135 A 
ATOM     71  C   UNL A   1      44.665  22.922  26.046  1.00  0.00     0.135 A 
ATOM     72  F   UNL A   1      41.967  21.306  27.866  1.00  0.00    -0.206 F 
ATOM     73  C   UNL A   1      43.319  20.503  26.158  1.00  0.00     0.059 A 
ATOM     74  C   UNL A   1      45.068  21.873  25.217  1.00  0.00     0.059 A 
ATOM     75  F   UNL A   1      45.305  24.093  25.895  1.00  0.00    -0.206 F 
ATOM     76  C   UNL A   1      44.392  20.661  25.287  1.00  0.00     0.060 A 
BRANCH  76  77
ATOM     77  S   UNL A   1      44.924  19.245  24.302  1.00  0.00     0.124 S 
ATOM     78  O   UNL A   1      44.152  18.150  24.885  1.00  0.00    -0.237 OA
ATOM     79  O   UNL A   1      44.532  19.651  22.957  1.00  0.00    -0.237 OA
ATOM     80  O   UNL A   1      46.361  19.183  24.550  1.00  0.00    -0.744 OA
ENDBRANCH  76  77
ENDBRANCH  55  69
BRANCH  56  81
ATOM     81  C   UNL A   1      41.304  30.275  32.723  1.00  0.00     0.058 A 
ATOM     82  C   UNL A   1      40.165  29.495  33.012  1.00  0.00     0.135 A 
ATOM     83  C   UNL A   1      41.381  31.549  33.299  1.00  0.00     0.135 A 
ATOM     84  F   UNL A   1      40.031  28.274  32.469  1.00  0.00    -0.206 F 
ATOM     85  C   UNL A   1      39.237  29.884  33.971  1.00  0.00     0.059 A 
ATOM     86  C   UNL A   1      40.451  31.966  34.254  1.00  0.00     0.059 A 
ATOM     87  F   UNL A   1      42.436  32.339  33.055  1.00  0.00    -0.206 F 
ATOM     88  C   UNL A   1      39.433  31.092  34.636  1.00  0.00     0.060 A 
BRANCH  88  89
ATOM     89  S   UNL A   1      38.455  31.398  36.127  1.00  0.00     0.124 S 
ATOM     90  O   UNL A   1      39.403  32.120  36.967  1.00  0.00    -0.237 OA
ATOM     91  O   UNL A   1      37.345  32.192  35.598  1.00  0.00    -0.237 OA
ATOM     92  O   UNL A   1      38.105  30.056  36.578  1.00  0.00    -0.744 OA
ENDBRANCH  88  89
ENDBRANCH  56  81
BRANCH  68  93
ATOM     93  C   UNL A   1      44.973  24.036  33.491  1.00  0.00     0.058 A 
ATOM     94  C   UNL A   1      46.230  23.956  34.114  1.00  0.00     0.135 A 
ATOM     95  C   UNL A   1      44.114  22.933  33.677  1.00  0.00     0.135 A 
ATOM     96  F   UNL A   1      47.139  24.930  33.949  1.00  0.00    -0.206 F 
ATOM     97  C   UNL A   1      46.595  22.872  34.913  1.00  0.00     0.059 A 
ATOM     98  C   UNL A   1      44.474  21.819  34.430  1.00  0.00     0.059 A 
ATOM     99  F   UNL A   1      42.880  22.915  33.151  1.00  0.00    -0.206 F 
ATOM    100  C   UNL A   1      45.708  21.809  35.066  1.00  0.00     0.060 A 
BRANCH 100 101
ATOM    101  S   UNL A   1      46.179  20.394  36.081  1.00  0.00     0.124 S 
ATOM    102  O   UNL A   1      47.612  20.276  35.824  1.00  0.00    -0.237 OA
ATOM    103  O   UNL A   1      45.814  20.861  37.414  1.00  0.00    -0.237 OA
ATOM    104  O   UNL A   1      45.363  19.310  35.546  1.00  0.00    -0.744 OA
ENDBRANCH 100 101
ENDBRANCH  68  93
ENDBRANCH  42  43
ENDBRANCH  34  37
ENDBRANCH  32  33
ENDBRANCH   1  32
TORSDOF 15
ENDMDL
MODEL 2
REMARK VINA RESULT:     -15.4      2.194      3.024
REMARK SMILES Cc1ccc([C@@]23C[C@@H]4C[C@@H](C[C@@](C(=O)N5CCC(C(=O)NCCCNC(=O)c6ccc(-c7c8nc(c(-c9c(F)cc(S(=O)(=O)[O-])cc9F)c9ccc([nH]9)c(-c9c(F)cc(S(=O)(=O)[O-])cc9F)c9nc(c(-c%10c(F)cc(S(=O)(=O)[O-])cc%10F)c%10ccc7[nH]%10)C=C9)C=C8)cc6)CC5)(C4)C2)C3)cc1
REMARK SMILES IDX 23 1 22 2 21 3 19 4 20 5 18 7 13 8 14 9 15 10 16 11 95 12
REMARK SMILES IDX 17 13 94 14 12 15 6 16 7 17 97 18 98 19 8 20 10 21 9 22
REMARK SMILES IDX 96 23 11 24 5 25 1 26 2 27 3 28 100 29 4 30 99 31 24 32
REMARK SMILES IDX 25 33 26 34 27 36 28 37 29 38 93 39 30 40 92 41 31 42 32 43
REMARK SMILES IDX 33 44 86 45 34 46 91 47 85 48 87 49 35 50 90 51 84 52 83 53
REMARK SMILES IDX 36 55 70 56 49 57 69 58 50 59 53 60 68 61 88 62 51 63 52 64
REMARK SMILES IDX 67 66 89 67 54 68 37 69 38 70 47 71 39 72 40 73 46 74 48 75
REMARK SMILES IDX 41 76 42 77 43 78 44 79 45 80 71 81 72 82 81 83 73 84 74 85
REMARK SMILES IDX 80 86 82 87 75 88 76 89 77 90 78 91 79 92 55 93 56 94 65 95
REMARK SMILES IDX 57 96 58 97 64 98 66 99 59 100 60 101 61 102 62 103 63 104
REMARK H PARENT 21 6 25 35 87 54 53 65
REMARK Flexibility Score: inf
ROOT
ATOM      1  C   UNL A   1      32.933  29.394  25.313  1.00  0.00     0.042 C 
ENDROOT
BRANCH   1   2
ATOM      2  C   UNL A   1      31.498  29.005  24.985  1.00  0.00     0.117 C 
BRANCH   2   3
ATOM      3  N   UNL A   1      31.027  29.585  23.729  1.00  0.00    -0.356 N 
ATOM      4  C   UNL A   1      30.496  29.009  22.612  1.00  0.00     0.223 C 
ATOM      5  O   UNL A   1      30.161  29.740  21.675  1.00  0.00    -0.275 OA
ATOM      6  H   UNL A   1      31.107  30.565  23.680  1.00  0.00     0.163 HD
BRANCH   4   7
ATOM      7  C   UNL A   1      30.342  27.499  22.481  1.00  0.00     0.082 C 
ATOM      8  C   UNL A   1      31.707  24.844  25.131  1.00  0.00     0.228 C 
ATOM      9  O   UNL A   1      31.111  25.011  26.200  1.00  0.00    -0.274 OA
ATOM     10  N   UNL A   1      31.078  25.144  23.922  1.00  0.00    -0.342 N 
ATOM     11  C   UNL A   1      29.658  25.468  23.921  1.00  0.00     0.120 C 
ATOM     12  C   UNL A   1      31.690  25.357  22.614  1.00  0.00     0.120 C 
ATOM     13  C   UNL A   1      29.399  26.924  23.556  1.00  0.00     0.035 C 
ATOM     14  C   UNL A   1      31.722  26.844  22.333  1.00  0.00     0.035 C 
BRANCH   8  15
ATOM     15  C   UNL A   1      33.112  24.189  25.141  1.00  0.00     0.051 C 
ATOM     16  C   UNL A   1      34.232  21.881  24.877  1.00  0.00    -0.003 C 
ATOM     17  C   UNL A   1      35.144  22.552  23.805  1.00  0.00     0.015 C 
ATOM     18  C   UNL A   1      32.913  22.681  24.912  1.00  0.00     0.028 C 
ATOM     19  C   UNL A   1      34.894  22.047  26.268  1.00  0.00     0.015 C 
ATOM     20  C   UNL A   1      35.425  24.029  24.143  1.00  0.00    -0.009 C 
ATOM     21  C   UNL A   1      35.122  23.539  26.585  1.00  0.00    -0.009 C 
ATOM     22  C   UNL A   1      36.072  24.126  25.532  1.00  0.00     0.007 C 
ATOM     23  C   UNL A   1      34.109  24.821  24.151  1.00  0.00     0.020 C 
ATOM     24  C   UNL A   1      33.780  24.306  26.548  1.00  0.00     0.020 C 
BRANCH  16  25
ATOM     25  C   UNL A   1      33.971  20.399  24.544  1.00  0.00    -0.042 A 
ATOM     26  C   UNL A   1      33.172  16.189  23.834  1.00  0.00     0.044 C 
ATOM     27  C   UNL A   1      33.438  17.648  24.046  1.00  0.00    -0.051 A 
ATOM     28  C   UNL A   1      34.700  18.057  24.466  1.00  0.00     0.004 A 
ATOM     29  C   UNL A   1      32.449  18.615  23.852  1.00  0.00     0.004 A 
ATOM     30  C   UNL A   1      34.961  19.409  24.700  1.00  0.00     0.004 A 
ATOM     31  C   UNL A   1      32.713  19.971  24.093  1.00  0.00     0.004 A 
ENDBRANCH  16  25
ENDBRANCH   8  15
ENDBRANCH   4   7
ENDBRANCH   2   3
ENDBRANCH   1   2
BRANCH   1  32
ATOM     32  C   UNL A   1      33.204  29.458  26.805  1.00  0.00     0.118 C 
BRANCH  32  33
ATOM     33  N   UNL A   1      33.470  30.815  27.270  1.00  0.00    -0.352 N 
ATOM     34  C   UNL A   1      34.478  31.225  28.121  1.00  0.00     0.251 C 
ATOM     35  H   UNL A   1      32.863  31.517  26.941  1.00  0.00     0.163 HD
ATOM     36  O   UNL A   1      34.518  32.347  28.615  1.00  0.00    -0.269 OA
BRANCH  34  37
ATOM     37  C   UNL A   1      35.581  30.271  28.324  1.00  0.00     0.039 A 
ATOM     38  C   UNL A   1      35.772  29.794  29.625  1.00  0.00     0.014 A 
ATOM     39  C   UNL A   1      36.578  30.176  27.358  1.00  0.00     0.014 A 
ATOM     40  C   UNL A   1      37.041  29.383  30.018  1.00  0.00     0.010 A 
ATOM     41  C   UNL A   1      37.856  29.865  27.778  1.00  0.00     0.010 A 
ATOM     42  C   UNL A   1      38.096  29.511  29.117  1.00  0.00    -0.014 A 
BRANCH  42  43
ATOM     43  C   UNL A   1      39.499  29.369  29.493  1.00  0.00     0.031 A 
ATOM     44  C   UNL A   1      40.225  28.125  29.161  1.00  0.00     0.074 A 
ATOM     45  C   UNL A   1      40.167  30.406  30.043  1.00  0.00     0.049 A 
ATOM     46  N   UNL A   1      41.339  27.769  29.707  1.00  0.00    -0.248 NA
ATOM     47  C   UNL A   1      39.725  27.157  28.187  1.00  0.00     0.031 C 
ATOM     48  C   UNL A   1      41.616  30.555  30.170  1.00  0.00     0.029 A 
ATOM     49  N   UNL A   1      39.645  31.460  30.801  1.00  0.00    -0.354 N 
ATOM     50  C   UNL A   1      41.828  26.707  28.989  1.00  0.00     0.074 A 
ATOM     51  C   UNL A   1      40.769  26.333  28.080  1.00  0.00     0.031 C 
ATOM     52  C   UNL A   1      41.878  31.437  31.144  1.00  0.00     0.029 A 
ATOM     53  C   UNL A   1      40.617  31.769  31.780  1.00  0.00     0.049 A 
ATOM     54  H   UNL A   1      38.773  31.900  30.676  1.00  0.00     0.167 HD
ATOM     55  C   UNL A   1      43.121  26.314  29.142  1.00  0.00     0.037 A 
ATOM     56  C   UNL A   1      40.340  31.588  33.106  1.00  0.00     0.037 A 
ATOM     57  C   UNL A   1      43.813  27.060  30.184  1.00  0.00     0.049 A 
ATOM     58  C   UNL A   1      41.173  30.518  33.785  1.00  0.00     0.074 A 
ATOM     59  C   UNL A   1      44.678  28.141  30.205  1.00  0.00     0.029 A 
ATOM     60  N   UNL A   1      43.385  26.899  31.490  1.00  0.00    -0.354 N 
ATOM     61  N   UNL A   1      42.107  29.815  33.201  1.00  0.00    -0.248 NA
ATOM     62  C   UNL A   1      40.962  30.106  35.175  1.00  0.00     0.031 C 
ATOM     63  C   UNL A   1      44.725  28.652  31.536  1.00  0.00     0.029 A 
ATOM     64  C   UNL A   1      43.901  27.871  32.325  1.00  0.00     0.049 A 
ATOM     65  H   UNL A   1      42.784  26.179  31.789  1.00  0.00     0.167 HD
ATOM     66  C   UNL A   1      42.561  28.853  34.063  1.00  0.00     0.074 A 
ATOM     67  C   UNL A   1      41.830  29.086  35.295  1.00  0.00     0.031 C 
ATOM     68  C   UNL A   1      43.471  27.898  33.712  1.00  0.00     0.037 A 
BRANCH  55  69
ATOM     69  C   UNL A   1      43.761  25.406  28.132  1.00  0.00     0.058 A 
ATOM     70  C   UNL A   1      44.380  25.929  26.982  1.00  0.00     0.135 A 
ATOM     71  C   UNL A   1      43.700  24.001  28.212  1.00  0.00     0.135 A 
ATOM     72  F   UNL A   1      44.532  27.249  26.810  1.00  0.00    -0.206 F 
ATOM     73  C   UNL A   1      44.825  25.117  25.939  1.00  0.00     0.059 A 
ATOM     74  C   UNL A   1      44.089  23.170  27.159  1.00  0.00     0.059 A 
ATOM     75  F   UNL A   1      43.232  23.399  29.317  1.00  0.00    -0.206 F 
ATOM     76  C   UNL A   1      44.644  23.740  26.020  1.00  0.00     0.060 A 
BRANCH  76  77
ATOM     77  S   UNL A   1      45.084  22.723  24.595  1.00  0.00     0.124 S 
ATOM     78  O   UNL A   1      43.810  22.603  23.890  1.00  0.00    -0.237 OA
ATOM     79  O   UNL A   1      46.094  23.546  23.940  1.00  0.00    -0.237 OA
ATOM     80  O   UNL A   1      45.570  21.487  25.201  1.00  0.00    -0.744 OA
ENDBRANCH  76  77
ENDBRANCH  55  69
BRANCH  56  81
ATOM     81  C   UNL A   1      38.933  31.950  33.440  1.00  0.00     0.058 A 
ATOM     82  C   UNL A   1      38.626  33.322  33.559  1.00  0.00     0.135 A 
ATOM     83  C   UNL A   1      37.873  31.067  33.199  1.00  0.00     0.135 A 
ATOM     84  F   UNL A   1      39.603  34.209  33.812  1.00  0.00    -0.206 F 
ATOM     85  C   UNL A   1      37.360  33.815  33.270  1.00  0.00     0.059 A 
ATOM     86  C   UNL A   1      36.590  31.541  32.920  1.00  0.00     0.059 A 
ATOM     87  F   UNL A   1      38.102  29.751  33.083  1.00  0.00    -0.206 F 
ATOM     88  C   UNL A   1      36.368  32.918  32.881  1.00  0.00     0.060 A 
BRANCH  88  89
ATOM     89  S   UNL A   1      34.862  33.598  32.143  1.00  0.00     0.124 S 
ATOM     90  O   UNL A   1      34.120  32.390  31.803  1.00  0.00    -0.237 OA
ATOM     91  O   UNL A   1      34.318  34.386  33.250  1.00  0.00    -0.237 OA
ATOM     92  O   UNL A   1      35.364  34.371  31.013  1.00  0.00    -0.744 OA
ENDBRANCH  88  89
ENDBRANCH  56  81
BRANCH  68  93
ATOM     93  C   UNL A   1      44.016  26.890  34.683  1.00  0.00     0.058 A 
ATOM     94  C   UNL A   1      45.325  26.978  35.185  1.00  0.00     0.135 A 
ATOM     95  C   UNL A   1      43.286  25.738  35.041  1.00  0.00     0.135 A 
ATOM     96  F   UNL A   1      46.119  28.009  34.854  1.00  0.00    -0.206 F 
ATOM     97  C   UNL A   1      45.862  26.006  36.031  1.00  0.00     0.059 A 
ATOM     98  C   UNL A   1      43.817  24.732  35.844  1.00  0.00     0.059 A 
ATOM     99  F   UNL A   1      42.017  25.565  34.640  1.00  0.00    -0.206 F 
ATOM    100  C   UNL A   1      45.098  24.887  36.355  1.00  0.00     0.060 A 
BRANCH 100 101
ATOM    101  S   UNL A   1      45.791  23.617  37.432  1.00  0.00     0.124 S 
ATOM    102  O   UNL A   1      45.339  22.379  36.802  1.00  0.00    -0.237 OA
ATOM    103  O   UNL A   1      47.219  23.895  37.322  1.00  0.00    -0.237 OA
ATOM    104  O   UNL A   1      45.188  23.908  38.727  1.00  0.00    -0.744 OA
ENDBRANCH 100 101
ENDBRANCH  68  93
ENDBRANCH  42  43
ENDBRANCH  34  37
ENDBRANCH  32  33
ENDBRANCH   1  32
TORSDOF 15
ENDMDL
MODEL 3
REMARK VINA RESULT:     -14.8      1.832      2.910
REMARK SMILES Cc1ccc([C@@]23C[C@@H]4C[C@@H](C[C@@](C(=O)N5CCC(C(=O)NCCCNC(=O)c6ccc(-c7c8nc(c(-c9c(F)cc(S(=O)(=O)[O-])cc9F)c9ccc([nH]9)c(-c9c(F)cc(S(=O)(=O)[O-])cc9F)c9nc(c(-c%10c(F)cc(S(=O)(=O)[O-])cc%10F)c%10ccc7[nH]%10)C=C9)C=C8)cc6)CC5)(C4)C2)C3)cc1
REMARK SMILES IDX 23 1 22 2 21 3 19 4 20 5 18 7 13 8 14 9 15 10 16 11 95 12
REMARK SMILES IDX 17 13 94 14 12 15 6 16 7 17 97 18 98 19 8 20 10 21 9 22
REMARK SMILES IDX 96 23 11 24 5 25 1 26 2 27 3 28 100 29 4 30 99 31 24 32
REMARK SMILES IDX 25 33 26 34 27 36 28 37 29 38 93 39 30 40 92 41 31 42 32 43
REMARK SMILES IDX 33 44 86 45 34 46 91 47 85 48 87 49 35 50 90 51 84 52 83 53
REMARK SMILES IDX 36 55 70 56 49 57 69 58 50 59 53 60 68 61 88 62 51 63 52 64
REMARK SMILES IDX 67 66 89 67 54 68 37 69 38 70 47 71 39 72 40 73 46 74 48 75
REMARK SMILES IDX 41 76 42 77 43 78 44 79 45 80 71 81 72 82 81 83 73 84 74 85
REMARK SMILES IDX 80 86 82 87 75 88 76 89 77 90 78 91 79 92 55 93 56 94 65 95
REMARK SMILES IDX 57 96 58 97 64 98 66 99 59 100 60 101 61 102 62 103 63 104
REMARK H PARENT 21 6 25 35 87 54 53 65
REMARK Flexibility Score: inf
ROOT
ATOM      1  C   UNL A   1      33.536  32.041  27.613  1.00  0.00     0.042 C 
ENDROOT
BRANCH   1   2
ATOM      2  C   UNL A   1      33.129  30.605  27.315  1.00  0.00     0.117 C 
BRANCH   2   3
ATOM      3  N   UNL A   1      32.024  30.515  26.361  1.00  0.00    -0.356 N 
ATOM      4  C   UNL A   1      31.890  29.813  25.200  1.00  0.00     0.223 C 
ATOM      5  O   UNL A   1      30.828  29.904  24.576  1.00  0.00    -0.275 OA
ATOM      6  H   UNL A   1      31.238  31.059  26.599  1.00  0.00     0.163 HD
BRANCH   4   7
ATOM      7  C   UNL A   1      33.019  28.956  24.641  1.00  0.00     0.082 C 
ATOM      8  C   UNL A   1      32.565  25.250  23.231  1.00  0.00     0.228 C 
ATOM      9  O   UNL A   1      31.839  25.294  22.233  1.00  0.00    -0.274 OA
ATOM     10  N   UNL A   1      33.377  26.337  23.557  1.00  0.00    -0.342 N 
ATOM     11  C   UNL A   1      33.505  27.438  22.611  1.00  0.00     0.120 C 
ATOM     12  C   UNL A   1      34.018  26.635  24.834  1.00  0.00     0.120 C 
ATOM     13  C   UNL A   1      32.863  28.719  23.127  1.00  0.00     0.035 C 
ATOM     14  C   UNL A   1      33.226  27.722  25.529  1.00  0.00     0.035 C 
BRANCH   8  15
ATOM     15  C   UNL A   1      32.653  23.935  24.047  1.00  0.00     0.051 C 
ATOM     16  C   UNL A   1      34.407  22.320  25.033  1.00  0.00    -0.003 C 
ATOM     17  C   UNL A   1      33.650  22.478  26.387  1.00  0.00     0.015 C 
ATOM     18  C   UNL A   1      34.146  23.605  24.219  1.00  0.00     0.028 C 
ATOM     19  C   UNL A   1      33.770  21.151  24.241  1.00  0.00     0.015 C 
ATOM     20  C   UNL A   1      32.137  22.676  26.173  1.00  0.00    -0.009 C 
ATOM     21  C   UNL A   1      32.266  21.406  24.013  1.00  0.00    -0.009 C 
ATOM     22  C   UNL A   1      31.570  21.491  25.379  1.00  0.00     0.007 C 
ATOM     23  C   UNL A   1      31.888  23.970  25.384  1.00  0.00     0.020 C 
ATOM     24  C   UNL A   1      32.056  22.733  23.248  1.00  0.00     0.020 C 
BRANCH  16  25
ATOM     25  C   UNL A   1      35.916  22.103  25.255  1.00  0.00    -0.042 A 
ATOM     26  C   UNL A   1      40.120  21.414  26.106  1.00  0.00     0.044 C 
ATOM     27  C   UNL A   1      38.676  21.643  25.779  1.00  0.00    -0.051 A 
ATOM     28  C   UNL A   1      38.098  22.877  26.067  1.00  0.00     0.004 A 
ATOM     29  C   UNL A   1      37.880  20.647  25.208  1.00  0.00     0.004 A 
ATOM     30  C   UNL A   1      36.747  23.102  25.800  1.00  0.00     0.004 A 
ATOM     31  C   UNL A   1      36.521  20.875  24.946  1.00  0.00     0.004 A 
ENDBRANCH  16  25
ENDBRANCH   8  15
ENDBRANCH   4   7
ENDBRANCH   2   3
ENDBRANCH   1   2
BRANCH   1  32
ATOM     32  C   UNL A   1      34.963  32.160  28.115  1.00  0.00     0.118 C 
BRANCH  32  33
ATOM     33  N   UNL A   1      35.034  32.400  29.552  1.00  0.00    -0.352 N 
ATOM     34  C   UNL A   1      35.669  31.620  30.500  1.00  0.00     0.251 C 
ATOM     35  H   UNL A   1      34.578  33.207  29.884  1.00  0.00     0.163 HD
ATOM     36  O   UNL A   1      35.521  31.785  31.706  1.00  0.00    -0.269 OA
BRANCH  34  37
ATOM     37  C   UNL A   1      36.635  30.635  29.986  1.00  0.00     0.039 A 
ATOM     38  C   UNL A   1      36.732  29.425  30.680  1.00  0.00     0.014 A 
ATOM     39  C   UNL A   1      37.633  31.060  29.114  1.00  0.00     0.014 A 
ATOM     40  C   UNL A   1      37.928  28.717  30.643  1.00  0.00     0.010 A 
ATOM     41  C   UNL A   1      38.850  30.410  29.161  1.00  0.00     0.010 A 
ATOM     42  C   UNL A   1      39.012  29.264  29.959  1.00  0.00    -0.014 A 
BRANCH  42  43
ATOM     43  C   UNL A   1      40.375  28.758  30.071  1.00  0.00     0.031 A 
ATOM     44  C   UNL A   1      40.736  27.472  29.434  1.00  0.00     0.074 A 
ATOM     45  C   UNL A   1      41.337  29.504  30.657  1.00  0.00     0.049 A 
ATOM     46  N   UNL A   1      41.791  26.790  29.726  1.00  0.00    -0.248 NA
ATOM     47  C   UNL A   1      39.900  26.836  28.419  1.00  0.00     0.031 C 
ATOM     48  C   UNL A   1      42.783  29.313  30.563  1.00  0.00     0.029 A 
ATOM     49  N   UNL A   1      41.181  30.483  31.645  1.00  0.00    -0.354 N 
ATOM     50  C   UNL A   1      41.917  25.803  28.781  1.00  0.00     0.074 A 
ATOM     51  C   UNL A   1      40.694  25.843  28.013  1.00  0.00     0.031 C 
ATOM     52  C   UNL A   1      43.369  29.919  31.606  1.00  0.00     0.029 A 
ATOM     53  C   UNL A   1      42.314  30.386  32.485  1.00  0.00     0.049 A 
ATOM     54  H   UNL A   1      40.432  31.114  31.736  1.00  0.00     0.167 HD
ATOM     55  C   UNL A   1      43.087  25.121  28.655  1.00  0.00     0.037 A 
ATOM     56  C   UNL A   1      42.170  30.021  33.795  1.00  0.00     0.037 A 
ATOM     57  C   UNL A   1      44.063  25.491  29.671  1.00  0.00     0.049 A 
ATOM     58  C   UNL A   1      42.802  28.690  34.152  1.00  0.00     0.074 A 
ATOM     59  C   UNL A   1      45.158  26.338  29.716  1.00  0.00     0.029 A 
ATOM     60  N   UNL A   1      43.776  25.182  30.989  1.00  0.00    -0.354 N 
ATOM     61  N   UNL A   1      43.459  27.927  33.320  1.00  0.00    -0.248 NA
ATOM     62  C   UNL A   1      42.675  28.077  35.476  1.00  0.00     0.031 C 
ATOM     63  C   UNL A   1      45.492  26.567  31.084  1.00  0.00     0.029 A 
ATOM     64  C   UNL A   1      44.611  25.846  31.867  1.00  0.00     0.049 A 
ATOM     65  H   UNL A   1      43.063  24.563  31.269  1.00  0.00     0.167 HD
ATOM     66  C   UNL A   1      43.774  26.745  33.935  1.00  0.00     0.074 A 
ATOM     67  C   UNL A   1      43.281  26.891  35.291  1.00  0.00     0.031 C 
ATOM     68  C   UNL A   1      44.377  25.701  33.294  1.00  0.00     0.037 A 
BRANCH  55  69
ATOM     69  C   UNL A   1      43.360  24.306  27.425  1.00  0.00     0.058 A 
ATOM     70  C   UNL A   1      43.136  22.917  27.414  1.00  0.00     0.135 A 
ATOM     71  C   UNL A   1      43.940  24.843  26.259  1.00  0.00     0.135 A 
ATOM     72  F   UNL A   1      42.555  22.297  28.450  1.00  0.00    -0.206 F 
ATOM     73  C   UNL A   1      43.543  22.102  26.358  1.00  0.00     0.059 A 
ATOM     74  C   UNL A   1      44.405  24.043  25.213  1.00  0.00     0.059 A 
ATOM     75  F   UNL A   1      44.093  26.170  26.120  1.00  0.00    -0.206 F 
ATOM     76  C   UNL A   1      44.209  22.668  25.276  1.00  0.00     0.060 A 
BRANCH  76  77
ATOM     77  S   UNL A   1      44.865  21.579  23.996  1.00  0.00     0.124 S 
ATOM     78  O   UNL A   1      44.372  22.203  22.770  1.00  0.00    -0.237 OA
ATOM     79  O   UNL A   1      46.302  21.679  24.224  1.00  0.00    -0.237 OA
ATOM     80  O   UNL A   1      44.263  20.286  24.312  1.00  0.00    -0.744 OA
ENDBRANCH  76  77
ENDBRANCH  55  69
BRANCH  56  81
ATOM     81  C   UNL A   1      40.945  30.606  34.409  1.00  0.00     0.058 A 
ATOM     82  C   UNL A   1      41.053  31.892  34.978  1.00  0.00     0.135 A 
ATOM     83  C   UNL A   1      39.665  30.158  34.058  1.00  0.00     0.135 A 
ATOM     84  F   UNL A   1      42.255  32.362  35.353  1.00  0.00    -0.206 F 
ATOM     85  C   UNL A   1      39.972  32.764  35.024  1.00  0.00     0.059 A 
ATOM     86  C   UNL A   1      38.563  31.014  34.111  1.00  0.00     0.059 A 
ATOM     87  F   UNL A   1      39.498  28.942  33.520  1.00  0.00    -0.206 F 
ATOM     88  C   UNL A   1      38.747  32.335  34.521  1.00  0.00     0.060 A 
BRANCH  88  89
ATOM     89  S   UNL A   1      37.472  33.585  34.233  1.00  0.00     0.124 S 
ATOM     90  O   UNL A   1      36.267  32.897  34.684  1.00  0.00    -0.237 OA
ATOM     91  O   UNL A   1      37.932  34.682  35.085  1.00  0.00    -0.237 OA
ATOM     92  O   UNL A   1      37.561  33.828  32.798  1.00  0.00    -0.744 OA
ENDBRANCH  88  89
ENDBRANCH  56  81
BRANCH  68  93
ATOM     93  C   UNL A   1      44.783  24.435  33.993  1.00  0.00     0.058 A 
ATOM     94  C   UNL A   1      46.132  24.087  34.172  1.00  0.00     0.135 A 
ATOM     95  C   UNL A   1      43.832  23.473  34.391  1.00  0.00     0.135 A 
ATOM     96  F   UNL A   1      47.112  24.912  33.771  1.00  0.00    -0.206 F 
ATOM     97  C   UNL A   1      46.515  22.879  34.757  1.00  0.00     0.059 A 
ATOM     98  C   UNL A   1      44.191  22.241  34.932  1.00  0.00     0.059 A 
ATOM     99  F   UNL A   1      42.515  23.712  34.292  1.00  0.00    -0.206 F 
ATOM    100  C   UNL A   1      45.535  21.963  35.134  1.00  0.00     0.060 A 
BRANCH 100 101
ATOM    101  S   UNL A   1      46.023  20.391  35.872  1.00  0.00     0.124 S 
ATOM    102  O   UNL A   1      45.670  20.571  37.277  1.00  0.00    -0.237 OA
ATOM    103  O   UNL A   1      45.189  19.453  35.127  1.00  0.00    -0.237 OA
ATOM    104  O   UNL A   1      47.454  20.320  35.597  1.00  0.00    -0.744 OA
ENDBRANCH 100 101
ENDBRANCH  68  93
ENDBRANCH  42  43
ENDBRANCH  34  37
ENDBRANCH  32  33
ENDBRANCH   1  32
TORSDOF 15
ENDMDL
