MODEL 1
REMARK VINA RESULT:     -12.3      0.000      0.000
REMARK SMILES CC1(C)CCN(c2ncccc2C(=O)NCCCNC(=O)c2ccc(-c3c4nc(c(-c5c(F)cc(S(=O)(=O)[O-])cc5F)c5ccc([nH]5)c(-c5c(F)cc(S(=O)(=O)[O-])cc5F)c5nc(c(-c6c(F)cc(S(=O)(=O)[O-])cc6F)c6ccc3[nH]6)C=C5)C=C4)cc2)C1
REMARK SMILES IDX 18 1 17 2 16 3 15 4 13 5 14 6 12 8 7 9 8 10 9 11 11 12 10 13
REMARK SMILES IDX 6 14 1 15 2 16 3 17 4 18 88 19 5 20 19 21 20 22 21 24 22 25
REMARK SMILES IDX 23 26 87 27 24 28 86 29 25 30 26 31 27 32 80 33 28 34 85 35
REMARK SMILES IDX 79 36 81 37 29 38 84 39 78 40 77 41 30 43 64 44 43 45 63 46
REMARK SMILES IDX 44 47 47 48 62 49 82 50 45 51 46 52 61 54 83 55 48 56 31 57
REMARK SMILES IDX 32 58 41 59 33 60 34 61 40 62 42 63 35 64 36 65 37 66 38 67
REMARK SMILES IDX 39 68 65 69 66 70 75 71 67 72 68 73 74 74 76 75 69 76 70 77
REMARK SMILES IDX 71 78 72 79 73 80 49 81 50 82 59 83 51 84 52 85 58 86 60 87
REMARK SMILES IDX 53 88 54 89 55 90 56 91 57 92
REMARK H PARENT 15 7 19 23 81 42 47 53
REMARK Flexibility Score: inf
ROOT
ATOM      1  C   UNL A   1      38.334  23.935  26.752  1.00  0.00     0.118 C 
ENDROOT
BRANCH   1   2
ATOM      2  C   UNL A   1      37.242  24.039  25.683  1.00  0.00     0.042 C 
BRANCH   2   3
ATOM      3  C   UNL A   1      37.095  22.774  24.837  1.00  0.00     0.118 C 
BRANCH   3   4
ATOM      4  N   UNL A   1      36.202  23.004  23.720  1.00  0.00    -0.352 N 
ATOM      5  C   UNL A   1      34.845  23.093  23.536  1.00  0.00     0.255 C 
ATOM      6  O   UNL A   1      34.541  23.284  22.359  1.00  0.00    -0.269 OA
ATOM      7  H   UNL A   1      36.695  23.131  22.878  1.00  0.00     0.163 HD
BRANCH   5   8
ATOM      8  C   UNL A   1      33.823  23.023  24.639  1.00  0.00     0.082 A 
ATOM      9  C   UNL A   1      33.006  21.881  24.800  1.00  0.00     0.141 A 
ATOM     10  N   UNL A   1      31.929  21.890  25.637  1.00  0.00    -0.238 NA
ATOM     11  C   UNL A   1      31.701  22.977  26.396  1.00  0.00     0.113 A 
ATOM     12  C   UNL A   1      33.596  24.094  25.514  1.00  0.00     0.019 A 
ATOM     13  C   UNL A   1      32.517  24.083  26.394  1.00  0.00     0.021 A 
BRANCH   9  14
ATOM     14  N   UNL A   1      33.278  20.661  24.218  1.00  0.00    -0.355 N 
ATOM     15  C   UNL A   1      32.698  17.796  25.659  1.00  0.00     0.013 C 
ATOM     16  C   UNL A   1      33.653  18.330  24.579  1.00  0.00    -0.016 C 
ATOM     17  C   UNL A   1      34.812  17.345  24.397  1.00  0.00     0.013 C 
ATOM     18  C   UNL A   1      32.911  18.579  23.254  1.00  0.00     0.030 C 
ATOM     19  C   UNL A   1      34.162  19.742  24.948  1.00  0.00     0.124 C 
ATOM     20  C   UNL A   1      32.267  19.948  23.462  1.00  0.00     0.119 C 
ENDBRANCH   9  14
ENDBRANCH   5   8
ENDBRANCH   3   4
ENDBRANCH   2   3
ENDBRANCH   1   2
BRANCH   1  21
ATOM     21  N   UNL A   1      39.672  23.980  26.177  1.00  0.00    -0.352 N 
ATOM     22  C   UNL A   1      40.688  24.882  26.371  1.00  0.00     0.251 C 
ATOM     23  H   UNL A   1      39.879  23.250  25.551  1.00  0.00     0.163 HD
ATOM     24  O   UNL A   1      41.643  24.886  25.601  1.00  0.00    -0.269 OA
BRANCH  22  25
ATOM     25  C   UNL A   1      40.636  25.843  27.494  1.00  0.00     0.039 A 
ATOM     26  C   UNL A   1      41.573  26.881  27.539  1.00  0.00     0.014 A 
ATOM     27  C   UNL A   1      39.708  25.693  28.528  1.00  0.00     0.014 A 
ATOM     28  C   UNL A   1      41.540  27.800  28.590  1.00  0.00     0.010 A 
ATOM     29  C   UNL A   1      39.634  26.648  29.540  1.00  0.00     0.010 A 
ATOM     30  C   UNL A   1      40.552  27.708  29.583  1.00  0.00    -0.014 A 
BRANCH  30  31
ATOM     31  C   UNL A   1      40.458  28.712  30.674  1.00  0.00     0.031 A 
ATOM     32  C   UNL A   1      41.325  28.587  31.896  1.00  0.00     0.074 A 
ATOM     33  C   UNL A   1      39.541  29.696  30.591  1.00  0.00     0.049 A 
ATOM     34  N   UNL A   1      41.329  29.314  32.984  1.00  0.00    -0.248 NA
ATOM     35  C   UNL A   1      42.299  27.483  31.910  1.00  0.00     0.031 C 
ATOM     36  C   UNL A   1      38.609  29.890  29.477  1.00  0.00     0.029 A 
ATOM     37  N   UNL A   1      39.228  30.706  31.465  1.00  0.00    -0.354 N 
ATOM     38  C   UNL A   1      42.286  28.747  33.817  1.00  0.00     0.074 A 
ATOM     39  C   UNL A   1      42.810  27.587  33.128  1.00  0.00     0.031 C 
ATOM     40  C   UNL A   1      37.843  30.965  29.727  1.00  0.00     0.029 A 
ATOM     41  C   UNL A   1      38.201  31.512  31.032  1.00  0.00     0.049 A 
ATOM     42  H   UNL A   1      39.696  30.843  32.320  1.00  0.00     0.167 HD
ATOM     43  C   UNL A   1      42.705  29.165  35.036  1.00  0.00     0.037 A 
ATOM     44  C   UNL A   1      37.606  32.566  31.624  1.00  0.00     0.037 A 
ATOM     45  C   UNL A   1      42.196  30.337  35.703  1.00  0.00     0.049 A 
ATOM     46  C   UNL A   1      38.096  33.021  32.971  1.00  0.00     0.074 A 
ATOM     47  C   UNL A   1      42.596  30.881  36.911  1.00  0.00     0.029 A 
ATOM     48  N   UNL A   1      41.178  31.145  35.219  1.00  0.00    -0.354 N 
ATOM     49  N   UNL A   1      39.044  32.507  33.719  1.00  0.00    -0.248 NA
ATOM     50  C   UNL A   1      37.441  34.199  33.553  1.00  0.00     0.031 C 
ATOM     51  C   UNL A   1      41.791  31.995  37.176  1.00  0.00     0.029 A 
ATOM     52  C   UNL A   1      40.923  32.173  36.111  1.00  0.00     0.049 A 
ATOM     53  H   UNL A   1      40.705  31.007  34.365  1.00  0.00     0.167 HD
ATOM     54  C   UNL A   1      39.117  33.315  34.847  1.00  0.00     0.074 A 
ATOM     55  C   UNL A   1      38.124  34.357  34.679  1.00  0.00     0.031 C 
ATOM     56  C   UNL A   1      39.934  33.206  35.924  1.00  0.00     0.037 A 
BRANCH  43  57
ATOM     57  C   UNL A   1      43.767  28.353  35.725  1.00  0.00     0.058 A 
ATOM     58  C   UNL A   1      43.442  27.326  36.626  1.00  0.00     0.135 A 
ATOM     59  C   UNL A   1      45.128  28.584  35.463  1.00  0.00     0.135 A 
ATOM     60  F   UNL A   1      42.158  27.070  36.925  1.00  0.00    -0.206 F 
ATOM     61  C   UNL A   1      44.426  26.581  37.268  1.00  0.00     0.059 A 
ATOM     62  C   UNL A   1      46.129  27.833  36.072  1.00  0.00     0.059 A 
ATOM     63  F   UNL A   1      45.497  29.551  34.609  1.00  0.00    -0.206 F 
ATOM     64  C   UNL A   1      45.767  26.844  36.987  1.00  0.00     0.060 A 
BRANCH  64  65
ATOM     65  S   UNL A   1      47.032  25.871  37.830  1.00  0.00     0.124 S 
ATOM     66  O   UNL A   1      46.508  24.517  37.675  1.00  0.00    -0.237 OA
ATOM     67  O   UNL A   1      48.231  26.178  37.057  1.00  0.00    -0.237 OA
ATOM     68  O   UNL A   1      47.016  26.397  39.191  1.00  0.00    -0.744 OA
ENDBRANCH  64  65
ENDBRANCH  43  57
BRANCH  44  69
ATOM     69  C   UNL A   1      36.502  33.277  30.929  1.00  0.00     0.058 A 
ATOM     70  C   UNL A   1      35.177  33.163  31.375  1.00  0.00     0.135 A 
ATOM     71  C   UNL A   1      36.750  34.107  29.824  1.00  0.00     0.135 A 
ATOM     72  F   UNL A   1      34.890  32.378  32.425  1.00  0.00    -0.206 F 
ATOM     73  C   UNL A   1      34.135  33.836  30.747  1.00  0.00     0.059 A 
ATOM     74  C   UNL A   1      35.728  34.810  29.194  1.00  0.00     0.059 A 
ATOM     75  F   UNL A   1      38.002  34.265  29.369  1.00  0.00    -0.206 F 
ATOM     76  C   UNL A   1      34.421  34.661  29.658  1.00  0.00     0.060 A 
BRANCH  76  77
ATOM     77  S   UNL A   1      33.070  35.579  28.887  1.00  0.00     0.124 S 
ATOM     78  O   UNL A   1      33.796  36.620  28.168  1.00  0.00    -0.237 OA
ATOM     79  O   UNL A   1      32.435  34.556  28.062  1.00  0.00    -0.237 OA
ATOM     80  O   UNL A   1      32.279  36.032  30.027  1.00  0.00    -0.744 OA
ENDBRANCH  76  77
ENDBRANCH  44  69
BRANCH  56  81
ATOM     81  C   UNL A   1      39.812  34.257  36.992  1.00  0.00     0.058 A 
ATOM     82  C   UNL A   1      40.441  35.505  36.872  1.00  0.00     0.135 A 
ATOM     83  C   UNL A   1      39.013  34.029  38.124  1.00  0.00     0.135 A 
ATOM     84  F   UNL A   1      41.221  35.771  35.814  1.00  0.00    -0.206 F 
ATOM     85  C   UNL A   1      40.298  36.485  37.849  1.00  0.00     0.059 A 
ATOM     86  C   UNL A   1      38.835  35.003  39.099  1.00  0.00     0.059 A 
ATOM     87  F   UNL A   1      38.382  32.854  38.281  1.00  0.00    -0.206 F 
ATOM     88  C   UNL A   1      39.491  36.225  38.959  1.00  0.00     0.060 A 
BRANCH  88  89
ATOM     89  S   UNL A   1      39.284  37.518  40.202  1.00  0.00     0.124 S 
ATOM     90  O   UNL A   1      38.868  36.741  41.366  1.00  0.00    -0.237 OA
ATOM     91  O   UNL A   1      40.621  38.101  40.274  1.00  0.00    -0.237 OA
ATOM     92  O   UNL A   1      38.260  38.384  39.625  1.00  0.00    -0.744 OA
ENDBRANCH  88  89
ENDBRANCH  56  81
ENDBRANCH  30  31
ENDBRANCH  22  25
ENDBRANCH   1  21
TORSDOF 14
ENDMDL
MODEL 2
REMARK VINA RESULT:     -12.2      4.905     10.389
REMARK SMILES CC1(C)CCN(c2ncccc2C(=O)NCCCNC(=O)c2ccc(-c3c4nc(c(-c5c(F)cc(S(=O)(=O)[O-])cc5F)c5ccc([nH]5)c(-c5c(F)cc(S(=O)(=O)[O-])cc5F)c5nc(c(-c6c(F)cc(S(=O)(=O)[O-])cc6F)c6ccc3[nH]6)C=C5)C=C4)cc2)C1
REMARK SMILES IDX 18 1 17 2 16 3 15 4 13 5 14 6 12 8 7 9 8 10 9 11 11 12 10 13
REMARK SMILES IDX 6 14 1 15 2 16 3 17 4 18 88 19 5 20 19 21 20 22 21 24 22 25
REMARK SMILES IDX 23 26 87 27 24 28 86 29 25 30 26 31 27 32 80 33 28 34 85 35
REMARK SMILES IDX 79 36 81 37 29 38 84 39 78 40 77 41 30 43 64 44 43 45 63 46
REMARK SMILES IDX 44 47 47 48 62 49 82 50 45 51 46 52 61 54 83 55 48 56 31 57
REMARK SMILES IDX 32 58 41 59 33 60 34 61 40 62 42 63 35 64 36 65 37 66 38 67
REMARK SMILES IDX 39 68 65 69 66 70 75 71 67 72 68 73 74 74 76 75 69 76 70 77
REMARK SMILES IDX 71 78 72 79 73 80 49 81 50 82 59 83 51 84 52 85 58 86 60 87
REMARK SMILES IDX 53 88 54 89 55 90 56 91 57 92
REMARK H PARENT 15 7 19 23 81 42 47 53
REMARK Flexibility Score: inf
ROOT
ATOM      1  C   UNL A   1      33.487  28.136  27.274  1.00  0.00     0.118 C 
ENDROOT
BRANCH   1   2
ATOM      2  C   UNL A   1      33.939  27.676  25.885  1.00  0.00     0.042 C 
BRANCH   2   3
ATOM      3  C   UNL A   1      33.469  28.593  24.757  1.00  0.00     0.118 C 
BRANCH   3   4
ATOM      4  N   UNL A   1      33.765  28.009  23.464  1.00  0.00    -0.352 N 
ATOM      5  C   UNL A   1      33.478  26.835  22.817  1.00  0.00     0.255 C 
ATOM      6  O   UNL A   1      33.985  26.778  21.697  1.00  0.00    -0.269 OA
ATOM      7  H   UNL A   1      34.310  28.611  22.908  1.00  0.00     0.163 HD
BRANCH   5   8
ATOM      8  C   UNL A   1      32.600  25.743  23.367  1.00  0.00     0.082 A 
ATOM      9  C   UNL A   1      33.134  24.475  23.690  1.00  0.00     0.141 A 
ATOM     10  N   UNL A   1      32.325  23.412  23.968  1.00  0.00    -0.238 NA
ATOM     11  C   UNL A   1      30.995  23.603  24.031  1.00  0.00     0.113 A 
ATOM     12  C   UNL A   1      31.218  25.909  23.532  1.00  0.00     0.019 A 
ATOM     13  C   UNL A   1      30.400  24.830  23.853  1.00  0.00     0.021 A 
BRANCH   9  14
ATOM     14  N   UNL A   1      34.482  24.234  23.848  1.00  0.00    -0.355 N 
ATOM     15  C   UNL A   1      35.700  22.010  25.895  1.00  0.00     0.013 C 
ATOM     16  C   UNL A   1      36.185  23.319  25.252  1.00  0.00    -0.016 C 
ATOM     17  C   UNL A   1      37.391  23.849  26.032  1.00  0.00     0.013 C 
ATOM     18  C   UNL A   1      36.519  23.118  23.764  1.00  0.00     0.030 C 
ATOM     19  C   UNL A   1      35.042  24.359  25.200  1.00  0.00     0.124 C 
ATOM     20  C   UNL A   1      35.155  23.204  23.081  1.00  0.00     0.119 C 
ENDBRANCH   9  14
ENDBRANCH   5   8
ENDBRANCH   3   4
ENDBRANCH   2   3
ENDBRANCH   1   2
BRANCH   1  21
ATOM     21  N   UNL A   1      33.407  29.587  27.374  1.00  0.00    -0.352 N 
ATOM     22  C   UNL A   1      34.297  30.488  27.903  1.00  0.00     0.251 C 
ATOM     23  H   UNL A   1      32.586  29.984  27.004  1.00  0.00     0.163 HD
ATOM     24  O   UNL A   1      33.930  31.639  28.120  1.00  0.00    -0.269 OA
BRANCH  22  25
ATOM     25  C   UNL A   1      35.684  30.081  28.214  1.00  0.00     0.039 A 
ATOM     26  C   UNL A   1      36.643  30.117  27.197  1.00  0.00     0.014 A 
ATOM     27  C   UNL A   1      36.030  29.613  29.485  1.00  0.00     0.014 A 
ATOM     28  C   UNL A   1      37.960  29.738  27.471  1.00  0.00     0.010 A 
ATOM     29  C   UNL A   1      37.356  29.299  29.773  1.00  0.00     0.010 A 
ATOM     30  C   UNL A   1      38.333  29.354  28.768  1.00  0.00    -0.014 A 
BRANCH  30  31
ATOM     31  C   UNL A   1      39.740  29.010  29.097  1.00  0.00     0.031 A 
ATOM     32  C   UNL A   1      40.647  30.038  29.714  1.00  0.00     0.074 A 
ATOM     33  C   UNL A   1      40.217  27.792  28.773  1.00  0.00     0.049 A 
ATOM     34  N   UNL A   1      41.922  29.953  29.995  1.00  0.00    -0.248 NA
ATOM     35  C   UNL A   1      40.050  31.346  30.034  1.00  0.00     0.031 C 
ATOM     36  C   UNL A   1      39.446  26.728  28.126  1.00  0.00     0.029 A 
ATOM     37  N   UNL A   1      41.467  27.248  28.928  1.00  0.00    -0.354 N 
ATOM     38  C   UNL A   1      42.284  31.195  30.504  1.00  0.00     0.074 A 
ATOM     39  C   UNL A   1      41.104  32.032  30.450  1.00  0.00     0.031 C 
ATOM     40  C   UNL A   1      40.234  25.654  27.956  1.00  0.00     0.029 A 
ATOM     41  C   UNL A   1      41.574  25.965  28.446  1.00  0.00     0.049 A 
ATOM     42  H   UNL A   1      42.216  27.730  29.346  1.00  0.00     0.167 HD
ATOM     43  C   UNL A   1      43.483  31.595  30.990  1.00  0.00     0.037 A 
ATOM     44  C   UNL A   1      42.633  25.135  28.394  1.00  0.00     0.037 A 
ATOM     45  C   UNL A   1      44.645  30.746  31.065  1.00  0.00     0.049 A 
ATOM     46  C   UNL A   1      43.952  25.596  28.952  1.00  0.00     0.074 A 
ATOM     47  C   UNL A   1      45.890  31.036  31.597  1.00  0.00     0.029 A 
ATOM     48  N   UNL A   1      44.706  29.443  30.595  1.00  0.00    -0.354 N 
ATOM     49  N   UNL A   1      44.261  26.755  29.484  1.00  0.00    -0.248 NA
ATOM     50  C   UNL A   1      45.064  24.637  28.907  1.00  0.00     0.031 C 
ATOM     51  C   UNL A   1      46.715  29.921  31.412  1.00  0.00     0.029 A 
ATOM     52  C   UNL A   1      45.970  28.920  30.808  1.00  0.00     0.049 A 
ATOM     53  H   UNL A   1      43.958  28.960  30.172  1.00  0.00     0.167 HD
ATOM     54  C   UNL A   1      45.594  26.656  29.862  1.00  0.00     0.074 A 
ATOM     55  C   UNL A   1      46.030  25.320  29.506  1.00  0.00     0.031 C 
ATOM     56  C   UNL A   1      46.386  27.585  30.453  1.00  0.00     0.037 A 
BRANCH  43  57
ATOM     57  C   UNL A   1      43.598  33.012  31.483  1.00  0.00     0.058 A 
ATOM     58  C   UNL A   1      43.312  33.356  32.815  1.00  0.00     0.135 A 
ATOM     59  C   UNL A   1      44.027  34.036  30.623  1.00  0.00     0.135 A 
ATOM     60  F   UNL A   1      42.884  32.420  33.678  1.00  0.00    -0.206 F 
ATOM     61  C   UNL A   1      43.412  34.668  33.266  1.00  0.00     0.059 A 
ATOM     62  C   UNL A   1      44.162  35.351  31.060  1.00  0.00     0.059 A 
ATOM     63  F   UNL A   1      44.317  33.765  29.341  1.00  0.00    -0.206 F 
ATOM     64  C   UNL A   1      43.836  35.659  32.380  1.00  0.00     0.060 A 
BRANCH  64  65
ATOM     65  S   UNL A   1      43.958  37.357  32.981  1.00  0.00     0.124 S 
ATOM     66  O   UNL A   1      43.857  38.113  31.736  1.00  0.00    -0.237 OA
ATOM     67  O   UNL A   1      42.810  37.456  33.877  1.00  0.00    -0.237 OA
ATOM     68  O   UNL A   1      45.263  37.394  33.633  1.00  0.00    -0.744 OA
ENDBRANCH  64  65
ENDBRANCH  43  57
BRANCH  44  69
ATOM     69  C   UNL A   1      42.479  23.774  27.817  1.00  0.00     0.058 A 
ATOM     70  C   UNL A   1      42.493  23.574  26.429  1.00  0.00     0.135 A 
ATOM     71  C   UNL A   1      42.343  22.644  28.638  1.00  0.00     0.135 A 
ATOM     72  F   UNL A   1      42.616  24.624  25.602  1.00  0.00    -0.206 F 
ATOM     73  C   UNL A   1      42.367  22.305  25.873  1.00  0.00     0.059 A 
ATOM     74  C   UNL A   1      42.240  21.362  28.107  1.00  0.00     0.059 A 
ATOM     75  F   UNL A   1      42.342  22.779  29.973  1.00  0.00    -0.206 F 
ATOM     76  C   UNL A   1      42.244  21.204  26.721  1.00  0.00     0.060 A 
BRANCH  76  77
ATOM     77  S   UNL A   1      42.143  19.554  25.992  1.00  0.00     0.124 S 
ATOM     78  O   UNL A   1      43.034  19.686  24.845  1.00  0.00    -0.237 OA
ATOM     79  O   UNL A   1      42.622  18.707  27.081  1.00  0.00    -0.237 OA
ATOM     80  O   UNL A   1      40.725  19.413  25.679  1.00  0.00    -0.744 OA
ENDBRANCH  76  77
ENDBRANCH  44  69
BRANCH  56  81
ATOM     81  C   UNL A   1      47.796  27.183  30.781  1.00  0.00     0.058 A 
ATOM     82  C   UNL A   1      48.105  26.458  31.942  1.00  0.00     0.135 A 
ATOM     83  C   UNL A   1      48.844  27.481  29.894  1.00  0.00     0.135 A 
ATOM     84  F   UNL A   1      47.141  26.153  32.825  1.00  0.00    -0.206 F 
ATOM     85  C   UNL A   1      49.408  26.061  32.224  1.00  0.00     0.059 A 
ATOM     86  C   UNL A   1      50.149  27.071  30.143  1.00  0.00     0.059 A 
ATOM     87  F   UNL A   1      48.600  28.163  28.765  1.00  0.00    -0.206 F 
ATOM     88  C   UNL A   1      50.423  26.371  31.317  1.00  0.00     0.060 A 
BRANCH  88  89
ATOM     89  S   UNL A   1      52.104  25.818  31.676  1.00  0.00     0.124 S 
ATOM     90  O   UNL A   1      51.880  24.428  32.062  1.00  0.00    -0.237 OA
ATOM     91  O   UNL A   1      52.780  26.020  30.399  1.00  0.00    -0.237 OA
ATOM     92  O   UNL A   1      52.532  26.708  32.752  1.00  0.00    -0.744 OA
ENDBRANCH  88  89
ENDBRANCH  56  81
ENDBRANCH  30  31
ENDBRANCH  22  25
ENDBRANCH   1  21
TORSDOF 14
ENDMDL
MODEL 3
REMARK VINA RESULT:     -12.1      1.053      2.628
REMARK SMILES CC1(C)CCN(c2ncccc2C(=O)NCCCNC(=O)c2ccc(-c3c4nc(c(-c5c(F)cc(S(=O)(=O)[O-])cc5F)c5ccc([nH]5)c(-c5c(F)cc(S(=O)(=O)[O-])cc5F)c5nc(c(-c6c(F)cc(S(=O)(=O)[O-])cc6F)c6ccc3[nH]6)C=C5)C=C4)cc2)C1
REMARK SMILES IDX 18 1 17 2 16 3 15 4 13 5 14 6 12 8 7 9 8 10 9 11 11 12 10 13
REMARK SMILES IDX 6 14 1 15 2 16 3 17 4 18 88 19 5 20 19 21 20 22 21 24 22 25
REMARK SMILES IDX 23 26 87 27 24 28 86 29 25 30 26 31 27 32 80 33 28 34 85 35
REMARK SMILES IDX 79 36 81 37 29 38 84 39 78 40 77 41 30 43 64 44 43 45 63 46
REMARK SMILES IDX 44 47 47 48 62 49 82 50 45 51 46 52 61 54 83 55 48 56 31 57
REMARK SMILES IDX 32 58 41 59 33 60 34 61 40 62 42 63 35 64 36 65 37 66 38 67
REMARK SMILES IDX 39 68 65 69 66 70 75 71 67 72 68 73 74 74 76 75 69 76 70 77
REMARK SMILES IDX 71 78 72 79 73 80 49 81 50 82 59 83 51 84 52 85 58 86 60 87
REMARK SMILES IDX 53 88 54 89 55 90 56 91 57 92
REMARK H PARENT 15 7 19 23 81 42 47 53
REMARK Flexibility Score: inf
ROOT
ATOM      1  C   UNL A   1      38.197  24.193  26.522  1.00  0.00     0.118 C 
ENDROOT
BRANCH   1   2
ATOM      2  C   UNL A   1      37.226  23.724  25.435  1.00  0.00     0.042 C 
BRANCH   2   3
ATOM      3  C   UNL A   1      36.904  22.232  25.507  1.00  0.00     0.118 C 
BRANCH   3   4
ATOM      4  N   UNL A   1      35.870  21.977  26.489  1.00  0.00    -0.352 N 
ATOM      5  C   UNL A   1      34.591  21.479  26.478  1.00  0.00     0.255 C 
ATOM      6  O   UNL A   1      34.078  21.474  27.597  1.00  0.00    -0.269 OA
ATOM      7  H   UNL A   1      36.159  22.223  27.397  1.00  0.00     0.163 HD
BRANCH   5   8
ATOM      8  C   UNL A   1      33.890  20.942  25.260  1.00  0.00     0.082 A 
ATOM      9  C   UNL A   1      33.182  21.803  24.391  1.00  0.00     0.141 A 
ATOM     10  N   UNL A   1      32.357  21.314  23.421  1.00  0.00    -0.238 NA
ATOM     11  C   UNL A   1      32.293  19.984  23.228  1.00  0.00     0.113 A 
ATOM     12  C   UNL A   1      33.857  19.573  24.961  1.00  0.00     0.019 A 
ATOM     13  C   UNL A   1      33.042  19.081  23.946  1.00  0.00     0.021 A 
BRANCH   9  14
ATOM     14  N   UNL A   1      33.339  23.173  24.381  1.00  0.00    -0.355 N 
ATOM     15  C   UNL A   1      31.434  25.205  22.689  1.00  0.00     0.013 C 
ATOM     16  C   UNL A   1      32.870  25.217  23.237  1.00  0.00    -0.016 C 
ATOM     17  C   UNL A   1      33.675  26.304  22.520  1.00  0.00     0.013 C 
ATOM     18  C   UNL A   1      32.882  25.419  24.762  1.00  0.00     0.030 C 
ATOM     19  C   UNL A   1      33.528  23.827  23.079  1.00  0.00     0.124 C 
ATOM     20  C   UNL A   1      32.611  24.018  25.306  1.00  0.00     0.119 C 
ENDBRANCH   9  14
ENDBRANCH   5   8
ENDBRANCH   3   4
ENDBRANCH   2   3
ENDBRANCH   1   2
BRANCH   1  21
ATOM     21  N   UNL A   1      39.589  24.051  26.114  1.00  0.00    -0.352 N 
ATOM     22  C   UNL A   1      40.686  24.809  26.434  1.00  0.00     0.251 C 
ATOM     23  H   UNL A   1      39.770  23.291  25.514  1.00  0.00     0.163 HD
ATOM     24  O   UNL A   1      41.720  24.675  25.785  1.00  0.00    -0.269 OA
BRANCH  22  25
ATOM     25  C   UNL A   1      40.630  25.782  27.547  1.00  0.00     0.039 A 
ATOM     26  C   UNL A   1      41.575  26.811  27.593  1.00  0.00     0.014 A 
ATOM     27  C   UNL A   1      39.688  25.650  28.570  1.00  0.00     0.014 A 
ATOM     28  C   UNL A   1      41.538  27.741  28.635  1.00  0.00     0.010 A 
ATOM     29  C   UNL A   1      39.611  26.615  29.572  1.00  0.00     0.010 A 
ATOM     30  C   UNL A   1      40.538  27.668  29.617  1.00  0.00    -0.014 A 
BRANCH  30  31
ATOM     31  C   UNL A   1      40.440  28.683  30.696  1.00  0.00     0.031 A 
ATOM     32  C   UNL A   1      41.305  28.573  31.921  1.00  0.00     0.074 A 
ATOM     33  C   UNL A   1      39.521  29.664  30.601  1.00  0.00     0.049 A 
ATOM     34  N   UNL A   1      41.306  29.311  33.002  1.00  0.00    -0.248 NA
ATOM     35  C   UNL A   1      42.281  27.470  31.949  1.00  0.00     0.031 C 
ATOM     36  C   UNL A   1      38.591  29.845  29.484  1.00  0.00     0.029 A 
ATOM     37  N   UNL A   1      39.204  30.683  31.464  1.00  0.00    -0.354 N 
ATOM     38  C   UNL A   1      42.263  28.754  33.843  1.00  0.00     0.074 A 
ATOM     39  C   UNL A   1      42.790  27.588  33.166  1.00  0.00     0.031 C 
ATOM     40  C   UNL A   1      37.822  30.920  29.721  1.00  0.00     0.029 A 
ATOM     41  C   UNL A   1      38.177  31.482  31.021  1.00  0.00     0.049 A 
ATOM     42  H   UNL A   1      39.671  30.830  32.318  1.00  0.00     0.167 HD
ATOM     43  C   UNL A   1      42.678  29.187  35.057  1.00  0.00     0.037 A 
ATOM     44  C   UNL A   1      37.579  32.541  31.600  1.00  0.00     0.037 A 
ATOM     45  C   UNL A   1      42.166  30.364  35.711  1.00  0.00     0.049 A 
ATOM     46  C   UNL A   1      38.066  33.011  32.943  1.00  0.00     0.074 A 
ATOM     47  C   UNL A   1      42.562  30.922  36.914  1.00  0.00     0.029 A 
ATOM     48  N   UNL A   1      41.147  31.165  35.216  1.00  0.00    -0.354 N 
ATOM     49  N   UNL A   1      39.014  32.507  33.698  1.00  0.00    -0.248 NA
ATOM     50  C   UNL A   1      37.407  34.194  33.512  1.00  0.00     0.031 C 
ATOM     51  C   UNL A   1      41.755  32.038  37.165  1.00  0.00     0.029 A 
ATOM     52  C   UNL A   1      40.889  32.202  36.097  1.00  0.00     0.049 A 
ATOM     53  H   UNL A   1      40.676  31.017  34.363  1.00  0.00     0.167 HD
ATOM     54  C   UNL A   1      39.083  33.327  34.818  1.00  0.00     0.074 A 
ATOM     55  C   UNL A   1      38.089  34.366  34.637  1.00  0.00     0.031 C 
ATOM     56  C   UNL A   1      39.898  33.231  35.898  1.00  0.00     0.037 A 
BRANCH  43  57
ATOM     57  C   UNL A   1      43.741  28.384  35.758  1.00  0.00     0.058 A 
ATOM     58  C   UNL A   1      45.108  28.640  35.561  1.00  0.00     0.135 A 
ATOM     59  C   UNL A   1      43.391  27.364  36.658  1.00  0.00     0.135 A 
ATOM     60  F   UNL A   1      45.500  29.594  34.702  1.00  0.00    -0.206 F 
ATOM     61  C   UNL A   1      46.089  27.891  36.204  1.00  0.00     0.059 A 
ATOM     62  C   UNL A   1      44.355  26.621  37.334  1.00  0.00     0.059 A 
ATOM     63  F   UNL A   1      42.099  27.077  36.886  1.00  0.00    -0.206 F 
ATOM     64  C   UNL A   1      45.702  26.882  37.087  1.00  0.00     0.060 A 
BRANCH  64  65
ATOM     65  S   UNL A   1      46.987  25.919  37.911  1.00  0.00     0.124 S 
ATOM     66  O   UNL A   1      46.711  24.577  37.407  1.00  0.00    -0.237 OA
ATOM     67  O   UNL A   1      48.211  26.541  37.417  1.00  0.00    -0.237 OA
ATOM     68  O   UNL A   1      46.710  26.125  39.329  1.00  0.00    -0.744 OA
ENDBRANCH  64  65
ENDBRANCH  43  57
BRANCH  44  69
ATOM     69  C   UNL A   1      36.475  33.243  30.895  1.00  0.00     0.058 A 
ATOM     70  C   UNL A   1      35.146  33.106  31.322  1.00  0.00     0.135 A 
ATOM     71  C   UNL A   1      36.726  34.086  29.802  1.00  0.00     0.135 A 
ATOM     72  F   UNL A   1      34.855  32.307  32.361  1.00  0.00    -0.206 F 
ATOM     73  C   UNL A   1      34.103  33.770  30.684  1.00  0.00     0.059 A 
ATOM     74  C   UNL A   1      35.704  34.780  29.163  1.00  0.00     0.059 A 
ATOM     75  F   UNL A   1      37.983  34.266  29.366  1.00  0.00    -0.206 F 
ATOM     76  C   UNL A   1      34.393  34.609  29.607  1.00  0.00     0.060 A 
BRANCH  76  77
ATOM     77  S   UNL A   1      33.040  35.514  28.825  1.00  0.00     0.124 S 
ATOM     78  O   UNL A   1      32.385  34.460  28.060  1.00  0.00    -0.237 OA
ATOM     79  O   UNL A   1      32.302  36.021  29.979  1.00  0.00    -0.237 OA
ATOM     80  O   UNL A   1      33.729  36.532  28.038  1.00  0.00    -0.744 OA
ENDBRANCH  76  77
ENDBRANCH  44  69
BRANCH  56  81
ATOM     81  C   UNL A   1      39.772  34.293  36.954  1.00  0.00     0.058 A 
ATOM     82  C   UNL A   1      39.015  34.089  38.118  1.00  0.00     0.135 A 
ATOM     83  C   UNL A   1      40.463  35.508  36.824  1.00  0.00     0.135 A 
ATOM     84  F   UNL A   1      38.331  32.947  38.288  1.00  0.00    -0.206 F 
ATOM     85  C   UNL A   1      38.929  35.064  39.107  1.00  0.00     0.059 A 
ATOM     86  C   UNL A   1      40.412  36.486  37.811  1.00  0.00     0.059 A 
ATOM     87  F   UNL A   1      41.210  35.749  35.734  1.00  0.00    -0.206 F 
ATOM     88  C   UNL A   1      39.633  36.258  38.945  1.00  0.00     0.060 A 
BRANCH  88  89
ATOM     89  S   UNL A   1      39.543  37.501  40.252  1.00  0.00     0.124 S 
ATOM     90  O   UNL A   1      38.723  38.531  39.621  1.00  0.00    -0.237 OA
ATOM     91  O   UNL A   1      38.909  36.765  41.341  1.00  0.00    -0.237 OA
ATOM     92  O   UNL A   1      40.940  37.860  40.476  1.00  0.00    -0.744 OA
ENDBRANCH  88  89
ENDBRANCH  56  81
ENDBRANCH  30  31
ENDBRANCH  22  25
ENDBRANCH   1  21
TORSDOF 14
ENDMDL
