MODEL 1
REMARK VINA RESULT:     -11.6      0.000      0.000
REMARK SMILES COCc1nc2ccccc2n1CC(=O)NCCCNC(=O)c1ccc(-c2c3nc(c(-c4c(F)cc(S(=O)(=O)[O-])cc4F)c4ccc([nH]4)c(-c4c(F)cc(S(=O)(=O)[O-])cc4F)c4nc(c(-c5c(F)cc(S(=O)(=O)[O-])cc5F)c5ccc2[nH]5)C=C4)C=C3)cc1
REMARK SMILES IDX 18 1 17 2 16 3 14 4 15 5 13 7 12 8 4 9 5 10 6 11 11 12 7 13
REMARK SMILES IDX 10 14 8 15 9 16 3 17 2 18 1 19 19 20 20 21 21 22 22 24 23 25
REMARK SMILES IDX 24 26 88 27 25 28 87 29 26 30 27 31 28 32 81 33 29 34 86 35
REMARK SMILES IDX 80 36 82 37 30 38 85 39 79 40 78 41 31 43 65 44 44 45 64 46
REMARK SMILES IDX 45 47 48 48 63 49 83 50 46 51 47 52 62 54 84 55 49 56 32 57
REMARK SMILES IDX 33 58 42 59 34 60 35 61 41 62 43 63 36 64 37 65 38 66 39 67
REMARK SMILES IDX 40 68 66 69 67 70 76 71 68 72 69 73 75 74 77 75 70 76 71 77
REMARK SMILES IDX 72 78 73 79 74 80 50 81 51 82 60 83 52 84 53 85 59 86 61 87
REMARK SMILES IDX 54 88 55 89 56 90 57 91 58 92
REMARK H PARENT 16 6 20 23 82 42 48 53
REMARK Flexibility Score: inf
ROOT
ATOM      1  C   UNL A   1      31.972  28.494  27.404  1.00  0.00     0.042 C 
ENDROOT
BRANCH   1   2
ATOM      2  C   UNL A   1      31.414  27.655  26.253  1.00  0.00     0.117 C 
BRANCH   2   3
ATOM      3  N   UNL A   1      31.502  26.226  26.512  1.00  0.00    -0.354 N 
ATOM      4  C   UNL A   1      32.509  25.345  26.276  1.00  0.00     0.240 C 
ATOM      5  O   UNL A   1      32.319  24.163  26.582  1.00  0.00    -0.273 OA
ATOM      6  H   UNL A   1      30.700  25.833  26.927  1.00  0.00     0.163 HD
BRANCH   4   7
ATOM      7  C   UNL A   1      33.839  25.786  25.708  1.00  0.00     0.223 C 
BRANCH   7   8
ATOM      8  N   UNL A   1      34.377  24.917  24.676  1.00  0.00    -0.316 N 
ATOM      9  C   UNL A   1      33.956  24.823  23.362  1.00  0.00     0.136 A 
ATOM     10  N   UNL A   1      34.678  23.921  22.719  1.00  0.00    -0.231 NA
ATOM     11  C   UNL A   1      35.582  23.429  23.620  1.00  0.00     0.089 A 
ATOM     12  C   UNL A   1      35.397  24.007  24.871  1.00  0.00     0.069 A 
ATOM     13  C   UNL A   1      36.606  22.489  23.434  1.00  0.00     0.030 A 
ATOM     14  C   UNL A   1      36.183  23.657  25.980  1.00  0.00     0.028 A 
ATOM     15  C   UNL A   1      37.426  22.158  24.519  1.00  0.00     0.002 A 
ATOM     16  C   UNL A   1      37.211  22.732  25.771  1.00  0.00     0.002 A 
BRANCH   9  17
ATOM     17  C   UNL A   1      32.851  25.648  22.766  1.00  0.00     0.235 C 
BRANCH  17  18
ATOM     18  O   UNL A   1      31.723  24.830  22.432  1.00  0.00    -0.377 OA
ATOM     19  C   UNL A   1      30.570  25.125  23.211  1.00  0.00     0.195 C 
ENDBRANCH  17  18
ENDBRANCH   9  17
ENDBRANCH   7   8
ENDBRANCH   4   7
ENDBRANCH   2   3
ENDBRANCH   1   2
BRANCH   1  20
ATOM     20  C   UNL A   1      33.211  29.306  27.020  1.00  0.00     0.118 C 
BRANCH  20  21
ATOM     21  N   UNL A   1      33.388  30.519  27.794  1.00  0.00    -0.352 N 
ATOM     22  C   UNL A   1      34.460  31.193  28.310  1.00  0.00     0.251 C 
ATOM     23  H   UNL A   1      32.533  30.963  27.996  1.00  0.00     0.163 HD
ATOM     24  O   UNL A   1      34.194  32.252  28.885  1.00  0.00    -0.269 OA
BRANCH  22  25
ATOM     25  C   UNL A   1      35.868  30.719  28.283  1.00  0.00     0.039 A 
ATOM     26  C   UNL A   1      36.286  29.423  27.972  1.00  0.00     0.014 A 
ATOM     27  C   UNL A   1      36.838  31.668  28.655  1.00  0.00     0.014 A 
ATOM     28  C   UNL A   1      37.613  29.048  28.151  1.00  0.00     0.010 A 
ATOM     29  C   UNL A   1      38.170  31.306  28.808  1.00  0.00     0.010 A 
ATOM     30  C   UNL A   1      38.539  29.976  28.622  1.00  0.00    -0.014 A 
BRANCH  30  31
ATOM     31  C   UNL A   1      39.892  29.511  28.913  1.00  0.00     0.031 A 
ATOM     32  C   UNL A   1      40.283  29.456  30.355  1.00  0.00     0.074 A 
ATOM     33  C   UNL A   1      40.687  29.032  27.935  1.00  0.00     0.049 A 
ATOM     34  N   UNL A   1      41.293  30.005  30.952  1.00  0.00    -0.248 NA
ATOM     35  C   UNL A   1      39.368  28.747  31.267  1.00  0.00     0.031 C 
ATOM     36  C   UNL A   1      40.333  28.760  26.536  1.00  0.00     0.029 A 
ATOM     37  N   UNL A   1      41.961  28.565  28.020  1.00  0.00    -0.354 N 
ATOM     38  C   UNL A   1      41.246  29.566  32.277  1.00  0.00     0.074 A 
ATOM     39  C   UNL A   1      39.981  28.897  32.440  1.00  0.00     0.031 C 
ATOM     40  C   UNL A   1      41.271  27.956  25.990  1.00  0.00     0.029 A 
ATOM     41  C   UNL A   1      42.346  27.771  26.948  1.00  0.00     0.049 A 
ATOM     42  H   UNL A   1      42.558  28.769  28.775  1.00  0.00     0.167 HD
ATOM     43  C   UNL A   1      42.315  29.619  33.120  1.00  0.00     0.037 A 
ATOM     44  C   UNL A   1      43.420  26.945  26.902  1.00  0.00     0.037 A 
ATOM     45  C   UNL A   1      43.331  30.523  32.664  1.00  0.00     0.049 A 
ATOM     46  C   UNL A   1      44.358  27.381  27.970  1.00  0.00     0.074 A 
ATOM     47  C   UNL A   1      43.390  31.885  32.445  1.00  0.00     0.029 A 
ATOM     48  N   UNL A   1      44.435  30.002  32.035  1.00  0.00    -0.354 N 
ATOM     49  N   UNL A   1      44.993  28.522  27.969  1.00  0.00    -0.248 NA
ATOM     50  C   UNL A   1      44.259  26.727  29.267  1.00  0.00     0.031 C 
ATOM     51  C   UNL A   1      44.225  32.041  31.300  1.00  0.00     0.029 A 
ATOM     52  C   UNL A   1      44.650  30.769  30.917  1.00  0.00     0.049 A 
ATOM     53  H   UNL A   1      44.968  29.229  32.329  1.00  0.00     0.167 HD
ATOM     54  C   UNL A   1      45.020  28.921  29.298  1.00  0.00     0.074 A 
ATOM     55  C   UNL A   1      44.631  27.736  30.057  1.00  0.00     0.031 C 
ATOM     56  C   UNL A   1      45.091  30.240  29.645  1.00  0.00     0.037 A 
BRANCH  43  57
ATOM     57  C   UNL A   1      42.553  28.622  34.225  1.00  0.00     0.058 A 
ATOM     58  C   UNL A   1      42.517  29.020  35.576  1.00  0.00     0.135 A 
ATOM     59  C   UNL A   1      43.075  27.332  33.979  1.00  0.00     0.135 A 
ATOM     60  F   UNL A   1      42.066  30.237  35.916  1.00  0.00    -0.206 F 
ATOM     61  C   UNL A   1      42.998  28.207  36.605  1.00  0.00     0.059 A 
ATOM     62  C   UNL A   1      43.511  26.486  34.992  1.00  0.00     0.059 A 
ATOM     63  F   UNL A   1      43.269  26.878  32.733  1.00  0.00    -0.206 F 
ATOM     64  C   UNL A   1      43.505  26.944  36.299  1.00  0.00     0.060 A 
BRANCH  64  65
ATOM     65  S   UNL A   1      44.227  25.937  37.609  1.00  0.00     0.124 S 
ATOM     66  O   UNL A   1      43.822  24.597  37.203  1.00  0.00    -0.237 OA
ATOM     67  O   UNL A   1      45.648  26.243  37.478  1.00  0.00    -0.237 OA
ATOM     68  O   UNL A   1      43.591  26.451  38.818  1.00  0.00    -0.744 OA
ENDBRANCH  64  65
ENDBRANCH  43  57
BRANCH  44  69
ATOM     69  C   UNL A   1      43.481  25.593  26.285  1.00  0.00     0.058 A 
ATOM     70  C   UNL A   1      44.410  25.301  25.272  1.00  0.00     0.135 A 
ATOM     71  C   UNL A   1      42.827  24.486  26.865  1.00  0.00     0.135 A 
ATOM     72  F   UNL A   1      45.097  26.291  24.681  1.00  0.00    -0.206 F 
ATOM     73  C   UNL A   1      44.709  23.988  24.891  1.00  0.00     0.059 A 
ATOM     74  C   UNL A   1      43.096  23.171  26.493  1.00  0.00     0.059 A 
ATOM     75  F   UNL A   1      41.970  24.642  27.885  1.00  0.00    -0.206 F 
ATOM     76  C   UNL A   1      44.061  22.928  25.524  1.00  0.00     0.060 A 
BRANCH  76  77
ATOM     77  S   UNL A   1      44.571  21.230  25.167  1.00  0.00     0.124 S 
ATOM     78  O   UNL A   1      44.549  21.209  23.709  1.00  0.00    -0.237 OA
ATOM     79  O   UNL A   1      45.891  21.172  25.787  1.00  0.00    -0.237 OA
ATOM     80  O   UNL A   1      43.544  20.422  25.818  1.00  0.00    -0.744 OA
ENDBRANCH  76  77
ENDBRANCH  44  69
BRANCH  56  81
ATOM     81  C   UNL A   1      45.384  31.245  28.559  1.00  0.00     0.058 A 
ATOM     82  C   UNL A   1      44.385  31.889  27.805  1.00  0.00     0.135 A 
ATOM     83  C   UNL A   1      46.700  31.697  28.390  1.00  0.00     0.135 A 
ATOM     84  F   UNL A   1      43.092  31.598  27.985  1.00  0.00    -0.206 F 
ATOM     85  C   UNL A   1      44.686  32.906  26.897  1.00  0.00     0.059 A 
ATOM     86  C   UNL A   1      47.020  32.732  27.512  1.00  0.00     0.059 A 
ATOM     87  F   UNL A   1      47.691  31.170  29.129  1.00  0.00    -0.206 F 
ATOM     88  C   UNL A   1      46.007  33.326  26.761  1.00  0.00     0.060 A 
BRANCH  88  89
ATOM     89  S   UNL A   1      46.375  34.709  25.660  1.00  0.00     0.124 S 
ATOM     90  O   UNL A   1      46.019  35.862  26.487  1.00  0.00    -0.237 OA
ATOM     91  O   UNL A   1      47.808  34.538  25.407  1.00  0.00    -0.237 OA
ATOM     92  O   UNL A   1      45.515  34.475  24.511  1.00  0.00    -0.744 OA
ENDBRANCH  88  89
ENDBRANCH  56  81
ENDBRANCH  30  31
ENDBRANCH  22  25
ENDBRANCH  20  21
ENDBRANCH   1  20
TORSDOF 16
ENDMDL
MODEL 2
REMARK VINA RESULT:     -11.6      2.604      9.390
REMARK SMILES COCc1nc2ccccc2n1CC(=O)NCCCNC(=O)c1ccc(-c2c3nc(c(-c4c(F)cc(S(=O)(=O)[O-])cc4F)c4ccc([nH]4)c(-c4c(F)cc(S(=O)(=O)[O-])cc4F)c4nc(c(-c5c(F)cc(S(=O)(=O)[O-])cc5F)c5ccc2[nH]5)C=C4)C=C3)cc1
REMARK SMILES IDX 18 1 17 2 16 3 14 4 15 5 13 7 12 8 4 9 5 10 6 11 11 12 7 13
REMARK SMILES IDX 10 14 8 15 9 16 3 17 2 18 1 19 19 20 20 21 21 22 22 24 23 25
REMARK SMILES IDX 24 26 88 27 25 28 87 29 26 30 27 31 28 32 81 33 29 34 86 35
REMARK SMILES IDX 80 36 82 37 30 38 85 39 79 40 78 41 31 43 65 44 44 45 64 46
REMARK SMILES IDX 45 47 48 48 63 49 83 50 46 51 47 52 62 54 84 55 49 56 32 57
REMARK SMILES IDX 33 58 42 59 34 60 35 61 41 62 43 63 36 64 37 65 38 66 39 67
REMARK SMILES IDX 40 68 66 69 67 70 76 71 68 72 69 73 75 74 77 75 70 76 71 77
REMARK SMILES IDX 72 78 73 79 74 80 50 81 51 82 60 83 52 84 53 85 59 86 61 87
REMARK SMILES IDX 54 88 55 89 56 90 57 91 58 92
REMARK H PARENT 16 6 20 23 82 42 48 53
REMARK Flexibility Score: inf
ROOT
ATOM      1  C   UNL A   1      36.758  22.859  23.955  1.00  0.00     0.042 C 
ENDROOT
BRANCH   1   2
ATOM      2  C   UNL A   1      35.237  22.691  23.933  1.00  0.00     0.117 C 
BRANCH   2   3
ATOM      3  N   UNL A   1      34.558  23.844  23.361  1.00  0.00    -0.354 N 
ATOM      4  C   UNL A   1      33.977  24.915  23.964  1.00  0.00     0.240 C 
ATOM      5  O   UNL A   1      33.447  25.762  23.237  1.00  0.00    -0.273 OA
ATOM      6  H   UNL A   1      34.511  23.849  22.379  1.00  0.00     0.163 HD
BRANCH   4   7
ATOM      7  C   UNL A   1      34.016  25.108  25.463  1.00  0.00     0.223 C 
BRANCH   7   8
ATOM      8  N   UNL A   1      32.971  25.967  25.991  1.00  0.00    -0.316 N 
ATOM      9  C   UNL A   1      31.653  25.625  26.236  1.00  0.00     0.136 A 
ATOM     10  N   UNL A   1      30.997  26.668  26.713  1.00  0.00    -0.231 NA
ATOM     11  C   UNL A   1      31.896  27.697  26.787  1.00  0.00     0.089 A 
ATOM     12  C   UNL A   1      33.139  27.301  26.306  1.00  0.00     0.069 A 
ATOM     13  C   UNL A   1      31.721  29.001  27.270  1.00  0.00     0.030 A 
ATOM     14  C   UNL A   1      34.233  28.177  26.253  1.00  0.00     0.028 A 
ATOM     15  C   UNL A   1      32.812  29.877  27.262  1.00  0.00     0.002 A 
ATOM     16  C   UNL A   1      34.046  29.469  26.756  1.00  0.00     0.002 A 
BRANCH   9  17
ATOM     17  C   UNL A   1      31.077  24.257  26.006  1.00  0.00     0.235 C 
BRANCH  17  18
ATOM     18  O   UNL A   1      30.616  23.681  27.234  1.00  0.00    -0.377 OA
ATOM     19  C   UNL A   1      29.681  22.627  27.040  1.00  0.00     0.195 C 
ENDBRANCH  17  18
ENDBRANCH   9  17
ENDBRANCH   7   8
ENDBRANCH   4   7
ENDBRANCH   2   3
ENDBRANCH   1   2
BRANCH   1  20
ATOM     20  C   UNL A   1      37.312  23.200  25.340  1.00  0.00     0.118 C 
BRANCH  20  21
ATOM     21  N   UNL A   1      38.350  22.299  25.801  1.00  0.00    -0.352 N 
ATOM     22  C   UNL A   1      39.464  22.422  26.583  1.00  0.00     0.251 C 
ATOM     23  H   UNL A   1      38.222  21.380  25.472  1.00  0.00     0.163 HD
ATOM     24  O   UNL A   1      40.085  21.375  26.792  1.00  0.00    -0.269 OA
BRANCH  22  25
ATOM     25  C   UNL A   1      39.996  23.698  27.127  1.00  0.00     0.039 A 
ATOM     26  C   UNL A   1      41.233  23.865  27.753  1.00  0.00     0.014 A 
ATOM     27  C   UNL A   1      39.135  24.808  27.033  1.00  0.00     0.014 A 
ATOM     28  C   UNL A   1      41.551  25.065  28.381  1.00  0.00     0.010 A 
ATOM     29  C   UNL A   1      39.459  26.017  27.633  1.00  0.00     0.010 A 
ATOM     30  C   UNL A   1      40.638  26.118  28.366  1.00  0.00    -0.014 A 
BRANCH  30  31
ATOM     31  C   UNL A   1      40.957  27.315  29.139  1.00  0.00     0.031 A 
ATOM     32  C   UNL A   1      42.161  28.088  28.704  1.00  0.00     0.074 A 
ATOM     33  C   UNL A   1      40.126  27.763  30.102  1.00  0.00     0.049 A 
ATOM     34  N   UNL A   1      43.201  28.440  29.393  1.00  0.00    -0.248 NA
ATOM     35  C   UNL A   1      42.242  28.449  27.278  1.00  0.00     0.031 C 
ATOM     36  C   UNL A   1      38.782  27.272  30.433  1.00  0.00     0.029 A 
ATOM     37  N   UNL A   1      40.261  28.844  30.914  1.00  0.00    -0.354 N 
ATOM     38  C   UNL A   1      43.983  29.221  28.540  1.00  0.00     0.074 A 
ATOM     39  C   UNL A   1      43.408  29.092  27.225  1.00  0.00     0.031 C 
ATOM     40  C   UNL A   1      38.145  28.198  31.183  1.00  0.00     0.029 A 
ATOM     41  C   UNL A   1      39.074  29.270  31.492  1.00  0.00     0.049 A 
ATOM     42  H   UNL A   1      41.125  29.287  31.078  1.00  0.00     0.167 HD
ATOM     43  C   UNL A   1      44.954  30.069  28.982  1.00  0.00     0.037 A 
ATOM     44  C   UNL A   1      38.853  30.468  32.091  1.00  0.00     0.037 A 
ATOM     45  C   UNL A   1      45.366  29.779  30.326  1.00  0.00     0.049 A 
ATOM     46  C   UNL A   1      40.181  31.034  32.446  1.00  0.00     0.074 A 
ATOM     47  C   UNL A   1      45.973  28.704  30.942  1.00  0.00     0.029 A 
ATOM     48  N   UNL A   1      44.866  30.552  31.344  1.00  0.00    -0.354 N 
ATOM     49  N   UNL A   1      40.985  30.519  33.337  1.00  0.00    -0.248 NA
ATOM     50  C   UNL A   1      40.808  31.939  31.493  1.00  0.00     0.031 C 
ATOM     51  C   UNL A   1      45.378  28.632  32.235  1.00  0.00     0.029 A 
ATOM     52  C   UNL A   1      44.473  29.690  32.337  1.00  0.00     0.049 A 
ATOM     53  H   UNL A   1      44.802  31.535  31.359  1.00  0.00     0.167 HD
ATOM     54  C   UNL A   1      42.260  30.709  32.824  1.00  0.00     0.074 A 
ATOM     55  C   UNL A   1      42.091  31.663  31.732  1.00  0.00     0.031 C 
ATOM     56  C   UNL A   1      43.292  29.875  33.150  1.00  0.00     0.037 A 
BRANCH  43  57
ATOM     57  C   UNL A   1      45.324  31.350  28.279  1.00  0.00     0.058 A 
ATOM     58  C   UNL A   1      44.394  32.401  28.158  1.00  0.00     0.135 A 
ATOM     59  C   UNL A   1      46.492  31.470  27.493  1.00  0.00     0.135 A 
ATOM     60  F   UNL A   1      43.239  32.371  28.840  1.00  0.00    -0.206 F 
ATOM     61  C   UNL A   1      44.595  33.476  27.288  1.00  0.00     0.059 A 
ATOM     62  C   UNL A   1      46.736  32.556  26.660  1.00  0.00     0.059 A 
ATOM     63  F   UNL A   1      47.401  30.487  27.430  1.00  0.00    -0.206 F 
ATOM     64  C   UNL A   1      45.766  33.537  26.535  1.00  0.00     0.060 A 
BRANCH  64  65
ATOM     65  S   UNL A   1      45.979  34.863  25.332  1.00  0.00     0.124 S 
ATOM     66  O   UNL A   1      47.405  34.769  25.044  1.00  0.00    -0.237 OA
ATOM     67  O   UNL A   1      45.081  34.449  24.260  1.00  0.00    -0.237 OA
ATOM     68  O   UNL A   1      45.560  36.054  26.067  1.00  0.00    -0.744 OA
ENDBRANCH  64  65
ENDBRANCH  43  57
BRANCH  44  69
ATOM     69  C   UNL A   1      37.625  31.302  31.994  1.00  0.00     0.058 A 
ATOM     70  C   UNL A   1      36.905  31.666  33.144  1.00  0.00     0.135 A 
ATOM     71  C   UNL A   1      37.292  31.989  30.809  1.00  0.00     0.135 A 
ATOM     72  F   UNL A   1      37.174  31.080  34.322  1.00  0.00    -0.206 F 
ATOM     73  C   UNL A   1      35.947  32.686  33.131  1.00  0.00     0.059 A 
ATOM     74  C   UNL A   1      36.332  32.997  30.767  1.00  0.00     0.059 A 
ATOM     75  F   UNL A   1      37.959  31.769  29.666  1.00  0.00    -0.206 F 
ATOM     76  C   UNL A   1      35.682  33.361  31.939  1.00  0.00     0.060 A 
BRANCH  76  77
ATOM     77  S   UNL A   1      34.582  34.795  31.954  1.00  0.00     0.124 S 
ATOM     78  O   UNL A   1      34.421  35.066  30.530  1.00  0.00    -0.237 OA
ATOM     79  O   UNL A   1      33.406  34.270  32.641  1.00  0.00    -0.237 OA
ATOM     80  O   UNL A   1      35.339  35.798  32.698  1.00  0.00    -0.744 OA
ENDBRANCH  76  77
ENDBRANCH  44  69
BRANCH  56  81
ATOM     81  C   UNL A   1      43.078  28.886  34.270  1.00  0.00     0.058 A 
ATOM     82  C   UNL A   1      42.469  27.630  34.092  1.00  0.00     0.135 A 
ATOM     83  C   UNL A   1      43.655  29.144  35.521  1.00  0.00     0.135 A 
ATOM     84  F   UNL A   1      41.992  27.259  32.899  1.00  0.00    -0.206 F 
ATOM     85  C   UNL A   1      42.402  26.690  35.122  1.00  0.00     0.059 A 
ATOM     86  C   UNL A   1      43.629  28.208  36.554  1.00  0.00     0.059 A 
ATOM     87  F   UNL A   1      44.311  30.297  35.734  1.00  0.00    -0.206 F 
ATOM     88  C   UNL A   1      42.990  26.985  36.349  1.00  0.00     0.060 A 
BRANCH  88  89
ATOM     89  S   UNL A   1      42.989  25.726  37.645  1.00  0.00     0.124 S 
ATOM     90  O   UNL A   1      41.569  25.387  37.739  1.00  0.00    -0.237 OA
ATOM     91  O   UNL A   1      43.845  24.685  37.073  1.00  0.00    -0.237 OA
ATOM     92  O   UNL A   1      43.544  26.417  38.798  1.00  0.00    -0.744 OA
ENDBRANCH  88  89
ENDBRANCH  56  81
ENDBRANCH  30  31
ENDBRANCH  22  25
ENDBRANCH  20  21
ENDBRANCH   1  20
TORSDOF 16
ENDMDL
MODEL 3
REMARK VINA RESULT:     -11.5      2.962      9.181
REMARK SMILES COCc1nc2ccccc2n1CC(=O)NCCCNC(=O)c1ccc(-c2c3nc(c(-c4c(F)cc(S(=O)(=O)[O-])cc4F)c4ccc([nH]4)c(-c4c(F)cc(S(=O)(=O)[O-])cc4F)c4nc(c(-c5c(F)cc(S(=O)(=O)[O-])cc5F)c5ccc2[nH]5)C=C4)C=C3)cc1
REMARK SMILES IDX 18 1 17 2 16 3 14 4 15 5 13 7 12 8 4 9 5 10 6 11 11 12 7 13
REMARK SMILES IDX 10 14 8 15 9 16 3 17 2 18 1 19 19 20 20 21 21 22 22 24 23 25
REMARK SMILES IDX 24 26 88 27 25 28 87 29 26 30 27 31 28 32 81 33 29 34 86 35
REMARK SMILES IDX 80 36 82 37 30 38 85 39 79 40 78 41 31 43 65 44 44 45 64 46
REMARK SMILES IDX 45 47 48 48 63 49 83 50 46 51 47 52 62 54 84 55 49 56 32 57
REMARK SMILES IDX 33 58 42 59 34 60 35 61 41 62 43 63 36 64 37 65 38 66 39 67
REMARK SMILES IDX 40 68 66 69 67 70 76 71 68 72 69 73 75 74 77 75 70 76 71 77
REMARK SMILES IDX 72 78 73 79 74 80 50 81 51 82 60 83 52 84 53 85 59 86 61 87
REMARK SMILES IDX 54 88 55 89 56 90 57 91 58 92
REMARK H PARENT 16 6 20 23 82 42 48 53
REMARK Flexibility Score: inf
ROOT
ATOM      1  C   UNL A   1      38.583  21.677  25.532  1.00  0.00     0.042 C 
ENDROOT
BRANCH   1   2
ATOM      2  C   UNL A   1      37.833  23.010  25.555  1.00  0.00     0.117 C 
BRANCH   2   3
ATOM      3  N   UNL A   1      36.821  23.097  24.513  1.00  0.00    -0.354 N 
ATOM      4  C   UNL A   1      35.555  22.605  24.467  1.00  0.00     0.240 C 
ATOM      5  O   UNL A   1      34.898  22.810  23.441  1.00  0.00    -0.273 OA
ATOM      6  H   UNL A   1      37.099  23.593  23.710  1.00  0.00     0.163 HD
BRANCH   4   7
ATOM      7  C   UNL A   1      34.938  21.877  25.640  1.00  0.00     0.223 C 
BRANCH   7   8
ATOM      8  N   UNL A   1      33.868  20.958  25.289  1.00  0.00    -0.316 N 
ATOM      9  C   UNL A   1      32.508  21.211  25.318  1.00  0.00     0.136 A 
ATOM     10  N   UNL A   1      31.841  20.137  24.936  1.00  0.00    -0.231 NA
ATOM     11  C   UNL A   1      32.774  19.178  24.646  1.00  0.00     0.089 A 
ATOM     12  C   UNL A   1      34.058  19.650  24.893  1.00  0.00     0.069 A 
ATOM     13  C   UNL A   1      32.593  17.878  24.153  1.00  0.00     0.030 A 
ATOM     14  C   UNL A   1      35.197  18.853  24.698  1.00  0.00     0.028 A 
ATOM     15  C   UNL A   1      33.720  17.083  23.915  1.00  0.00     0.002 A 
ATOM     16  C   UNL A   1      34.999  17.565  24.188  1.00  0.00     0.002 A 
BRANCH   9  17
ATOM     17  C   UNL A   1      31.900  22.527  25.711  1.00  0.00     0.235 C 
BRANCH  17  18
ATOM     18  O   UNL A   1      30.487  22.400  25.908  1.00  0.00    -0.377 OA
ATOM     19  C   UNL A   1      30.002  23.177  26.997  1.00  0.00     0.195 C 
ENDBRANCH  17  18
ENDBRANCH   9  17
ENDBRANCH   7   8
ENDBRANCH   4   7
ENDBRANCH   2   3
ENDBRANCH   1   2
BRANCH   1  20
ATOM     20  C   UNL A   1      39.830  21.665  26.420  1.00  0.00     0.118 C 
BRANCH  20  21
ATOM     21  N   UNL A   1      41.080  21.643  25.685  1.00  0.00    -0.352 N 
ATOM     22  C   UNL A   1      42.186  22.443  25.629  1.00  0.00     0.251 C 
ATOM     23  H   UNL A   1      41.147  20.867  25.084  1.00  0.00     0.163 HD
ATOM     24  O   UNL A   1      43.094  22.045  24.893  1.00  0.00    -0.269 OA
BRANCH  22  25
ATOM     25  C   UNL A   1      42.338  23.750  26.322  1.00  0.00     0.039 A 
ATOM     26  C   UNL A   1      43.022  23.962  27.520  1.00  0.00     0.014 A 
ATOM     27  C   UNL A   1      41.683  24.840  25.719  1.00  0.00     0.014 A 
ATOM     28  C   UNL A   1      42.949  25.191  28.167  1.00  0.00     0.010 A 
ATOM     29  C   UNL A   1      41.630  26.077  26.346  1.00  0.00     0.010 A 
ATOM     30  C   UNL A   1      42.206  26.227  27.604  1.00  0.00    -0.014 A 
BRANCH  30  31
ATOM     31  C   UNL A   1      42.053  27.459  28.372  1.00  0.00     0.031 A 
ATOM     32  C   UNL A   1      43.159  28.459  28.255  1.00  0.00     0.074 A 
ATOM     33  C   UNL A   1      40.911  27.727  29.037  1.00  0.00     0.049 A 
ATOM     34  N   UNL A   1      43.869  29.008  29.190  1.00  0.00    -0.248 NA
ATOM     35  C   UNL A   1      43.574  28.838  26.894  1.00  0.00     0.031 C 
ATOM     36  C   UNL A   1      39.649  26.977  29.001  1.00  0.00     0.029 A 
ATOM     37  N   UNL A   1      40.597  28.809  29.798  1.00  0.00    -0.354 N 
ATOM     38  C   UNL A   1      44.698  29.935  28.553  1.00  0.00     0.074 A 
ATOM     39  C   UNL A   1      44.560  29.701  27.138  1.00  0.00     0.031 C 
ATOM     40  C   UNL A   1      38.658  27.753  29.491  1.00  0.00     0.029 A 
ATOM     41  C   UNL A   1      39.234  28.987  29.994  1.00  0.00     0.049 A 
ATOM     42  H   UNL A   1      41.275  29.415  30.175  1.00  0.00     0.167 HD
ATOM     43  C   UNL A   1      45.318  30.957  29.206  1.00  0.00     0.037 A 
ATOM     44  C   UNL A   1      38.625  30.113  30.443  1.00  0.00     0.037 A 
ATOM     45  C   UNL A   1      45.375  30.747  30.625  1.00  0.00     0.049 A 
ATOM     46  C   UNL A   1      39.660  30.930  31.128  1.00  0.00     0.074 A 
ATOM     47  C   UNL A   1      45.976  29.811  31.443  1.00  0.00     0.029 A 
ATOM     48  N   UNL A   1      44.466  31.399  31.419  1.00  0.00    -0.354 N 
ATOM     49  N   UNL A   1      40.258  30.581  32.235  1.00  0.00    -0.248 NA
ATOM     50  C   UNL A   1      40.347  31.947  30.345  1.00  0.00     0.031 C 
ATOM     51  C   UNL A   1      45.060  29.615  32.517  1.00  0.00     0.029 A 
ATOM     52  C   UNL A   1      43.978  30.470  32.305  1.00  0.00     0.049 A 
ATOM     53  H   UNL A   1      44.212  32.349  31.365  1.00  0.00     0.167 HD
ATOM     54  C   UNL A   1      41.566  31.024  32.094  1.00  0.00     0.074 A 
ATOM     55  C   UNL A   1      41.536  31.932  30.950  1.00  0.00     0.031 C 
ATOM     56  C   UNL A   1      42.601  30.411  32.741  1.00  0.00     0.037 A 
BRANCH  43  57
ATOM     57  C   UNL A   1      45.621  32.289  28.571  1.00  0.00     0.058 A 
ATOM     58  C   UNL A   1      46.944  32.765  28.490  1.00  0.00     0.135 A 
ATOM     59  C   UNL A   1      44.611  33.230  28.270  1.00  0.00     0.135 A 
ATOM     60  F   UNL A   1      47.978  31.960  28.783  1.00  0.00    -0.206 F 
ATOM     61  C   UNL A   1      47.240  34.092  28.168  1.00  0.00     0.059 A 
ATOM     62  C   UNL A   1      44.884  34.541  27.897  1.00  0.00     0.059 A 
ATOM     63  F   UNL A   1      43.312  32.938  28.418  1.00  0.00    -0.206 F 
ATOM     64  C   UNL A   1      46.200  34.975  27.885  1.00  0.00     0.060 A 
BRANCH  64  65
ATOM     65  S   UNL A   1      46.569  36.713  27.577  1.00  0.00     0.124 S 
ATOM     66  O   UNL A   1      45.268  37.332  27.801  1.00  0.00    -0.237 OA
ATOM     67  O   UNL A   1      47.590  36.989  28.583  1.00  0.00    -0.237 OA
ATOM     68  O   UNL A   1      47.042  36.717  26.196  1.00  0.00    -0.744 OA
ENDBRANCH  64  65
ENDBRANCH  43  57
BRANCH  44  69
ATOM     69  C   UNL A   1      37.340  30.685  29.961  1.00  0.00     0.058 A 
ATOM     70  C   UNL A   1      36.458  31.331  30.844  1.00  0.00     0.135 A 
ATOM     71  C   UNL A   1      37.080  30.860  28.586  1.00  0.00     0.135 A 
ATOM     72  F   UNL A   1      36.645  31.239  32.170  1.00  0.00    -0.206 F 
ATOM     73  C   UNL A   1      35.411  32.141  30.391  1.00  0.00     0.059 A 
ATOM     74  C   UNL A   1      36.035  31.649  28.110  1.00  0.00     0.059 A 
ATOM     75  F   UNL A   1      37.894  30.344  27.653  1.00  0.00    -0.206 F 
ATOM     76  C   UNL A   1      35.221  32.311  29.020  1.00  0.00     0.060 A 
BRANCH  76  77
ATOM     77  S   UNL A   1      33.989  33.496  28.431  1.00  0.00     0.124 S 
ATOM     78  O   UNL A   1      33.575  34.142  29.672  1.00  0.00    -0.237 OA
ATOM     79  O   UNL A   1      34.770  34.318  27.513  1.00  0.00    -0.237 OA
ATOM     80  O   UNL A   1      32.978  32.651  27.801  1.00  0.00    -0.744 OA
ENDBRANCH  76  77
ENDBRANCH  44  69
BRANCH  56  81
ATOM     81  C   UNL A   1      42.270  29.394  33.804  1.00  0.00     0.058 A 
ATOM     82  C   UNL A   1      41.981  28.044  33.527  1.00  0.00     0.135 A 
ATOM     83  C   UNL A   1      42.414  29.750  35.152  1.00  0.00     0.135 A 
ATOM     84  F   UNL A   1      41.936  27.595  32.267  1.00  0.00    -0.206 F 
ATOM     85  C   UNL A   1      41.804  27.104  34.542  1.00  0.00     0.059 A 
ATOM     86  C   UNL A   1      42.273  28.821  36.182  1.00  0.00     0.059 A 
ATOM     87  F   UNL A   1      42.755  31.008  35.482  1.00  0.00    -0.206 F 
ATOM     88  C   UNL A   1      41.958  27.499  35.869  1.00  0.00     0.060 A 
BRANCH  88  89
ATOM     89  S   UNL A   1      41.827  26.257  37.173  1.00  0.00     0.124 S 
ATOM     90  O   UNL A   1      40.493  26.519  37.713  1.00  0.00    -0.237 OA
ATOM     91  O   UNL A   1      41.967  25.003  36.429  1.00  0.00    -0.237 OA
ATOM     92  O   UNL A   1      42.934  26.572  38.062  1.00  0.00    -0.744 OA
ENDBRANCH  88  89
ENDBRANCH  56  81
ENDBRANCH  30  31
ENDBRANCH  22  25
ENDBRANCH  20  21
ENDBRANCH   1  20
TORSDOF 16
ENDMDL
