MODEL 1
REMARK VINA RESULT:     -12.0      0.000      0.000
REMARK SMILES CC1(C)CSC[C@H](N(CCC(=O)NCCCNC(=O)c2ccc(-c3c4nc(c(-c5c(F)cc(S(=O)(=O)[O-])cc5F)c5ccc([nH]5)c(-c5c(F)cc(S(=O)(=O)[O-])cc5F)c5nc(c(-c6c(F)cc(S(=O)(=O)[O-])cc6F)c6ccc3[nH]6)C=C5)C=C4)cc2)c2ccccc2)C1
REMARK SMILES IDX 15 1 14 2 13 3 11 4 12 5 10 7 9 8 8 9 7 10 1 11 2 12 3 13
REMARK SMILES IDX 4 14 92 15 5 16 6 17 86 18 87 19 91 20 88 21 90 22 89 23
REMARK SMILES IDX 16 24 17 25 18 26 19 28 20 29 21 30 85 31 22 32 84 33 23 34
REMARK SMILES IDX 24 35 25 36 78 37 26 38 83 39 77 40 79 41 27 42 82 43 76 44
REMARK SMILES IDX 75 45 28 47 62 48 41 49 61 50 42 51 45 52 60 53 80 54 43 55
REMARK SMILES IDX 44 56 59 58 81 59 46 60 29 61 30 62 39 63 31 64 32 65 38 66
REMARK SMILES IDX 40 67 33 68 34 69 35 70 36 71 37 72 63 73 64 74 73 75 65 76
REMARK SMILES IDX 66 77 72 78 74 79 67 80 68 81 69 82 70 83 71 84 47 85 48 86
REMARK SMILES IDX 57 87 49 88 50 89 56 90 58 91 51 92 52 93 53 94 54 95 55 96
REMARK H PARENT 13 6 17 27 79 46 45 57
REMARK Flexibility Score: inf
ROOT
ATOM      1  C   UNL A   1      40.139  22.625  27.430  1.00  0.00     0.042 C 
ENDROOT
BRANCH   1   2
ATOM      2  C   UNL A   1      39.210  22.577  26.220  1.00  0.00     0.117 C 
BRANCH   2   3
ATOM      3  N   UNL A   1      38.863  21.248  25.739  1.00  0.00    -0.356 N 
ATOM      4  C   UNL A   1      37.789  20.804  25.024  1.00  0.00     0.221 C 
ATOM      5  O   UNL A   1      37.829  19.654  24.575  1.00  0.00    -0.275 OA
ATOM      6  H   UNL A   1      39.516  20.548  25.969  1.00  0.00     0.163 HD
BRANCH   4   7
ATOM      7  C   UNL A   1      36.565  21.662  24.807  1.00  0.00     0.121 C 
BRANCH   7   8
ATOM      8  C   UNL A   1      35.360  21.203  25.639  1.00  0.00     0.127 C 
BRANCH   8   9
ATOM      9  N   UNL A   1      34.090  21.059  24.865  1.00  0.00    -0.367 N 
BRANCH   9  10
ATOM     10  C   UNL A   1      33.216  22.309  24.818  1.00  0.00     0.092 C 
ATOM     11  C   UNL A   1      30.754  23.768  23.409  1.00  0.00     0.012 C 
ATOM     12  C   UNL A   1      32.198  24.309  23.443  1.00  0.00    -0.024 C 
ATOM     13  C   UNL A   1      32.424  25.066  22.112  1.00  0.00     0.012 C 
ATOM     14  C   UNL A   1      32.401  25.306  24.601  1.00  0.00     0.076 C 
ATOM     15  C   UNL A   1      33.269  23.183  23.542  1.00  0.00     0.033 C 
ATOM     16  S   UNL A   1      32.202  24.547  26.242  1.00  0.00    -0.159 SA
ATOM     17  C   UNL A   1      33.403  23.179  26.080  1.00  0.00     0.094 C 
ENDBRANCH   9  10
BRANCH   9  18
ATOM     18  C   UNL A   1      33.787  19.782  24.386  1.00  0.00     0.037 A 
ATOM     19  C   UNL A   1      32.631  19.521  23.614  1.00  0.00     0.026 A 
ATOM     20  C   UNL A   1      34.575  18.651  24.616  1.00  0.00     0.026 A 
ATOM     21  C   UNL A   1      32.347  18.286  23.014  1.00  0.00     0.002 A 
ATOM     22  C   UNL A   1      34.311  17.400  24.022  1.00  0.00     0.002 A 
ATOM     23  C   UNL A   1      33.206  17.223  23.202  1.00  0.00     0.000 A 
ENDBRANCH   9  18
ENDBRANCH   8   9
ENDBRANCH   7   8
ENDBRANCH   4   7
ENDBRANCH   2   3
ENDBRANCH   1   2
BRANCH   1  24
ATOM     24  C   UNL A   1      41.617  22.978  27.221  1.00  0.00     0.118 C 
BRANCH  24  25
ATOM     25  N   UNL A   1      41.830  23.910  26.126  1.00  0.00    -0.352 N 
ATOM     26  C   UNL A   1      41.663  25.273  26.036  1.00  0.00     0.251 C 
ATOM     27  H   UNL A   1      42.153  23.489  25.297  1.00  0.00     0.163 HD
ATOM     28  O   UNL A   1      41.817  25.787  24.927  1.00  0.00    -0.269 OA
BRANCH  26  29
ATOM     29  C   UNL A   1      41.290  26.157  27.180  1.00  0.00     0.039 A 
ATOM     30  C   UNL A   1      42.181  27.184  27.519  1.00  0.00     0.014 A 
ATOM     31  C   UNL A   1      40.197  25.928  28.021  1.00  0.00     0.014 A 
ATOM     32  C   UNL A   1      41.975  27.981  28.656  1.00  0.00     0.010 A 
ATOM     33  C   UNL A   1      39.971  26.752  29.148  1.00  0.00     0.010 A 
ATOM     34  C   UNL A   1      40.859  27.789  29.487  1.00  0.00    -0.014 A 
BRANCH  34  35
ATOM     35  C   UNL A   1      40.643  28.684  30.673  1.00  0.00     0.031 A 
ATOM     36  C   UNL A   1      41.488  28.573  31.922  1.00  0.00     0.074 A 
ATOM     37  C   UNL A   1      39.693  29.644  30.627  1.00  0.00     0.049 A 
ATOM     38  N   UNL A   1      41.464  29.311  33.008  1.00  0.00    -0.248 NA
ATOM     39  C   UNL A   1      42.482  27.492  31.963  1.00  0.00     0.031 C 
ATOM     40  C   UNL A   1      38.787  29.877  29.502  1.00  0.00     0.029 A 
ATOM     41  N   UNL A   1      39.338  30.611  31.542  1.00  0.00    -0.354 N 
ATOM     42  C   UNL A   1      42.438  28.792  33.856  1.00  0.00     0.074 A 
ATOM     43  C   UNL A   1      43.003  27.644  33.175  1.00  0.00     0.031 C 
ATOM     44  C   UNL A   1      38.002  30.930  29.779  1.00  0.00     0.029 A 
ATOM     45  C   UNL A   1      38.319  31.433  31.115  1.00  0.00     0.049 A 
ATOM     46  H   UNL A   1      39.771  30.705  32.421  1.00  0.00     0.167 HD
ATOM     47  C   UNL A   1      42.843  29.234  35.075  1.00  0.00     0.037 A 
ATOM     48  C   UNL A   1      37.702  32.471  31.717  1.00  0.00     0.037 A 
ATOM     49  C   UNL A   1      42.292  30.377  35.765  1.00  0.00     0.049 A 
ATOM     50  C   UNL A   1      38.139  32.919  33.088  1.00  0.00     0.074 A 
ATOM     51  C   UNL A   1      42.674  30.910  36.987  1.00  0.00     0.029 A 
ATOM     52  N   UNL A   1      41.243  31.161  35.308  1.00  0.00    -0.354 N 
ATOM     53  N   UNL A   1      39.100  32.445  33.843  1.00  0.00    -0.248 NA
ATOM     54  C   UNL A   1      37.411  34.049  33.685  1.00  0.00     0.031 C 
ATOM     55  C   UNL A   1      41.824  31.979  37.292  1.00  0.00     0.029 A 
ATOM     56  C   UNL A   1      40.948  32.152  36.234  1.00  0.00     0.049 A 
ATOM     57  H   UNL A   1      40.775  31.031  34.451  1.00  0.00     0.167 HD
ATOM     58  C   UNL A   1      39.110  33.236  34.989  1.00  0.00     0.074 A 
ATOM     59  C   UNL A   1      38.069  34.227  34.823  1.00  0.00     0.031 C 
ATOM     60  C   UNL A   1      39.915  33.147  36.076  1.00  0.00     0.037 A 
BRANCH  47  61
ATOM     61  C   UNL A   1      43.949  28.475  35.767  1.00  0.00     0.058 A 
ATOM     62  C   UNL A   1      45.300  28.813  35.584  1.00  0.00     0.135 A 
ATOM     63  C   UNL A   1      43.654  27.444  36.675  1.00  0.00     0.135 A 
ATOM     64  F   UNL A   1      45.642  29.788  34.728  1.00  0.00    -0.206 F 
ATOM     65  C   UNL A   1      46.317  28.135  36.249  1.00  0.00     0.059 A 
ATOM     66  C   UNL A   1      44.654  26.772  37.374  1.00  0.00     0.059 A 
ATOM     67  F   UNL A   1      42.379  27.085  36.901  1.00  0.00    -0.206 F 
ATOM     68  C   UNL A   1      45.985  27.116  37.142  1.00  0.00     0.060 A 
BRANCH  68  69
ATOM     69  S   UNL A   1      47.317  26.243  37.995  1.00  0.00     0.124 S 
ATOM     70  O   UNL A   1      47.079  26.639  39.382  1.00  0.00    -0.237 OA
ATOM     71  O   UNL A   1      47.024  24.844  37.680  1.00  0.00    -0.237 OA
ATOM     72  O   UNL A   1      48.525  26.779  37.388  1.00  0.00    -0.744 OA
ENDBRANCH  68  69
ENDBRANCH  47  61
BRANCH  48  73
ATOM     73  C   UNL A   1      36.595  33.183  31.017  1.00  0.00     0.058 A 
ATOM     74  C   UNL A   1      35.259  33.013  31.410  1.00  0.00     0.135 A 
ATOM     75  C   UNL A   1      36.854  34.043  29.939  1.00  0.00     0.135 A 
ATOM     76  F   UNL A   1      34.958  32.189  32.426  1.00  0.00    -0.206 F 
ATOM     77  C   UNL A   1      34.218  33.662  30.754  1.00  0.00     0.059 A 
ATOM     78  C   UNL A   1      35.833  34.725  29.285  1.00  0.00     0.059 A 
ATOM     79  F   UNL A   1      38.116  34.247  29.528  1.00  0.00    -0.206 F 
ATOM     80  C   UNL A   1      34.516  34.520  29.695  1.00  0.00     0.060 A 
BRANCH  80  81
ATOM     81  S   UNL A   1      33.163  35.404  28.887  1.00  0.00     0.124 S 
ATOM     82  O   UNL A   1      32.438  35.941  30.032  1.00  0.00    -0.237 OA
ATOM     83  O   UNL A   1      33.881  36.378  28.070  1.00  0.00    -0.237 OA
ATOM     84  O   UNL A   1      32.478  34.356  28.138  1.00  0.00    -0.744 OA
ENDBRANCH  80  81
ENDBRANCH  48  73
BRANCH  60  85
ATOM     85  C   UNL A   1      39.736  34.168  37.171  1.00  0.00     0.058 A 
ATOM     86  C   UNL A   1      38.962  33.906  38.312  1.00  0.00     0.135 A 
ATOM     87  C   UNL A   1      40.383  35.414  37.097  1.00  0.00     0.135 A 
ATOM     88  F   UNL A   1      38.314  32.737  38.436  1.00  0.00    -0.206 F 
ATOM     89  C   UNL A   1      38.813  34.849  39.327  1.00  0.00     0.059 A 
ATOM     90  C   UNL A   1      40.273  36.361  38.113  1.00  0.00     0.059 A 
ATOM     91  F   UNL A   1      41.144  35.718  36.033  1.00  0.00    -0.206 F 
ATOM     92  C   UNL A   1      39.475  36.075  39.218  1.00  0.00     0.060 A 
BRANCH  92  93
ATOM     93  S   UNL A   1      39.298  37.277  40.555  1.00  0.00     0.124 S 
ATOM     94  O   UNL A   1      40.664  37.773  40.689  1.00  0.00    -0.237 OA
ATOM     95  O   UNL A   1      38.332  38.222  40.001  1.00  0.00    -0.237 OA
ATOM     96  O   UNL A   1      38.810  36.475  41.673  1.00  0.00    -0.744 OA
ENDBRANCH  92  93
ENDBRANCH  60  85
ENDBRANCH  34  35
ENDBRANCH  26  29
ENDBRANCH  24  25
ENDBRANCH   1  24
TORSDOF 17
ENDMDL
MODEL 2
REMARK VINA RESULT:     -11.7      1.364      2.361
REMARK SMILES CC1(C)CSC[C@H](N(CCC(=O)NCCCNC(=O)c2ccc(-c3c4nc(c(-c5c(F)cc(S(=O)(=O)[O-])cc5F)c5ccc([nH]5)c(-c5c(F)cc(S(=O)(=O)[O-])cc5F)c5nc(c(-c6c(F)cc(S(=O)(=O)[O-])cc6F)c6ccc3[nH]6)C=C5)C=C4)cc2)c2ccccc2)C1
REMARK SMILES IDX 15 1 14 2 13 3 11 4 12 5 10 7 9 8 8 9 7 10 1 11 2 12 3 13
REMARK SMILES IDX 4 14 92 15 5 16 6 17 86 18 87 19 91 20 88 21 90 22 89 23
REMARK SMILES IDX 16 24 17 25 18 26 19 28 20 29 21 30 85 31 22 32 84 33 23 34
REMARK SMILES IDX 24 35 25 36 78 37 26 38 83 39 77 40 79 41 27 42 82 43 76 44
REMARK SMILES IDX 75 45 28 47 62 48 41 49 61 50 42 51 45 52 60 53 80 54 43 55
REMARK SMILES IDX 44 56 59 58 81 59 46 60 29 61 30 62 39 63 31 64 32 65 38 66
REMARK SMILES IDX 40 67 33 68 34 69 35 70 36 71 37 72 63 73 64 74 73 75 65 76
REMARK SMILES IDX 66 77 72 78 74 79 67 80 68 81 69 82 70 83 71 84 47 85 48 86
REMARK SMILES IDX 57 87 49 88 50 89 56 90 58 91 51 92 52 93 53 94 54 95 55 96
REMARK H PARENT 13 6 17 27 79 46 45 57
REMARK Flexibility Score: inf
ROOT
ATOM      1  C   UNL A   1      40.093  21.620  26.489  1.00  0.00     0.042 C 
ENDROOT
BRANCH   1   2
ATOM      2  C   UNL A   1      38.909  21.883  25.562  1.00  0.00     0.117 C 
BRANCH   2   3
ATOM      3  N   UNL A   1      37.593  21.619  26.123  1.00  0.00    -0.356 N 
ATOM      4  C   UNL A   1      36.353  22.042  25.741  1.00  0.00     0.221 C 
ATOM      5  O   UNL A   1      35.373  21.514  26.276  1.00  0.00    -0.275 OA
ATOM      6  H   UNL A   1      37.597  21.034  26.914  1.00  0.00     0.163 HD
BRANCH   4   7
ATOM      7  C   UNL A   1      36.163  23.144  24.726  1.00  0.00     0.121 C 
BRANCH   7   8
ATOM      8  C   UNL A   1      35.604  24.433  25.342  1.00  0.00     0.127 C 
BRANCH   8   9
ATOM      9  N   UNL A   1      34.284  24.863  24.790  1.00  0.00    -0.367 N 
BRANCH   9  10
ATOM     10  C   UNL A   1      33.905  26.314  25.074  1.00  0.00     0.092 C 
ATOM     11  C   UNL A   1      33.901  28.680  27.212  1.00  0.00     0.012 C 
ATOM     12  C   UNL A   1      32.639  28.072  26.567  1.00  0.00    -0.024 C 
ATOM     13  C   UNL A   1      31.519  28.131  27.633  1.00  0.00     0.012 C 
ATOM     14  C   UNL A   1      32.180  28.891  25.344  1.00  0.00     0.076 C 
ATOM     15  C   UNL A   1      32.825  26.585  26.148  1.00  0.00     0.033 C 
ATOM     16  S   UNL A   1      33.387  28.884  23.984  1.00  0.00    -0.159 SA
ATOM     17  C   UNL A   1      33.581  27.079  23.772  1.00  0.00     0.094 C 
ENDBRANCH   9  10
BRANCH   9  18
ATOM     18  C   UNL A   1      33.498  23.872  24.195  1.00  0.00     0.037 A 
ATOM     19  C   UNL A   1      33.546  23.604  22.807  1.00  0.00     0.026 A 
ATOM     20  C   UNL A   1      32.600  23.060  24.892  1.00  0.00     0.026 A 
ATOM     21  C   UNL A   1      32.867  22.547  22.185  1.00  0.00     0.002 A 
ATOM     22  C   UNL A   1      31.909  21.989  24.290  1.00  0.00     0.002 A 
ATOM     23  C   UNL A   1      32.060  21.718  22.938  1.00  0.00     0.000 A 
ENDBRANCH   9  18
ENDBRANCH   8   9
ENDBRANCH   7   8
ENDBRANCH   4   7
ENDBRANCH   2   3
ENDBRANCH   1   2
BRANCH   1  24
ATOM     24  C   UNL A   1      40.829  22.811  27.115  1.00  0.00     0.118 C 
BRANCH  24  25
ATOM     25  N   UNL A   1      41.412  23.702  26.125  1.00  0.00    -0.352 N 
ATOM     26  C   UNL A   1      41.563  25.069  26.097  1.00  0.00     0.251 C 
ATOM     27  H   UNL A   1      41.764  23.242  25.329  1.00  0.00     0.163 HD
ATOM     28  O   UNL A   1      42.002  25.567  25.059  1.00  0.00    -0.269 OA
BRANCH  26  29
ATOM     29  C   UNL A   1      41.214  25.982  27.227  1.00  0.00     0.039 A 
ATOM     30  C   UNL A   1      42.112  27.018  27.520  1.00  0.00     0.014 A 
ATOM     31  C   UNL A   1      40.140  25.774  28.097  1.00  0.00     0.014 A 
ATOM     32  C   UNL A   1      41.929  27.843  28.641  1.00  0.00     0.010 A 
ATOM     33  C   UNL A   1      39.938  26.626  29.207  1.00  0.00     0.010 A 
ATOM     34  C   UNL A   1      40.832  27.671  29.500  1.00  0.00    -0.014 A 
BRANCH  34  35
ATOM     35  C   UNL A   1      40.641  28.596  30.668  1.00  0.00     0.031 A 
ATOM     36  C   UNL A   1      41.501  28.506  31.908  1.00  0.00     0.074 A 
ATOM     37  C   UNL A   1      39.699  29.564  30.612  1.00  0.00     0.049 A 
ATOM     38  N   UNL A   1      41.499  29.270  32.976  1.00  0.00    -0.248 NA
ATOM     39  C   UNL A   1      42.486  27.417  31.960  1.00  0.00     0.031 C 
ATOM     40  C   UNL A   1      38.779  29.779  29.494  1.00  0.00     0.029 A 
ATOM     41  N   UNL A   1      39.365  30.556  31.509  1.00  0.00    -0.354 N 
ATOM     42  C   UNL A   1      42.480  28.762  33.822  1.00  0.00     0.074 A 
ATOM     43  C   UNL A   1      43.025  27.593  33.161  1.00  0.00     0.031 C 
ATOM     44  C   UNL A   1      38.008  30.846  29.757  1.00  0.00     0.029 A 
ATOM     45  C   UNL A   1      38.348  31.377  31.076  1.00  0.00     0.049 A 
ATOM     46  H   UNL A   1      39.811  30.666  32.379  1.00  0.00     0.167 HD
ATOM     47  C   UNL A   1      42.905  29.228  35.026  1.00  0.00     0.037 A 
ATOM     48  C   UNL A   1      37.749  32.435  31.662  1.00  0.00     0.037 A 
ATOM     49  C   UNL A   1      42.375  30.392  35.696  1.00  0.00     0.049 A 
ATOM     50  C   UNL A   1      38.209  32.910  33.016  1.00  0.00     0.074 A 
ATOM     51  C   UNL A   1      42.779  30.950  36.899  1.00  0.00     0.029 A 
ATOM     52  N   UNL A   1      41.327  31.175  35.234  1.00  0.00    -0.354 N 
ATOM     53  N   UNL A   1      39.176  32.445  33.769  1.00  0.00    -0.248 NA
ATOM     54  C   UNL A   1      37.499  34.061  33.596  1.00  0.00     0.031 C 
ATOM     55  C   UNL A   1      41.943  32.033  37.190  1.00  0.00     0.029 A 
ATOM     56  C   UNL A   1      41.054  32.190  36.141  1.00  0.00     0.049 A 
ATOM     57  H   UNL A   1      40.846  31.030  34.388  1.00  0.00     0.167 HD
ATOM     58  C   UNL A   1      39.209  33.263  34.895  1.00  0.00     0.074 A 
ATOM     59  C   UNL A   1      38.175  34.259  34.721  1.00  0.00     0.031 C 
ATOM     60  C   UNL A   1      40.029  33.191  35.973  1.00  0.00     0.037 A 
BRANCH  47  61
ATOM     61  C   UNL A   1      44.014  28.475  35.720  1.00  0.00     0.058 A 
ATOM     62  C   UNL A   1      45.366  28.771  35.483  1.00  0.00     0.135 A 
ATOM     63  C   UNL A   1      43.722  27.494  36.684  1.00  0.00     0.135 A 
ATOM     64  F   UNL A   1      45.705  29.696  34.572  1.00  0.00    -0.206 F 
ATOM     65  C   UNL A   1      46.387  28.100  36.149  1.00  0.00     0.059 A 
ATOM     66  C   UNL A   1      44.727  26.831  37.385  1.00  0.00     0.059 A 
ATOM     67  F   UNL A   1      42.447  27.178  36.962  1.00  0.00    -0.206 F 
ATOM     68  C   UNL A   1      46.058  27.131  37.098  1.00  0.00     0.060 A 
BRANCH  68  69
ATOM     69  S   UNL A   1      47.394  26.266  37.952  1.00  0.00     0.124 S 
ATOM     70  O   UNL A   1      48.518  26.504  37.048  1.00  0.00    -0.237 OA
ATOM     71  O   UNL A   1      47.455  26.974  39.231  1.00  0.00    -0.237 OA
ATOM     72  O   UNL A   1      46.926  24.891  38.022  1.00  0.00    -0.744 OA
ENDBRANCH  68  69
ENDBRANCH  47  61
BRANCH  48  73
ATOM     73  C   UNL A   1      36.640  33.140  30.960  1.00  0.00     0.058 A 
ATOM     74  C   UNL A   1      35.303  32.961  31.349  1.00  0.00     0.135 A 
ATOM     75  C   UNL A   1      36.895  34.005  29.885  1.00  0.00     0.135 A 
ATOM     76  F   UNL A   1      35.005  32.132  32.362  1.00  0.00    -0.206 F 
ATOM     77  C   UNL A   1      34.259  33.604  30.692  1.00  0.00     0.059 A 
ATOM     78  C   UNL A   1      35.871  34.681  29.229  1.00  0.00     0.059 A 
ATOM     79  F   UNL A   1      38.157  34.218  29.478  1.00  0.00    -0.206 F 
ATOM     80  C   UNL A   1      34.555  34.466  29.636  1.00  0.00     0.060 A 
BRANCH  80  81
ATOM     81  S   UNL A   1      33.198  35.343  28.826  1.00  0.00     0.124 S 
ATOM     82  O   UNL A   1      32.550  34.266  28.088  1.00  0.00    -0.237 OA
ATOM     83  O   UNL A   1      32.457  35.876  29.965  1.00  0.00    -0.237 OA
ATOM     84  O   UNL A   1      33.884  36.343  28.014  1.00  0.00    -0.744 OA
ENDBRANCH  80  81
ENDBRANCH  48  73
BRANCH  60  85
ATOM     85  C   UNL A   1      39.874  34.240  37.046  1.00  0.00     0.058 A 
ATOM     86  C   UNL A   1      40.424  35.525  36.915  1.00  0.00     0.135 A 
ATOM     87  C   UNL A   1      39.126  33.969  38.205  1.00  0.00     0.135 A 
ATOM     88  F   UNL A   1      41.154  35.840  35.833  1.00  0.00    -0.206 F 
ATOM     89  C   UNL A   1      40.264  36.493  37.904  1.00  0.00     0.059 A 
ATOM     90  C   UNL A   1      38.928  34.930  39.194  1.00  0.00     0.059 A 
ATOM     91  F   UNL A   1      38.569  32.760  38.382  1.00  0.00    -0.206 F 
ATOM     92  C   UNL A   1      39.512  36.186  39.040  1.00  0.00     0.060 A 
BRANCH  92  93
ATOM     93  S   UNL A   1      39.287  37.460  40.300  1.00  0.00     0.124 S 
ATOM     94  O   UNL A   1      38.613  36.713  41.358  1.00  0.00    -0.237 OA
ATOM     95  O   UNL A   1      40.661  37.864  40.587  1.00  0.00    -0.237 OA
ATOM     96  O   UNL A   1      38.472  38.467  39.627  1.00  0.00    -0.744 OA
ENDBRANCH  92  93
ENDBRANCH  60  85
ENDBRANCH  34  35
ENDBRANCH  26  29
ENDBRANCH  24  25
ENDBRANCH   1  24
TORSDOF 17
ENDMDL
MODEL 3
REMARK VINA RESULT:     -11.7      6.712     12.463
REMARK SMILES CC1(C)CSC[C@H](N(CCC(=O)NCCCNC(=O)c2ccc(-c3c4nc(c(-c5c(F)cc(S(=O)(=O)[O-])cc5F)c5ccc([nH]5)c(-c5c(F)cc(S(=O)(=O)[O-])cc5F)c5nc(c(-c6c(F)cc(S(=O)(=O)[O-])cc6F)c6ccc3[nH]6)C=C5)C=C4)cc2)c2ccccc2)C1
REMARK SMILES IDX 15 1 14 2 13 3 11 4 12 5 10 7 9 8 8 9 7 10 1 11 2 12 3 13
REMARK SMILES IDX 4 14 92 15 5 16 6 17 86 18 87 19 91 20 88 21 90 22 89 23
REMARK SMILES IDX 16 24 17 25 18 26 19 28 20 29 21 30 85 31 22 32 84 33 23 34
REMARK SMILES IDX 24 35 25 36 78 37 26 38 83 39 77 40 79 41 27 42 82 43 76 44
REMARK SMILES IDX 75 45 28 47 62 48 41 49 61 50 42 51 45 52 60 53 80 54 43 55
REMARK SMILES IDX 44 56 59 58 81 59 46 60 29 61 30 62 39 63 31 64 32 65 38 66
REMARK SMILES IDX 40 67 33 68 34 69 35 70 36 71 37 72 63 73 64 74 73 75 65 76
REMARK SMILES IDX 66 77 72 78 74 79 67 80 68 81 69 82 70 83 71 84 47 85 48 86
REMARK SMILES IDX 57 87 49 88 50 89 56 90 58 91 51 92 52 93 53 94 54 95 55 96
REMARK H PARENT 13 6 17 27 79 46 45 57
REMARK Flexibility Score: inf
ROOT
ATOM      1  C   UNL A   1      33.928  31.704  28.018  1.00  0.00     0.042 C 
ENDROOT
BRANCH   1   2
ATOM      2  C   UNL A   1      33.335  30.824  26.920  1.00  0.00     0.117 C 
BRANCH   2   3
ATOM      3  N   UNL A   1      32.376  29.821  27.359  1.00  0.00    -0.356 N 
ATOM      4  C   UNL A   1      32.426  28.458  27.329  1.00  0.00     0.221 C 
ATOM      5  O   UNL A   1      31.555  27.835  27.945  1.00  0.00    -0.275 OA
ATOM      6  H   UNL A   1      31.549  30.190  27.745  1.00  0.00     0.163 HD
BRANCH   4   7
ATOM      7  C   UNL A   1      33.481  27.715  26.545  1.00  0.00     0.121 C 
BRANCH   7   8
ATOM      8  C   UNL A   1      33.130  27.574  25.058  1.00  0.00     0.127 C 
BRANCH   8   9
ATOM      9  N   UNL A   1      32.122  26.513  24.755  1.00  0.00    -0.367 N 
BRANCH   9  10
ATOM     10  C   UNL A   1      32.654  25.083  24.802  1.00  0.00     0.092 C 
ATOM     11  C   UNL A   1      31.987  22.029  25.433  1.00  0.00     0.012 C 
ATOM     12  C   UNL A   1      33.064  22.864  26.155  1.00  0.00    -0.024 C 
ATOM     13  C   UNL A   1      33.113  22.363  27.618  1.00  0.00     0.012 C 
ATOM     14  C   UNL A   1      34.457  22.652  25.529  1.00  0.00     0.076 C 
ATOM     15  C   UNL A   1      32.740  24.387  26.181  1.00  0.00     0.033 C 
ATOM     16  S   UNL A   1      34.563  23.232  23.809  1.00  0.00    -0.159 SA
ATOM     17  C   UNL A   1      33.991  24.952  24.042  1.00  0.00     0.094 C 
ENDBRANCH   9  10
BRANCH   9  18
ATOM     18  C   UNL A   1      30.858  26.946  24.345  1.00  0.00     0.037 A 
ATOM     19  C   UNL A   1      30.654  28.204  23.731  1.00  0.00     0.026 A 
ATOM     20  C   UNL A   1      29.687  26.200  24.498  1.00  0.00     0.026 A 
ATOM     21  C   UNL A   1      29.430  28.631  23.199  1.00  0.00     0.002 A 
ATOM     22  C   UNL A   1      28.445  26.607  23.968  1.00  0.00     0.002 A 
ATOM     23  C   UNL A   1      28.321  27.816  23.299  1.00  0.00     0.000 A 
ENDBRANCH   9  18
ENDBRANCH   8   9
ENDBRANCH   7   8
ENDBRANCH   4   7
ENDBRANCH   2   3
ENDBRANCH   1   2
BRANCH   1  24
ATOM     24  C   UNL A   1      35.378  31.470  28.458  1.00  0.00     0.118 C 
BRANCH  24  25
ATOM     25  N   UNL A   1      35.494  31.080  29.853  1.00  0.00    -0.352 N 
ATOM     26  C   UNL A   1      36.464  30.381  30.534  1.00  0.00     0.251 C 
ATOM     27  H   UNL A   1      34.739  31.370  30.415  1.00  0.00     0.163 HD
ATOM     28  O   UNL A   1      36.236  30.099  31.711  1.00  0.00    -0.269 OA
BRANCH  26  29
ATOM     29  C   UNL A   1      37.757  29.930  29.936  1.00  0.00     0.039 A 
ATOM     30  C   UNL A   1      38.807  29.635  30.818  1.00  0.00     0.014 A 
ATOM     31  C   UNL A   1      38.027  29.932  28.565  1.00  0.00     0.014 A 
ATOM     32  C   UNL A   1      40.091  29.327  30.342  1.00  0.00     0.010 A 
ATOM     33  C   UNL A   1      39.313  29.590  28.085  1.00  0.00     0.010 A 
ATOM     34  C   UNL A   1      40.366  29.286  28.966  1.00  0.00    -0.014 A 
BRANCH  34  35
ATOM     35  C   UNL A   1      41.740  28.913  28.486  1.00  0.00     0.031 A 
ATOM     36  C   UNL A   1      42.870  29.916  28.440  1.00  0.00     0.074 A 
ATOM     37  C   UNL A   1      41.999  27.640  28.113  1.00  0.00     0.049 A 
ATOM     38  N   UNL A   1      44.128  29.733  28.106  1.00  0.00    -0.248 NA
ATOM     39  C   UNL A   1      42.550  31.301  28.808  1.00  0.00     0.031 C 
ATOM     40  C   UNL A   1      41.017  26.555  28.088  1.00  0.00     0.029 A 
ATOM     41  N   UNL A   1      43.165  27.038  27.693  1.00  0.00    -0.354 N 
ATOM     42  C   UNL A   1      44.748  30.973  28.230  1.00  0.00     0.074 A 
ATOM     43  C   UNL A   1      43.716  31.910  28.624  1.00  0.00     0.031 C 
ATOM     44  C   UNL A   1      41.624  25.420  27.704  1.00  0.00     0.029 A 
ATOM     45  C   UNL A   1      43.032  25.696  27.420  1.00  0.00     0.049 A 
ATOM     46  H   UNL A   1      44.016  27.524  27.597  1.00  0.00     0.167 HD
ATOM     47  C   UNL A   1      46.055  31.303  28.053  1.00  0.00     0.037 A 
ATOM     48  C   UNL A   1      43.926  24.782  26.989  1.00  0.00     0.037 A 
ATOM     49  C   UNL A   1      47.095  30.381  27.664  1.00  0.00     0.049 A 
ATOM     50  C   UNL A   1      45.362  25.180  26.759  1.00  0.00     0.074 A 
ATOM     51  C   UNL A   1      48.450  30.631  27.501  1.00  0.00     0.029 A 
ATOM     52  N   UNL A   1      46.908  29.038  27.370  1.00  0.00    -0.354 N 
ATOM     53  N   UNL A   1      45.933  26.346  26.936  1.00  0.00    -0.248 NA
ATOM     54  C   UNL A   1      46.276  24.132  26.277  1.00  0.00     0.031 C 
ATOM     55  C   UNL A   1      49.069  29.458  27.057  1.00  0.00     0.029 A 
ATOM     56  C   UNL A   1      48.114  28.458  27.000  1.00  0.00     0.049 A 
ATOM     57  H   UNL A   1      46.045  28.567  27.415  1.00  0.00     0.167 HD
ATOM     58  C   UNL A   1      47.277  26.164  26.617  1.00  0.00     0.074 A 
ATOM     59  C   UNL A   1      47.436  24.776  26.247  1.00  0.00     0.031 C 
ATOM     60  C   UNL A   1      48.284  27.072  26.634  1.00  0.00     0.037 A 
BRANCH  47  61
ATOM     61  C   UNL A   1      46.453  32.742  28.277  1.00  0.00     0.058 A 
ATOM     62  C   UNL A   1      46.383  33.694  27.247  1.00  0.00     0.135 A 
ATOM     63  C   UNL A   1      46.842  33.190  29.551  1.00  0.00     0.135 A 
ATOM     64  F   UNL A   1      46.020  33.324  26.009  1.00  0.00    -0.206 F 
ATOM     65  C   UNL A   1      46.717  35.027  27.463  1.00  0.00     0.059 A 
ATOM     66  C   UNL A   1      47.152  34.525  29.798  1.00  0.00     0.059 A 
ATOM     67  F   UNL A   1      46.914  32.327  30.578  1.00  0.00    -0.206 F 
ATOM     68  C   UNL A   1      47.101  35.434  28.741  1.00  0.00     0.060 A 
BRANCH  68  69
ATOM     69  S   UNL A   1      47.535  37.167  29.006  1.00  0.00     0.124 S 
ATOM     70  O   UNL A   1      48.903  37.205  28.492  1.00  0.00    -0.237 OA
ATOM     71  O   UNL A   1      46.537  37.865  28.193  1.00  0.00    -0.237 OA
ATOM     72  O   UNL A   1      47.400  37.341  30.444  1.00  0.00    -0.744 OA
ENDBRANCH  68  69
ENDBRANCH  47  61
BRANCH  48  73
ATOM     73  C   UNL A   1      43.494  23.375  26.752  1.00  0.00     0.058 A 
ATOM     74  C   UNL A   1      43.332  22.874  25.452  1.00  0.00     0.135 A 
ATOM     75  C   UNL A   1      43.233  22.508  27.824  1.00  0.00     0.135 A 
ATOM     76  F   UNL A   1      43.555  23.669  24.393  1.00  0.00    -0.206 F 
ATOM     77  C   UNL A   1      42.916  21.567  25.221  1.00  0.00     0.059 A 
ATOM     78  C   UNL A   1      42.842  21.188  27.619  1.00  0.00     0.059 A 
ATOM     79  F   UNL A   1      43.381  22.935  29.088  1.00  0.00    -0.206 F 
ATOM     80  C   UNL A   1      42.678  20.730  26.312  1.00  0.00     0.060 A 
BRANCH  80  81
ATOM     81  S   UNL A   1      42.195  19.017  26.003  1.00  0.00     0.124 S 
ATOM     82  O   UNL A   1      42.598  18.369  27.245  1.00  0.00    -0.237 OA
ATOM     83  O   UNL A   1      40.758  19.140  25.782  1.00  0.00    -0.237 OA
ATOM     84  O   UNL A   1      42.973  18.658  24.822  1.00  0.00    -0.744 OA
ENDBRANCH  80  81
ENDBRANCH  48  73
BRANCH  60  85
ATOM     85  C   UNL A   1      49.668  26.595  26.275  1.00  0.00     0.058 A 
ATOM     86  C   UNL A   1      50.198  26.753  24.984  1.00  0.00     0.135 A 
ATOM     87  C   UNL A   1      50.495  26.007  27.248  1.00  0.00     0.135 A 
ATOM     88  F   UNL A   1      49.454  27.301  24.011  1.00  0.00    -0.206 F 
ATOM     89  C   UNL A   1      51.484  26.323  24.664  1.00  0.00     0.059 A 
ATOM     90  C   UNL A   1      51.794  25.595  26.959  1.00  0.00     0.059 A 
ATOM     91  F   UNL A   1      50.045  25.837  28.502  1.00  0.00    -0.206 F 
ATOM     92  C   UNL A   1      52.275  25.746  25.660  1.00  0.00     0.060 A 
BRANCH  92  93
ATOM     93  S   UNL A   1      53.951  25.220  25.240  1.00  0.00     0.124 S 
ATOM     94  O   UNL A   1      53.757  23.797  24.978  1.00  0.00    -0.237 OA
ATOM     95  O   UNL A   1      54.255  26.043  24.072  1.00  0.00    -0.237 OA
ATOM     96  O   UNL A   1      54.720  25.537  26.439  1.00  0.00    -0.744 OA
ENDBRANCH  92  93
ENDBRANCH  60  85
ENDBRANCH  34  35
ENDBRANCH  26  29
ENDBRANCH  24  25
ENDBRANCH   1  24
TORSDOF 17
ENDMDL
