MODEL 1
REMARK VINA RESULT:     -10.9      0.000      0.000
REMARK SMILES O=C(NCCCNC(=O)[C@@H]1CCCN(c2ccc3cc(S(=O)(=O)N4CCCCC4)ccc3n2)C1)c1ccc(-c2c3nc(c(-c4c(F)cc(S(=O)(=O)[O-])cc4F)c4ccc([nH]4)c(-c4c(F)cc(S(=O)(=O)[O-])cc4F)c4nc(c(-c5c(F)cc(S(=O)(=O)[O-])cc5F)c5ccc2[nH]5)C=C4)C=C3)cc1
REMARK SMILES IDX 5 1 4 2 3 3 1 4 2 5 35 7 36 8 100 9 37 10 99 11 38 12 39 13
REMARK SMILES IDX 40 14 93 15 41 16 98 17 92 18 94 19 42 20 97 21 91 22 90 23
REMARK SMILES IDX 43 25 77 26 56 27 76 28 57 29 60 30 75 31 95 32 58 33 59 34
REMARK SMILES IDX 74 36 96 37 61 38 44 39 45 40 54 41 46 42 47 43 53 44 55 45
REMARK SMILES IDX 48 46 49 47 50 48 51 49 52 50 78 51 79 52 88 53 80 54 81 55
REMARK SMILES IDX 87 56 89 57 82 58 83 59 84 60 85 61 86 62 62 63 63 64 72 65
REMARK SMILES IDX 64 66 65 67 71 68 73 69 66 70 67 71 68 72 69 73 70 74 6 75
REMARK SMILES IDX 7 76 8 77 9 79 10 80 11 81 34 82 12 83 14 84 13 85 15 86
REMARK SMILES IDX 16 87 33 88 17 89 32 90 18 91 31 92 19 93 30 94 20 95 21 96
REMARK SMILES IDX 22 97 23 98 24 99 25 100 29 101 26 102 28 103 27 104
REMARK H PARENT 3 6 94 24 60 35 7 78
REMARK Flexibility Score: inf
ROOT
ATOM      1  C   UNL A   1      33.679  33.724  28.223  1.00  0.00     0.042 C 
ENDROOT
BRANCH   1   2
ATOM      2  C   UNL A   1      34.619  32.542  28.021  1.00  0.00     0.118 C 
BRANCH   2   3
ATOM      3  N   UNL A   1      33.908  31.274  27.916  1.00  0.00    -0.352 N 
ATOM      4  O   UNL A   1      33.669  29.058  27.596  1.00  0.00    -0.269 OA
ATOM      5  C   UNL A   1      34.408  29.995  27.883  1.00  0.00     0.251 C 
ATOM      6  H   UNL A   1      32.927  31.345  27.862  1.00  0.00     0.163 HD
BRANCH   5   7
ATOM      7  C   UNL A   1      35.838  29.763  28.171  1.00  0.00     0.039 A 
ATOM      8  C   UNL A   1      36.800  29.968  27.180  1.00  0.00     0.014 A 
ATOM      9  C   UNL A   1      36.222  29.335  29.444  1.00  0.00     0.014 A 
ATOM     10  C   UNL A   1      38.118  29.597  27.411  1.00  0.00     0.010 A 
ATOM     11  C   UNL A   1      37.567  29.062  29.706  1.00  0.00     0.010 A 
ATOM     12  C   UNL A   1      38.522  29.164  28.683  1.00  0.00    -0.014 A 
BRANCH  12  13
ATOM     13  C   UNL A   1      39.962  28.906  28.936  1.00  0.00     0.031 A 
ATOM     14  C   UNL A   1      40.851  29.959  29.539  1.00  0.00     0.074 A 
ATOM     15  C   UNL A   1      40.458  27.691  28.627  1.00  0.00     0.049 A 
ATOM     16  N   UNL A   1      42.127  29.892  29.821  1.00  0.00    -0.248 NA
ATOM     17  C   UNL A   1      40.235  31.255  29.860  1.00  0.00     0.031 C 
ATOM     18  C   UNL A   1      39.689  26.596  28.028  1.00  0.00     0.029 A 
ATOM     19  N   UNL A   1      41.714  27.164  28.782  1.00  0.00    -0.354 N 
ATOM     20  C   UNL A   1      42.473  31.135  30.339  1.00  0.00     0.074 A 
ATOM     21  C   UNL A   1      41.276  31.949  30.303  1.00  0.00     0.031 C 
ATOM     22  C   UNL A   1      40.476  25.520  27.905  1.00  0.00     0.029 A 
ATOM     23  C   UNL A   1      41.821  25.865  28.345  1.00  0.00     0.049 A 
ATOM     24  H   UNL A   1      42.466  27.667  29.170  1.00  0.00     0.167 HD
ATOM     25  C   UNL A   1      43.675  31.551  30.805  1.00  0.00     0.037 A 
ATOM     26  C   UNL A   1      42.889  25.048  28.277  1.00  0.00     0.037 A 
ATOM     27  C   UNL A   1      44.857  30.725  30.837  1.00  0.00     0.049 A 
ATOM     28  C   UNL A   1      44.217  25.550  28.763  1.00  0.00     0.074 A 
ATOM     29  C   UNL A   1      46.115  31.043  31.319  1.00  0.00     0.029 A 
ATOM     30  N   UNL A   1      44.933  29.423  30.360  1.00  0.00    -0.354 N 
ATOM     31  N   UNL A   1      44.516  26.717  29.284  1.00  0.00    -0.248 NA
ATOM     32  C   UNL A   1      45.354  24.629  28.654  1.00  0.00     0.031 C 
ATOM     33  C   UNL A   1      46.964  29.959  31.080  1.00  0.00     0.029 A 
ATOM     34  C   UNL A   1      46.222  28.936  30.511  1.00  0.00     0.049 A 
ATOM     35  H   UNL A   1      44.182  28.920  29.971  1.00  0.00     0.167 HD
ATOM     36  C   UNL A   1      45.870  26.660  29.588  1.00  0.00     0.074 A 
ATOM     37  C   UNL A   1      46.327  25.339  29.208  1.00  0.00     0.031 C 
ATOM     38  C   UNL A   1      46.663  27.615  30.133  1.00  0.00     0.037 A 
BRANCH  25  39
ATOM     39  C   UNL A   1      43.788  32.968  31.303  1.00  0.00     0.058 A 
ATOM     40  C   UNL A   1      43.985  34.049  30.430  1.00  0.00     0.135 A 
ATOM     41  C   UNL A   1      43.638  33.257  32.671  1.00  0.00     0.135 A 
ATOM     42  F   UNL A   1      44.148  33.836  29.114  1.00  0.00    -0.206 F 
ATOM     43  C   UNL A   1      44.049  35.360  30.894  1.00  0.00     0.059 A 
ATOM     44  C   UNL A   1      43.670  34.561  33.155  1.00  0.00     0.059 A 
ATOM     45  F   UNL A   1      43.447  32.263  33.554  1.00  0.00    -0.206 F 
ATOM     46  C   UNL A   1      43.889  35.606  32.259  1.00  0.00     0.060 A 
BRANCH  46  47
ATOM     47  S   UNL A   1      43.969  37.314  32.841  1.00  0.00     0.124 S 
ATOM     48  O   UNL A   1      45.295  37.353  33.448  1.00  0.00    -0.237 OA
ATOM     49  O   UNL A   1      43.817  38.071  31.603  1.00  0.00    -0.237 OA
ATOM     50  O   UNL A   1      42.850  37.410  33.774  1.00  0.00    -0.744 OA
ENDBRANCH  46  47
ENDBRANCH  25  39
BRANCH  26  51
ATOM     51  C   UNL A   1      42.738  23.681  27.713  1.00  0.00     0.058 A 
ATOM     52  C   UNL A   1      42.484  22.578  28.541  1.00  0.00     0.135 A 
ATOM     53  C   UNL A   1      42.825  23.454  26.330  1.00  0.00     0.135 A 
ATOM     54  F   UNL A   1      42.393  22.743  29.869  1.00  0.00    -0.206 F 
ATOM     55  C   UNL A   1      42.345  21.295  28.021  1.00  0.00     0.059 A 
ATOM     56  C   UNL A   1      42.655  22.186  25.783  1.00  0.00     0.059 A 
ATOM     57  F   UNL A   1      43.046  24.478  25.491  1.00  0.00    -0.206 F 
ATOM     58  C   UNL A   1      42.429  21.111  26.640  1.00  0.00     0.060 A 
BRANCH  58  59
ATOM     59  S   UNL A   1      42.211  19.447  25.975  1.00  0.00     0.124 S 
ATOM     60  O   UNL A   1      40.767  19.395  25.782  1.00  0.00    -0.237 OA
ATOM     61  O   UNL A   1      43.017  19.496  24.760  1.00  0.00    -0.237 OA
ATOM     62  O   UNL A   1      42.738  18.591  27.034  1.00  0.00    -0.744 OA
ENDBRANCH  58  59
ENDBRANCH  26  51
BRANCH  38  63
ATOM     63  C   UNL A   1      48.100  27.254  30.394  1.00  0.00     0.058 A 
ATOM     64  C   UNL A   1      49.122  27.567  29.484  1.00  0.00     0.135 A 
ATOM     65  C   UNL A   1      48.464  26.622  31.595  1.00  0.00     0.135 A 
ATOM     66  F   UNL A   1      48.828  28.161  28.316  1.00  0.00    -0.206 F 
ATOM     67  C   UNL A   1      50.449  27.245  29.743  1.00  0.00     0.059 A 
ATOM     68  C   UNL A   1      49.788  26.320  31.890  1.00  0.00     0.059 A 
ATOM     69  F   UNL A   1      47.527  26.307  32.504  1.00  0.00    -0.206 F 
ATOM     70  C   UNL A   1      50.773  26.624  30.952  1.00  0.00     0.060 A 
BRANCH  70  71
ATOM     71  S   UNL A   1      52.505  26.245  31.291  1.00  0.00     0.124 S 
ATOM     72  O   UNL A   1      52.393  24.984  32.017  1.00  0.00    -0.237 OA
ATOM     73  O   UNL A   1      53.073  26.157  29.949  1.00  0.00    -0.237 OA
ATOM     74  O   UNL A   1      52.955  27.387  32.082  1.00  0.00    -0.744 OA
ENDBRANCH  70  71
ENDBRANCH  38  63
ENDBRANCH  12  13
ENDBRANCH   5   7
ENDBRANCH   2   3
ENDBRANCH   1   2
BRANCH   1  75
ATOM     75  C   UNL A   1      34.323  34.875  28.981  1.00  0.00     0.117 C 
BRANCH  75  76
ATOM     76  N   UNL A   1      35.611  34.469  29.518  1.00  0.00    -0.356 N 
ATOM     77  C   UNL A   1      35.931  34.055  30.779  1.00  0.00     0.224 C 
ATOM     78  H   UNL A   1      36.361  34.497  28.881  1.00  0.00     0.163 HD
ATOM     79  O   UNL A   1      37.121  34.040  31.088  1.00  0.00    -0.275 OA
BRANCH  77  80
ATOM     80  C   UNL A   1      34.815  33.583  31.698  1.00  0.00     0.098 C 
ATOM     81  C   UNL A   1      34.404  34.645  32.734  1.00  0.00     0.017 C 
ATOM     82  C   UNL A   1      35.250  32.283  32.382  1.00  0.00     0.131 C 
ATOM     83  C   UNL A   1      35.392  34.793  33.898  1.00  0.00     0.022 C 
ATOM     84  N   UNL A   1      36.202  32.564  33.444  1.00  0.00    -0.356 N 
ATOM     85  C   UNL A   1      35.775  33.445  34.514  1.00  0.00     0.118 C 
BRANCH  84  86
ATOM     86  C   UNL A   1      37.442  31.981  33.492  1.00  0.00     0.129 A 
ATOM     87  C   UNL A   1      38.558  32.693  33.923  1.00  0.00     0.047 A 
ATOM     88  N   UNL A   1      37.550  30.691  33.116  1.00  0.00    -0.231 NA
ATOM     89  C   UNL A   1      39.807  32.083  33.974  1.00  0.00     0.014 A 
ATOM     90  C   UNL A   1      38.759  30.110  33.123  1.00  0.00     0.073 A 
ATOM     91  C   UNL A   1      39.930  30.764  33.553  1.00  0.00     0.002 A 
ATOM     92  C   UNL A   1      38.869  28.809  32.670  1.00  0.00     0.030 A 
ATOM     93  C   UNL A   1      41.169  30.102  33.545  1.00  0.00     0.032 A 
ATOM     94  C   UNL A   1      40.099  28.145  32.636  1.00  0.00     0.024 A 
ATOM     95  C   UNL A   1      41.253  28.787  33.080  1.00  0.00     0.083 A 
BRANCH  95  96
ATOM     96  S   UNL A   1      42.871  28.035  33.089  1.00  0.00     0.243 S 
ATOM     97  O   UNL A   1      43.010  27.371  31.806  1.00  0.00    -0.207 OA
ATOM     98  O   UNL A   1      43.793  29.068  33.505  1.00  0.00    -0.207 OA
BRANCH  96  99
ATOM     99  N   UNL A   1      42.868  26.825  34.296  1.00  0.00    -0.198 NA
ATOM    100  C   UNL A   1      41.672  26.797  35.175  1.00  0.00     0.102 C 
ATOM    101  C   UNL A   1      43.511  25.541  33.924  1.00  0.00     0.102 C 
ATOM    102  C   UNL A   1      41.806  25.786  36.304  1.00  0.00     0.017 C 
ATOM    103  C   UNL A   1      43.589  24.571  35.094  1.00  0.00     0.017 C 
ATOM    104  C   UNL A   1      42.243  24.426  35.784  1.00  0.00     0.003 C 
ENDBRANCH  96  99
ENDBRANCH  95  96
ENDBRANCH  84  86
ENDBRANCH  77  80
ENDBRANCH  75  76
ENDBRANCH   1  75
TORSDOF 16
ENDMDL
MODEL 2
REMARK VINA RESULT:     -10.8      0.373      7.915
REMARK SMILES O=C(NCCCNC(=O)[C@@H]1CCCN(c2ccc3cc(S(=O)(=O)N4CCCCC4)ccc3n2)C1)c1ccc(-c2c3nc(c(-c4c(F)cc(S(=O)(=O)[O-])cc4F)c4ccc([nH]4)c(-c4c(F)cc(S(=O)(=O)[O-])cc4F)c4nc(c(-c5c(F)cc(S(=O)(=O)[O-])cc5F)c5ccc2[nH]5)C=C4)C=C3)cc1
REMARK SMILES IDX 5 1 4 2 3 3 1 4 2 5 35 7 36 8 100 9 37 10 99 11 38 12 39 13
REMARK SMILES IDX 40 14 93 15 41 16 98 17 92 18 94 19 42 20 97 21 91 22 90 23
REMARK SMILES IDX 43 25 77 26 56 27 76 28 57 29 60 30 75 31 95 32 58 33 59 34
REMARK SMILES IDX 74 36 96 37 61 38 44 39 45 40 54 41 46 42 47 43 53 44 55 45
REMARK SMILES IDX 48 46 49 47 50 48 51 49 52 50 78 51 79 52 88 53 80 54 81 55
REMARK SMILES IDX 87 56 89 57 82 58 83 59 84 60 85 61 86 62 62 63 63 64 72 65
REMARK SMILES IDX 64 66 65 67 71 68 73 69 66 70 67 71 68 72 69 73 70 74 6 75
REMARK SMILES IDX 7 76 8 77 9 79 10 80 11 81 34 82 12 83 14 84 13 85 15 86
REMARK SMILES IDX 16 87 33 88 17 89 32 90 18 91 31 92 19 93 30 94 20 95 21 96
REMARK SMILES IDX 22 97 23 98 24 99 25 100 29 101 26 102 28 103 27 104
REMARK H PARENT 3 6 94 24 60 35 7 78
REMARK Flexibility Score: inf
ROOT
ATOM      1  C   UNL A   1      33.566  33.782  28.204  1.00  0.00     0.042 C 
ENDROOT
BRANCH   1   2
ATOM      2  C   UNL A   1      34.503  32.595  28.025  1.00  0.00     0.118 C 
BRANCH   2   3
ATOM      3  N   UNL A   1      33.787  31.328  27.928  1.00  0.00    -0.352 N 
ATOM      4  O   UNL A   1      33.542  29.111  27.621  1.00  0.00    -0.269 OA
ATOM      5  C   UNL A   1      34.284  30.048  27.901  1.00  0.00     0.251 C 
ATOM      6  H   UNL A   1      32.807  31.402  27.873  1.00  0.00     0.163 HD
BRANCH   5   7
ATOM      7  C   UNL A   1      35.713  29.813  28.190  1.00  0.00     0.039 A 
ATOM      8  C   UNL A   1      36.679  30.050  27.210  1.00  0.00     0.014 A 
ATOM      9  C   UNL A   1      36.092  29.350  29.452  1.00  0.00     0.014 A 
ATOM     10  C   UNL A   1      37.997  29.677  27.437  1.00  0.00     0.010 A 
ATOM     11  C   UNL A   1      37.437  29.074  29.713  1.00  0.00     0.010 A 
ATOM     12  C   UNL A   1      38.397  29.210  28.698  1.00  0.00    -0.014 A 
BRANCH  12  13
ATOM     13  C   UNL A   1      39.837  28.950  28.950  1.00  0.00     0.031 A 
ATOM     14  C   UNL A   1      40.469  27.634  28.590  1.00  0.00     0.074 A 
ATOM     15  C   UNL A   1      40.578  29.934  29.498  1.00  0.00     0.049 A 
ATOM     16  N   UNL A   1      41.710  27.250  28.745  1.00  0.00    -0.248 NA
ATOM     17  C   UNL A   1      39.599  26.615  27.984  1.00  0.00     0.031 C 
ATOM     18  C   UNL A   1      40.066  31.249  29.898  1.00  0.00     0.029 A 
ATOM     19  N   UNL A   1      41.913  29.994  29.804  1.00  0.00    -0.354 N 
ATOM     20  C   UNL A   1      41.771  25.944  28.273  1.00  0.00     0.074 A 
ATOM     21  C   UNL A   1      40.432  25.590  27.852  1.00  0.00     0.031 C 
ATOM     22  C   UNL A   1      41.080  31.996  30.355  1.00  0.00     0.029 A 
ATOM     23  C   UNL A   1      42.296  31.194  30.352  1.00  0.00     0.049 A 
ATOM     24  H   UNL A   1      42.537  29.249  29.644  1.00  0.00     0.167 HD
ATOM     25  C   UNL A   1      42.847  25.124  28.193  1.00  0.00     0.037 A 
ATOM     26  C   UNL A   1      43.488  31.600  30.829  1.00  0.00     0.037 A 
ATOM     27  C   UNL A   1      44.176  25.495  28.614  1.00  0.00     0.049 A 
ATOM     28  C   UNL A   1      44.653  30.655  30.766  1.00  0.00     0.074 A 
ATOM     29  C   UNL A   1      45.339  24.747  28.545  1.00  0.00     0.029 A 
ATOM     30  N   UNL A   1      44.520  26.710  29.190  1.00  0.00    -0.354 N 
ATOM     31  N   UNL A   1      44.699  29.437  30.281  1.00  0.00    -0.248 NA
ATOM     32  C   UNL A   1      45.927  31.136  31.312  1.00  0.00     0.031 C 
ATOM     33  C   UNL A   1      46.371  25.485  29.133  1.00  0.00     0.029 A 
ATOM     34  C   UNL A   1      45.869  26.721  29.507  1.00  0.00     0.049 A 
ATOM     35  H   UNL A   1      43.897  27.455  29.351  1.00  0.00     0.167 HD
ATOM     36  C   UNL A   1      46.013  29.016  30.441  1.00  0.00     0.074 A 
ATOM     37  C   UNL A   1      46.731  30.116  31.052  1.00  0.00     0.031 C 
ATOM     38  C   UNL A   1      46.574  27.826  30.111  1.00  0.00     0.037 A 
BRANCH  25  39
ATOM     39  C   UNL A   1      42.638  23.735  27.649  1.00  0.00     0.058 A 
ATOM     40  C   UNL A   1      42.650  23.467  26.271  1.00  0.00     0.135 A 
ATOM     41  C   UNL A   1      42.484  22.644  28.523  1.00  0.00     0.135 A 
ATOM     42  F   UNL A   1      42.780  24.469  25.388  1.00  0.00    -0.206 F 
ATOM     43  C   UNL A   1      42.495  22.174  25.779  1.00  0.00     0.059 A 
ATOM     44  C   UNL A   1      42.357  21.339  28.054  1.00  0.00     0.059 A 
ATOM     45  F   UNL A   1      42.466  22.839  29.851  1.00  0.00    -0.206 F 
ATOM     46  C   UNL A   1      42.351  21.116  26.679  1.00  0.00     0.060 A 
BRANCH  46  47
ATOM     47  S   UNL A   1      42.158  19.446  26.020  1.00  0.00     0.124 S 
ATOM     48  O   UNL A   1      40.721  19.394  25.772  1.00  0.00    -0.237 OA
ATOM     49  O   UNL A   1      43.004  19.481  24.832  1.00  0.00    -0.237 OA
ATOM     50  O   UNL A   1      42.638  18.594  27.104  1.00  0.00    -0.744 OA
ENDBRANCH  46  47
ENDBRANCH  25  39
BRANCH  26  51
ATOM     51  C   UNL A   1      43.625  32.958  31.419  1.00  0.00     0.058 A 
ATOM     52  C   UNL A   1      43.978  34.061  30.628  1.00  0.00     0.135 A 
ATOM     53  C   UNL A   1      43.385  33.183  32.784  1.00  0.00     0.135 A 
ATOM     54  F   UNL A   1      44.219  33.897  29.319  1.00  0.00    -0.206 F 
ATOM     55  C   UNL A   1      44.111  35.334  31.173  1.00  0.00     0.059 A 
ATOM     56  C   UNL A   1      43.478  34.452  33.345  1.00  0.00     0.059 A 
ATOM     57  F   UNL A   1      43.023  32.166  33.582  1.00  0.00    -0.206 F 
ATOM     58  C   UNL A   1      43.856  35.519  32.533  1.00  0.00     0.060 A 
BRANCH  58  59
ATOM     59  S   UNL A   1      43.997  37.182  33.220  1.00  0.00     0.124 S 
ATOM     60  O   UNL A   1      42.938  37.176  34.222  1.00  0.00    -0.237 OA
ATOM     61  O   UNL A   1      45.363  37.186  33.732  1.00  0.00    -0.237 OA
ATOM     62  O   UNL A   1      43.767  38.043  32.064  1.00  0.00    -0.744 OA
ENDBRANCH  58  59
ENDBRANCH  26  51
BRANCH  38  63
ATOM     63  C   UNL A   1      48.048  27.664  30.362  1.00  0.00     0.058 A 
ATOM     64  C   UNL A   1      49.009  28.020  29.402  1.00  0.00     0.135 A 
ATOM     65  C   UNL A   1      48.507  27.185  31.600  1.00  0.00     0.135 A 
ATOM     66  F   UNL A   1      48.626  28.475  28.198  1.00  0.00    -0.206 F 
ATOM     67  C   UNL A   1      50.370  27.883  29.651  1.00  0.00     0.059 A 
ATOM     68  C   UNL A   1      49.863  27.070  31.883  1.00  0.00     0.059 A 
ATOM     69  F   UNL A   1      47.631  26.836  32.557  1.00  0.00    -0.206 F 
ATOM     70  C   UNL A   1      50.788  27.410  30.898  1.00  0.00     0.060 A 
BRANCH  70  71
ATOM     71  S   UNL A   1      52.558  27.273  31.220  1.00  0.00     0.124 S 
ATOM     72  O   UNL A   1      52.701  28.078  32.429  1.00  0.00    -0.237 OA
ATOM     73  O   UNL A   1      52.733  25.833  31.392  1.00  0.00    -0.237 OA
ATOM     74  O   UNL A   1      53.168  27.833  30.017  1.00  0.00    -0.744 OA
ENDBRANCH  70  71
ENDBRANCH  38  63
ENDBRANCH  12  13
ENDBRANCH   5   7
ENDBRANCH   2   3
ENDBRANCH   1   2
BRANCH   1  75
ATOM     75  C   UNL A   1      34.216  34.949  28.933  1.00  0.00     0.117 C 
BRANCH  75  76
ATOM     76  N   UNL A   1      35.496  34.547  29.490  1.00  0.00    -0.356 N 
ATOM     77  C   UNL A   1      35.804  34.166  30.765  1.00  0.00     0.224 C 
ATOM     78  H   UNL A   1      36.250  34.551  28.858  1.00  0.00     0.163 HD
ATOM     79  O   UNL A   1      36.991  34.149  31.082  1.00  0.00    -0.275 OA
BRANCH  77  80
ATOM     80  C   UNL A   1      34.678  33.730  31.689  1.00  0.00     0.098 C 
ATOM     81  C   UNL A   1      34.290  34.813  32.712  1.00  0.00     0.017 C 
ATOM     82  C   UNL A   1      35.084  32.429  32.389  1.00  0.00     0.131 C 
ATOM     83  C   UNL A   1      35.282  34.954  33.874  1.00  0.00     0.022 C 
ATOM     84  N   UNL A   1      36.042  32.702  33.448  1.00  0.00    -0.356 N 
ATOM     85  C   UNL A   1      35.635  33.605  34.507  1.00  0.00     0.118 C 
BRANCH  84  86
ATOM     86  C   UNL A   1      37.269  32.092  33.503  1.00  0.00     0.129 A 
ATOM     87  C   UNL A   1      38.401  32.784  33.927  1.00  0.00     0.047 A 
ATOM     88  N   UNL A   1      37.349  30.796  33.143  1.00  0.00    -0.231 NA
ATOM     89  C   UNL A   1      39.636  32.147  33.986  1.00  0.00     0.014 A 
ATOM     90  C   UNL A   1      38.545  30.188  33.156  1.00  0.00     0.073 A 
ATOM     91  C   UNL A   1      39.729  30.822  33.580  1.00  0.00     0.002 A 
ATOM     92  C   UNL A   1      38.626  28.881  32.718  1.00  0.00     0.030 A 
ATOM     93  C   UNL A   1      40.954  30.133  33.580  1.00  0.00     0.032 A 
ATOM     94  C   UNL A   1      39.841  28.189  32.693  1.00  0.00     0.024 A 
ATOM     95  C   UNL A   1      41.009  28.811  33.130  1.00  0.00     0.083 A 
BRANCH  95  96
ATOM     96  S   UNL A   1      42.610  28.023  33.148  1.00  0.00     0.243 S 
ATOM     97  O   UNL A   1      42.824  27.522  31.804  1.00  0.00    -0.207 OA
ATOM     98  O   UNL A   1      43.519  28.973  33.750  1.00  0.00    -0.207 OA
BRANCH  96  99
ATOM     99  N   UNL A   1      42.506  26.672  34.191  1.00  0.00    -0.198 NA
ATOM    100  C   UNL A   1      43.629  25.706  34.105  1.00  0.00     0.102 C 
ATOM    101  C   UNL A   1      41.878  26.924  35.511  1.00  0.00     0.102 C 
ATOM    102  C   UNL A   1      43.396  24.469  34.960  1.00  0.00     0.017 C 
ATOM    103  C   UNL A   1      41.697  25.647  36.319  1.00  0.00     0.017 C 
ATOM    104  C   UNL A   1      42.984  24.840  36.375  1.00  0.00     0.003 C 
ENDBRANCH  96  99
ENDBRANCH  95  96
ENDBRANCH  84  86
ENDBRANCH  77  80
ENDBRANCH  75  76
ENDBRANCH   1  75
TORSDOF 16
ENDMDL
MODEL 3
REMARK VINA RESULT:     -10.0      7.963     13.540
REMARK SMILES O=C(NCCCNC(=O)[C@@H]1CCCN(c2ccc3cc(S(=O)(=O)N4CCCCC4)ccc3n2)C1)c1ccc(-c2c3nc(c(-c4c(F)cc(S(=O)(=O)[O-])cc4F)c4ccc([nH]4)c(-c4c(F)cc(S(=O)(=O)[O-])cc4F)c4nc(c(-c5c(F)cc(S(=O)(=O)[O-])cc5F)c5ccc2[nH]5)C=C4)C=C3)cc1
REMARK SMILES IDX 5 1 4 2 3 3 1 4 2 5 35 7 36 8 100 9 37 10 99 11 38 12 39 13
REMARK SMILES IDX 40 14 93 15 41 16 98 17 92 18 94 19 42 20 97 21 91 22 90 23
REMARK SMILES IDX 43 25 77 26 56 27 76 28 57 29 60 30 75 31 95 32 58 33 59 34
REMARK SMILES IDX 74 36 96 37 61 38 44 39 45 40 54 41 46 42 47 43 53 44 55 45
REMARK SMILES IDX 48 46 49 47 50 48 51 49 52 50 78 51 79 52 88 53 80 54 81 55
REMARK SMILES IDX 87 56 89 57 82 58 83 59 84 60 85 61 86 62 62 63 63 64 72 65
REMARK SMILES IDX 64 66 65 67 71 68 73 69 66 70 67 71 68 72 69 73 70 74 6 75
REMARK SMILES IDX 7 76 8 77 9 79 10 80 11 81 34 82 12 83 14 84 13 85 15 86
REMARK SMILES IDX 16 87 33 88 17 89 32 90 18 91 31 92 19 93 30 94 20 95 21 96
REMARK SMILES IDX 22 97 23 98 24 99 25 100 29 101 26 102 28 103 27 104
REMARK H PARENT 3 6 94 24 60 35 7 78
REMARK Flexibility Score: inf
ROOT
ATOM      1  C   UNL A   1      49.219  37.389  25.827  1.00  0.00     0.042 C 
ENDROOT
BRANCH   1   2
ATOM      2  C   UNL A   1      49.549  36.594  27.084  1.00  0.00     0.118 C 
BRANCH   2   3
ATOM      3  N   UNL A   1      48.982  37.191  28.287  1.00  0.00    -0.352 N 
ATOM      4  O   UNL A   1      47.488  37.473  29.948  1.00  0.00    -0.269 OA
ATOM      5  C   UNL A   1      47.959  36.739  29.084  1.00  0.00     0.251 C 
ATOM      6  H   UNL A   1      49.392  38.041  28.569  1.00  0.00     0.163 HD
BRANCH   5   7
ATOM      7  C   UNL A   1      47.419  35.380  28.879  1.00  0.00     0.039 A 
ATOM      8  C   UNL A   1      47.667  34.373  29.814  1.00  0.00     0.014 A 
ATOM      9  C   UNL A   1      46.659  35.107  27.739  1.00  0.00     0.014 A 
ATOM     10  C   UNL A   1      47.292  33.065  29.536  1.00  0.00     0.010 A 
ATOM     11  C   UNL A   1      46.192  33.810  27.512  1.00  0.00     0.010 A 
ATOM     12  C   UNL A   1      46.528  32.772  28.396  1.00  0.00    -0.014 A 
BRANCH  12  13
ATOM     13  C   UNL A   1      46.027  31.390  28.197  1.00  0.00     0.031 A 
ATOM     14  C   UNL A   1      44.611  31.014  28.540  1.00  0.00     0.074 A 
ATOM     15  C   UNL A   1      46.869  30.471  27.681  1.00  0.00     0.049 A 
ATOM     16  N   UNL A   1      44.019  29.852  28.427  1.00  0.00    -0.248 NA
ATOM     17  C   UNL A   1      43.749  32.074  29.086  1.00  0.00     0.031 C 
ATOM     18  C   UNL A   1      48.268  30.722  27.321  1.00  0.00     0.029 A 
ATOM     19  N   UNL A   1      46.676  29.153  27.357  1.00  0.00    -0.354 N 
ATOM     20  C   UNL A   1      42.725  30.032  28.899  1.00  0.00     0.074 A 
ATOM     21  C   UNL A   1      42.625  31.411  29.329  1.00  0.00     0.031 C 
ATOM     22  C   UNL A   1      48.792  29.610  26.790  1.00  0.00     0.029 A 
ATOM     23  C   UNL A   1      47.796  28.548  26.839  1.00  0.00     0.049 A 
ATOM     24  H   UNL A   1      45.819  28.686  27.483  1.00  0.00     0.167 HD
ATOM     25  C   UNL A   1      41.715  29.130  28.958  1.00  0.00     0.037 A 
ATOM     26  C   UNL A   1      48.012  27.271  26.469  1.00  0.00     0.037 A 
ATOM     27  C   UNL A   1      41.831  27.761  28.522  1.00  0.00     0.049 A 
ATOM     28  C   UNL A   1      46.886  26.284  26.586  1.00  0.00     0.074 A 
ATOM     29  C   UNL A   1      40.856  26.777  28.511  1.00  0.00     0.029 A 
ATOM     30  N   UNL A   1      42.989  27.177  28.028  1.00  0.00    -0.354 N 
ATOM     31  N   UNL A   1      45.657  26.482  27.000  1.00  0.00    -0.248 NA
ATOM     32  C   UNL A   1      47.173  24.902  26.186  1.00  0.00     0.031 C 
ATOM     33  C   UNL A   1      41.440  25.586  28.069  1.00  0.00     0.029 A 
ATOM     34  C   UNL A   1      42.761  25.840  27.737  1.00  0.00     0.049 A 
ATOM     35  H   UNL A   1      43.847  27.643  27.902  1.00  0.00     0.167 HD
ATOM     36  C   UNL A   1      45.017  25.255  26.885  1.00  0.00     0.074 A 
ATOM     37  C   UNL A   1      45.991  24.326  26.349  1.00  0.00     0.031 C 
ATOM     38  C   UNL A   1      43.739  24.927  27.197  1.00  0.00     0.037 A 
BRANCH  25  39
ATOM     39  C   UNL A   1      40.398  29.581  29.534  1.00  0.00     0.058 A 
ATOM     40  C   UNL A   1      40.218  29.781  30.912  1.00  0.00     0.135 A 
ATOM     41  C   UNL A   1      39.314  29.876  28.688  1.00  0.00     0.135 A 
ATOM     42  F   UNL A   1      41.211  29.503  31.771  1.00  0.00    -0.206 F 
ATOM     43  C   UNL A   1      39.009  30.235  31.431  1.00  0.00     0.059 A 
ATOM     44  C   UNL A   1      38.106  30.359  29.182  1.00  0.00     0.059 A 
ATOM     45  F   UNL A   1      39.428  29.705  27.360  1.00  0.00    -0.206 F 
ATOM     46  C   UNL A   1      37.959  30.523  30.558  1.00  0.00     0.060 A 
BRANCH  46  47
ATOM     47  S   UNL A   1      36.401  31.118  31.251  1.00  0.00     0.124 S 
ATOM     48  O   UNL A   1      35.567  31.210  30.057  1.00  0.00    -0.237 OA
ATOM     49  O   UNL A   1      36.051  30.054  32.186  1.00  0.00    -0.237 OA
ATOM     50  O   UNL A   1      36.764  32.393  31.862  1.00  0.00    -0.744 OA
ENDBRANCH  46  47
ENDBRANCH  25  39
BRANCH  26  51
ATOM     51  C   UNL A   1      49.351  26.862  25.972  1.00  0.00     0.058 A 
ATOM     52  C   UNL A   1      49.711  27.036  24.628  1.00  0.00     0.135 A 
ATOM     53  C   UNL A   1      50.306  26.304  26.838  1.00  0.00     0.135 A 
ATOM     54  F   UNL A   1      48.833  27.563  23.762  1.00  0.00    -0.206 F 
ATOM     55  C   UNL A   1      50.962  26.653  24.154  1.00  0.00     0.059 A 
ATOM     56  C   UNL A   1      51.575  25.945  26.395  1.00  0.00     0.059 A 
ATOM     57  F   UNL A   1      50.021  26.134  28.138  1.00  0.00    -0.206 F 
ATOM     58  C   UNL A   1      51.887  26.110  25.048  1.00  0.00     0.060 A 
BRANCH  58  59
ATOM     59  S   UNL A   1      53.519  25.650  24.427  1.00  0.00     0.124 S 
ATOM     60  O   UNL A   1      54.394  26.416  25.307  1.00  0.00    -0.237 OA
ATOM     61  O   UNL A   1      53.523  24.204  24.622  1.00  0.00    -0.237 OA
ATOM     62  O   UNL A   1      53.484  26.087  23.035  1.00  0.00    -0.744 OA
ENDBRANCH  58  59
ENDBRANCH  26  51
BRANCH  38  63
ATOM     63  C   UNL A   1      43.302  23.513  26.924  1.00  0.00     0.058 A 
ATOM     64  C   UNL A   1      43.066  23.048  25.621  1.00  0.00     0.135 A 
ATOM     65  C   UNL A   1      43.159  22.600  27.981  1.00  0.00     0.135 A 
ATOM     66  F   UNL A   1      43.178  23.881  24.574  1.00  0.00    -0.206 F 
ATOM     67  C   UNL A   1      42.680  21.735  25.378  1.00  0.00     0.059 A 
ATOM     68  C   UNL A   1      42.806  21.274  27.759  1.00  0.00     0.059 A 
ATOM     69  F   UNL A   1      43.380  22.991  29.247  1.00  0.00    -0.206 F 
ATOM     70  C   UNL A   1      42.556  20.853  26.454  1.00  0.00     0.060 A 
BRANCH  70  71
ATOM     71  S   UNL A   1      42.090  19.142  26.120  1.00  0.00     0.124 S 
ATOM     72  O   UNL A   1      42.479  18.483  27.363  1.00  0.00    -0.237 OA
ATOM     73  O   UNL A   1      40.654  19.250  25.882  1.00  0.00    -0.237 OA
ATOM     74  O   UNL A   1      42.889  18.794  24.948  1.00  0.00    -0.744 OA
ENDBRANCH  70  71
ENDBRANCH  38  63
ENDBRANCH  12  13
ENDBRANCH   5   7
ENDBRANCH   2   3
ENDBRANCH   1   2
BRANCH   1  75
ATOM     75  C   UNL A   1      47.855  38.059  25.887  1.00  0.00     0.117 C 
BRANCH  75  76
ATOM     76  N   UNL A   1      47.611  38.821  24.674  1.00  0.00    -0.356 N 
ATOM     77  C   UNL A   1      46.898  39.973  24.505  1.00  0.00     0.224 C 
ATOM     78  H   UNL A   1      48.019  38.453  23.857  1.00  0.00     0.163 HD
ATOM     79  O   UNL A   1      46.583  40.283  23.358  1.00  0.00    -0.275 OA
BRANCH  77  80
ATOM     80  C   UNL A   1      46.593  40.829  25.724  1.00  0.00     0.098 C 
ATOM     81  C   UNL A   1      45.416  40.288  26.555  1.00  0.00     0.017 C 
ATOM     82  C   UNL A   1      46.331  42.269  25.269  1.00  0.00     0.131 C 
ATOM     83  C   UNL A   1      44.039  40.560  25.934  1.00  0.00     0.022 C 
ATOM     84  N   UNL A   1      45.008  42.380  24.679  1.00  0.00    -0.356 N 
ATOM     85  C   UNL A   1      43.871  42.019  25.503  1.00  0.00     0.118 C 
BRANCH  84  86
ATOM     86  C   UNL A   1      44.808  42.868  23.412  1.00  0.00     0.129 A 
ATOM     87  C   UNL A   1      45.749  43.691  22.798  1.00  0.00     0.047 A 
ATOM     88  N   UNL A   1      43.674  42.520  22.772  1.00  0.00    -0.231 NA
ATOM     89  C   UNL A   1      45.533  44.169  21.510  1.00  0.00     0.014 A 
ATOM     90  C   UNL A   1      43.441  43.012  21.546  1.00  0.00     0.073 A 
ATOM     91  C   UNL A   1      44.349  43.843  20.861  1.00  0.00     0.002 A 
ATOM     92  C   UNL A   1      42.244  42.706  20.928  1.00  0.00     0.030 A 
ATOM     93  C   UNL A   1      44.055  44.323  19.574  1.00  0.00     0.032 A 
ATOM     94  C   UNL A   1      41.928  43.194  19.656  1.00  0.00     0.024 A 
ATOM     95  C   UNL A   1      42.836  44.000  18.972  1.00  0.00     0.083 A 
BRANCH  95  96
ATOM     96  S   UNL A   1      42.541  44.672  17.345  1.00  0.00     0.243 S 
ATOM     97  O   UNL A   1      43.485  44.011  16.463  1.00  0.00    -0.207 OA
ATOM     98  O   UNL A   1      41.116  44.581  17.124  1.00  0.00    -0.207 OA
BRANCH  96  99
ATOM     99  N   UNL A   1      42.956  46.330  17.392  1.00  0.00    -0.198 NA
ATOM    100  C   UNL A   1      44.235  46.691  16.733  1.00  0.00     0.102 C 
ATOM    101  C   UNL A   1      41.820  47.280  17.317  1.00  0.00     0.102 C 
ATOM    102  C   UNL A   1      44.599  48.155  16.936  1.00  0.00     0.017 C 
ATOM    103  C   UNL A   1      42.260  48.725  17.504  1.00  0.00     0.017 C 
ATOM    104  C   UNL A   1      43.432  49.069  16.601  1.00  0.00     0.003 C 
ENDBRANCH  96  99
ENDBRANCH  95  96
ENDBRANCH  84  86
ENDBRANCH  77  80
ENDBRANCH  75  76
ENDBRANCH   1  75
TORSDOF 16
ENDMDL
