MODEL 1
REMARK VINA RESULT:     -12.4      0.000      0.000
REMARK SMILES CC[C@H]1CCCCN1S(=O)(=O)c1ccc2oc(C(=O)NCCCNC(=O)c3ccc(-c4c5nc(c(-c6c(F)cc(S(=O)(=O)[O-])cc6F)c6ccc([nH]6)c(-c6c(F)cc(S(=O)(=O)[O-])cc6F)c6nc(c(-c7c(F)cc(S(=O)(=O)[O-])cc7F)c7ccc4[nH]7)C=C6)C=C5)cc3)c(C)c2c1
REMARK SMILES IDX 22 1 21 2 20 3 18 4 19 5 17 7 12 8 13 9 96 10 14 11 95 12
REMARK SMILES IDX 15 13 93 14 16 15 94 16 9 17 10 18 11 19 8 20 3 21 4 22 5 23
REMARK SMILES IDX 7 24 6 25 2 26 1 27 23 28 24 29 25 30 26 32 27 33 28 34
REMARK SMILES IDX 92 35 29 36 91 37 30 38 31 39 32 40 85 41 33 42 90 43 84 44
REMARK SMILES IDX 86 45 34 46 89 47 83 48 82 49 35 51 69 52 48 53 68 54 49 55
REMARK SMILES IDX 52 56 67 57 87 58 50 59 51 60 66 62 88 63 53 64 36 65 37 66
REMARK SMILES IDX 46 67 38 68 39 69 45 70 47 71 40 72 41 73 42 74 43 75 44 76
REMARK SMILES IDX 70 77 71 78 80 79 72 80 73 81 79 82 81 83 74 84 75 85 76 86
REMARK SMILES IDX 77 87 78 88 54 89 55 90 64 91 56 92 57 93 63 94 65 95 58 96
REMARK SMILES IDX 59 97 60 98 61 99 62 100
REMARK H PARENT 20 6 24 31 86 50 52 61
REMARK Flexibility Score: inf
ROOT
ATOM      1  C   UNL A   1      40.704  22.007  27.180  1.00  0.00     0.042 C 
ENDROOT
BRANCH   1   2
ATOM      2  C   UNL A   1      39.462  22.271  26.337  1.00  0.00     0.118 C 
BRANCH   2   3
ATOM      3  N   UNL A   1      38.865  21.066  25.824  1.00  0.00    -0.349 N 
ATOM      4  C   UNL A   1      37.644  20.767  25.274  1.00  0.00     0.287 C 
ATOM      5  O   UNL A   1      37.615  19.639  24.765  1.00  0.00    -0.266 OA
ATOM      6  H   UNL A   1      39.462  20.286  25.882  1.00  0.00     0.163 HD
BRANCH   4   7
ATOM      7  C   UNL A   1      36.466  21.629  25.283  1.00  0.00     0.195 A 
ATOM      8  C   UNL A   1      32.715  24.194  25.916  1.00  0.00     0.083 A 
ATOM      9  C   UNL A   1      32.579  23.325  27.005  1.00  0.00     0.025 A 
ATOM     10  C   UNL A   1      33.869  24.184  25.131  1.00  0.00     0.034 A 
ATOM     11  C   UNL A   1      33.585  22.387  27.296  1.00  0.00     0.049 A 
ATOM     12  C   UNL A   1      34.775  23.131  25.292  1.00  0.00     0.025 A 
ATOM     13  C   UNL A   1      34.642  22.310  26.388  1.00  0.00     0.135 A 
ATOM     14  C   UNL A   1      35.840  22.604  24.498  1.00  0.00     0.008 A 
ATOM     15  O   UNL A   1      35.682  21.446  26.419  1.00  0.00    -0.451 OA
ATOM     16  C   UNL A   1      36.044  23.078  23.104  1.00  0.00     0.049 C 
BRANCH   8  17
ATOM     17  S   UNL A   1      31.499  25.432  25.547  1.00  0.00     0.243 S 
ATOM     18  O   UNL A   1      30.440  25.202  26.501  1.00  0.00    -0.207 OA
ATOM     19  O   UNL A   1      31.224  25.361  24.125  1.00  0.00    -0.207 OA
BRANCH  17  20
ATOM     20  N   UNL A   1      32.198  26.976  25.820  1.00  0.00    -0.195 NA
ATOM     21  C   UNL A   1      32.230  27.890  24.629  1.00  0.00     0.073 C 
ATOM     22  C   UNL A   1      33.535  28.713  24.740  1.00  0.00     0.020 C 
ATOM     23  C   UNL A   1      33.603  29.516  26.043  1.00  0.00     0.003 C 
ATOM     24  C   UNL A   1      32.133  27.707  27.100  1.00  0.00     0.103 C 
ATOM     25  C   UNL A   1      33.351  28.626  27.251  1.00  0.00     0.017 C 
BRANCH  21  26
ATOM     26  C   UNL A   1      31.029  28.859  24.480  1.00  0.00     0.017 C 
ATOM     27  C   UNL A   1      30.139  28.732  23.259  1.00  0.00     0.005 C 
ENDBRANCH  21  26
ENDBRANCH  17  20
ENDBRANCH   8  17
ENDBRANCH   4   7
ENDBRANCH   2   3
ENDBRANCH   1   2
BRANCH   1  28
ATOM     28  C   UNL A   1      41.460  23.293  27.499  1.00  0.00     0.118 C 
BRANCH  28  29
ATOM     29  N   UNL A   1      41.565  24.168  26.332  1.00  0.00    -0.352 N 
ATOM     30  C   UNL A   1      41.232  25.488  26.153  1.00  0.00     0.251 C 
ATOM     31  H   UNL A   1      41.943  23.734  25.532  1.00  0.00     0.163 HD
ATOM     32  O   UNL A   1      41.159  25.935  25.012  1.00  0.00    -0.269 OA
BRANCH  30  33
ATOM     33  C   UNL A   1      40.952  26.361  27.311  1.00  0.00     0.039 A 
ATOM     34  C   UNL A   1      39.906  26.033  28.180  1.00  0.00     0.014 A 
ATOM     35  C   UNL A   1      41.692  27.524  27.523  1.00  0.00     0.014 A 
ATOM     36  C   UNL A   1      39.663  26.826  29.306  1.00  0.00     0.010 A 
ATOM     37  C   UNL A   1      41.518  28.253  28.693  1.00  0.00     0.010 A 
ATOM     38  C   UNL A   1      40.499  27.915  29.596  1.00  0.00    -0.014 A 
BRANCH  38  39
ATOM     39  C   UNL A   1      40.338  28.732  30.825  1.00  0.00     0.031 A 
ATOM     40  C   UNL A   1      39.307  29.827  30.864  1.00  0.00     0.074 A 
ATOM     41  C   UNL A   1      41.189  28.563  31.856  1.00  0.00     0.049 A 
ATOM     42  N   UNL A   1      39.128  30.765  31.758  1.00  0.00    -0.248 NA
ATOM     43  C   UNL A   1      38.379  29.903  29.722  1.00  0.00     0.031 C 
ATOM     44  C   UNL A   1      42.265  27.569  31.917  1.00  0.00     0.029 A 
ATOM     45  N   UNL A   1      41.298  29.239  33.045  1.00  0.00    -0.354 N 
ATOM     46  C   UNL A   1      38.101  31.563  31.268  1.00  0.00     0.074 A 
ATOM     47  C   UNL A   1      37.725  31.026  29.979  1.00  0.00     0.031 C 
ATOM     48  C   UNL A   1      42.907  27.686  33.090  1.00  0.00     0.029 A 
ATOM     49  C   UNL A   1      42.322  28.789  33.845  1.00  0.00     0.049 A 
ATOM     50  H   UNL A   1      40.699  29.977  33.301  1.00  0.00     0.167 HD
ATOM     51  C   UNL A   1      37.509  32.633  31.851  1.00  0.00     0.037 A 
ATOM     52  C   UNL A   1      42.750  29.227  35.044  1.00  0.00     0.037 A 
ATOM     53  C   UNL A   1      37.849  33.125  33.159  1.00  0.00     0.049 A 
ATOM     54  C   UNL A   1      42.056  30.395  35.687  1.00  0.00     0.074 A 
ATOM     55  C   UNL A   1      37.262  34.155  33.872  1.00  0.00     0.029 A 
ATOM     56  N   UNL A   1      38.861  32.609  33.956  1.00  0.00    -0.354 N 
ATOM     57  N   UNL A   1      41.059  31.113  35.228  1.00  0.00    -0.248 NA
ATOM     58  C   UNL A   1      42.544  30.812  37.009  1.00  0.00     0.031 C 
ATOM     59  C   UNL A   1      37.935  34.277  35.093  1.00  0.00     0.029 A 
ATOM     60  C   UNL A   1      38.921  33.304  35.152  1.00  0.00     0.049 A 
ATOM     61  H   UNL A   1      39.450  31.861  33.708  1.00  0.00     0.167 HD
ATOM     62  C   UNL A   1      40.785  32.054  36.213  1.00  0.00     0.074 A 
ATOM     63  C   UNL A   1      41.716  31.808  37.296  1.00  0.00     0.031 C 
ATOM     64  C   UNL A   1      39.849  33.034  36.220  1.00  0.00     0.037 A 
BRANCH  51  65
ATOM     65  C   UNL A   1      36.424  33.328  31.079  1.00  0.00     0.058 A 
ATOM     66  C   UNL A   1      36.715  34.143  29.973  1.00  0.00     0.135 A 
ATOM     67  C   UNL A   1      35.076  33.175  31.442  1.00  0.00     0.135 A 
ATOM     68  F   UNL A   1      37.987  34.336  29.593  1.00  0.00    -0.206 F 
ATOM     69  C   UNL A   1      35.713  34.812  29.278  1.00  0.00     0.059 A 
ATOM     70  C   UNL A   1      34.055  33.815  30.745  1.00  0.00     0.059 A 
ATOM     71  F   UNL A   1      34.741  32.409  32.492  1.00  0.00    -0.206 F 
ATOM     72  C   UNL A   1      34.386  34.647  29.677  1.00  0.00     0.060 A 
BRANCH  72  73
ATOM     73  S   UNL A   1      33.097  35.535  28.777  1.00  0.00     0.124 S 
ATOM     74  O   UNL A   1      32.301  36.078  29.873  1.00  0.00    -0.237 OA
ATOM     75  O   UNL A   1      33.863  36.510  28.008  1.00  0.00    -0.237 OA
ATOM     76  O   UNL A   1      32.452  34.489  27.990  1.00  0.00    -0.744 OA
ENDBRANCH  72  73
ENDBRANCH  51  65
BRANCH  52  77
ATOM     77  C   UNL A   1      43.875  28.536  35.727  1.00  0.00     0.058 A 
ATOM     78  C   UNL A   1      43.628  27.476  36.610  1.00  0.00     0.135 A 
ATOM     79  C   UNL A   1      45.210  28.897  35.491  1.00  0.00     0.135 A 
ATOM     80  F   UNL A   1      42.367  27.098  36.869  1.00  0.00    -0.206 F 
ATOM     81  C   UNL A   1      44.664  26.803  37.248  1.00  0.00     0.059 A 
ATOM     82  C   UNL A   1      46.265  28.225  36.101  1.00  0.00     0.059 A 
ATOM     83  F   UNL A   1      45.497  29.892  34.638  1.00  0.00    -0.206 F 
ATOM     84  C   UNL A   1      45.981  27.185  36.984  1.00  0.00     0.060 A 
BRANCH  84  85
ATOM     85  S   UNL A   1      47.323  26.264  37.770  1.00  0.00     0.124 S 
ATOM     86  O   UNL A   1      47.054  24.906  37.313  1.00  0.00    -0.237 OA
ATOM     87  O   UNL A   1      48.508  26.906  37.208  1.00  0.00    -0.237 OA
ATOM     88  O   UNL A   1      47.106  26.508  39.193  1.00  0.00    -0.744 OA
ENDBRANCH  84  85
ENDBRANCH  52  77
BRANCH  64  89
ATOM     89  C   UNL A   1      39.763  33.894  37.447  1.00  0.00     0.058 A 
ATOM     90  C   UNL A   1      40.455  35.110  37.538  1.00  0.00     0.135 A 
ATOM     91  C   UNL A   1      38.928  33.527  38.514  1.00  0.00     0.135 A 
ATOM     92  F   UNL A   1      41.271  35.499  36.546  1.00  0.00    -0.206 F 
ATOM     93  C   UNL A   1      40.330  35.932  38.653  1.00  0.00     0.059 A 
ATOM     94  C   UNL A   1      38.772  34.343  39.630  1.00  0.00     0.059 A 
ATOM     95  F   UNL A   1      38.239  32.375  38.469  1.00  0.00    -0.206 F 
ATOM     96  C   UNL A   1      39.484  35.540  39.693  1.00  0.00     0.060 A 
BRANCH  96  97
ATOM     97  S   UNL A   1      39.290  36.638  41.113  1.00  0.00     0.124 S 
ATOM     98  O   UNL A   1      38.209  35.984  41.844  1.00  0.00    -0.237 OA
ATOM     99  O   UNL A   1      40.607  36.579  41.739  1.00  0.00    -0.237 OA
ATOM    100  O   UNL A   1      38.951  37.921  40.504  1.00  0.00    -0.744 OA
ENDBRANCH  96  97
ENDBRANCH  64  89
ENDBRANCH  38  39
ENDBRANCH  30  33
ENDBRANCH  28  29
ENDBRANCH   1  28
TORSDOF 16
ENDMDL
MODEL 2
REMARK VINA RESULT:     -12.4      0.779      8.232
REMARK SMILES CC[C@H]1CCCCN1S(=O)(=O)c1ccc2oc(C(=O)NCCCNC(=O)c3ccc(-c4c5nc(c(-c6c(F)cc(S(=O)(=O)[O-])cc6F)c6ccc([nH]6)c(-c6c(F)cc(S(=O)(=O)[O-])cc6F)c6nc(c(-c7c(F)cc(S(=O)(=O)[O-])cc7F)c7ccc4[nH]7)C=C6)C=C5)cc3)c(C)c2c1
REMARK SMILES IDX 22 1 21 2 20 3 18 4 19 5 17 7 12 8 13 9 96 10 14 11 95 12
REMARK SMILES IDX 15 13 93 14 16 15 94 16 9 17 10 18 11 19 8 20 3 21 4 22 5 23
REMARK SMILES IDX 7 24 6 25 2 26 1 27 23 28 24 29 25 30 26 32 27 33 28 34
REMARK SMILES IDX 92 35 29 36 91 37 30 38 31 39 32 40 85 41 33 42 90 43 84 44
REMARK SMILES IDX 86 45 34 46 89 47 83 48 82 49 35 51 69 52 48 53 68 54 49 55
REMARK SMILES IDX 52 56 67 57 87 58 50 59 51 60 66 62 88 63 53 64 36 65 37 66
REMARK SMILES IDX 46 67 38 68 39 69 45 70 47 71 40 72 41 73 42 74 43 75 44 76
REMARK SMILES IDX 70 77 71 78 80 79 72 80 73 81 79 82 81 83 74 84 75 85 76 86
REMARK SMILES IDX 77 87 78 88 54 89 55 90 64 91 56 92 57 93 63 94 65 95 58 96
REMARK SMILES IDX 59 97 60 98 61 99 62 100
REMARK H PARENT 20 6 24 31 86 50 52 61
REMARK Flexibility Score: inf
ROOT
ATOM      1  C   UNL A   1      39.743  21.985  26.812  1.00  0.00     0.042 C 
ENDROOT
BRANCH   1   2
ATOM      2  C   UNL A   1      38.560  22.316  25.911  1.00  0.00     0.118 C 
BRANCH   2   3
ATOM      3  N   UNL A   1      37.785  21.158  25.554  1.00  0.00    -0.349 N 
ATOM      4  C   UNL A   1      36.484  20.965  25.163  1.00  0.00     0.287 C 
ATOM      5  O   UNL A   1      36.278  19.819  24.742  1.00  0.00    -0.266 OA
ATOM      6  H   UNL A   1      38.300  20.320  25.601  1.00  0.00     0.163 HD
BRANCH   4   7
ATOM      7  C   UNL A   1      35.411  21.952  25.239  1.00  0.00     0.195 A 
ATOM      8  C   UNL A   1      32.089  25.094  24.855  1.00  0.00     0.083 A 
ATOM      9  C   UNL A   1      32.760  25.327  23.649  1.00  0.00     0.025 A 
ATOM     10  C   UNL A   1      32.434  24.013  25.669  1.00  0.00     0.034 A 
ATOM     11  C   UNL A   1      33.832  24.505  23.260  1.00  0.00     0.049 A 
ATOM     12  C   UNL A   1      33.615  23.319  25.389  1.00  0.00     0.025 A 
ATOM     13  C   UNL A   1      34.239  23.541  24.183  1.00  0.00     0.135 A 
ATOM     14  C   UNL A   1      34.445  22.425  26.135  1.00  0.00     0.008 A 
ATOM     15  O   UNL A   1      35.280  22.686  24.064  1.00  0.00    -0.451 OA
ATOM     16  C   UNL A   1      34.212  22.219  27.588  1.00  0.00     0.049 C 
BRANCH   8  17
ATOM     17  S   UNL A   1      30.694  26.069  25.358  1.00  0.00     0.243 S 
ATOM     18  O   UNL A   1      30.303  25.520  26.635  1.00  0.00    -0.207 OA
ATOM     19  O   UNL A   1      29.753  26.082  24.254  1.00  0.00    -0.207 OA
BRANCH  17  20
ATOM     20  N   UNL A   1      31.212  27.693  25.559  1.00  0.00    -0.195 NA
ATOM     21  C   UNL A   1      32.132  27.937  26.721  1.00  0.00     0.073 C 
ATOM     22  C   UNL A   1      31.786  29.342  27.267  1.00  0.00     0.020 C 
ATOM     23  C   UNL A   1      31.952  30.433  26.205  1.00  0.00     0.003 C 
ATOM     24  C   UNL A   1      31.424  28.645  24.452  1.00  0.00     0.103 C 
ATOM     25  C   UNL A   1      31.193  30.081  24.933  1.00  0.00     0.017 C 
BRANCH  21  26
ATOM     26  C   UNL A   1      33.650  27.870  26.415  1.00  0.00     0.017 C 
ATOM     27  C   UNL A   1      34.586  28.796  27.168  1.00  0.00     0.005 C 
ENDBRANCH  21  26
ENDBRANCH  17  20
ENDBRANCH   8  17
ENDBRANCH   4   7
ENDBRANCH   2   3
ENDBRANCH   1   2
BRANCH   1  28
ATOM     28  C   UNL A   1      40.450  23.242  27.311  1.00  0.00     0.118 C 
BRANCH  28  29
ATOM     29  N   UNL A   1      41.009  24.026  26.210  1.00  0.00    -0.352 N 
ATOM     30  C   UNL A   1      41.228  25.375  26.075  1.00  0.00     0.251 C 
ATOM     31  H   UNL A   1      41.276  23.492  25.427  1.00  0.00     0.163 HD
ATOM     32  O   UNL A   1      41.457  25.834  24.959  1.00  0.00    -0.269 OA
BRANCH  30  33
ATOM     33  C   UNL A   1      41.179  26.271  27.249  1.00  0.00     0.039 A 
ATOM     34  C   UNL A   1      42.181  27.231  27.421  1.00  0.00     0.014 A 
ATOM     35  C   UNL A   1      40.168  26.144  28.201  1.00  0.00     0.014 A 
ATOM     36  C   UNL A   1      42.119  28.115  28.502  1.00  0.00     0.010 A 
ATOM     37  C   UNL A   1      40.050  27.085  29.217  1.00  0.00     0.010 A 
ATOM     38  C   UNL A   1      41.025  28.079  29.381  1.00  0.00    -0.014 A 
BRANCH  38  39
ATOM     39  C   UNL A   1      40.867  29.054  30.490  1.00  0.00     0.031 A 
ATOM     40  C   UNL A   1      41.728  28.934  31.718  1.00  0.00     0.074 A 
ATOM     41  C   UNL A   1      39.881  29.970  30.438  1.00  0.00     0.049 A 
ATOM     42  N   UNL A   1      41.630  29.559  32.862  1.00  0.00    -0.248 NA
ATOM     43  C   UNL A   1      42.821  27.947  31.666  1.00  0.00     0.031 C 
ATOM     44  C   UNL A   1      38.946  30.153  29.324  1.00  0.00     0.029 A 
ATOM     45  N   UNL A   1      39.484  30.910  31.357  1.00  0.00    -0.354 N 
ATOM     46  C   UNL A   1      42.615  29.013  33.677  1.00  0.00     0.074 A 
ATOM     47  C   UNL A   1      43.272  27.977  32.912  1.00  0.00     0.031 C 
ATOM     48  C   UNL A   1      38.103  31.156  29.615  1.00  0.00     0.029 A 
ATOM     49  C   UNL A   1      38.404  31.658  30.952  1.00  0.00     0.049 A 
ATOM     50  H   UNL A   1      39.931  31.035  32.226  1.00  0.00     0.167 HD
ATOM     51  C   UNL A   1      42.957  29.361  34.941  1.00  0.00     0.037 A 
ATOM     52  C   UNL A   1      37.725  32.628  31.592  1.00  0.00     0.037 A 
ATOM     53  C   UNL A   1      42.337  30.432  35.674  1.00  0.00     0.049 A 
ATOM     54  C   UNL A   1      38.143  33.020  32.981  1.00  0.00     0.074 A 
ATOM     55  C   UNL A   1      42.657  30.914  36.931  1.00  0.00     0.029 A 
ATOM     56  N   UNL A   1      41.278  31.197  35.207  1.00  0.00    -0.354 N 
ATOM     57  N   UNL A   1      39.105  32.521  33.721  1.00  0.00    -0.248 NA
ATOM     58  C   UNL A   1      37.387  34.105  33.621  1.00  0.00     0.031 C 
ATOM     59  C   UNL A   1      41.775  31.957  37.234  1.00  0.00     0.029 A 
ATOM     60  C   UNL A   1      40.926  32.144  36.154  1.00  0.00     0.049 A 
ATOM     61  H   UNL A   1      40.841  31.083  34.334  1.00  0.00     0.167 HD
ATOM     62  C   UNL A   1      39.083  33.245  34.907  1.00  0.00     0.074 A 
ATOM     63  C   UNL A   1      38.019  34.221  34.782  1.00  0.00     0.031 C 
ATOM     64  C   UNL A   1      39.871  33.113  36.002  1.00  0.00     0.037 A 
BRANCH  51  65
ATOM     65  C   UNL A   1      44.061  28.581  35.598  1.00  0.00     0.058 A 
ATOM     66  C   UNL A   1      43.791  27.471  36.415  1.00  0.00     0.135 A 
ATOM     67  C   UNL A   1      45.404  28.941  35.405  1.00  0.00     0.135 A 
ATOM     68  F   UNL A   1      42.524  27.094  36.645  1.00  0.00    -0.206 F 
ATOM     69  C   UNL A   1      44.811  26.770  37.048  1.00  0.00     0.059 A 
ATOM     70  C   UNL A   1      46.443  28.237  36.008  1.00  0.00     0.059 A 
ATOM     71  F   UNL A   1      45.718  29.994  34.635  1.00  0.00    -0.206 F 
ATOM     72  C   UNL A   1      46.134  27.165  36.845  1.00  0.00     0.060 A 
BRANCH  72  73
ATOM     73  S   UNL A   1      47.447  26.255  37.687  1.00  0.00     0.124 S 
ATOM     74  O   UNL A   1      48.534  26.355  36.717  1.00  0.00    -0.237 OA
ATOM     75  O   UNL A   1      47.623  27.022  38.916  1.00  0.00    -0.237 OA
ATOM     76  O   UNL A   1      46.878  24.923  37.860  1.00  0.00    -0.744 OA
ENDBRANCH  72  73
ENDBRANCH  51  65
BRANCH  52  77
ATOM     77  C   UNL A   1      36.597  33.316  30.910  1.00  0.00     0.058 A 
ATOM     78  C   UNL A   1      35.277  33.109  31.334  1.00  0.00     0.135 A 
ATOM     79  C   UNL A   1      36.814  34.208  29.849  1.00  0.00     0.135 A 
ATOM     80  F   UNL A   1      35.021  32.263  32.343  1.00  0.00    -0.206 F 
ATOM     81  C   UNL A   1      34.207  33.754  30.724  1.00  0.00     0.059 A 
ATOM     82  C   UNL A   1      35.762  34.880  29.236  1.00  0.00     0.059 A 
ATOM     83  F   UNL A   1      38.062  34.452  29.421  1.00  0.00    -0.206 F 
ATOM     84  C   UNL A   1      34.460  34.640  29.675  1.00  0.00     0.060 A 
BRANCH  84  85
ATOM     85  S   UNL A   1      33.069  35.519  28.929  1.00  0.00     0.124 S 
ATOM     86  O   UNL A   1      33.754  36.543  28.150  1.00  0.00    -0.237 OA
ATOM     87  O   UNL A   1      32.413  34.465  28.163  1.00  0.00    -0.237 OA
ATOM     88  O   UNL A   1      32.320  35.999  30.087  1.00  0.00    -0.744 OA
ENDBRANCH  84  85
ENDBRANCH  52  77
BRANCH  64  89
ATOM     89  C   UNL A   1      39.635  34.064  37.139  1.00  0.00     0.058 A 
ATOM     90  C   UNL A   1      38.905  33.682  38.274  1.00  0.00     0.135 A 
ATOM     91  C   UNL A   1      40.200  35.349  37.118  1.00  0.00     0.135 A 
ATOM     92  F   UNL A   1      38.339  32.466  38.335  1.00  0.00    -0.206 F 
ATOM     93  C   UNL A   1      38.735  34.547  39.349  1.00  0.00     0.059 A 
ATOM     94  C   UNL A   1      40.060  36.223  38.191  1.00  0.00     0.059 A 
ATOM     95  F   UNL A   1      40.914  35.757  36.056  1.00  0.00    -0.206 F 
ATOM     96  C   UNL A   1      39.318  35.815  39.299  1.00  0.00     0.060 A 
BRANCH  96  97
ATOM     97  S   UNL A   1      39.133  36.911  40.722  1.00  0.00     0.124 S 
ATOM     98  O   UNL A   1      38.270  37.954  40.177  1.00  0.00    -0.237 OA
ATOM     99  O   UNL A   1      38.522  36.035  41.716  1.00  0.00    -0.237 OA
ATOM    100  O   UNL A   1      40.505  37.318  41.014  1.00  0.00    -0.744 OA
ENDBRANCH  96  97
ENDBRANCH  64  89
ENDBRANCH  38  39
ENDBRANCH  30  33
ENDBRANCH  28  29
ENDBRANCH   1  28
TORSDOF 16
ENDMDL
MODEL 3
REMARK VINA RESULT:     -12.3      4.920     11.768
REMARK SMILES CC[C@H]1CCCCN1S(=O)(=O)c1ccc2oc(C(=O)NCCCNC(=O)c3ccc(-c4c5nc(c(-c6c(F)cc(S(=O)(=O)[O-])cc6F)c6ccc([nH]6)c(-c6c(F)cc(S(=O)(=O)[O-])cc6F)c6nc(c(-c7c(F)cc(S(=O)(=O)[O-])cc7F)c7ccc4[nH]7)C=C6)C=C5)cc3)c(C)c2c1
REMARK SMILES IDX 22 1 21 2 20 3 18 4 19 5 17 7 12 8 13 9 96 10 14 11 95 12
REMARK SMILES IDX 15 13 93 14 16 15 94 16 9 17 10 18 11 19 8 20 3 21 4 22 5 23
REMARK SMILES IDX 7 24 6 25 2 26 1 27 23 28 24 29 25 30 26 32 27 33 28 34
REMARK SMILES IDX 92 35 29 36 91 37 30 38 31 39 32 40 85 41 33 42 90 43 84 44
REMARK SMILES IDX 86 45 34 46 89 47 83 48 82 49 35 51 69 52 48 53 68 54 49 55
REMARK SMILES IDX 52 56 67 57 87 58 50 59 51 60 66 62 88 63 53 64 36 65 37 66
REMARK SMILES IDX 46 67 38 68 39 69 45 70 47 71 40 72 41 73 42 74 43 75 44 76
REMARK SMILES IDX 70 77 71 78 80 79 72 80 73 81 79 82 81 83 74 84 75 85 76 86
REMARK SMILES IDX 77 87 78 88 54 89 55 90 64 91 56 92 57 93 63 94 65 95 58 96
REMARK SMILES IDX 59 97 60 98 61 99 62 100
REMARK H PARENT 20 6 24 31 86 50 52 61
REMARK Flexibility Score: inf
ROOT
ATOM      1  C   UNL A   1      35.874  33.112  29.470  1.00  0.00     0.042 C 
ENDROOT
BRANCH   1   2
ATOM      2  C   UNL A   1      36.804  33.350  30.654  1.00  0.00     0.118 C 
BRANCH   2   3
ATOM      3  N   UNL A   1      36.156  33.157  31.924  1.00  0.00    -0.349 N 
ATOM      4  C   UNL A   1      36.543  32.602  33.117  1.00  0.00     0.287 C 
ATOM      5  O   UNL A   1      35.741  32.831  34.032  1.00  0.00    -0.266 OA
ATOM      6  H   UNL A   1      35.232  33.496  31.940  1.00  0.00     0.163 HD
BRANCH   4   7
ATOM      7  C   UNL A   1      37.741  31.797  33.339  1.00  0.00     0.195 A 
ATOM      8  C   UNL A   1      41.275  28.883  33.599  1.00  0.00     0.083 A 
ATOM      9  C   UNL A   1      40.319  28.027  33.039  1.00  0.00     0.025 A 
ATOM     10  C   UNL A   1      41.015  30.246  33.751  1.00  0.00     0.034 A 
ATOM     11  C   UNL A   1      39.055  28.518  32.669  1.00  0.00     0.049 A 
ATOM     12  C   UNL A   1      39.703  30.697  33.571  1.00  0.00     0.025 A 
ATOM     13  C   UNL A   1      38.790  29.850  32.990  1.00  0.00     0.135 A 
ATOM     14  C   UNL A   1      39.000  31.885  33.943  1.00  0.00     0.008 A 
ATOM     15  O   UNL A   1      37.631  30.520  32.796  1.00  0.00    -0.451 OA
ATOM     16  C   UNL A   1      39.626  32.874  34.859  1.00  0.00     0.049 C 
BRANCH   8  17
ATOM     17  S   UNL A   1      42.902  28.319  34.027  1.00  0.00     0.243 S 
ATOM     18  O   UNL A   1      43.330  29.203  35.085  1.00  0.00    -0.207 OA
ATOM     19  O   UNL A   1      43.669  28.233  32.798  1.00  0.00    -0.207 OA
BRANCH  17  20
ATOM     20  N   UNL A   1      42.780  26.715  34.625  1.00  0.00    -0.195 NA
ATOM     21  C   UNL A   1      44.029  25.888  34.516  1.00  0.00     0.073 C 
ATOM     22  C   UNL A   1      43.573  24.438  34.232  1.00  0.00     0.020 C 
ATOM     23  C   UNL A   1      42.657  23.894  35.332  1.00  0.00     0.003 C 
ATOM     24  C   UNL A   1      41.923  26.309  35.756  1.00  0.00     0.103 C 
ATOM     25  C   UNL A   1      41.499  24.844  35.603  1.00  0.00     0.017 C 
BRANCH  21  26
ATOM     26  C   UNL A   1      44.962  25.895  35.753  1.00  0.00     0.017 C 
ATOM     27  C   UNL A   1      46.214  26.750  35.716  1.00  0.00     0.005 C 
ENDBRANCH  21  26
ENDBRANCH  17  20
ENDBRANCH   8  17
ENDBRANCH   4   7
ENDBRANCH   2   3
ENDBRANCH   1   2
BRANCH   1  28
ATOM     28  C   UNL A   1      34.602  32.377  29.883  1.00  0.00     0.118 C 
BRANCH  28  29
ATOM     29  N   UNL A   1      34.058  31.572  28.790  1.00  0.00    -0.352 N 
ATOM     30  C   UNL A   1      34.659  30.691  27.926  1.00  0.00     0.251 C 
ATOM     31  H   UNL A   1      33.090  31.680  28.649  1.00  0.00     0.163 HD
ATOM     32  O   UNL A   1      34.054  30.337  26.918  1.00  0.00    -0.269 OA
BRANCH  30  33
ATOM     33  C   UNL A   1      36.020  30.180  28.191  1.00  0.00     0.039 A 
ATOM     34  C   UNL A   1      37.013  30.336  27.217  1.00  0.00     0.014 A 
ATOM     35  C   UNL A   1      36.313  29.514  29.381  1.00  0.00     0.014 A 
ATOM     36  C   UNL A   1      38.315  29.899  27.477  1.00  0.00     0.010 A 
ATOM     37  C   UNL A   1      37.626  29.172  29.679  1.00  0.00     0.010 A 
ATOM     38  C   UNL A   1      38.642  29.357  28.729  1.00  0.00    -0.014 A 
BRANCH  38  39
ATOM     39  C   UNL A   1      40.028  28.964  29.085  1.00  0.00     0.031 A 
ATOM     40  C   UNL A   1      40.953  29.973  29.710  1.00  0.00     0.074 A 
ATOM     41  C   UNL A   1      40.485  27.743  28.745  1.00  0.00     0.049 A 
ATOM     42  N   UNL A   1      42.240  29.893  29.927  1.00  0.00    -0.248 NA
ATOM     43  C   UNL A   1      40.358  31.261  30.105  1.00  0.00     0.031 C 
ATOM     44  C   UNL A   1      39.700  26.694  28.088  1.00  0.00     0.029 A 
ATOM     45  N   UNL A   1      41.730  27.182  28.885  1.00  0.00    -0.354 N 
ATOM     46  C   UNL A   1      42.614  31.128  30.442  1.00  0.00     0.074 A 
ATOM     47  C   UNL A   1      41.428  31.955  30.464  1.00  0.00     0.031 C 
ATOM     48  C   UNL A   1      40.474  25.612  27.904  1.00  0.00     0.029 A 
ATOM     49  C   UNL A   1      41.820  25.904  28.387  1.00  0.00     0.049 A 
ATOM     50  H   UNL A   1      42.487  27.652  29.304  1.00  0.00     0.167 HD
ATOM     51  C   UNL A   1      43.832  31.531  30.879  1.00  0.00     0.037 A 
ATOM     52  C   UNL A   1      42.873  25.068  28.314  1.00  0.00     0.037 A 
ATOM     53  C   UNL A   1      44.994  30.683  30.908  1.00  0.00     0.049 A 
ATOM     54  C   UNL A   1      44.207  25.523  28.836  1.00  0.00     0.074 A 
ATOM     55  C   UNL A   1      46.256  30.969  31.398  1.00  0.00     0.029 A 
ATOM     56  N   UNL A   1      45.030  29.379  30.438  1.00  0.00    -0.354 N 
ATOM     57  N   UNL A   1      44.533  26.682  29.357  1.00  0.00    -0.248 NA
ATOM     58  C   UNL A   1      45.314  24.561  28.759  1.00  0.00     0.031 C 
ATOM     59  C   UNL A   1      47.063  29.841  31.203  1.00  0.00     0.029 A 
ATOM     60  C   UNL A   1      46.295  28.846  30.619  1.00  0.00     0.049 A 
ATOM     61  H   UNL A   1      44.270  28.903  30.034  1.00  0.00     0.167 HD
ATOM     62  C   UNL A   1      45.878  26.581  29.691  1.00  0.00     0.074 A 
ATOM     63  C   UNL A   1      46.302  25.247  29.320  1.00  0.00     0.031 C 
ATOM     64  C   UNL A   1      46.690  27.510  30.252  1.00  0.00     0.037 A 
BRANCH  51  65
ATOM     65  C   UNL A   1      43.957  32.944  31.373  1.00  0.00     0.058 A 
ATOM     66  C   UNL A   1      43.696  33.282  32.711  1.00  0.00     0.135 A 
ATOM     67  C   UNL A   1      44.349  33.975  30.503  1.00  0.00     0.135 A 
ATOM     68  F   UNL A   1      43.303  32.338  33.581  1.00  0.00    -0.206 F 
ATOM     69  C   UNL A   1      43.780  34.595  33.160  1.00  0.00     0.059 A 
ATOM     70  C   UNL A   1      44.466  35.292  30.937  1.00  0.00     0.059 A 
ATOM     71  F   UNL A   1      44.610  33.708  29.214  1.00  0.00    -0.206 F 
ATOM     72  C   UNL A   1      44.159  35.595  32.263  1.00  0.00     0.060 A 
BRANCH  72  73
ATOM     73  S   UNL A   1      44.249  37.298  32.855  1.00  0.00     0.124 S 
ATOM     74  O   UNL A   1      43.840  38.039  31.666  1.00  0.00    -0.237 OA
ATOM     75  O   UNL A   1      43.296  37.298  33.960  1.00  0.00    -0.237 OA
ATOM     76  O   UNL A   1      45.648  37.449  33.240  1.00  0.00    -0.744 OA
ENDBRANCH  72  73
ENDBRANCH  51  65
BRANCH  52  77
ATOM     77  C   UNL A   1      42.697  23.704  27.751  1.00  0.00     0.058 A 
ATOM     78  C   UNL A   1      42.513  22.602  28.599  1.00  0.00     0.135 A 
ATOM     79  C   UNL A   1      42.682  23.477  26.367  1.00  0.00     0.135 A 
ATOM     80  F   UNL A   1      42.524  22.771  29.930  1.00  0.00    -0.206 F 
ATOM     81  C   UNL A   1      42.331  21.319  28.096  1.00  0.00     0.059 A 
ATOM     82  C   UNL A   1      42.480  22.205  25.840  1.00  0.00     0.059 A 
ATOM     83  F   UNL A   1      42.835  24.502  25.515  1.00  0.00    -0.206 F 
ATOM     84  C   UNL A   1      42.313  21.131  26.713  1.00  0.00     0.060 A 
BRANCH  84  85
ATOM     85  S   UNL A   1      42.014  19.470  26.068  1.00  0.00     0.124 S 
ATOM     86  O   UNL A   1      42.897  19.442  24.909  1.00  0.00    -0.237 OA
ATOM     87  O   UNL A   1      42.408  18.627  27.193  1.00  0.00    -0.237 OA
ATOM     88  O   UNL A   1      40.583  19.479  25.775  1.00  0.00    -0.744 OA
ENDBRANCH  84  85
ENDBRANCH  52  77
BRANCH  64  89
ATOM     89  C   UNL A   1      48.109  27.107  30.529  1.00  0.00     0.058 A 
ATOM     90  C   UNL A   1      49.111  27.243  29.557  1.00  0.00     0.135 A 
ATOM     91  C   UNL A   1      48.481  26.641  31.799  1.00  0.00     0.135 A 
ATOM     92  F   UNL A   1      48.803  27.677  28.324  1.00  0.00    -0.206 F 
ATOM     93  C   UNL A   1      50.436  26.921  29.833  1.00  0.00     0.059 A 
ATOM     94  C   UNL A   1      49.801  26.332  32.104  1.00  0.00     0.059 A 
ATOM     95  F   UNL A   1      47.557  26.501  32.765  1.00  0.00    -0.206 F 
ATOM     96  C   UNL A   1      50.771  26.468  31.111  1.00  0.00     0.060 A 
BRANCH  96  97
ATOM     97  S   UNL A   1      52.501  26.100  31.473  1.00  0.00     0.124 S 
ATOM     98  O   UNL A   1      52.409  24.737  31.986  1.00  0.00    -0.237 OA
ATOM     99  O   UNL A   1      53.134  26.246  30.167  1.00  0.00    -0.237 OA
ATOM    100  O   UNL A   1      52.863  27.118  32.455  1.00  0.00    -0.744 OA
ENDBRANCH  96  97
ENDBRANCH  64  89
ENDBRANCH  38  39
ENDBRANCH  30  33
ENDBRANCH  28  29
ENDBRANCH   1  28
TORSDOF 16
ENDMDL
