MODEL 1
REMARK VINA RESULT:      -9.2      0.000      0.000
REMARK SMILES O=C(COc1ccc(/C=C/C(=O)c2ccc(F)cc2F)cc1[N+](=O)[O-])NCCCNC(=O)c1ccc(-c2c3nc(c(-c4c(F)cc(S(=O)(=O)[O-])cc4F)c4ccc([nH]4)c(-c4c(F)cc(S(=O)(=O)[O-])cc4F)c4nc(c(-c5c(F)cc(S(=O)(=O)[O-])cc5F)c5ccc2[nH]5)C=C4)C=C3)cc1
REMARK SMILES IDX 27 1 26 2 1 3 2 4 3 6 4 7 5 8 6 9 22 10 7 11 21 12 8 13
REMARK SMILES IDX 23 14 24 15 25 16 9 17 10 18 11 19 12 20 13 21 14 22 19 23
REMARK SMILES IDX 15 24 18 25 20 26 16 27 17 28 28 29 29 30 30 31 31 32 32 34
REMARK SMILES IDX 33 35 34 36 98 37 35 38 97 39 36 40 37 41 38 42 91 43 39 44
REMARK SMILES IDX 96 45 90 46 92 47 40 48 95 49 89 50 88 51 41 53 75 54 54 55
REMARK SMILES IDX 74 56 55 57 58 58 73 59 93 60 56 61 57 62 72 64 94 65 59 66
REMARK SMILES IDX 42 67 43 68 52 69 44 70 45 71 51 72 53 73 46 74 47 75 48 76
REMARK SMILES IDX 49 77 50 78 76 79 77 80 86 81 78 82 79 83 85 84 87 85 80 86
REMARK SMILES IDX 81 87 82 88 83 89 84 90 60 91 61 92 70 93 62 94 63 95 69 96
REMARK SMILES IDX 71 97 64 98 65 99 66 100 67 101 68 102
REMARK H PARENT 26 5 30 33 92 52 58 63
REMARK Flexibility Score: inf
ROOT
ATOM      1  C   UNL A   1      34.428  34.546  30.469  1.00  0.00     0.117 C 
ENDROOT
BRANCH   1   2
ATOM      2  N   UNL A   1      35.370  33.754  31.240  1.00  0.00    -0.353 N 
ATOM      3  O   UNL A   1      33.828  32.648  32.549  1.00  0.00    -0.271 OA
ATOM      4  C   UNL A   1      34.976  32.780  32.134  1.00  0.00     0.257 C 
ATOM      5  H   UNL A   1      36.333  33.919  31.119  1.00  0.00     0.163 HD
BRANCH   4   6
ATOM      6  C   UNL A   1      36.108  31.847  32.574  1.00  0.00     0.329 C 
BRANCH   6   7
ATOM      7  O   UNL A   1      37.212  32.549  33.165  1.00  0.00    -0.477 OA
BRANCH   7   8
ATOM      8  C   UNL A   1      38.315  31.754  33.329  1.00  0.00     0.197 A 
ATOM      9  C   UNL A   1      38.211  30.398  33.008  1.00  0.00     0.054 A 
ATOM     10  C   UNL A   1      39.504  32.207  33.900  1.00  0.00     0.311 A 
ATOM     11  C   UNL A   1      39.298  29.531  33.220  1.00  0.00     0.012 A 
ATOM     12  C   UNL A   1      40.605  31.365  34.078  1.00  0.00     0.098 A 
ATOM     13  C   UNL A   1      40.501  30.012  33.751  1.00  0.00    -0.018 A 
BRANCH  10  14
ATOM     14  N   UNL A   1      39.626  33.547  34.425  1.00  0.00     0.066 N 
ATOM     15  O   UNL A   1      40.330  34.338  33.781  1.00  0.00    -0.258 OA
ATOM     16  O   UNL A   1      39.065  33.790  35.502  1.00  0.00    -0.258 OA
ENDBRANCH  10  14
BRANCH  13  17
ATOM     17  C   UNL A   1      41.686  29.184  34.000  1.00  0.00     0.012 C 
ATOM     18  C   UNL A   1      41.729  28.165  34.869  1.00  0.00     0.053 C 
BRANCH  18  19
ATOM     19  C   UNL A   1      42.989  27.441  35.185  1.00  0.00     0.188 C 
ATOM     20  O   UNL A   1      43.700  27.826  36.109  1.00  0.00    -0.289 OA
BRANCH  19  21
ATOM     21  C   UNL A   1      43.388  26.250  34.400  1.00  0.00     0.058 A 
ATOM     22  C   UNL A   1      44.070  26.443  33.191  1.00  0.00     0.018 A 
ATOM     23  C   UNL A   1      43.069  24.951  34.810  1.00  0.00     0.137 A 
ATOM     24  C   UNL A   1      44.462  25.338  32.431  1.00  0.00     0.040 A 
ATOM     25  C   UNL A   1      43.458  23.849  34.056  1.00  0.00     0.079 A 
ATOM     26  F   UNL A   1      42.372  24.735  35.934  1.00  0.00    -0.206 F 
ATOM     27  C   UNL A   1      44.157  24.053  32.873  1.00  0.00     0.126 A 
ATOM     28  F   UNL A   1      44.536  22.999  32.140  1.00  0.00    -0.207 F 
ENDBRANCH  19  21
ENDBRANCH  18  19
ENDBRANCH  13  17
ENDBRANCH   7   8
ENDBRANCH   6   7
ENDBRANCH   4   6
ENDBRANCH   1   2
BRANCH   1  29
ATOM     29  C   UNL A   1      34.046  33.930  29.134  1.00  0.00     0.042 C 
BRANCH  29  30
ATOM     30  C   UNL A   1      34.865  32.718  28.707  1.00  0.00     0.118 C 
BRANCH  30  31
ATOM     31  N   UNL A   1      34.084  31.593  28.211  1.00  0.00    -0.352 N 
ATOM     32  C   UNL A   1      34.461  30.290  27.973  1.00  0.00     0.251 C 
ATOM     33  H   UNL A   1      33.141  31.796  28.015  1.00  0.00     0.163 HD
ATOM     34  O   UNL A   1      33.641  29.501  27.508  1.00  0.00    -0.269 OA
BRANCH  32  35
ATOM     35  C   UNL A   1      35.852  29.835  28.224  1.00  0.00     0.039 A 
ATOM     36  C   UNL A   1      36.787  29.948  27.190  1.00  0.00     0.014 A 
ATOM     37  C   UNL A   1      36.250  29.307  29.455  1.00  0.00     0.014 A 
ATOM     38  C   UNL A   1      38.126  29.616  27.416  1.00  0.00     0.010 A 
ATOM     39  C   UNL A   1      37.600  29.060  29.706  1.00  0.00     0.010 A 
ATOM     40  C   UNL A   1      38.556  29.214  28.692  1.00  0.00    -0.014 A 
BRANCH  40  41
ATOM     41  C   UNL A   1      39.998  28.977  28.976  1.00  0.00     0.031 A 
ATOM     42  C   UNL A   1      40.645  27.662  28.630  1.00  0.00     0.074 A 
ATOM     43  C   UNL A   1      40.717  29.932  29.600  1.00  0.00     0.049 A 
ATOM     44  N   UNL A   1      41.881  27.274  28.820  1.00  0.00    -0.248 NA
ATOM     45  C   UNL A   1      39.785  26.636  28.019  1.00  0.00     0.031 C 
ATOM     46  C   UNL A   1      40.196  31.221  30.061  1.00  0.00     0.029 A 
ATOM     47  N   UNL A   1      42.043  29.968  29.958  1.00  0.00    -0.354 N 
ATOM     48  C   UNL A   1      41.944  25.962  28.368  1.00  0.00     0.074 A 
ATOM     49  C   UNL A   1      40.608  25.599  27.945  1.00  0.00     0.031 C 
ATOM     50  C   UNL A   1      41.196  31.933  30.606  1.00  0.00     0.029 A 
ATOM     51  C   UNL A   1      42.422  31.145  30.560  1.00  0.00     0.049 A 
ATOM     52  H   UNL A   1      42.663  29.221  29.799  1.00  0.00     0.167 HD
ATOM     53  C   UNL A   1      43.018  25.139  28.285  1.00  0.00     0.037 A 
ATOM     54  C   UNL A   1      43.624  31.550  31.014  1.00  0.00     0.037 A 
ATOM     55  C   UNL A   1      44.354  25.511  28.673  1.00  0.00     0.049 A 
ATOM     56  C   UNL A   1      44.813  30.640  30.864  1.00  0.00     0.074 A 
ATOM     57  C   UNL A   1      45.520  24.771  28.569  1.00  0.00     0.029 A 
ATOM     58  N   UNL A   1      44.706  26.730  29.235  1.00  0.00    -0.354 N 
ATOM     59  N   UNL A   1      44.865  29.427  30.368  1.00  0.00    -0.248 NA
ATOM     60  C   UNL A   1      46.108  31.162  31.319  1.00  0.00     0.031 C 
ATOM     61  C   UNL A   1      46.572  25.532  29.093  1.00  0.00     0.029 A 
ATOM     62  C   UNL A   1      46.068  26.759  29.490  1.00  0.00     0.049 A 
ATOM     63  H   UNL A   1      44.080  27.464  29.425  1.00  0.00     0.167 HD
ATOM     64  C   UNL A   1      46.201  29.050  30.430  1.00  0.00     0.074 A 
ATOM     65  C   UNL A   1      46.926  30.169  30.997  1.00  0.00     0.031 C 
ATOM     66  C   UNL A   1      46.776  27.882  30.053  1.00  0.00     0.037 A 
BRANCH  53  67
ATOM     67  C   UNL A   1      42.792  23.756  27.739  1.00  0.00     0.058 A 
ATOM     68  C   UNL A   1      42.849  23.494  26.360  1.00  0.00     0.135 A 
ATOM     69  C   UNL A   1      42.543  22.675  28.599  1.00  0.00     0.135 A 
ATOM     70  F   UNL A   1      43.070  24.493  25.490  1.00  0.00    -0.206 F 
ATOM     71  C   UNL A   1      42.634  22.218  25.851  1.00  0.00     0.059 A 
ATOM     72  C   UNL A   1      42.351  21.385  28.114  1.00  0.00     0.059 A 
ATOM     73  F   UNL A   1      42.481  22.867  29.926  1.00  0.00    -0.206 F 
ATOM     74  C   UNL A   1      42.381  21.169  26.736  1.00  0.00     0.060 A 
BRANCH  74  75
ATOM     75  S   UNL A   1      42.100  19.518  26.063  1.00  0.00     0.124 S 
ATOM     76  O   UNL A   1      40.652  19.525  25.873  1.00  0.00    -0.237 OA
ATOM     77  O   UNL A   1      42.897  19.537  24.840  1.00  0.00    -0.237 OA
ATOM     78  O   UNL A   1      42.592  18.634  27.114  1.00  0.00    -0.744 OA
ENDBRANCH  74  75
ENDBRANCH  53  67
BRANCH  54  79
ATOM     79  C   UNL A   1      43.774  32.904  31.610  1.00  0.00     0.058 A 
ATOM     80  C   UNL A   1      43.893  34.038  30.795  1.00  0.00     0.135 A 
ATOM     81  C   UNL A   1      43.789  33.092  33.001  1.00  0.00     0.135 A 
ATOM     82  F   UNL A   1      43.890  33.908  29.460  1.00  0.00    -0.206 F 
ATOM     83  C   UNL A   1      44.039  35.313  31.335  1.00  0.00     0.059 A 
ATOM     84  C   UNL A   1      43.912  34.358  33.565  1.00  0.00     0.059 A 
ATOM     85  F   UNL A   1      43.661  32.039  33.823  1.00  0.00    -0.206 F 
ATOM     86  C   UNL A   1      44.047  35.461  32.722  1.00  0.00     0.060 A 
BRANCH  86  87
ATOM     87  S   UNL A   1      44.188  37.124  33.415  1.00  0.00     0.124 S 
ATOM     88  O   UNL A   1      43.149  37.104  34.438  1.00  0.00    -0.237 OA
ATOM     89  O   UNL A   1      45.563  37.141  33.902  1.00  0.00    -0.237 OA
ATOM     90  O   UNL A   1      43.928  37.986  32.266  1.00  0.00    -0.744 OA
ENDBRANCH  86  87
ENDBRANCH  54  79
BRANCH  66  91
ATOM     91  C   UNL A   1      48.267  27.770  30.212  1.00  0.00     0.058 A 
ATOM     92  C   UNL A   1      48.845  27.227  31.370  1.00  0.00     0.135 A 
ATOM     93  C   UNL A   1      49.126  28.200  29.189  1.00  0.00     0.135 A 
ATOM     94  F   UNL A   1      48.068  26.804  32.379  1.00  0.00    -0.206 F 
ATOM     95  C   UNL A   1      50.226  27.149  31.524  1.00  0.00     0.059 A 
ATOM     96  C   UNL A   1      50.509  28.109  29.311  1.00  0.00     0.059 A 
ATOM     97  F   UNL A   1      48.624  28.716  28.055  1.00  0.00    -0.206 F 
ATOM     98  C   UNL A   1      51.050  27.599  30.491  1.00  0.00     0.060 A 
BRANCH  98  99
ATOM     99  S   UNL A   1      52.841  27.495  30.697  1.00  0.00     0.124 S 
ATOM    100  O   UNL A   1      53.130  26.200  30.090  1.00  0.00    -0.237 OA
ATOM    101  O   UNL A   1      53.313  28.661  29.956  1.00  0.00    -0.237 OA
ATOM    102  O   UNL A   1      53.019  27.566  32.144  1.00  0.00    -0.744 OA
ENDBRANCH  98  99
ENDBRANCH  66  91
ENDBRANCH  40  41
ENDBRANCH  32  35
ENDBRANCH  30  31
ENDBRANCH  29  30
ENDBRANCH   1  29
TORSDOF 19
ENDMDL
MODEL 2
REMARK VINA RESULT:      -9.2      1.116      8.102
REMARK SMILES O=C(COc1ccc(/C=C/C(=O)c2ccc(F)cc2F)cc1[N+](=O)[O-])NCCCNC(=O)c1ccc(-c2c3nc(c(-c4c(F)cc(S(=O)(=O)[O-])cc4F)c4ccc([nH]4)c(-c4c(F)cc(S(=O)(=O)[O-])cc4F)c4nc(c(-c5c(F)cc(S(=O)(=O)[O-])cc5F)c5ccc2[nH]5)C=C4)C=C3)cc1
REMARK SMILES IDX 27 1 26 2 1 3 2 4 3 6 4 7 5 8 6 9 22 10 7 11 21 12 8 13
REMARK SMILES IDX 23 14 24 15 25 16 9 17 10 18 11 19 12 20 13 21 14 22 19 23
REMARK SMILES IDX 15 24 18 25 20 26 16 27 17 28 28 29 29 30 30 31 31 32 32 34
REMARK SMILES IDX 33 35 34 36 98 37 35 38 97 39 36 40 37 41 38 42 91 43 39 44
REMARK SMILES IDX 96 45 90 46 92 47 40 48 95 49 89 50 88 51 41 53 75 54 54 55
REMARK SMILES IDX 74 56 55 57 58 58 73 59 93 60 56 61 57 62 72 64 94 65 59 66
REMARK SMILES IDX 42 67 43 68 52 69 44 70 45 71 51 72 53 73 46 74 47 75 48 76
REMARK SMILES IDX 49 77 50 78 76 79 77 80 86 81 78 82 79 83 85 84 87 85 80 86
REMARK SMILES IDX 81 87 82 88 83 89 84 90 60 91 61 92 70 93 62 94 63 95 69 96
REMARK SMILES IDX 71 97 64 98 65 99 66 100 67 101 68 102
REMARK H PARENT 26 5 30 33 92 52 58 63
REMARK Flexibility Score: inf
ROOT
ATOM      1  C   UNL A   1      37.102  33.813  29.411  1.00  0.00     0.117 C 
ENDROOT
BRANCH   1   2
ATOM      2  N   UNL A   1      37.393  32.927  30.523  1.00  0.00    -0.353 N 
ATOM      3  O   UNL A   1      37.893  34.555  32.077  1.00  0.00    -0.271 OA
ATOM      4  C   UNL A   1      37.648  33.384  31.800  1.00  0.00     0.257 C 
ATOM      5  H   UNL A   1      37.410  31.956  30.360  1.00  0.00     0.163 HD
BRANCH   4   6
ATOM      6  C   UNL A   1      37.590  32.293  32.874  1.00  0.00     0.329 C 
BRANCH   6   7
ATOM      7  O   UNL A   1      38.547  32.493  33.924  1.00  0.00    -0.477 OA
BRANCH   7   8
ATOM      8  C   UNL A   1      39.415  31.442  34.053  1.00  0.00     0.197 A 
ATOM      9  C   UNL A   1      39.330  30.393  33.134  1.00  0.00     0.054 A 
ATOM     10  C   UNL A   1      40.308  31.316  35.117  1.00  0.00     0.311 A 
ATOM     11  C   UNL A   1      40.157  29.264  33.264  1.00  0.00     0.012 A 
ATOM     12  C   UNL A   1      41.164  30.218  35.235  1.00  0.00     0.098 A 
ATOM     13  C   UNL A   1      41.082  29.173  34.312  1.00  0.00    -0.018 A 
BRANCH  10  14
ATOM     14  N   UNL A   1      40.326  32.267  36.204  1.00  0.00     0.066 N 
ATOM     15  O   UNL A   1      41.019  33.282  36.047  1.00  0.00    -0.258 OA
ATOM     16  O   UNL A   1      39.693  31.974  37.227  1.00  0.00    -0.258 OA
ENDBRANCH  10  14
BRANCH  13  17
ATOM     17  C   UNL A   1      41.987  28.039  34.523  1.00  0.00     0.012 C 
ATOM     18  C   UNL A   1      42.008  27.282  35.629  1.00  0.00     0.053 C 
BRANCH  18  19
ATOM     19  C   UNL A   1      43.033  26.227  35.852  1.00  0.00     0.188 C 
ATOM     20  O   UNL A   1      43.560  26.112  36.955  1.00  0.00    -0.289 OA
BRANCH  19  21
ATOM     21  C   UNL A   1      43.415  25.306  34.757  1.00  0.00     0.058 A 
ATOM     22  C   UNL A   1      42.999  23.970  34.830  1.00  0.00     0.018 A 
ATOM     23  C   UNL A   1      44.207  25.722  33.681  1.00  0.00     0.137 A 
ATOM     24  C   UNL A   1      43.341  23.079  33.810  1.00  0.00     0.040 A 
ATOM     25  C   UNL A   1      44.550  24.837  32.664  1.00  0.00     0.079 A 
ATOM     26  F   UNL A   1      44.666  26.979  33.608  1.00  0.00    -0.206 F 
ATOM     27  C   UNL A   1      44.109  23.522  32.735  1.00  0.00     0.126 A 
ATOM     28  F   UNL A   1      44.433  22.663  31.761  1.00  0.00    -0.207 F 
ENDBRANCH  19  21
ENDBRANCH  18  19
ENDBRANCH  13  17
ENDBRANCH   7   8
ENDBRANCH   6   7
ENDBRANCH   4   6
ENDBRANCH   1   2
BRANCH   1  29
ATOM     29  C   UNL A   1      35.810  33.490  28.681  1.00  0.00     0.042 C 
BRANCH  29  30
ATOM     30  C   UNL A   1      34.798  32.661  29.465  1.00  0.00     0.118 C 
BRANCH  30  31
ATOM     31  N   UNL A   1      34.051  31.695  28.673  1.00  0.00    -0.352 N 
ATOM     32  C   UNL A   1      34.446  30.482  28.153  1.00  0.00     0.251 C 
ATOM     33  H   UNL A   1      33.119  31.947  28.478  1.00  0.00     0.163 HD
ATOM     34  O   UNL A   1      33.657  29.834  27.469  1.00  0.00    -0.269 OA
BRANCH  32  35
ATOM     35  C   UNL A   1      35.823  29.967  28.366  1.00  0.00     0.039 A 
ATOM     36  C   UNL A   1      36.725  30.018  27.299  1.00  0.00     0.014 A 
ATOM     37  C   UNL A   1      36.237  29.441  29.592  1.00  0.00     0.014 A 
ATOM     38  C   UNL A   1      38.055  29.628  27.487  1.00  0.00     0.010 A 
ATOM     39  C   UNL A   1      37.582  29.136  29.803  1.00  0.00     0.010 A 
ATOM     40  C   UNL A   1      38.509  29.229  28.755  1.00  0.00    -0.014 A 
BRANCH  40  41
ATOM     41  C   UNL A   1      39.947  28.929  28.995  1.00  0.00     0.031 A 
ATOM     42  C   UNL A   1      40.861  29.965  29.595  1.00  0.00     0.074 A 
ATOM     43  C   UNL A   1      40.447  27.733  28.621  1.00  0.00     0.049 A 
ATOM     44  N   UNL A   1      42.140  29.884  29.859  1.00  0.00    -0.248 NA
ATOM     45  C   UNL A   1      40.268  31.274  29.912  1.00  0.00     0.031 C 
ATOM     46  C   UNL A   1      39.691  26.668  27.958  1.00  0.00     0.029 A 
ATOM     47  N   UNL A   1      41.712  27.211  28.741  1.00  0.00    -0.354 N 
ATOM     48  C   UNL A   1      42.508  31.129  30.356  1.00  0.00     0.074 A 
ATOM     49  C   UNL A   1      41.328  31.965  30.306  1.00  0.00     0.031 C 
ATOM     50  C   UNL A   1      40.495  25.610  27.763  1.00  0.00     0.029 A 
ATOM     51  C   UNL A   1      41.829  25.927  28.261  1.00  0.00     0.049 A 
ATOM     52  H   UNL A   1      42.464  27.709  29.134  1.00  0.00     0.167 HD
ATOM     53  C   UNL A   1      43.709  31.534  30.836  1.00  0.00     0.037 A 
ATOM     54  C   UNL A   1      42.887  25.095  28.234  1.00  0.00     0.037 A 
ATOM     55  C   UNL A   1      44.874  30.692  30.919  1.00  0.00     0.049 A 
ATOM     56  C   UNL A   1      44.196  25.548  28.821  1.00  0.00     0.074 A 
ATOM     57  C   UNL A   1      46.119  30.990  31.449  1.00  0.00     0.029 A 
ATOM     58  N   UNL A   1      44.939  29.382  30.466  1.00  0.00    -0.354 N 
ATOM     59  N   UNL A   1      44.504  26.707  29.352  1.00  0.00    -0.248 NA
ATOM     60  C   UNL A   1      45.295  24.573  28.821  1.00  0.00     0.031 C 
ATOM     61  C   UNL A   1      46.943  29.870  31.290  1.00  0.00     0.029 A 
ATOM     62  C   UNL A   1      46.202  28.862  30.696  1.00  0.00     0.049 A 
ATOM     63  H   UNL A   1      44.196  28.895  30.043  1.00  0.00     0.167 HD
ATOM     64  C   UNL A   1      45.825  26.593  29.770  1.00  0.00     0.074 A 
ATOM     65  C   UNL A   1      46.252  25.248  29.444  1.00  0.00     0.031 C 
ATOM     66  C   UNL A   1      46.613  27.520  30.368  1.00  0.00     0.037 A 
BRANCH  53  67
ATOM     67  C   UNL A   1      43.817  32.952  31.326  1.00  0.00     0.058 A 
ATOM     68  C   UNL A   1      43.525  33.293  32.657  1.00  0.00     0.135 A 
ATOM     69  C   UNL A   1      44.241  33.979  30.467  1.00  0.00     0.135 A 
ATOM     70  F   UNL A   1      43.102  32.354  33.518  1.00  0.00    -0.206 F 
ATOM     71  C   UNL A   1      43.618  34.605  33.110  1.00  0.00     0.059 A 
ATOM     72  C   UNL A   1      44.366  35.293  30.906  1.00  0.00     0.059 A 
ATOM     73  F   UNL A   1      44.535  33.709  29.185  1.00  0.00    -0.206 F 
ATOM     74  C   UNL A   1      44.035  35.600  32.226  1.00  0.00     0.060 A 
BRANCH  74  75
ATOM     75  S   UNL A   1      44.148  37.299  32.826  1.00  0.00     0.124 S 
ATOM     76  O   UNL A   1      43.916  38.055  31.598  1.00  0.00    -0.237 OA
ATOM     77  O   UNL A   1      43.076  37.355  33.814  1.00  0.00    -0.237 OA
ATOM     78  O   UNL A   1      45.501  37.379  33.367  1.00  0.00    -0.744 OA
ENDBRANCH  74  75
ENDBRANCH  53  67
BRANCH  54  79
ATOM     79  C   UNL A   1      42.740  23.726  27.673  1.00  0.00     0.058 A 
ATOM     80  C   UNL A   1      42.458  22.634  28.508  1.00  0.00     0.135 A 
ATOM     81  C   UNL A   1      42.865  23.483  26.297  1.00  0.00     0.135 A 
ATOM     82  F   UNL A   1      42.336  22.816  29.831  1.00  0.00    -0.206 F 
ATOM     83  C   UNL A   1      42.322  21.345  28.002  1.00  0.00     0.059 A 
ATOM     84  C   UNL A   1      42.711  22.206  25.764  1.00  0.00     0.059 A 
ATOM     85  F   UNL A   1      43.117  24.496  25.455  1.00  0.00    -0.206 F 
ATOM     86  C   UNL A   1      42.450  21.142  26.627  1.00  0.00     0.060 A 
BRANCH  86  87
ATOM     87  S   UNL A   1      42.223  19.474  25.973  1.00  0.00     0.124 S 
ATOM     88  O   UNL A   1      40.784  19.444  25.740  1.00  0.00    -0.237 OA
ATOM     89  O   UNL A   1      43.063  19.492  24.780  1.00  0.00    -0.237 OA
ATOM     90  O   UNL A   1      42.706  18.622  27.056  1.00  0.00    -0.744 OA
ENDBRANCH  86  87
ENDBRANCH  54  79
BRANCH  66  91
ATOM     91  C   UNL A   1      48.008  27.095  30.738  1.00  0.00     0.058 A 
ATOM     92  C   UNL A   1      48.293  26.511  31.982  1.00  0.00     0.135 A 
ATOM     93  C   UNL A   1      49.066  27.263  29.832  1.00  0.00     0.135 A 
ATOM     94  F   UNL A   1      47.317  26.332  32.885  1.00  0.00    -0.206 F 
ATOM     95  C   UNL A   1      49.589  26.143  32.330  1.00  0.00     0.059 A 
ATOM     96  C   UNL A   1      50.365  26.880  30.149  1.00  0.00     0.059 A 
ATOM     97  F   UNL A   1      48.843  27.805  28.624  1.00  0.00    -0.206 F 
ATOM     98  C   UNL A   1      50.620  26.338  31.409  1.00  0.00     0.060 A 
BRANCH  98  99
ATOM     99  S   UNL A   1      52.300  25.858  31.867  1.00  0.00     0.124 S 
ATOM    100  O   UNL A   1      52.995  25.972  30.588  1.00  0.00    -0.237 OA
ATOM    101  O   UNL A   1      52.652  26.858  32.870  1.00  0.00    -0.237 OA
ATOM    102  O   UNL A   1      52.136  24.500  32.374  1.00  0.00    -0.744 OA
ENDBRANCH  98  99
ENDBRANCH  66  91
ENDBRANCH  40  41
ENDBRANCH  32  35
ENDBRANCH  30  31
ENDBRANCH  29  30
ENDBRANCH   1  29
TORSDOF 19
ENDMDL
MODEL 3
REMARK VINA RESULT:      -9.1      3.547     10.004
REMARK SMILES O=C(COc1ccc(/C=C/C(=O)c2ccc(F)cc2F)cc1[N+](=O)[O-])NCCCNC(=O)c1ccc(-c2c3nc(c(-c4c(F)cc(S(=O)(=O)[O-])cc4F)c4ccc([nH]4)c(-c4c(F)cc(S(=O)(=O)[O-])cc4F)c4nc(c(-c5c(F)cc(S(=O)(=O)[O-])cc5F)c5ccc2[nH]5)C=C4)C=C3)cc1
REMARK SMILES IDX 27 1 26 2 1 3 2 4 3 6 4 7 5 8 6 9 22 10 7 11 21 12 8 13
REMARK SMILES IDX 23 14 24 15 25 16 9 17 10 18 11 19 12 20 13 21 14 22 19 23
REMARK SMILES IDX 15 24 18 25 20 26 16 27 17 28 28 29 29 30 30 31 31 32 32 34
REMARK SMILES IDX 33 35 34 36 98 37 35 38 97 39 36 40 37 41 38 42 91 43 39 44
REMARK SMILES IDX 96 45 90 46 92 47 40 48 95 49 89 50 88 51 41 53 75 54 54 55
REMARK SMILES IDX 74 56 55 57 58 58 73 59 93 60 56 61 57 62 72 64 94 65 59 66
REMARK SMILES IDX 42 67 43 68 52 69 44 70 45 71 51 72 53 73 46 74 47 75 48 76
REMARK SMILES IDX 49 77 50 78 76 79 77 80 86 81 78 82 79 83 85 84 87 85 80 86
REMARK SMILES IDX 81 87 82 88 83 89 84 90 60 91 61 92 70 93 62 94 63 95 69 96
REMARK SMILES IDX 71 97 64 98 65 99 66 100 67 101 68 102
REMARK H PARENT 26 5 30 33 92 52 58 63
REMARK Flexibility Score: inf
ROOT
ATOM      1  C   UNL A   1      37.796  34.015  33.980  1.00  0.00     0.117 C 
ENDROOT
BRANCH   1   2
ATOM      2  N   UNL A   1      36.733  34.219  33.011  1.00  0.00    -0.353 N 
ATOM      3  O   UNL A   1      35.017  33.316  34.257  1.00  0.00    -0.271 OA
ATOM      4  C   UNL A   1      35.406  33.959  33.286  1.00  0.00     0.257 C 
ATOM      5  H   UNL A   1      36.970  34.559  32.118  1.00  0.00     0.163 HD
BRANCH   4   6
ATOM      6  C   UNL A   1      34.432  34.558  32.267  1.00  0.00     0.329 C 
BRANCH   6   7
ATOM      7  O   UNL A   1      35.042  34.803  30.992  1.00  0.00    -0.477 OA
BRANCH   7   8
ATOM      8  C   UNL A   1      34.611  33.933  30.026  1.00  0.00     0.197 A 
ATOM      9  C   UNL A   1      35.085  32.619  30.056  1.00  0.00     0.054 A 
ATOM     10  C   UNL A   1      33.809  34.321  28.952  1.00  0.00     0.311 A 
ATOM     11  C   UNL A   1      34.721  31.708  29.049  1.00  0.00     0.012 A 
ATOM     12  C   UNL A   1      33.408  33.415  27.967  1.00  0.00     0.098 A 
ATOM     13  C   UNL A   1      33.876  32.100  28.002  1.00  0.00    -0.018 A 
BRANCH  10  14
ATOM     14  N   UNL A   1      33.431  35.700  28.751  1.00  0.00     0.066 N 
ATOM     15  O   UNL A   1      34.250  36.425  28.167  1.00  0.00    -0.258 OA
ATOM     16  O   UNL A   1      32.346  36.067  29.222  1.00  0.00    -0.258 OA
ENDBRANCH  10  14
BRANCH  13  17
ATOM     17  C   UNL A   1      33.441  31.218  26.915  1.00  0.00     0.012 C 
ATOM     18  C   UNL A   1      33.703  29.906  26.853  1.00  0.00     0.053 C 
BRANCH  18  19
ATOM     19  C   UNL A   1      33.355  29.080  25.665  1.00  0.00     0.188 C 
ATOM     20  O   UNL A   1      33.339  29.592  24.549  1.00  0.00    -0.289 OA
BRANCH  19  21
ATOM     21  C   UNL A   1      33.040  27.641  25.816  1.00  0.00     0.058 A 
ATOM     22  C   UNL A   1      33.847  26.706  25.157  1.00  0.00     0.018 A 
ATOM     23  C   UNL A   1      31.941  27.198  26.561  1.00  0.00     0.137 A 
ATOM     24  C   UNL A   1      33.576  25.341  25.283  1.00  0.00     0.040 A 
ATOM     25  C   UNL A   1      31.667  25.839  26.689  1.00  0.00     0.079 A 
ATOM     26  F   UNL A   1      31.118  28.069  27.160  1.00  0.00    -0.206 F 
ATOM     27  C   UNL A   1      32.492  24.922  26.052  1.00  0.00     0.126 A 
ATOM     28  F   UNL A   1      32.237  23.613  26.170  1.00  0.00    -0.207 F 
ENDBRANCH  19  21
ENDBRANCH  18  19
ENDBRANCH  13  17
ENDBRANCH   7   8
ENDBRANCH   6   7
ENDBRANCH   4   6
ENDBRANCH   1   2
BRANCH   1  29
ATOM     29  C   UNL A   1      38.611  32.755  33.751  1.00  0.00     0.042 C 
BRANCH  29  30
ATOM     30  C   UNL A   1      38.021  31.472  34.325  1.00  0.00     0.118 C 
BRANCH  30  31
ATOM     31  N   UNL A   1      37.012  30.835  33.491  1.00  0.00    -0.352 N 
ATOM     32  C   UNL A   1      37.143  30.180  32.286  1.00  0.00     0.251 C 
ATOM     33  H   UNL A   1      36.093  30.878  33.842  1.00  0.00     0.163 HD
ATOM     34  O   UNL A   1      36.140  29.745  31.724  1.00  0.00    -0.269 OA
BRANCH  32  35
ATOM     35  C   UNL A   1      38.469  30.032  31.633  1.00  0.00     0.039 A 
ATOM     36  C   UNL A   1      39.492  29.393  32.340  1.00  0.00     0.014 A 
ATOM     37  C   UNL A   1      38.717  30.506  30.343  1.00  0.00     0.014 A 
ATOM     38  C   UNL A   1      40.725  29.153  31.725  1.00  0.00     0.010 A 
ATOM     39  C   UNL A   1      39.915  30.190  29.700  1.00  0.00     0.010 A 
ATOM     40  C   UNL A   1      40.933  29.506  30.381  1.00  0.00    -0.014 A 
BRANCH  40  41
ATOM     41  C   UNL A   1      42.196  29.147  29.680  1.00  0.00     0.031 A 
ATOM     42  C   UNL A   1      43.305  30.154  29.526  1.00  0.00     0.074 A 
ATOM     43  C   UNL A   1      42.324  27.922  29.130  1.00  0.00     0.049 A 
ATOM     44  N   UNL A   1      44.464  30.021  28.932  1.00  0.00    -0.248 NA
ATOM     45  C   UNL A   1      43.070  31.495  30.083  1.00  0.00     0.031 C 
ATOM     46  C   UNL A   1      41.298  26.877  29.138  1.00  0.00     0.029 A 
ATOM     47  N   UNL A   1      43.372  27.346  28.454  1.00  0.00    -0.354 N 
ATOM     48  C   UNL A   1      45.088  31.259  29.031  1.00  0.00     0.074 A 
ATOM     49  C   UNL A   1      44.157  32.147  29.694  1.00  0.00     0.031 C 
ATOM     50  C   UNL A   1      41.778  25.780  28.531  1.00  0.00     0.029 A 
ATOM     51  C   UNL A   1      43.135  26.047  28.067  1.00  0.00     0.049 A 
ATOM     52  H   UNL A   1      44.215  27.818  28.265  1.00  0.00     0.167 HD
ATOM     53  C   UNL A   1      46.332  31.621  28.632  1.00  0.00     0.037 A 
ATOM     54  C   UNL A   1      43.923  25.168  27.421  1.00  0.00     0.037 A 
ATOM     55  C   UNL A   1      47.273  30.729  28.005  1.00  0.00     0.049 A 
ATOM     56  C   UNL A   1      45.319  25.574  27.035  1.00  0.00     0.074 A 
ATOM     57  C   UNL A   1      48.579  30.982  27.622  1.00  0.00     0.029 A 
ATOM     58  N   UNL A   1      47.011  29.407  27.672  1.00  0.00    -0.354 N 
ATOM     59  N   UNL A   1      45.916  26.730  27.202  1.00  0.00    -0.248 NA
ATOM     60  C   UNL A   1      46.153  24.551  26.391  1.00  0.00     0.031 C 
ATOM     61  C   UNL A   1      49.097  29.823  27.033  1.00  0.00     0.029 A 
ATOM     62  C   UNL A   1      48.127  28.836  27.082  1.00  0.00     0.049 A 
ATOM     63  H   UNL A   1      46.157  28.944  27.831  1.00  0.00     0.167 HD
ATOM     64  C   UNL A   1      47.204  26.566  26.703  1.00  0.00     0.074 A 
ATOM     65  C   UNL A   1      47.303  25.196  26.244  1.00  0.00     0.031 C 
ATOM     66  C   UNL A   1      48.212  27.470  26.632  1.00  0.00     0.037 A 
BRANCH  53  67
ATOM     67  C   UNL A   1      46.754  33.043  28.880  1.00  0.00     0.058 A 
ATOM     68  C   UNL A   1      46.543  34.048  27.920  1.00  0.00     0.135 A 
ATOM     69  C   UNL A   1      47.349  33.415  30.095  1.00  0.00     0.135 A 
ATOM     70  F   UNL A   1      45.991  33.746  26.735  1.00  0.00    -0.206 F 
ATOM     71  C   UNL A   1      46.938  35.363  28.143  1.00  0.00     0.059 A 
ATOM     72  C   UNL A   1      47.728  34.730  30.350  1.00  0.00     0.059 A 
ATOM     73  F   UNL A   1      47.572  32.497  31.048  1.00  0.00    -0.206 F 
ATOM     74  C   UNL A   1      47.535  35.694  29.361  1.00  0.00     0.060 A 
BRANCH  74  75
ATOM     75  S   UNL A   1      48.046  37.403  29.637  1.00  0.00     0.124 S 
ATOM     76  O   UNL A   1      48.507  37.786  28.305  1.00  0.00    -0.237 OA
ATOM     77  O   UNL A   1      46.807  38.034  30.081  1.00  0.00    -0.237 OA
ATOM     78  O   UNL A   1      49.086  37.287  30.653  1.00  0.00    -0.744 OA
ENDBRANCH  74  75
ENDBRANCH  53  67
BRANCH  54  79
ATOM     79  C   UNL A   1      43.428  23.794  27.140  1.00  0.00     0.058 A 
ATOM     80  C   UNL A   1      43.035  23.423  25.846  1.00  0.00     0.135 A 
ATOM     81  C   UNL A   1      43.350  22.825  28.152  1.00  0.00     0.135 A 
ATOM     82  F   UNL A   1      43.086  24.317  24.847  1.00  0.00    -0.206 F 
ATOM     83  C   UNL A   1      42.564  22.144  25.565  1.00  0.00     0.059 A 
ATOM     84  C   UNL A   1      42.904  21.532  27.892  1.00  0.00     0.059 A 
ATOM     85  F   UNL A   1      43.731  23.126  29.403  1.00  0.00    -0.206 F 
ATOM     86  C   UNL A   1      42.503  21.205  26.597  1.00  0.00     0.060 A 
BRANCH  86  87
ATOM     87  S   UNL A   1      41.938  19.533  26.214  1.00  0.00     0.124 S 
ATOM     88  O   UNL A   1      42.658  19.256  24.977  1.00  0.00    -0.237 OA
ATOM     89  O   UNL A   1      42.373  18.783  27.388  1.00  0.00    -0.237 OA
ATOM     90  O   UNL A   1      40.493  19.692  26.083  1.00  0.00    -0.744 OA
ENDBRANCH  86  87
ENDBRANCH  54  79
BRANCH  66  91
ATOM     91  C   UNL A   1      49.520  26.991  26.064  1.00  0.00     0.058 A 
ATOM     92  C   UNL A   1      50.492  26.377  26.870  1.00  0.00     0.135 A 
ATOM     93  C   UNL A   1      49.798  27.137  24.696  1.00  0.00     0.135 A 
ATOM     94  F   UNL A   1      50.276  26.217  28.185  1.00  0.00    -0.206 F 
ATOM     95  C   UNL A   1      51.710  25.959  26.346  1.00  0.00     0.059 A 
ATOM     96  C   UNL A   1      50.999  26.703  24.146  1.00  0.00     0.059 A 
ATOM     97  F   UNL A   1      48.897  27.706  23.879  1.00  0.00    -0.206 F 
ATOM     98  C   UNL A   1      51.958  26.133  24.983  1.00  0.00     0.060 A 
BRANCH  98  99
ATOM     99  S   UNL A   1      53.542  25.587  24.309  1.00  0.00     0.124 S 
ATOM    100  O   UNL A   1      53.380  25.900  22.892  1.00  0.00    -0.237 OA
ATOM    101  O   UNL A   1      54.498  26.418  25.035  1.00  0.00    -0.237 OA
ATOM    102  O   UNL A   1      53.578  24.166  24.639  1.00  0.00    -0.744 OA
ENDBRANCH  98  99
ENDBRANCH  66  91
ENDBRANCH  40  41
ENDBRANCH  32  35
ENDBRANCH  30  31
ENDBRANCH  29  30
ENDBRANCH   1  29
TORSDOF 19
ENDMDL
