MODEL 1
REMARK VINA RESULT:     -13.6      0.000      0.000
REMARK SMILES Nc1ccc(C(=O)N2Cc3nc[nH]c3C[C@H]2C(=O)NCCCNC(=O)c2ccc(-c3c4nc(c(-c5c(F)cc(S(=O)(=O)[O-])cc5F)c5ccc([nH]5)c(-c5c(F)cc(S(=O)(=O)[O-])cc5F)c5nc(c(-c6c(F)cc(S(=O)(=O)[O-])cc6F)c6ccc3[nH]6)C=C5)C=C4)cc2)cc1
REMARK SMILES IDX 21 1 20 2 19 3 17 4 18 5 16 7 8 8 9 9 10 10 15 11 11 12
REMARK SMILES IDX 14 13 12 14 13 15 6 17 7 18 5 19 2 20 3 21 93 22 4 23 92 24
REMARK SMILES IDX 1 25 22 28 23 29 24 30 25 32 26 33 27 34 91 35 28 36 90 37
REMARK SMILES IDX 29 38 30 39 31 40 84 41 32 42 89 43 83 44 85 45 33 46 88 47
REMARK SMILES IDX 82 48 81 49 34 51 68 52 47 53 67 54 48 55 51 56 66 57 86 58
REMARK SMILES IDX 49 59 50 60 65 62 87 63 52 64 35 65 36 66 45 67 37 68 38 69
REMARK SMILES IDX 44 70 46 71 39 72 40 73 41 74 42 75 43 76 69 77 70 78 79 79
REMARK SMILES IDX 71 80 72 81 78 82 80 83 73 84 74 85 75 86 76 87 77 88 53 89
REMARK SMILES IDX 54 90 63 91 55 92 56 93 62 94 64 95 57 96 58 97 59 98 60 99
REMARK SMILES IDX 61 100
REMARK H PARENT 19 6 13 16 1 26 1 27 23 31 85 50 51 61
REMARK Flexibility Score: inf
ROOT
ATOM      1  C   UNL A   1      37.517  21.550  24.815  1.00  0.00     0.042 C 
ENDROOT
BRANCH   1   2
ATOM      2  C   UNL A   1      36.182  21.098  25.402  1.00  0.00     0.117 C 
BRANCH   2   3
ATOM      3  N   UNL A   1      35.635  21.977  26.419  1.00  0.00    -0.354 N 
ATOM      4  C   UNL A   1      34.579  22.832  26.387  1.00  0.00     0.243 C 
ATOM      5  O   UNL A   1      33.976  22.968  27.460  1.00  0.00    -0.273 OA
ATOM      6  H   UNL A   1      36.111  21.949  27.281  1.00  0.00     0.163 HD
BRANCH   4   7
ATOM      7  C   UNL A   1      34.047  23.569  25.128  1.00  0.00     0.181 C 
ATOM      8  N   UNL A   1      32.750  23.110  24.514  1.00  0.00    -0.320 N 
ATOM      9  C   UNL A   1      31.479  23.823  24.779  1.00  0.00     0.178 C 
ATOM     10  C   UNL A   1      31.683  25.114  25.479  1.00  0.00     0.081 A 
ATOM     11  C   UNL A   1      34.196  25.112  25.290  1.00  0.00     0.091 C 
ATOM     12  N   UNL A   1      30.701  25.798  26.154  1.00  0.00    -0.240 NA
ATOM     13  C   UNL A   1      32.903  25.699  25.697  1.00  0.00     0.042 A 
ATOM     14  C   UNL A   1      31.326  26.769  26.784  1.00  0.00     0.197 A 
ATOM     15  N   UNL A   1      32.667  26.781  26.495  1.00  0.00    -0.348 N 
ATOM     16  H   UNL A   1      33.329  27.442  26.803  1.00  0.00     0.167 HD
BRANCH   8  17
ATOM     17  C   UNL A   1      32.643  22.117  23.525  1.00  0.00     0.254 C 
ATOM     18  O   UNL A   1      32.650  22.404  22.326  1.00  0.00    -0.269 OA
BRANCH  17  19
ATOM     19  C   UNL A   1      32.473  20.676  23.849  1.00  0.00     0.040 A 
ATOM     20  C   UNL A   1      32.503  17.927  24.510  1.00  0.00     0.031 A 
ATOM     21  C   UNL A   1      32.647  18.897  25.503  1.00  0.00     0.026 A 
ATOM     22  C   UNL A   1      32.318  18.347  23.192  1.00  0.00     0.026 A 
ATOM     23  C   UNL A   1      32.640  20.261  25.178  1.00  0.00     0.016 A 
ATOM     24  C   UNL A   1      32.353  19.706  22.856  1.00  0.00     0.016 A 
BRANCH  20  25
ATOM     25  N   UNL A   1      32.440  16.583  24.831  1.00  0.00    -0.399 N 
ATOM     26  H   UNL A   1      32.017  16.297  25.672  1.00  0.00     0.156 HD
ATOM     27  H   UNL A   1      32.818  15.912  24.217  1.00  0.00     0.156 HD
ENDBRANCH  20  25
ENDBRANCH  17  19
ENDBRANCH   8  17
ENDBRANCH   4   7
ENDBRANCH   2   3
ENDBRANCH   1   2
BRANCH   1  28
ATOM     28  C   UNL A   1      38.255  22.494  25.740  1.00  0.00     0.118 C 
BRANCH  28  29
ATOM     29  N   UNL A   1      39.284  21.837  26.576  1.00  0.00    -0.352 N 
ATOM     30  C   UNL A   1      40.391  22.413  27.213  1.00  0.00     0.251 C 
ATOM     31  H   UNL A   1      39.178  20.866  26.699  1.00  0.00     0.163 HD
ATOM     32  O   UNL A   1      41.325  21.746  27.600  1.00  0.00    -0.269 OA
BRANCH  30  33
ATOM     33  C   UNL A   1      40.352  23.875  27.418  1.00  0.00     0.039 A 
ATOM     34  C   UNL A   1      39.200  24.667  27.387  1.00  0.00     0.014 A 
ATOM     35  C   UNL A   1      41.545  24.397  27.860  1.00  0.00     0.014 A 
ATOM     36  C   UNL A   1      39.288  25.963  27.907  1.00  0.00     0.010 A 
ATOM     37  C   UNL A   1      41.448  25.380  28.786  1.00  0.00     0.010 A 
ATOM     38  C   UNL A   1      40.441  26.301  28.623  1.00  0.00    -0.014 A 
BRANCH  38  39
ATOM     39  C   UNL A   1      40.717  27.568  29.275  1.00  0.00     0.031 A 
ATOM     40  C   UNL A   1      41.746  28.398  28.613  1.00  0.00     0.074 A 
ATOM     41  C   UNL A   1      39.863  28.078  30.198  1.00  0.00     0.049 A 
ATOM     42  N   UNL A   1      42.956  28.612  29.005  1.00  0.00    -0.248 NA
ATOM     43  C   UNL A   1      41.461  28.912  27.264  1.00  0.00     0.031 C 
ATOM     44  C   UNL A   1      38.572  27.552  30.683  1.00  0.00     0.029 A 
ATOM     45  N   UNL A   1      39.935  29.274  30.834  1.00  0.00    -0.354 N 
ATOM     46  C   UNL A   1      43.507  29.491  28.079  1.00  0.00     0.074 A 
ATOM     47  C   UNL A   1      42.641  29.440  26.931  1.00  0.00     0.031 C 
ATOM     48  C   UNL A   1      37.896  28.519  31.342  1.00  0.00     0.029 A 
ATOM     49  C   UNL A   1      38.772  29.661  31.495  1.00  0.00     0.049 A 
ATOM     50  H   UNL A   1      40.750  29.826  30.828  1.00  0.00     0.167 HD
ATOM     51  C   UNL A   1      44.491  30.365  28.437  1.00  0.00     0.037 A 
ATOM     52  C   UNL A   1      38.566  30.858  32.099  1.00  0.00     0.037 A 
ATOM     53  C   UNL A   1      44.997  30.048  29.754  1.00  0.00     0.049 A 
ATOM     54  C   UNL A   1      39.922  31.432  32.349  1.00  0.00     0.074 A 
ATOM     55  C   UNL A   1      45.602  28.937  30.312  1.00  0.00     0.029 A 
ATOM     56  N   UNL A   1      44.514  30.779  30.816  1.00  0.00    -0.354 N 
ATOM     57  N   UNL A   1      40.798  30.883  33.154  1.00  0.00    -0.248 NA
ATOM     58  C   UNL A   1      40.484  32.288  31.314  1.00  0.00     0.031 C 
ATOM     59  C   UNL A   1      45.002  28.803  31.600  1.00  0.00     0.029 A 
ATOM     60  C   UNL A   1      44.140  29.886  31.793  1.00  0.00     0.049 A 
ATOM     61  H   UNL A   1      44.449  31.760  30.869  1.00  0.00     0.167 HD
ATOM     62  C   UNL A   1      42.018  30.989  32.495  1.00  0.00     0.074 A 
ATOM     63  C   UNL A   1      41.766  31.913  31.387  1.00  0.00     0.031 C 
ATOM     64  C   UNL A   1      43.035  30.098  32.709  1.00  0.00     0.037 A 
BRANCH  51  65
ATOM     65  C   UNL A   1      44.767  31.700  27.780  1.00  0.00     0.058 A 
ATOM     66  C   UNL A   1      45.940  31.846  27.008  1.00  0.00     0.135 A 
ATOM     67  C   UNL A   1      44.086  32.901  28.076  1.00  0.00     0.135 A 
ATOM     68  F   UNL A   1      46.663  30.774  26.648  1.00  0.00    -0.206 F 
ATOM     69  C   UNL A   1      46.447  33.094  26.643  1.00  0.00     0.059 A 
ATOM     70  C   UNL A   1      44.545  34.151  27.674  1.00  0.00     0.059 A 
ATOM     71  F   UNL A   1      42.995  32.940  28.848  1.00  0.00    -0.206 F 
ATOM     72  C   UNL A   1      45.751  34.242  27.001  1.00  0.00     0.060 A 
BRANCH  72  73
ATOM     73  S   UNL A   1      46.469  35.855  26.647  1.00  0.00     0.124 S 
ATOM     74  O   UNL A   1      47.194  35.584  25.411  1.00  0.00    -0.237 OA
ATOM     75  O   UNL A   1      45.282  36.694  26.522  1.00  0.00    -0.237 OA
ATOM     76  O   UNL A   1      47.298  36.118  27.820  1.00  0.00    -0.744 OA
ENDBRANCH  72  73
ENDBRANCH  51  65
BRANCH  52  77
ATOM     77  C   UNL A   1      37.314  31.667  32.085  1.00  0.00     0.058 A 
ATOM     78  C   UNL A   1      36.698  32.093  33.275  1.00  0.00     0.135 A 
ATOM     79  C   UNL A   1      36.844  32.271  30.899  1.00  0.00     0.135 A 
ATOM     80  F   UNL A   1      37.090  31.583  34.454  1.00  0.00    -0.206 F 
ATOM     81  C   UNL A   1      35.716  33.094  33.295  1.00  0.00     0.059 A 
ATOM     82  C   UNL A   1      35.863  33.263  30.892  1.00  0.00     0.059 A 
ATOM     83  F   UNL A   1      37.391  31.982  29.709  1.00  0.00    -0.206 F 
ATOM     84  C   UNL A   1      35.321  33.690  32.097  1.00  0.00     0.060 A 
BRANCH  84  85
ATOM     85  S   UNL A   1      34.197  35.109  32.126  1.00  0.00     0.124 S 
ATOM     86  O   UNL A   1      33.013  34.545  32.764  1.00  0.00    -0.237 OA
ATOM     87  O   UNL A   1      34.946  36.081  32.915  1.00  0.00    -0.237 OA
ATOM     88  O   UNL A   1      34.042  35.448  30.713  1.00  0.00    -0.744 OA
ENDBRANCH  84  85
ENDBRANCH  52  77
BRANCH  64  89
ATOM     89  C   UNL A   1      42.908  29.102  33.843  1.00  0.00     0.058 A 
ATOM     90  C   UNL A   1      43.133  29.404  35.200  1.00  0.00     0.135 A 
ATOM     91  C   UNL A   1      42.348  27.846  33.566  1.00  0.00     0.135 A 
ATOM     92  F   UNL A   1      43.568  30.613  35.572  1.00  0.00    -0.206 F 
ATOM     93  C   UNL A   1      42.850  28.494  36.223  1.00  0.00     0.059 A 
ATOM     94  C   UNL A   1      42.029  26.934  34.571  1.00  0.00     0.059 A 
ATOM     95  F   UNL A   1      42.044  27.513  32.300  1.00  0.00    -0.206 F 
ATOM     96  C   UNL A   1      42.294  27.260  35.898  1.00  0.00     0.060 A 
BRANCH  96  97
ATOM     97  S   UNL A   1      41.862  26.112  37.225  1.00  0.00     0.124 S 
ATOM     98  O   UNL A   1      40.558  26.611  37.649  1.00  0.00    -0.237 OA
ATOM     99  O   UNL A   1      41.855  24.823  36.541  1.00  0.00    -0.237 OA
ATOM    100  O   UNL A   1      42.941  26.289  38.193  1.00  0.00    -0.744 OA
ENDBRANCH  96  97
ENDBRANCH  64  89
ENDBRANCH  38  39
ENDBRANCH  30  33
ENDBRANCH  28  29
ENDBRANCH   1  28
TORSDOF 16
ENDMDL
MODEL 2
REMARK VINA RESULT:     -13.4      1.794      3.551
REMARK SMILES Nc1ccc(C(=O)N2Cc3nc[nH]c3C[C@H]2C(=O)NCCCNC(=O)c2ccc(-c3c4nc(c(-c5c(F)cc(S(=O)(=O)[O-])cc5F)c5ccc([nH]5)c(-c5c(F)cc(S(=O)(=O)[O-])cc5F)c5nc(c(-c6c(F)cc(S(=O)(=O)[O-])cc6F)c6ccc3[nH]6)C=C5)C=C4)cc2)cc1
REMARK SMILES IDX 21 1 20 2 19 3 17 4 18 5 16 7 8 8 9 9 10 10 15 11 11 12
REMARK SMILES IDX 14 13 12 14 13 15 6 17 7 18 5 19 2 20 3 21 93 22 4 23 92 24
REMARK SMILES IDX 1 25 22 28 23 29 24 30 25 32 26 33 27 34 91 35 28 36 90 37
REMARK SMILES IDX 29 38 30 39 31 40 84 41 32 42 89 43 83 44 85 45 33 46 88 47
REMARK SMILES IDX 82 48 81 49 34 51 68 52 47 53 67 54 48 55 51 56 66 57 86 58
REMARK SMILES IDX 49 59 50 60 65 62 87 63 52 64 35 65 36 66 45 67 37 68 38 69
REMARK SMILES IDX 44 70 46 71 39 72 40 73 41 74 42 75 43 76 69 77 70 78 79 79
REMARK SMILES IDX 71 80 72 81 78 82 80 83 73 84 74 85 75 86 76 87 77 88 53 89
REMARK SMILES IDX 54 90 63 91 55 92 56 93 62 94 64 95 57 96 58 97 59 98 60 99
REMARK SMILES IDX 61 100
REMARK H PARENT 19 6 13 16 1 26 1 27 23 31 85 50 51 61
REMARK Flexibility Score: inf
ROOT
ATOM      1  C   UNL A   1      39.292  21.852  26.176  1.00  0.00     0.042 C 
ENDROOT
BRANCH   1   2
ATOM      2  C   UNL A   1      38.152  22.768  25.735  1.00  0.00     0.117 C 
BRANCH   2   3
ATOM      3  N   UNL A   1      37.611  22.478  24.421  1.00  0.00    -0.354 N 
ATOM      4  C   UNL A   1      36.415  22.793  23.858  1.00  0.00     0.243 C 
ATOM      5  O   UNL A   1      36.440  22.982  22.634  1.00  0.00    -0.273 OA
ATOM      6  H   UNL A   1      38.215  21.965  23.836  1.00  0.00     0.163 HD
BRANCH   4   7
ATOM      7  C   UNL A   1      35.079  22.998  24.621  1.00  0.00     0.181 C 
ATOM      8  N   UNL A   1      33.849  23.379  23.840  1.00  0.00    -0.320 N 
ATOM      9  C   UNL A   1      32.831  22.370  23.467  1.00  0.00     0.178 C 
ATOM     10  C   UNL A   1      33.044  21.067  24.141  1.00  0.00     0.081 A 
ATOM     11  C   UNL A   1      34.871  21.871  25.679  1.00  0.00     0.091 C 
ATOM     12  N   UNL A   1      32.494  19.878  23.729  1.00  0.00    -0.240 NA
ATOM     13  C   UNL A   1      33.952  20.846  25.143  1.00  0.00     0.042 A 
ATOM     14  C   UNL A   1      33.078  18.954  24.461  1.00  0.00     0.197 A 
ATOM     15  N   UNL A   1      33.940  19.501  25.376  1.00  0.00    -0.348 N 
ATOM     16  H   UNL A   1      34.450  19.018  26.066  1.00  0.00     0.167 HD
BRANCH   8  17
ATOM     17  C   UNL A   1      33.462  24.700  23.556  1.00  0.00     0.254 C 
ATOM     18  O   UNL A   1      33.644  25.196  22.441  1.00  0.00    -0.269 OA
BRANCH  17  19
ATOM     19  C   UNL A   1      32.856  25.596  24.576  1.00  0.00     0.040 A 
ATOM     20  C   UNL A   1      31.809  27.060  26.756  1.00  0.00     0.031 A 
ATOM     21  C   UNL A   1      33.181  27.053  26.501  1.00  0.00     0.026 A 
ATOM     22  C   UNL A   1      30.968  26.352  25.897  1.00  0.00     0.026 A 
ATOM     23  C   UNL A   1      33.704  26.322  25.424  1.00  0.00     0.016 A 
ATOM     24  C   UNL A   1      31.489  25.586  24.847  1.00  0.00     0.016 A 
BRANCH  20  25
ATOM     25  N   UNL A   1      31.279  27.834  27.774  1.00  0.00    -0.399 N 
ATOM     26  H   UNL A   1      30.369  28.200  27.691  1.00  0.00     0.156 HD
ATOM     27  H   UNL A   1      31.812  28.019  28.581  1.00  0.00     0.156 HD
ENDBRANCH  20  25
ENDBRANCH  17  19
ENDBRANCH   8  17
ENDBRANCH   4   7
ENDBRANCH   2   3
ENDBRANCH   1   2
BRANCH   1  28
ATOM     28  C   UNL A   1      40.320  22.585  27.010  1.00  0.00     0.118 C 
BRANCH  28  29
ATOM     29  N   UNL A   1      41.721  22.262  26.659  1.00  0.00    -0.352 N 
ATOM     30  C   UNL A   1      42.722  23.119  26.180  1.00  0.00     0.251 C 
ATOM     31  H   UNL A   1      41.985  21.321  26.778  1.00  0.00     0.163 HD
ATOM     32  O   UNL A   1      43.718  22.696  25.636  1.00  0.00    -0.269 OA
BRANCH  30  33
ATOM     33  C   UNL A   1      42.516  24.565  26.395  1.00  0.00     0.039 A 
ATOM     34  C   UNL A   1      41.553  25.351  25.754  1.00  0.00     0.014 A 
ATOM     35  C   UNL A   1      43.229  25.065  27.460  1.00  0.00     0.014 A 
ATOM     36  C   UNL A   1      41.281  26.613  26.293  1.00  0.00     0.010 A 
ATOM     37  C   UNL A   1      42.587  25.989  28.213  1.00  0.00     0.010 A 
ATOM     38  C   UNL A   1      41.813  26.913  27.552  1.00  0.00    -0.014 A 
BRANCH  38  39
ATOM     39  C   UNL A   1      41.622  28.139  28.305  1.00  0.00     0.031 A 
ATOM     40  C   UNL A   1      42.645  29.180  28.070  1.00  0.00     0.074 A 
ATOM     41  C   UNL A   1      40.431  28.417  28.894  1.00  0.00     0.049 A 
ATOM     42  N   UNL A   1      43.595  29.542  28.864  1.00  0.00    -0.248 NA
ATOM     43  C   UNL A   1      42.739  29.770  26.726  1.00  0.00     0.031 C 
ATOM     44  C   UNL A   1      39.170  27.651  28.883  1.00  0.00     0.029 A 
ATOM     45  N   UNL A   1      40.070  29.543  29.559  1.00  0.00    -0.354 N 
ATOM     46  C   UNL A   1      44.255  30.582  28.218  1.00  0.00     0.074 A 
ATOM     47  C   UNL A   1      43.847  30.507  26.840  1.00  0.00     0.031 C 
ATOM     48  C   UNL A   1      38.150  28.432  29.303  1.00  0.00     0.029 A 
ATOM     49  C   UNL A   1      38.703  29.677  29.791  1.00  0.00     0.049 A 
ATOM     50  H   UNL A   1      40.726  30.215  29.855  1.00  0.00     0.167 HD
ATOM     51  C   UNL A   1      44.888  31.562  28.925  1.00  0.00     0.037 A 
ATOM     52  C   UNL A   1      38.095  30.764  30.330  1.00  0.00     0.037 A 
ATOM     53  C   UNL A   1      44.974  31.202  30.324  1.00  0.00     0.049 A 
ATOM     54  C   UNL A   1      39.162  31.517  31.053  1.00  0.00     0.074 A 
ATOM     55  C   UNL A   1      45.548  30.152  31.015  1.00  0.00     0.029 A 
ATOM     56  N   UNL A   1      44.041  31.743  31.180  1.00  0.00    -0.354 N 
ATOM     57  N   UNL A   1      39.803  31.037  32.091  1.00  0.00    -0.248 NA
ATOM     58  C   UNL A   1      39.874  32.545  30.308  1.00  0.00     0.031 C 
ATOM     59  C   UNL A   1      44.586  29.803  32.011  1.00  0.00     0.029 A 
ATOM     60  C   UNL A   1      43.529  30.713  31.933  1.00  0.00     0.049 A 
ATOM     61  H   UNL A   1      43.786  32.693  31.242  1.00  0.00     0.167 HD
ATOM     62  C   UNL A   1      41.133  31.397  31.899  1.00  0.00     0.074 A 
ATOM     63  C   UNL A   1      41.103  32.372  30.807  1.00  0.00     0.031 C 
ATOM     64  C   UNL A   1      42.163  30.659  32.418  1.00  0.00     0.037 A 
BRANCH  51  65
ATOM     65  C   UNL A   1      45.122  32.980  28.454  1.00  0.00     0.058 A 
ATOM     66  C   UNL A   1      46.446  33.469  28.406  1.00  0.00     0.135 A 
ATOM     67  C   UNL A   1      44.113  33.955  28.296  1.00  0.00     0.135 A 
ATOM     68  F   UNL A   1      47.491  32.635  28.526  1.00  0.00    -0.206 F 
ATOM     69  C   UNL A   1      46.739  34.830  28.307  1.00  0.00     0.059 A 
ATOM     70  C   UNL A   1      44.386  35.310  28.140  1.00  0.00     0.059 A 
ATOM     71  F   UNL A   1      42.811  33.664  28.378  1.00  0.00    -0.206 F 
ATOM     72  C   UNL A   1      45.698  35.744  28.197  1.00  0.00     0.060 A 
BRANCH  72  73
ATOM     73  S   UNL A   1      46.068  37.506  28.201  1.00  0.00     0.124 S 
ATOM     74  O   UNL A   1      45.741  37.867  29.576  1.00  0.00    -0.237 OA
ATOM     75  O   UNL A   1      47.486  37.519  27.856  1.00  0.00    -0.237 OA
ATOM     76  O   UNL A   1      45.173  38.040  27.179  1.00  0.00    -0.744 OA
ENDBRANCH  72  73
ENDBRANCH  51  65
BRANCH  52  77
ATOM     77  C   UNL A   1      36.795  31.363  29.913  1.00  0.00     0.058 A 
ATOM     78  C   UNL A   1      35.922  31.950  30.845  1.00  0.00     0.135 A 
ATOM     79  C   UNL A   1      36.507  31.618  28.555  1.00  0.00     0.135 A 
ATOM     80  F   UNL A   1      36.126  31.774  32.161  1.00  0.00    -0.206 F 
ATOM     81  C   UNL A   1      34.860  32.781  30.459  1.00  0.00     0.059 A 
ATOM     82  C   UNL A   1      35.452  32.434  28.145  1.00  0.00     0.059 A 
ATOM     83  F   UNL A   1      37.300  31.153  27.578  1.00  0.00    -0.206 F 
ATOM     84  C   UNL A   1      34.647  33.036  29.104  1.00  0.00     0.060 A 
BRANCH  84  85
ATOM     85  S   UNL A   1      33.404  34.252  28.601  1.00  0.00     0.124 S 
ATOM     86  O   UNL A   1      32.769  34.580  29.873  1.00  0.00    -0.237 OA
ATOM     87  O   UNL A   1      34.222  35.303  28.007  1.00  0.00    -0.237 OA
ATOM     88  O   UNL A   1      32.568  33.512  27.659  1.00  0.00    -0.744 OA
ENDBRANCH  84  85
ENDBRANCH  52  77
BRANCH  64  89
ATOM     89  C   UNL A   1      41.846  29.552  33.401  1.00  0.00     0.058 A 
ATOM     90  C   UNL A   1      41.674  28.198  33.052  1.00  0.00     0.135 A 
ATOM     91  C   UNL A   1      41.913  29.841  34.772  1.00  0.00     0.135 A 
ATOM     92  F   UNL A   1      41.701  27.811  31.772  1.00  0.00    -0.206 F 
ATOM     93  C   UNL A   1      41.540  27.192  34.012  1.00  0.00     0.059 A 
ATOM     94  C   UNL A   1      41.812  28.850  35.749  1.00  0.00     0.059 A 
ATOM     95  F   UNL A   1      42.141  31.100  35.182  1.00  0.00    -0.206 F 
ATOM     96  C   UNL A   1      41.613  27.528  35.362  1.00  0.00     0.060 A 
BRANCH  96  97
ATOM     97  S   UNL A   1      41.511  26.218  36.602  1.00  0.00     0.124 S 
ATOM     98  O   UNL A   1      41.063  25.079  35.808  1.00  0.00    -0.237 OA
ATOM     99  O   UNL A   1      42.882  26.142  37.099  1.00  0.00    -0.237 OA
ATOM    100  O   UNL A   1      40.537  26.732  37.561  1.00  0.00    -0.744 OA
ENDBRANCH  96  97
ENDBRANCH  64  89
ENDBRANCH  38  39
ENDBRANCH  30  33
ENDBRANCH  28  29
ENDBRANCH   1  28
TORSDOF 16
ENDMDL
MODEL 3
REMARK VINA RESULT:     -13.0      1.363      3.042
REMARK SMILES Nc1ccc(C(=O)N2Cc3nc[nH]c3C[C@H]2C(=O)NCCCNC(=O)c2ccc(-c3c4nc(c(-c5c(F)cc(S(=O)(=O)[O-])cc5F)c5ccc([nH]5)c(-c5c(F)cc(S(=O)(=O)[O-])cc5F)c5nc(c(-c6c(F)cc(S(=O)(=O)[O-])cc6F)c6ccc3[nH]6)C=C5)C=C4)cc2)cc1
REMARK SMILES IDX 21 1 20 2 19 3 17 4 18 5 16 7 8 8 9 9 10 10 15 11 11 12
REMARK SMILES IDX 14 13 12 14 13 15 6 17 7 18 5 19 2 20 3 21 93 22 4 23 92 24
REMARK SMILES IDX 1 25 22 28 23 29 24 30 25 32 26 33 27 34 91 35 28 36 90 37
REMARK SMILES IDX 29 38 30 39 31 40 84 41 32 42 89 43 83 44 85 45 33 46 88 47
REMARK SMILES IDX 82 48 81 49 34 51 68 52 47 53 67 54 48 55 51 56 66 57 86 58
REMARK SMILES IDX 49 59 50 60 65 62 87 63 52 64 35 65 36 66 45 67 37 68 38 69
REMARK SMILES IDX 44 70 46 71 39 72 40 73 41 74 42 75 43 76 69 77 70 78 79 79
REMARK SMILES IDX 71 80 72 81 78 82 80 83 73 84 74 85 75 86 76 87 77 88 53 89
REMARK SMILES IDX 54 90 63 91 55 92 56 93 62 94 64 95 57 96 58 97 59 98 60 99
REMARK SMILES IDX 61 100
REMARK H PARENT 19 6 13 16 1 26 1 27 23 31 85 50 51 61
REMARK Flexibility Score: inf
ROOT
ATOM      1  C   UNL A   1      37.180  21.657  24.836  1.00  0.00     0.042 C 
ENDROOT
BRANCH   1   2
ATOM      2  C   UNL A   1      35.953  22.377  24.282  1.00  0.00     0.117 C 
BRANCH   2   3
ATOM      3  N   UNL A   1      35.811  23.756  24.711  1.00  0.00    -0.354 N 
ATOM      4  C   UNL A   1      34.711  24.475  25.056  1.00  0.00     0.243 C 
ATOM      5  O   UNL A   1      34.896  25.343  25.921  1.00  0.00    -0.273 OA
ATOM      6  H   UNL A   1      36.658  24.257  24.761  1.00  0.00     0.163 HD
BRANCH   4   7
ATOM      7  C   UNL A   1      33.273  24.247  24.518  1.00  0.00     0.181 C 
ATOM      8  N   UNL A   1      33.091  23.878  23.069  1.00  0.00    -0.320 N 
ATOM      9  C   UNL A   1      32.865  22.474  22.656  1.00  0.00     0.178 C 
ATOM     10  C   UNL A   1      32.603  21.575  23.805  1.00  0.00     0.081 A 
ATOM     11  C   UNL A   1      32.434  23.406  25.528  1.00  0.00     0.091 C 
ATOM     12  N   UNL A   1      32.712  20.206  23.764  1.00  0.00    -0.240 NA
ATOM     13  C   UNL A   1      32.397  21.995  25.093  1.00  0.00     0.042 A 
ATOM     14  C   UNL A   1      32.592  19.811  25.013  1.00  0.00     0.197 A 
ATOM     15  N   UNL A   1      32.347  20.864  25.857  1.00  0.00    -0.348 N 
ATOM     16  H   UNL A   1      32.169  20.814  26.824  1.00  0.00     0.167 HD
BRANCH   8  17
ATOM     17  C   UNL A   1      32.940  24.804  22.023  1.00  0.00     0.254 C 
ATOM     18  O   UNL A   1      33.323  24.548  20.879  1.00  0.00    -0.269 OA
BRANCH  17  19
ATOM     19  C   UNL A   1      32.354  26.156  22.226  1.00  0.00     0.040 A 
ATOM     20  C   UNL A   1      31.286  28.668  22.961  1.00  0.00     0.031 A 
ATOM     21  C   UNL A   1      32.663  28.446  22.995  1.00  0.00     0.026 A 
ATOM     22  C   UNL A   1      30.455  27.632  22.532  1.00  0.00     0.026 A 
ATOM     23  C   UNL A   1      33.195  27.199  22.638  1.00  0.00     0.016 A 
ATOM     24  C   UNL A   1      30.978  26.372  22.216  1.00  0.00     0.016 A 
BRANCH  20  25
ATOM     25  N   UNL A   1      30.759  29.915  23.245  1.00  0.00    -0.399 N 
ATOM     26  H   UNL A   1      30.135  30.342  22.614  1.00  0.00     0.156 HD
ATOM     27  H   UNL A   1      31.007  30.377  24.078  1.00  0.00     0.156 HD
ENDBRANCH  20  25
ENDBRANCH  17  19
ENDBRANCH   8  17
ENDBRANCH   4   7
ENDBRANCH   2   3
ENDBRANCH   1   2
BRANCH   1  28
ATOM     28  C   UNL A   1      38.085  22.589  25.613  1.00  0.00     0.118 C 
BRANCH  28  29
ATOM     29  N   UNL A   1      39.073  21.896  26.468  1.00  0.00    -0.352 N 
ATOM     30  C   UNL A   1      40.185  22.433  27.131  1.00  0.00     0.251 C 
ATOM     31  H   UNL A   1      38.931  20.929  26.586  1.00  0.00     0.163 HD
ATOM     32  O   UNL A   1      41.088  21.734  27.535  1.00  0.00    -0.269 OA
BRANCH  30  33
ATOM     33  C   UNL A   1      40.191  23.895  27.339  1.00  0.00     0.039 A 
ATOM     34  C   UNL A   1      39.070  24.727  27.273  1.00  0.00     0.014 A 
ATOM     35  C   UNL A   1      41.387  24.373  27.822  1.00  0.00     0.014 A 
ATOM     36  C   UNL A   1      39.186  26.018  27.799  1.00  0.00     0.010 A 
ATOM     37  C   UNL A   1      41.295  25.356  28.747  1.00  0.00     0.010 A 
ATOM     38  C   UNL A   1      40.326  26.314  28.555  1.00  0.00    -0.014 A 
BRANCH  38  39
ATOM     39  C   UNL A   1      40.626  27.568  29.220  1.00  0.00     0.031 A 
ATOM     40  C   UNL A   1      41.655  28.396  28.556  1.00  0.00     0.074 A 
ATOM     41  C   UNL A   1      39.789  28.075  30.160  1.00  0.00     0.049 A 
ATOM     42  N   UNL A   1      42.872  28.590  28.935  1.00  0.00    -0.248 NA
ATOM     43  C   UNL A   1      41.358  28.931  27.218  1.00  0.00     0.031 C 
ATOM     44  C   UNL A   1      38.498  27.558  30.655  1.00  0.00     0.029 A 
ATOM     45  N   UNL A   1      39.884  29.262  30.811  1.00  0.00    -0.354 N 
ATOM     46  C   UNL A   1      43.422  29.475  28.013  1.00  0.00     0.074 A 
ATOM     47  C   UNL A   1      42.541  29.450  26.876  1.00  0.00     0.031 C 
ATOM     48  C   UNL A   1      37.843  28.524  31.336  1.00  0.00     0.029 A 
ATOM     49  C   UNL A   1      38.733  29.653  31.493  1.00  0.00     0.049 A 
ATOM     50  H   UNL A   1      40.704  29.805  30.803  1.00  0.00     0.167 HD
ATOM     51  C   UNL A   1      44.420  30.334  28.369  1.00  0.00     0.037 A 
ATOM     52  C   UNL A   1      38.549  30.845  32.116  1.00  0.00     0.037 A 
ATOM     53  C   UNL A   1      44.940  29.992  29.676  1.00  0.00     0.049 A 
ATOM     54  C   UNL A   1      39.915  31.400  32.355  1.00  0.00     0.074 A 
ATOM     55  C   UNL A   1      45.539  28.868  30.211  1.00  0.00     0.029 A 
ATOM     56  N   UNL A   1      44.479  30.715  30.754  1.00  0.00    -0.354 N 
ATOM     57  N   UNL A   1      40.794  30.830  33.141  1.00  0.00    -0.248 NA
ATOM     58  C   UNL A   1      40.474  32.262  31.324  1.00  0.00     0.031 C 
ATOM     59  C   UNL A   1      44.954  28.724  31.505  1.00  0.00     0.029 A 
ATOM     60  C   UNL A   1      44.107  29.813  31.723  1.00  0.00     0.049 A 
ATOM     61  H   UNL A   1      44.426  31.696  30.820  1.00  0.00     0.167 HD
ATOM     62  C   UNL A   1      42.008  30.931  32.468  1.00  0.00     0.074 A 
ATOM     63  C   UNL A   1      41.752  31.872  31.376  1.00  0.00     0.031 C 
ATOM     64  C   UNL A   1      43.017  30.025  32.657  1.00  0.00     0.037 A 
BRANCH  51  65
ATOM     65  C   UNL A   1      44.703  31.674  27.727  1.00  0.00     0.058 A 
ATOM     66  C   UNL A   1      45.872  31.819  26.948  1.00  0.00     0.135 A 
ATOM     67  C   UNL A   1      44.035  32.877  28.043  1.00  0.00     0.135 A 
ATOM     68  F   UNL A   1      46.582  30.745  26.570  1.00  0.00    -0.206 F 
ATOM     69  C   UNL A   1      46.387  33.066  26.595  1.00  0.00     0.059 A 
ATOM     70  C   UNL A   1      44.502  34.128  27.653  1.00  0.00     0.059 A 
ATOM     71  F   UNL A   1      42.950  32.916  28.823  1.00  0.00    -0.206 F 
ATOM     72  C   UNL A   1      45.704  34.217  26.972  1.00  0.00     0.060 A 
BRANCH  72  73
ATOM     73  S   UNL A   1      46.433  35.827  26.632  1.00  0.00     0.124 S 
ATOM     74  O   UNL A   1      47.326  35.988  27.774  1.00  0.00    -0.237 OA
ATOM     75  O   UNL A   1      47.077  35.602  25.342  1.00  0.00    -0.237 OA
ATOM     76  O   UNL A   1      45.278  36.719  26.604  1.00  0.00    -0.744 OA
ENDBRANCH  72  73
ENDBRANCH  51  65
BRANCH  52  77
ATOM     77  C   UNL A   1      37.306  31.667  32.128  1.00  0.00     0.058 A 
ATOM     78  C   UNL A   1      36.731  32.114  33.331  1.00  0.00     0.135 A 
ATOM     79  C   UNL A   1      36.809  32.264  30.950  1.00  0.00     0.135 A 
ATOM     80  F   UNL A   1      37.151  31.613  34.504  1.00  0.00    -0.206 F 
ATOM     81  C   UNL A   1      35.761  33.126  33.368  1.00  0.00     0.059 A 
ATOM     82  C   UNL A   1      35.839  33.267  30.960  1.00  0.00     0.059 A 
ATOM     83  F   UNL A   1      37.318  31.955  29.748  1.00  0.00    -0.206 F 
ATOM     84  C   UNL A   1      35.338  33.714  32.175  1.00  0.00     0.060 A 
BRANCH  84  85
ATOM     85  S   UNL A   1      34.231  35.146  32.220  1.00  0.00     0.124 S 
ATOM     86  O   UNL A   1      33.042  34.590  32.857  1.00  0.00    -0.237 OA
ATOM     87  O   UNL A   1      34.994  36.101  33.016  1.00  0.00    -0.237 OA
ATOM     88  O   UNL A   1      34.077  35.500  30.811  1.00  0.00    -0.744 OA
ENDBRANCH  84  85
ENDBRANCH  52  77
BRANCH  64  89
ATOM     89  C   UNL A   1      42.893  29.016  33.779  1.00  0.00     0.058 A 
ATOM     90  C   UNL A   1      43.161  29.291  35.134  1.00  0.00     0.135 A 
ATOM     91  C   UNL A   1      42.293  27.779  33.498  1.00  0.00     0.135 A 
ATOM     92  F   UNL A   1      43.637  30.482  35.512  1.00  0.00    -0.206 F 
ATOM     93  C   UNL A   1      42.881  28.373  36.151  1.00  0.00     0.059 A 
ATOM     94  C   UNL A   1      41.976  26.860  34.498  1.00  0.00     0.059 A 
ATOM     95  F   UNL A   1      41.948  27.473  32.236  1.00  0.00    -0.206 F 
ATOM     96  C   UNL A   1      42.284  27.159  35.822  1.00  0.00     0.060 A 
BRANCH  96  97
ATOM     97  S   UNL A   1      41.856  26.002  37.143  1.00  0.00     0.124 S 
ATOM     98  O   UNL A   1      40.488  26.396  37.463  1.00  0.00    -0.237 OA
ATOM     99  O   UNL A   1      42.006  24.705  36.491  1.00  0.00    -0.237 OA
ATOM    100  O   UNL A   1      42.845  26.288  38.179  1.00  0.00    -0.744 OA
ENDBRANCH  96  97
ENDBRANCH  64  89
ENDBRANCH  38  39
ENDBRANCH  30  33
ENDBRANCH  28  29
ENDBRANCH   1  28
TORSDOF 16
ENDMDL
