MODEL 1
REMARK VINA RESULT:     -11.6      0.000      0.000
REMARK SMILES O=Cc1[nH]nc2cc(C(=O)NCCCNC(=O)c3ccc(-c4c5nc(c(-c6c(F)cc(S(=O)(=O)[O-])cc6F)c6ccc([nH]6)c(-c6c(F)cc(S(=O)(=O)[O-])cc6F)c6nc(c(-c7c(F)cc(S(=O)(=O)[O-])cc7F)c7ccc4[nH]7)C=C6)C=C5)cc3)ccc12
REMARK SMILES IDX 14 1 13 2 12 3 11 4 9 5 10 6 8 8 3 9 4 10 86 11 5 12 6 14
REMARK SMILES IDX 85 15 7 16 84 17 2 18 1 19 15 20 16 21 17 23 18 24 19 25
REMARK SMILES IDX 83 26 20 27 82 28 21 29 22 30 23 31 76 32 24 33 81 34 75 35
REMARK SMILES IDX 77 36 25 37 80 38 74 39 73 40 26 42 60 43 39 44 59 45 40 46
REMARK SMILES IDX 43 47 58 48 78 49 41 50 42 51 57 53 79 54 44 55 27 56 28 57
REMARK SMILES IDX 37 58 29 59 30 60 36 61 38 62 31 63 32 64 33 65 34 66 35 67
REMARK SMILES IDX 61 68 62 69 71 70 63 71 64 72 70 73 72 74 65 75 66 76 67 77
REMARK SMILES IDX 68 78 69 79 45 80 46 81 55 82 47 83 48 84 54 85 56 86 49 87
REMARK SMILES IDX 50 88 51 89 52 90 53 91
REMARK H PARENT 11 7 4 13 15 22 77 41 43 52
REMARK Flexibility Score: inf
ROOT
ATOM      1  C   UNL A   1      33.640  28.321  27.177  1.00  0.00     0.118 C 
ENDROOT
BRANCH   1   2
ATOM      2  C   UNL A   1      33.902  28.066  25.693  1.00  0.00     0.042 C 
BRANCH   2   3
ATOM      3  C   UNL A   1      33.632  26.620  25.286  1.00  0.00     0.118 C 
BRANCH   3   4
ATOM      4  N   UNL A   1      33.720  26.461  23.846  1.00  0.00    -0.352 N 
ATOM      5  C   UNL A   1      33.770  25.376  23.013  1.00  0.00     0.251 C 
ATOM      6  O   UNL A   1      33.815  25.619  21.805  1.00  0.00    -0.269 OA
ATOM      7  H   UNL A   1      33.751  27.319  23.366  1.00  0.00     0.163 HD
BRANCH   5   8
ATOM      8  C   UNL A   1      33.720  23.949  23.460  1.00  0.00     0.042 A 
ATOM      9  C   UNL A   1      33.995  20.069  24.742  1.00  0.00     0.105 A 
ATOM     10  N   UNL A   1      35.270  20.184  25.228  1.00  0.00    -0.274 N 
ATOM     11  C   UNL A   1      33.714  21.326  24.266  1.00  0.00     0.030 A 
ATOM     12  N   UNL A   1      35.852  21.378  25.023  1.00  0.00    -0.175 NA
ATOM     13  H   UNL A   1      35.727  19.447  25.695  1.00  0.00     0.190 HD
ATOM     14  C   UNL A   1      34.901  22.123  24.436  1.00  0.00     0.094 A 
ATOM     15  C   UNL A   1      32.501  21.756  23.741  1.00  0.00     0.013 A 
ATOM     16  C   UNL A   1      34.936  23.462  24.016  1.00  0.00     0.044 A 
ATOM     17  C   UNL A   1      32.550  23.124  23.383  1.00  0.00     0.015 A 
BRANCH   9  18
ATOM     18  C   UNL A   1      33.228  18.856  24.778  1.00  0.00     0.280 C 
ATOM     19  O   UNL A   1      32.311  18.619  25.558  1.00  0.00    -0.296 OA
ENDBRANCH   9  18
ENDBRANCH   5   8
ENDBRANCH   3   4
ENDBRANCH   2   3
ENDBRANCH   1   2
BRANCH   1  20
ATOM     20  N   UNL A   1      33.568  29.748  27.474  1.00  0.00    -0.352 N 
ATOM     21  C   UNL A   1      34.474  30.556  28.120  1.00  0.00     0.251 C 
ATOM     22  H   UNL A   1      32.750  30.199  27.166  1.00  0.00     0.163 HD
ATOM     23  O   UNL A   1      34.134  31.670  28.501  1.00  0.00    -0.269 OA
BRANCH  21  24
ATOM     24  C   UNL A   1      35.849  30.072  28.355  1.00  0.00     0.039 A 
ATOM     25  C   UNL A   1      36.779  30.113  27.312  1.00  0.00     0.014 A 
ATOM     26  C   UNL A   1      36.212  29.565  29.605  1.00  0.00     0.014 A 
ATOM     27  C   UNL A   1      38.097  29.712  27.545  1.00  0.00     0.010 A 
ATOM     28  C   UNL A   1      37.539  29.238  29.854  1.00  0.00     0.010 A 
ATOM     29  C   UNL A   1      38.494  29.307  28.829  1.00  0.00    -0.014 A 
BRANCH  29  30
ATOM     30  C   UNL A   1      39.898  28.938  29.144  1.00  0.00     0.031 A 
ATOM     31  C   UNL A   1      40.837  29.988  29.669  1.00  0.00     0.074 A 
ATOM     32  C   UNL A   1      40.349  27.703  28.847  1.00  0.00     0.049 A 
ATOM     33  N   UNL A   1      42.134  29.936  29.821  1.00  0.00    -0.248 NA
ATOM     34  C   UNL A   1      40.239  31.281  30.041  1.00  0.00     0.031 C 
ATOM     35  C   UNL A   1      39.538  26.612  28.306  1.00  0.00     0.029 A 
ATOM     36  N   UNL A   1      41.611  27.168  28.930  1.00  0.00    -0.354 N 
ATOM     37  C   UNL A   1      42.511  31.193  30.279  1.00  0.00     0.074 A 
ATOM     38  C   UNL A   1      41.312  32.001  30.335  1.00  0.00     0.031 C 
ATOM     39  C   UNL A   1      40.320  25.539  28.105  1.00  0.00     0.029 A 
ATOM     40  C   UNL A   1      41.696  25.881  28.451  1.00  0.00     0.049 A 
ATOM     41  H   UNL A   1      42.381  27.659  29.296  1.00  0.00     0.167 HD
ATOM     42  C   UNL A   1      43.742  31.627  30.638  1.00  0.00     0.037 A 
ATOM     43  C   UNL A   1      42.766  25.078  28.282  1.00  0.00     0.037 A 
ATOM     44  C   UNL A   1      44.922  30.804  30.597  1.00  0.00     0.049 A 
ATOM     45  C   UNL A   1      44.129  25.588  28.669  1.00  0.00     0.074 A 
ATOM     46  C   UNL A   1      46.211  31.131  30.983  1.00  0.00     0.029 A 
ATOM     47  N   UNL A   1      44.958  29.493  30.145  1.00  0.00    -0.354 N 
ATOM     48  N   UNL A   1      44.464  26.765  29.143  1.00  0.00    -0.248 NA
ATOM     49  C   UNL A   1      45.261  24.665  28.500  1.00  0.00     0.031 C 
ATOM     50  C   UNL A   1      47.034  30.034  30.719  1.00  0.00     0.029 A 
ATOM     51  C   UNL A   1      46.250  29.002  30.226  1.00  0.00     0.049 A 
ATOM     52  H   UNL A   1      44.181  28.987  29.816  1.00  0.00     0.167 HD
ATOM     53  C   UNL A   1      45.835  26.710  29.365  1.00  0.00     0.074 A 
ATOM     54  C   UNL A   1      46.269  25.386  28.973  1.00  0.00     0.031 C 
ATOM     55  C   UNL A   1      46.659  27.669  29.856  1.00  0.00     0.037 A 
BRANCH  42  56
ATOM     56  C   UNL A   1      43.875  33.053  31.101  1.00  0.00     0.058 A 
ATOM     57  C   UNL A   1      43.833  33.392  32.464  1.00  0.00     0.135 A 
ATOM     58  C   UNL A   1      44.085  34.088  30.177  1.00  0.00     0.135 A 
ATOM     59  F   UNL A   1      43.621  32.445  33.391  1.00  0.00    -0.206 F 
ATOM     60  C   UNL A   1      43.959  34.710  32.890  1.00  0.00     0.059 A 
ATOM     61  C   UNL A   1      44.245  35.410  30.582  1.00  0.00     0.059 A 
ATOM     62  F   UNL A   1      44.134  33.822  28.862  1.00  0.00    -0.206 F 
ATOM     63  C   UNL A   1      44.165  35.712  31.940  1.00  0.00     0.060 A 
BRANCH  63  64
ATOM     64  S   UNL A   1      44.332  37.417  32.513  1.00  0.00     0.124 S 
ATOM     65  O   UNL A   1      43.169  37.544  33.386  1.00  0.00    -0.237 OA
ATOM     66  O   UNL A   1      45.628  37.395  33.183  1.00  0.00    -0.237 OA
ATOM     67  O   UNL A   1      44.278  38.197  31.281  1.00  0.00    -0.744 OA
ENDBRANCH  63  64
ENDBRANCH  42  56
BRANCH  43  68
ATOM     68  C   UNL A   1      42.588  23.710  27.724  1.00  0.00     0.058 A 
ATOM     69  C   UNL A   1      42.458  22.598  28.567  1.00  0.00     0.135 A 
ATOM     70  C   UNL A   1      42.527  23.489  26.339  1.00  0.00     0.135 A 
ATOM     71  F   UNL A   1      42.516  22.756  29.899  1.00  0.00    -0.206 F 
ATOM     72  C   UNL A   1      42.291  21.313  28.061  1.00  0.00     0.059 A 
ATOM     73  C   UNL A   1      42.333  22.217  25.807  1.00  0.00     0.059 A 
ATOM     74  F   UNL A   1      42.627  24.521  25.487  1.00  0.00    -0.206 F 
ATOM     75  C   UNL A   1      42.227  21.133  26.678  1.00  0.00     0.060 A 
BRANCH  75  76
ATOM     76  S   UNL A   1      41.966  19.466  26.033  1.00  0.00     0.124 S 
ATOM     77  O   UNL A   1      42.427  18.645  27.147  1.00  0.00    -0.237 OA
ATOM     78  O   UNL A   1      40.529  19.456  25.784  1.00  0.00    -0.237 OA
ATOM     79  O   UNL A   1      42.803  19.434  24.837  1.00  0.00    -0.744 OA
ENDBRANCH  75  76
ENDBRANCH  43  68
BRANCH  55  80
ATOM     80  C   UNL A   1      48.106  27.318  30.058  1.00  0.00     0.058 A 
ATOM     81  C   UNL A   1      49.076  27.572  29.079  1.00  0.00     0.135 A 
ATOM     82  C   UNL A   1      48.540  26.820  31.299  1.00  0.00     0.135 A 
ATOM     83  F   UNL A   1      48.713  28.038  27.872  1.00  0.00    -0.206 F 
ATOM     84  C   UNL A   1      50.428  27.348  29.321  1.00  0.00     0.059 A 
ATOM     85  C   UNL A   1      49.887  26.616  31.574  1.00  0.00     0.059 A 
ATOM     86  F   UNL A   1      47.651  26.567  32.274  1.00  0.00    -0.206 F 
ATOM     87  C   UNL A   1      50.824  26.881  30.577  1.00  0.00     0.060 A 
BRANCH  87  88
ATOM     88  S   UNL A   1      52.588  26.677  30.905  1.00  0.00     0.124 S 
ATOM     89  O   UNL A   1      53.122  26.517  29.556  1.00  0.00    -0.237 OA
ATOM     90  O   UNL A   1      52.926  27.927  31.577  1.00  0.00    -0.237 OA
ATOM     91  O   UNL A   1      52.642  25.486  31.747  1.00  0.00    -0.744 OA
ENDBRANCH  87  88
ENDBRANCH  55  80
ENDBRANCH  29  30
ENDBRANCH  21  24
ENDBRANCH   1  20
TORSDOF 14
ENDMDL
MODEL 2
REMARK VINA RESULT:     -11.6      2.006      3.443
REMARK SMILES O=Cc1[nH]nc2cc(C(=O)NCCCNC(=O)c3ccc(-c4c5nc(c(-c6c(F)cc(S(=O)(=O)[O-])cc6F)c6ccc([nH]6)c(-c6c(F)cc(S(=O)(=O)[O-])cc6F)c6nc(c(-c7c(F)cc(S(=O)(=O)[O-])cc7F)c7ccc4[nH]7)C=C6)C=C5)cc3)ccc12
REMARK SMILES IDX 14 1 13 2 12 3 11 4 9 5 10 6 8 8 3 9 4 10 86 11 5 12 6 14
REMARK SMILES IDX 85 15 7 16 84 17 2 18 1 19 15 20 16 21 17 23 18 24 19 25
REMARK SMILES IDX 83 26 20 27 82 28 21 29 22 30 23 31 76 32 24 33 81 34 75 35
REMARK SMILES IDX 77 36 25 37 80 38 74 39 73 40 26 42 60 43 39 44 59 45 40 46
REMARK SMILES IDX 43 47 58 48 78 49 41 50 42 51 57 53 79 54 44 55 27 56 28 57
REMARK SMILES IDX 37 58 29 59 30 60 36 61 38 62 31 63 32 64 33 65 34 66 35 67
REMARK SMILES IDX 61 68 62 69 71 70 63 71 64 72 70 73 72 74 65 75 66 76 67 77
REMARK SMILES IDX 68 78 69 79 45 80 46 81 55 82 47 83 48 84 54 85 56 86 49 87
REMARK SMILES IDX 50 88 51 89 52 90 53 91
REMARK H PARENT 11 7 4 13 15 22 77 41 43 52
REMARK Flexibility Score: inf
ROOT
ATOM      1  C   UNL A   1      33.659  28.303  27.269  1.00  0.00     0.118 C 
ENDROOT
BRANCH   1   2
ATOM      2  C   UNL A   1      33.769  27.995  25.776  1.00  0.00     0.042 C 
BRANCH   2   3
ATOM      3  C   UNL A   1      33.844  26.497  25.488  1.00  0.00     0.118 C 
BRANCH   3   4
ATOM      4  N   UNL A   1      34.026  26.251  24.069  1.00  0.00    -0.352 N 
ATOM      5  C   UNL A   1      33.276  26.520  22.956  1.00  0.00     0.251 C 
ATOM      6  O   UNL A   1      33.766  26.183  21.875  1.00  0.00    -0.269 OA
ATOM      7  H   UNL A   1      34.872  25.791  23.863  1.00  0.00     0.163 HD
BRANCH   5   8
ATOM      8  C   UNL A   1      31.957  27.226  22.961  1.00  0.00     0.042 A 
ATOM      9  C   UNL A   1      28.173  28.789  23.044  1.00  0.00     0.105 A 
ATOM     10  N   UNL A   1      27.581  27.666  23.560  1.00  0.00    -0.274 N 
ATOM     11  C   UNL A   1      29.500  28.445  22.957  1.00  0.00     0.030 A 
ATOM     12  N   UNL A   1      28.402  26.615  23.723  1.00  0.00    -0.175 NA
ATOM     13  H   UNL A   1      26.625  27.631  23.795  1.00  0.00     0.190 HD
ATOM     14  C   UNL A   1      29.614  27.072  23.370  1.00  0.00     0.094 A 
ATOM     15  C   UNL A   1      30.541  29.278  22.566  1.00  0.00     0.013 A 
ATOM     16  C   UNL A   1      30.857  26.419  23.364  1.00  0.00     0.044 A 
ATOM     17  C   UNL A   1      31.787  28.610  22.629  1.00  0.00     0.015 A 
BRANCH   9  18
ATOM     18  C   UNL A   1      27.461  29.991  22.711  1.00  0.00     0.280 C 
ATOM     19  O   UNL A   1      27.093  30.843  23.513  1.00  0.00    -0.296 OA
ENDBRANCH   9  18
ENDBRANCH   5   8
ENDBRANCH   3   4
ENDBRANCH   2   3
ENDBRANCH   1   2
BRANCH   1  20
ATOM     20  N   UNL A   1      33.600  29.740  27.520  1.00  0.00    -0.352 N 
ATOM     21  C   UNL A   1      34.519  30.563  28.125  1.00  0.00     0.251 C 
ATOM     22  H   UNL A   1      32.780  30.186  27.208  1.00  0.00     0.163 HD
ATOM     23  O   UNL A   1      34.191  31.691  28.474  1.00  0.00    -0.269 OA
BRANCH  21  24
ATOM     24  C   UNL A   1      35.894  30.077  28.357  1.00  0.00     0.039 A 
ATOM     25  C   UNL A   1      36.812  30.083  27.302  1.00  0.00     0.014 A 
ATOM     26  C   UNL A   1      36.271  29.605  29.617  1.00  0.00     0.014 A 
ATOM     27  C   UNL A   1      38.130  29.681  27.531  1.00  0.00     0.010 A 
ATOM     28  C   UNL A   1      37.598  29.278  29.859  1.00  0.00     0.010 A 
ATOM     29  C   UNL A   1      38.541  29.311  28.821  1.00  0.00    -0.014 A 
BRANCH  29  30
ATOM     30  C   UNL A   1      39.947  28.943  29.129  1.00  0.00     0.031 A 
ATOM     31  C   UNL A   1      40.890  29.995  29.644  1.00  0.00     0.074 A 
ATOM     32  C   UNL A   1      40.396  27.707  28.835  1.00  0.00     0.049 A 
ATOM     33  N   UNL A   1      42.187  29.944  29.787  1.00  0.00    -0.248 NA
ATOM     34  C   UNL A   1      40.294  31.291  30.013  1.00  0.00     0.031 C 
ATOM     35  C   UNL A   1      39.581  26.613  28.304  1.00  0.00     0.029 A 
ATOM     36  N   UNL A   1      41.658  27.172  28.912  1.00  0.00    -0.354 N 
ATOM     37  C   UNL A   1      42.567  31.203  30.238  1.00  0.00     0.074 A 
ATOM     38  C   UNL A   1      41.368  32.011  30.298  1.00  0.00     0.031 C 
ATOM     39  C   UNL A   1      40.362  25.539  28.103  1.00  0.00     0.029 A 
ATOM     40  C   UNL A   1      41.740  25.883  28.439  1.00  0.00     0.049 A 
ATOM     41  H   UNL A   1      42.431  27.664  29.272  1.00  0.00     0.167 HD
ATOM     42  C   UNL A   1      43.801  31.638  30.587  1.00  0.00     0.037 A 
ATOM     43  C   UNL A   1      42.808  25.079  28.267  1.00  0.00     0.037 A 
ATOM     44  C   UNL A   1      44.980  30.815  30.543  1.00  0.00     0.049 A 
ATOM     45  C   UNL A   1      44.174  25.590  28.644  1.00  0.00     0.074 A 
ATOM     46  C   UNL A   1      46.271  31.143  30.920  1.00  0.00     0.029 A 
ATOM     47  N   UNL A   1      45.013  29.502  30.097  1.00  0.00    -0.354 N 
ATOM     48  N   UNL A   1      44.512  26.769  29.110  1.00  0.00    -0.248 NA
ATOM     49  C   UNL A   1      45.305  24.666  28.472  1.00  0.00     0.031 C 
ATOM     50  C   UNL A   1      47.093  30.044  30.655  1.00  0.00     0.029 A 
ATOM     51  C   UNL A   1      46.305  29.011  30.172  1.00  0.00     0.049 A 
ATOM     52  H   UNL A   1      44.234  28.995  29.775  1.00  0.00     0.167 HD
ATOM     53  C   UNL A   1      45.884  26.715  29.324  1.00  0.00     0.074 A 
ATOM     54  C   UNL A   1      46.316  25.388  28.936  1.00  0.00     0.031 C 
ATOM     55  C   UNL A   1      46.712  27.676  29.806  1.00  0.00     0.037 A 
BRANCH  42  56
ATOM     56  C   UNL A   1      43.937  33.066  31.043  1.00  0.00     0.058 A 
ATOM     57  C   UNL A   1      44.244  34.101  30.145  1.00  0.00     0.135 A 
ATOM     58  C   UNL A   1      43.721  33.410  32.387  1.00  0.00     0.135 A 
ATOM     59  F   UNL A   1      44.475  33.829  28.851  1.00  0.00    -0.206 F 
ATOM     60  C   UNL A   1      44.367  35.420  30.570  1.00  0.00     0.059 A 
ATOM     61  C   UNL A   1      43.807  34.727  32.829  1.00  0.00     0.059 A 
ATOM     62  F   UNL A   1      43.424  32.461  33.289  1.00  0.00    -0.206 F 
ATOM     63  C   UNL A   1      44.145  35.723  31.914  1.00  0.00     0.060 A 
BRANCH  63  64
ATOM     64  S   UNL A   1      44.304  37.442  32.444  1.00  0.00     0.124 S 
ATOM     65  O   UNL A   1      43.929  38.156  31.228  1.00  0.00    -0.237 OA
ATOM     66  O   UNL A   1      43.347  37.518  33.544  1.00  0.00    -0.237 OA
ATOM     67  O   UNL A   1      45.708  37.552  32.828  1.00  0.00    -0.744 OA
ENDBRANCH  63  64
ENDBRANCH  42  56
BRANCH  43  68
ATOM     68  C   UNL A   1      42.627  23.708  27.717  1.00  0.00     0.058 A 
ATOM     69  C   UNL A   1      42.527  22.597  28.565  1.00  0.00     0.135 A 
ATOM     70  C   UNL A   1      42.532  23.484  26.334  1.00  0.00     0.135 A 
ATOM     71  F   UNL A   1      42.618  22.758  29.895  1.00  0.00    -0.206 F 
ATOM     72  C   UNL A   1      42.358  21.309  28.066  1.00  0.00     0.059 A 
ATOM     73  C   UNL A   1      42.335  22.209  25.810  1.00  0.00     0.059 A 
ATOM     74  F   UNL A   1      42.603  24.515  25.478  1.00  0.00    -0.206 F 
ATOM     75  C   UNL A   1      42.259  21.126  26.686  1.00  0.00     0.060 A 
BRANCH  75  76
ATOM     76  S   UNL A   1      41.995  19.456  26.051  1.00  0.00     0.124 S 
ATOM     77  O   UNL A   1      40.562  19.465  25.785  1.00  0.00    -0.237 OA
ATOM     78  O   UNL A   1      42.863  19.434  24.878  1.00  0.00    -0.237 OA
ATOM     79  O   UNL A   1      42.426  18.604  27.157  1.00  0.00    -0.744 OA
ENDBRANCH  75  76
ENDBRANCH  43  68
BRANCH  55  80
ATOM     80  C   UNL A   1      48.160  27.325  30.001  1.00  0.00     0.058 A 
ATOM     81  C   UNL A   1      49.129  27.603  29.027  1.00  0.00     0.135 A 
ATOM     82  C   UNL A   1      48.595  26.804  31.232  1.00  0.00     0.135 A 
ATOM     83  F   UNL A   1      48.765  28.092  27.830  1.00  0.00    -0.206 F 
ATOM     84  C   UNL A   1      50.481  27.378  29.265  1.00  0.00     0.059 A 
ATOM     85  C   UNL A   1      49.943  26.597  31.502  1.00  0.00     0.059 A 
ATOM     86  F   UNL A   1      47.707  26.527  32.201  1.00  0.00    -0.206 F 
ATOM     87  C   UNL A   1      50.880  26.886  30.511  1.00  0.00     0.060 A 
BRANCH  87  88
ATOM     88  S   UNL A   1      52.644  26.681  30.835  1.00  0.00     0.124 S 
ATOM     89  O   UNL A   1      53.167  26.465  29.490  1.00  0.00    -0.237 OA
ATOM     90  O   UNL A   1      52.996  27.953  31.456  1.00  0.00    -0.237 OA
ATOM     91  O   UNL A   1      52.694  25.523  31.722  1.00  0.00    -0.744 OA
ENDBRANCH  87  88
ENDBRANCH  55  80
ENDBRANCH  29  30
ENDBRANCH  21  24
ENDBRANCH   1  20
TORSDOF 14
ENDMDL
MODEL 3
REMARK VINA RESULT:     -11.5      3.417      6.194
REMARK SMILES O=Cc1[nH]nc2cc(C(=O)NCCCNC(=O)c3ccc(-c4c5nc(c(-c6c(F)cc(S(=O)(=O)[O-])cc6F)c6ccc([nH]6)c(-c6c(F)cc(S(=O)(=O)[O-])cc6F)c6nc(c(-c7c(F)cc(S(=O)(=O)[O-])cc7F)c7ccc4[nH]7)C=C6)C=C5)cc3)ccc12
REMARK SMILES IDX 14 1 13 2 12 3 11 4 9 5 10 6 8 8 3 9 4 10 86 11 5 12 6 14
REMARK SMILES IDX 85 15 7 16 84 17 2 18 1 19 15 20 16 21 17 23 18 24 19 25
REMARK SMILES IDX 83 26 20 27 82 28 21 29 22 30 23 31 76 32 24 33 81 34 75 35
REMARK SMILES IDX 77 36 25 37 80 38 74 39 73 40 26 42 60 43 39 44 59 45 40 46
REMARK SMILES IDX 43 47 58 48 78 49 41 50 42 51 57 53 79 54 44 55 27 56 28 57
REMARK SMILES IDX 37 58 29 59 30 60 36 61 38 62 31 63 32 64 33 65 34 66 35 67
REMARK SMILES IDX 61 68 62 69 71 70 63 71 64 72 70 73 72 74 65 75 66 76 67 77
REMARK SMILES IDX 68 78 69 79 45 80 46 81 55 82 47 83 48 84 54 85 56 86 49 87
REMARK SMILES IDX 50 88 51 89 52 90 53 91
REMARK H PARENT 11 7 4 13 15 22 77 41 43 52
REMARK Flexibility Score: inf
ROOT
ATOM      1  C   UNL A   1      34.592  32.460  28.105  1.00  0.00     0.118 C 
ENDROOT
BRANCH   1   2
ATOM      2  C   UNL A   1      34.476  33.061  29.505  1.00  0.00     0.042 C 
BRANCH   2   3
ATOM      3  C   UNL A   1      35.062  34.469  29.592  1.00  0.00     0.118 C 
BRANCH   3   4
ATOM      4  N   UNL A   1      36.460  34.473  29.203  1.00  0.00    -0.352 N 
ATOM      5  C   UNL A   1      37.621  34.122  29.835  1.00  0.00     0.251 C 
ATOM      6  O   UNL A   1      38.656  34.234  29.174  1.00  0.00    -0.269 OA
ATOM      7  H   UNL A   1      36.603  34.801  28.286  1.00  0.00     0.163 HD
BRANCH   5   8
ATOM      8  C   UNL A   1      37.709  33.575  31.225  1.00  0.00     0.042 A 
ATOM      9  C   UNL A   1      38.078  32.453  35.147  1.00  0.00     0.105 A 
ATOM     10  N   UNL A   1      38.219  33.726  35.632  1.00  0.00    -0.274 N 
ATOM     11  C   UNL A   1      37.921  32.636  33.794  1.00  0.00     0.030 A 
ATOM     12  N   UNL A   1      38.253  34.690  34.697  1.00  0.00    -0.175 NA
ATOM     13  H   UNL A   1      38.289  33.921  36.595  1.00  0.00     0.190 HD
ATOM     14  C   UNL A   1      38.054  34.046  33.536  1.00  0.00     0.094 A 
ATOM     15  C   UNL A   1      37.658  31.647  32.855  1.00  0.00     0.013 A 
ATOM     16  C   UNL A   1      37.967  34.549  32.228  1.00  0.00     0.044 A 
ATOM     17  C   UNL A   1      37.517  32.194  31.557  1.00  0.00     0.015 A 
BRANCH   9  18
ATOM     18  C   UNL A   1      38.106  31.274  35.965  1.00  0.00     0.280 C 
ATOM     19  O   UNL A   1      37.711  31.205  37.125  1.00  0.00    -0.296 OA
ENDBRANCH   9  18
ENDBRANCH   5   8
ENDBRANCH   3   4
ENDBRANCH   2   3
ENDBRANCH   1   2
BRANCH   1  20
ATOM     20  N   UNL A   1      33.922  31.166  28.017  1.00  0.00    -0.352 N 
ATOM     21  C   UNL A   1      34.460  29.903  27.954  1.00  0.00     0.251 C 
ATOM     22  H   UNL A   1      32.939  31.204  28.001  1.00  0.00     0.163 HD
ATOM     23  O   UNL A   1      33.754  28.955  27.630  1.00  0.00    -0.269 OA
BRANCH  21  24
ATOM     24  C   UNL A   1      35.887  29.698  28.272  1.00  0.00     0.039 A 
ATOM     25  C   UNL A   1      36.256  29.324  29.568  1.00  0.00     0.014 A 
ATOM     26  C   UNL A   1      36.861  29.890  27.290  1.00  0.00     0.014 A 
ATOM     27  C   UNL A   1      37.599  29.072  29.859  1.00  0.00     0.010 A 
ATOM     28  C   UNL A   1      38.184  29.567  27.561  1.00  0.00     0.010 A 
ATOM     29  C   UNL A   1      38.567  29.156  28.846  1.00  0.00    -0.014 A 
BRANCH  29  30
ATOM     30  C   UNL A   1      39.996  28.830  29.089  1.00  0.00     0.031 A 
ATOM     31  C   UNL A   1      40.933  29.914  29.545  1.00  0.00     0.074 A 
ATOM     32  C   UNL A   1      40.465  27.604  28.786  1.00  0.00     0.049 A 
ATOM     33  N   UNL A   1      42.238  29.901  29.625  1.00  0.00    -0.248 NA
ATOM     34  C   UNL A   1      40.321  31.197  29.930  1.00  0.00     0.031 C 
ATOM     35  C   UNL A   1      39.656  26.482  28.308  1.00  0.00     0.029 A 
ATOM     36  N   UNL A   1      41.744  27.105  28.807  1.00  0.00    -0.354 N 
ATOM     37  C   UNL A   1      42.603  31.175  30.043  1.00  0.00     0.074 A 
ATOM     38  C   UNL A   1      41.387  31.950  30.153  1.00  0.00     0.031 C 
ATOM     39  C   UNL A   1      40.456  25.427  28.080  1.00  0.00     0.029 A 
ATOM     40  C   UNL A   1      41.839  25.813  28.344  1.00  0.00     0.049 A 
ATOM     41  H   UNL A   1      42.519  27.622  29.123  1.00  0.00     0.167 HD
ATOM     42  C   UNL A   1      43.840  31.648  30.326  1.00  0.00     0.037 A 
ATOM     43  C   UNL A   1      42.920  25.036  28.128  1.00  0.00     0.037 A 
ATOM     44  C   UNL A   1      45.038  30.857  30.234  1.00  0.00     0.049 A 
ATOM     45  C   UNL A   1      44.287  25.589  28.432  1.00  0.00     0.074 A 
ATOM     46  C   UNL A   1      46.336  31.225  30.543  1.00  0.00     0.029 A 
ATOM     47  N   UNL A   1      45.086  29.540  29.800  1.00  0.00    -0.354 N 
ATOM     48  N   UNL A   1      44.614  26.782  28.869  1.00  0.00    -0.248 NA
ATOM     49  C   UNL A   1      45.433  24.694  28.215  1.00  0.00     0.031 C 
ATOM     50  C   UNL A   1      47.175  30.146  30.250  1.00  0.00     0.029 A 
ATOM     51  C   UNL A   1      46.393  29.085  29.817  1.00  0.00     0.049 A 
ATOM     52  H   UNL A   1      44.307  29.007  29.522  1.00  0.00     0.167 HD
ATOM     53  C   UNL A   1      45.996  26.769  29.015  1.00  0.00     0.074 A 
ATOM     54  C   UNL A   1      46.446  25.450  28.620  1.00  0.00     0.031 C 
ATOM     55  C   UNL A   1      46.819  27.758  29.445  1.00  0.00     0.037 A 
BRANCH  42  56
ATOM     56  C   UNL A   1      43.958  33.084  30.760  1.00  0.00     0.058 A 
ATOM     57  C   UNL A   1      43.819  33.462  32.106  1.00  0.00     0.135 A 
ATOM     58  C   UNL A   1      44.250  34.091  29.827  1.00  0.00     0.135 A 
ATOM     59  F   UNL A   1      43.525  32.544  33.040  1.00  0.00    -0.206 F 
ATOM     60  C   UNL A   1      43.932  34.790  32.505  1.00  0.00     0.059 A 
ATOM     61  C   UNL A   1      44.399  35.422  30.207  1.00  0.00     0.059 A 
ATOM     62  F   UNL A   1      44.395  33.787  28.527  1.00  0.00    -0.206 F 
ATOM     63  C   UNL A   1      44.222  35.762  31.547  1.00  0.00     0.060 A 
BRANCH  63  64
ATOM     64  S   UNL A   1      44.370  37.480  32.084  1.00  0.00     0.124 S 
ATOM     65  O   UNL A   1      43.527  37.484  33.276  1.00  0.00    -0.237 OA
ATOM     66  O   UNL A   1      45.803  37.610  32.322  1.00  0.00    -0.237 OA
ATOM     67  O   UNL A   1      43.853  38.238  30.949  1.00  0.00    -0.744 OA
ENDBRANCH  63  64
ENDBRANCH  42  56
BRANCH  43  68
ATOM     68  C   UNL A   1      42.750  23.655  27.602  1.00  0.00     0.058 A 
ATOM     69  C   UNL A   1      42.623  22.562  28.471  1.00  0.00     0.135 A 
ATOM     70  C   UNL A   1      42.694  23.401  26.222  1.00  0.00     0.135 A 
ATOM     71  F   UNL A   1      42.676  22.751  29.798  1.00  0.00    -0.206 F 
ATOM     72  C   UNL A   1      42.464  21.264  27.994  1.00  0.00     0.059 A 
ATOM     73  C   UNL A   1      42.508  22.116  25.720  1.00  0.00     0.059 A 
ATOM     74  F   UNL A   1      42.792  24.413  25.347  1.00  0.00    -0.206 F 
ATOM     75  C   UNL A   1      42.404  21.052  26.616  1.00  0.00     0.060 A 
BRANCH  75  76
ATOM     76  S   UNL A   1      42.153  19.369  26.010  1.00  0.00     0.124 S 
ATOM     77  O   UNL A   1      42.623  18.577  27.139  1.00  0.00    -0.237 OA
ATOM     78  O   UNL A   1      40.715  19.344  25.765  1.00  0.00    -0.237 OA
ATOM     79  O   UNL A   1      42.986  19.316  24.811  1.00  0.00    -0.744 OA
ENDBRANCH  75  76
ENDBRANCH  43  68
BRANCH  55  80
ATOM     80  C   UNL A   1      48.284  27.449  29.573  1.00  0.00     0.058 A 
ATOM     81  C   UNL A   1      49.208  27.808  28.581  1.00  0.00     0.135 A 
ATOM     82  C   UNL A   1      48.781  26.884  30.760  1.00  0.00     0.135 A 
ATOM     83  F   UNL A   1      48.784  28.343  27.424  1.00  0.00    -0.206 F 
ATOM     84  C   UNL A   1      50.575  27.620  28.761  1.00  0.00     0.059 A 
ATOM     85  C   UNL A   1      50.144  26.713  30.973  1.00  0.00     0.059 A 
ATOM     86  F   UNL A   1      47.939  26.529  31.744  1.00  0.00    -0.206 F 
ATOM     87  C   UNL A   1      51.034  27.083  29.966  1.00  0.00     0.060 A 
BRANCH  87  88
ATOM     88  S   UNL A   1      52.815  26.924  30.218  1.00  0.00     0.124 S 
ATOM     89  O   UNL A   1      52.870  26.111  31.428  1.00  0.00    -0.237 OA
ATOM     90  O   UNL A   1      53.245  26.264  28.990  1.00  0.00    -0.237 OA
ATOM     91  O   UNL A   1      53.261  28.306  30.369  1.00  0.00    -0.744 OA
ENDBRANCH  87  88
ENDBRANCH  55  80
ENDBRANCH  29  30
ENDBRANCH  21  24
ENDBRANCH   1  20
TORSDOF 14
ENDMDL
