MODEL 1
REMARK VINA RESULT:     -12.2      0.000      0.000
REMARK SMILES CN(C)c1cc(C(F)(F)F)cc(-c2cccc(/C=C/C(=O)NCCCNC(=O)c3ccc(-c4c5nc(c(-c6c(F)cc(S(=O)(=O)[O-])cc6F)c6ccc([nH]6)c(-c6c(F)cc(S(=O)(=O)[O-])cc6F)c6nc(c(-c7c(F)cc(S(=O)(=O)[O-])cc7F)c7ccc4[nH]7)C=C6)C=C5)cc3)c2)n1
REMARK SMILES IDX 24 1 23 2 22 3 20 4 21 5 19 7 18 8 17 9 13 10 14 11 95 12
REMARK SMILES IDX 15 13 16 14 12 15 4 16 5 17 96 18 6 19 11 20 2 21 1 22 3 23
REMARK SMILES IDX 7 24 8 25 9 26 10 27 25 28 26 29 27 30 28 32 29 33 30 34
REMARK SMILES IDX 94 35 31 36 93 37 32 38 33 39 34 40 87 41 35 42 92 43 86 44
REMARK SMILES IDX 88 45 36 46 91 47 85 48 84 49 37 51 71 52 50 53 70 54 51 55
REMARK SMILES IDX 54 56 69 57 89 58 52 59 53 60 68 62 90 63 55 64 38 65 39 66
REMARK SMILES IDX 48 67 40 68 41 69 47 70 49 71 42 72 43 73 44 74 45 75 46 76
REMARK SMILES IDX 72 77 73 78 82 79 74 80 75 81 81 82 83 83 76 84 77 85 78 86
REMARK SMILES IDX 79 87 80 88 56 89 57 90 66 91 58 92 59 93 65 94 67 95 60 96
REMARK SMILES IDX 61 97 62 98 63 99 64 100
REMARK H PARENT 22 6 26 31 88 50 54 61
REMARK Flexibility Score: inf
ROOT
ATOM      1  C   UNL A   1      45.271  22.755  26.750  1.00  0.00     0.042 C 
ENDROOT
BRANCH   1   2
ATOM      2  C   UNL A   1      44.678  22.063  25.524  1.00  0.00     0.118 C 
BRANCH   2   3
ATOM      3  N   UNL A   1      44.138  20.753  25.848  1.00  0.00    -0.352 N 
ATOM      4  C   UNL A   1      42.861  20.363  26.110  1.00  0.00     0.244 C 
ATOM      5  O   UNL A   1      42.596  19.168  26.213  1.00  0.00    -0.270 OA
ATOM      6  H   UNL A   1      44.805  20.029  25.884  1.00  0.00     0.163 HD
BRANCH   4   7
ATOM      7  C   UNL A   1      41.766  21.355  26.181  1.00  0.00     0.072 C 
ATOM      8  C   UNL A   1      40.466  21.028  26.161  1.00  0.00     0.014 C 
BRANCH   8   9
ATOM      9  C   UNL A   1      39.369  22.002  26.215  1.00  0.00    -0.025 A 
ATOM     10  C   UNL A   1      37.039  22.527  25.672  1.00  0.00     0.001 A 
ATOM     11  C   UNL A   1      37.256  23.838  26.121  1.00  0.00     0.010 A 
ATOM     12  C   UNL A   1      38.113  21.621  25.721  1.00  0.00     0.018 A 
ATOM     13  C   UNL A   1      38.499  24.226  26.623  1.00  0.00     0.001 A 
ATOM     14  C   UNL A   1      39.553  23.312  26.668  1.00  0.00     0.008 A 
BRANCH  10  15
ATOM     15  C   UNL A   1      35.734  22.117  25.145  1.00  0.00     0.073 A 
ATOM     16  C   UNL A   1      33.723  22.829  24.191  1.00  0.00     0.129 A 
ATOM     17  C   UNL A   1      33.273  21.513  24.132  1.00  0.00     0.060 A 
ATOM     18  N   UNL A   1      34.941  23.118  24.699  1.00  0.00    -0.231 NA
ATOM     19  C   UNL A   1      34.089  20.469  24.581  1.00  0.00     0.061 A 
ATOM     20  C   UNL A   1      35.345  20.785  25.100  1.00  0.00     0.042 A 
BRANCH  16  21
ATOM     21  N   UNL A   1      32.934  23.860  23.698  1.00  0.00    -0.363 N 
ATOM     22  C   UNL A   1      31.544  23.905  24.114  1.00  0.00     0.144 C 
ATOM     23  C   UNL A   1      33.615  25.116  23.424  1.00  0.00     0.144 C 
ENDBRANCH  16  21
BRANCH  19  24
ATOM     24  C   UNL A   1      33.643  19.038  24.495  1.00  0.00     0.416 C 
ATOM     25  F   UNL A   1      32.867  18.669  25.551  1.00  0.00    -0.166 F 
ATOM     26  F   UNL A   1      32.889  18.803  23.383  1.00  0.00    -0.166 F 
ATOM     27  F   UNL A   1      34.665  18.141  24.445  1.00  0.00    -0.166 F 
ENDBRANCH  19  24
ENDBRANCH  10  15
ENDBRANCH   8   9
ENDBRANCH   4   7
ENDBRANCH   2   3
ENDBRANCH   1   2
BRANCH   1  28
ATOM     28  C   UNL A   1      44.621  24.098  27.076  1.00  0.00     0.118 C 
BRANCH  28  29
ATOM     29  N   UNL A   1      43.826  24.606  25.967  1.00  0.00    -0.352 N 
ATOM     30  C   UNL A   1      42.798  25.516  25.953  1.00  0.00     0.251 C 
ATOM     31  H   UNL A   1      44.064  24.238  25.085  1.00  0.00     0.163 HD
ATOM     32  O   UNL A   1      42.119  25.631  24.936  1.00  0.00    -0.269 OA
BRANCH  30  33
ATOM     33  C   UNL A   1      42.497  26.349  27.139  1.00  0.00     0.039 A 
ATOM     34  C   UNL A   1      43.186  27.555  27.305  1.00  0.00     0.014 A 
ATOM     35  C   UNL A   1      41.594  25.927  28.119  1.00  0.00     0.014 A 
ATOM     36  C   UNL A   1      42.936  28.356  28.423  1.00  0.00     0.010 A 
ATOM     37  C   UNL A   1      41.296  26.756  29.200  1.00  0.00     0.010 A 
ATOM     38  C   UNL A   1      41.969  27.976  29.368  1.00  0.00    -0.014 A 
BRANCH  38  39
ATOM     39  C   UNL A   1      41.652  28.841  30.535  1.00  0.00     0.031 A 
ATOM     40  C   UNL A   1      42.455  28.728  31.804  1.00  0.00     0.074 A 
ATOM     41  C   UNL A   1      40.600  29.682  30.472  1.00  0.00     0.049 A 
ATOM     42  N   UNL A   1      42.286  29.344  32.945  1.00  0.00    -0.248 NA
ATOM     43  C   UNL A   1      43.581  27.779  31.798  1.00  0.00     0.031 C 
ATOM     44  C   UNL A   1      39.717  29.848  29.314  1.00  0.00     0.029 A 
ATOM     45  N   UNL A   1      40.085  30.546  31.405  1.00  0.00    -0.354 N 
ATOM     46  C   UNL A   1      43.262  28.842  33.799  1.00  0.00     0.074 A 
ATOM     47  C   UNL A   1      43.999  27.844  33.054  1.00  0.00     0.031 C 
ATOM     48  C   UNL A   1      38.784  30.769  29.601  1.00  0.00     0.029 A 
ATOM     49  C   UNL A   1      38.976  31.235  30.971  1.00  0.00     0.049 A 
ATOM     50  H   UNL A   1      40.472  30.662  32.303  1.00  0.00     0.167 HD
ATOM     51  C   UNL A   1      43.529  29.193  35.080  1.00  0.00     0.037 A 
ATOM     52  C   UNL A   1      38.198  32.133  31.605  1.00  0.00     0.037 A 
ATOM     53  C   UNL A   1      42.820  30.219  35.799  1.00  0.00     0.049 A 
ATOM     54  C   UNL A   1      38.531  32.518  33.022  1.00  0.00     0.074 A 
ATOM     55  C   UNL A   1      43.071  30.708  37.070  1.00  0.00     0.029 A 
ATOM     56  N   UNL A   1      41.723  30.915  35.313  1.00  0.00    -0.354 N 
ATOM     57  N   UNL A   1      39.505  32.087  33.786  1.00  0.00    -0.248 NA
ATOM     58  C   UNL A   1      37.660  33.514  33.661  1.00  0.00     0.031 C 
ATOM     59  C   UNL A   1      42.100  31.670  37.368  1.00  0.00     0.029 A 
ATOM     60  C   UNL A   1      41.271  31.812  36.267  1.00  0.00     0.049 A 
ATOM     61  H   UNL A   1      41.323  30.789  34.423  1.00  0.00     0.167 HD
ATOM     62  C   UNL A   1      39.385  32.783  34.984  1.00  0.00     0.074 A 
ATOM     63  C   UNL A   1      38.248  33.669  34.840  1.00  0.00     0.031 C 
ATOM     64  C   UNL A   1      40.148  32.699  36.101  1.00  0.00     0.037 A 
BRANCH  51  65
ATOM     65  C   UNL A   1      44.638  28.469  35.793  1.00  0.00     0.058 A 
ATOM     66  C   UNL A   1      45.967  28.919  35.743  1.00  0.00     0.135 A 
ATOM     67  C   UNL A   1      44.358  27.344  36.586  1.00  0.00     0.135 A 
ATOM     68  F   UNL A   1      46.293  29.981  34.989  1.00  0.00    -0.206 F 
ATOM     69  C   UNL A   1      46.982  28.267  36.436  1.00  0.00     0.059 A 
ATOM     70  C   UNL A   1      45.353  26.692  37.308  1.00  0.00     0.059 A 
ATOM     71  F   UNL A   1      43.103  26.871  36.670  1.00  0.00    -0.206 F 
ATOM     72  C   UNL A   1      46.665  27.154  37.219  1.00  0.00     0.060 A 
BRANCH  72  73
ATOM     73  S   UNL A   1      47.990  26.333  38.129  1.00  0.00     0.124 S 
ATOM     74  O   UNL A   1      47.246  25.681  39.201  1.00  0.00    -0.237 OA
ATOM     75  O   UNL A   1      48.558  25.445  37.121  1.00  0.00    -0.237 OA
ATOM     76  O   UNL A   1      48.851  27.437  38.545  1.00  0.00    -0.744 OA
ENDBRANCH  72  73
ENDBRANCH  51  65
BRANCH  52  77
ATOM     77  C   UNL A   1      37.041  32.749  30.904  1.00  0.00     0.058 A 
ATOM     78  C   UNL A   1      37.222  33.843  30.043  1.00  0.00     0.135 A 
ATOM     79  C   UNL A   1      35.735  32.270  31.086  1.00  0.00     0.135 A 
ATOM     80  F   UNL A   1      38.451  34.340  29.840  1.00  0.00    -0.206 F 
ATOM     81  C   UNL A   1      36.147  34.457  29.408  1.00  0.00     0.059 A 
ATOM     82  C   UNL A   1      34.646  32.851  30.443  1.00  0.00     0.059 A 
ATOM     83  F   UNL A   1      35.512  31.215  31.885  1.00  0.00    -0.206 F 
ATOM     84  C   UNL A   1      34.861  33.954  29.618  1.00  0.00     0.060 A 
BRANCH  84  85
ATOM     85  S   UNL A   1      33.473  34.741  28.770  1.00  0.00     0.124 S 
ATOM     86  O   UNL A   1      34.121  35.901  28.166  1.00  0.00    -0.237 OA
ATOM     87  O   UNL A   1      33.042  33.697  27.847  1.00  0.00    -0.237 OA
ATOM     88  O   UNL A   1      32.540  35.032  29.856  1.00  0.00    -0.744 OA
ENDBRANCH  84  85
ENDBRANCH  52  77
BRANCH  64  89
ATOM     89  C   UNL A   1      39.809  33.618  37.242  1.00  0.00     0.058 A 
ATOM     90  C   UNL A   1      38.872  33.260  38.223  1.00  0.00     0.135 A 
ATOM     91  C   UNL A   1      40.468  34.849  37.379  1.00  0.00     0.135 A 
ATOM     92  F   UNL A   1      38.209  32.096  38.134  1.00  0.00    -0.206 F 
ATOM     93  C   UNL A   1      38.585  34.103  39.292  1.00  0.00     0.059 A 
ATOM     94  C   UNL A   1      40.216  35.697  38.453  1.00  0.00     0.059 A 
ATOM     95  F   UNL A   1      41.381  35.233  36.472  1.00  0.00    -0.206 F 
ATOM     96  C   UNL A   1      39.263  35.319  39.399  1.00  0.00     0.060 A 
BRANCH  96  97
ATOM     97  S   UNL A   1      38.909  36.390  40.809  1.00  0.00     0.124 S 
ATOM     98  O   UNL A   1      38.432  37.599  40.146  1.00  0.00    -0.237 OA
ATOM     99  O   UNL A   1      37.900  35.626  41.537  1.00  0.00    -0.237 OA
ATOM    100  O   UNL A   1      40.200  36.508  41.479  1.00  0.00    -0.744 OA
ENDBRANCH  96  97
ENDBRANCH  64  89
ENDBRANCH  38  39
ENDBRANCH  30  33
ENDBRANCH  28  29
ENDBRANCH   1  28
TORSDOF 17
ENDMDL
MODEL 2
REMARK VINA RESULT:     -12.1      6.466     12.762
REMARK SMILES CN(C)c1cc(C(F)(F)F)cc(-c2cccc(/C=C/C(=O)NCCCNC(=O)c3ccc(-c4c5nc(c(-c6c(F)cc(S(=O)(=O)[O-])cc6F)c6ccc([nH]6)c(-c6c(F)cc(S(=O)(=O)[O-])cc6F)c6nc(c(-c7c(F)cc(S(=O)(=O)[O-])cc7F)c7ccc4[nH]7)C=C6)C=C5)cc3)c2)n1
REMARK SMILES IDX 24 1 23 2 22 3 20 4 21 5 19 7 18 8 17 9 13 10 14 11 95 12
REMARK SMILES IDX 15 13 16 14 12 15 4 16 5 17 96 18 6 19 11 20 2 21 1 22 3 23
REMARK SMILES IDX 7 24 8 25 9 26 10 27 25 28 26 29 27 30 28 32 29 33 30 34
REMARK SMILES IDX 94 35 31 36 93 37 32 38 33 39 34 40 87 41 35 42 92 43 86 44
REMARK SMILES IDX 88 45 36 46 91 47 85 48 84 49 37 51 71 52 50 53 70 54 51 55
REMARK SMILES IDX 54 56 69 57 89 58 52 59 53 60 68 62 90 63 55 64 38 65 39 66
REMARK SMILES IDX 48 67 40 68 41 69 47 70 49 71 42 72 43 73 44 74 45 75 46 76
REMARK SMILES IDX 72 77 73 78 82 79 74 80 75 81 81 82 83 83 76 84 77 85 78 86
REMARK SMILES IDX 79 87 80 88 56 89 57 90 66 91 58 92 59 93 65 94 67 95 60 96
REMARK SMILES IDX 61 97 62 98 63 99 64 100
REMARK H PARENT 22 6 26 31 88 50 54 61
REMARK Flexibility Score: inf
ROOT
ATOM      1  C   UNL A   1      36.444  34.374  32.060  1.00  0.00     0.042 C 
ENDROOT
BRANCH   1   2
ATOM      2  C   UNL A   1      34.928  34.269  31.901  1.00  0.00     0.118 C 
BRANCH   2   3
ATOM      3  N   UNL A   1      34.443  35.056  30.779  1.00  0.00    -0.352 N 
ATOM      4  C   UNL A   1      34.178  34.696  29.494  1.00  0.00     0.244 C 
ATOM      5  O   UNL A   1      33.627  35.492  28.738  1.00  0.00    -0.270 OA
ATOM      6  H   UNL A   1      34.281  36.006  30.982  1.00  0.00     0.163 HD
BRANCH   4   7
ATOM      7  C   UNL A   1      34.461  33.324  29.018  1.00  0.00     0.072 C 
ATOM      8  C   UNL A   1      33.721  32.691  28.097  1.00  0.00     0.014 C 
BRANCH   8   9
ATOM      9  C   UNL A   1      33.980  31.325  27.628  1.00  0.00    -0.025 A 
ATOM     10  C   UNL A   1      33.183  29.387  26.359  1.00  0.00     0.001 A 
ATOM     11  C   UNL A   1      34.298  28.665  26.809  1.00  0.00     0.010 A 
ATOM     12  C   UNL A   1      33.037  30.719  26.784  1.00  0.00     0.018 A 
ATOM     13  C   UNL A   1      35.248  29.260  27.642  1.00  0.00     0.001 A 
ATOM     14  C   UNL A   1      35.088  30.585  28.051  1.00  0.00     0.008 A 
BRANCH  10  15
ATOM     15  C   UNL A   1      32.186  28.763  25.484  1.00  0.00     0.073 A 
ATOM     16  C   UNL A   1      31.247  26.756  24.743  1.00  0.00     0.129 A 
ATOM     17  C   UNL A   1      30.378  27.456  23.912  1.00  0.00     0.060 A 
ATOM     18  N   UNL A   1      32.142  27.412  25.514  1.00  0.00    -0.231 NA
ATOM     19  C   UNL A   1      30.407  28.855  23.882  1.00  0.00     0.061 A 
ATOM     20  C   UNL A   1      31.335  29.517  24.686  1.00  0.00     0.042 A 
BRANCH  16  21
ATOM     21  N   UNL A   1      31.183  25.370  24.812  1.00  0.00    -0.363 N 
ATOM     22  C   UNL A   1      30.757  24.774  26.065  1.00  0.00     0.144 C 
ATOM     23  C   UNL A   1      30.860  24.679  23.573  1.00  0.00     0.144 C 
ENDBRANCH  16  21
BRANCH  19  24
ATOM     24  C   UNL A   1      29.455  29.636  23.023  1.00  0.00     0.416 C 
ATOM     25  F   UNL A   1      29.194  30.873  23.525  1.00  0.00    -0.166 F 
ATOM     26  F   UNL A   1      29.948  29.843  21.768  1.00  0.00    -0.166 F 
ATOM     27  F   UNL A   1      28.245  29.036  22.850  1.00  0.00    -0.166 F 
ENDBRANCH  19  24
ENDBRANCH  10  15
ENDBRANCH   8   9
ENDBRANCH   4   7
ENDBRANCH   2   3
ENDBRANCH   1   2
BRANCH   1  28
ATOM     28  C   UNL A   1      37.206  33.156  31.540  1.00  0.00     0.118 C 
BRANCH  28  29
ATOM     29  N   UNL A   1      36.501  31.912  31.813  1.00  0.00    -0.352 N 
ATOM     30  C   UNL A   1      36.794  30.624  31.439  1.00  0.00     0.251 C 
ATOM     31  H   UNL A   1      35.685  32.009  32.355  1.00  0.00     0.163 HD
ATOM     32  O   UNL A   1      35.942  29.752  31.589  1.00  0.00    -0.269 OA
BRANCH  30  33
ATOM     33  C   UNL A   1      38.109  30.276  30.856  1.00  0.00     0.039 A 
ATOM     34  C   UNL A   1      39.147  29.902  31.716  1.00  0.00     0.014 A 
ATOM     35  C   UNL A   1      38.350  30.375  29.482  1.00  0.00     0.014 A 
ATOM     36  C   UNL A   1      40.405  29.584  31.197  1.00  0.00     0.010 A 
ATOM     37  C   UNL A   1      39.585  29.994  28.959  1.00  0.00     0.010 A 
ATOM     38  C   UNL A   1      40.629  29.602  29.811  1.00  0.00    -0.014 A 
BRANCH  38  39
ATOM     39  C   UNL A   1      41.945  29.216  29.238  1.00  0.00     0.031 A 
ATOM     40  C   UNL A   1      43.037  30.241  29.086  1.00  0.00     0.074 A 
ATOM     41  C   UNL A   1      42.133  27.955  28.797  1.00  0.00     0.049 A 
ATOM     42  N   UNL A   1      44.222  30.111  28.547  1.00  0.00    -0.248 NA
ATOM     43  C   UNL A   1      42.752  31.598  29.581  1.00  0.00     0.031 C 
ATOM     44  C   UNL A   1      41.135  26.883  28.847  1.00  0.00     0.029 A 
ATOM     45  N   UNL A   1      43.222  27.364  28.207  1.00  0.00    -0.354 N 
ATOM     46  C   UNL A   1      44.812  31.369  28.613  1.00  0.00     0.074 A 
ATOM     47  C   UNL A   1      43.841  32.257  29.214  1.00  0.00     0.031 C 
ATOM     48  C   UNL A   1      41.664  25.764  28.329  1.00  0.00     0.029 A 
ATOM     49  C   UNL A   1      43.024  26.044  27.876  1.00  0.00     0.049 A 
ATOM     50  H   UNL A   1      44.066  27.840  28.036  1.00  0.00     0.167 HD
ATOM     51  C   UNL A   1      46.055  31.743  28.224  1.00  0.00     0.037 A 
ATOM     52  C   UNL A   1      43.841  25.161  27.270  1.00  0.00     0.037 A 
ATOM     53  C   UNL A   1      47.031  30.841  27.668  1.00  0.00     0.049 A 
ATOM     54  C   UNL A   1      45.223  25.600  26.866  1.00  0.00     0.074 A 
ATOM     55  C   UNL A   1      48.346  31.105  27.324  1.00  0.00     0.029 A 
ATOM     56  N   UNL A   1      46.802  29.505  27.377  1.00  0.00    -0.354 N 
ATOM     57  N   UNL A   1      45.789  26.774  27.007  1.00  0.00    -0.248 NA
ATOM     58  C   UNL A   1      46.078  24.592  26.224  1.00  0.00     0.031 C 
ATOM     59  C   UNL A   1      48.899  29.938  26.785  1.00  0.00     0.029 A 
ATOM     60  C   UNL A   1      47.943  28.937  26.835  1.00  0.00     0.049 A 
ATOM     61  H   UNL A   1      45.954  29.030  27.531  1.00  0.00     0.167 HD
ATOM     62  C   UNL A   1      47.078  26.637  26.502  1.00  0.00     0.074 A 
ATOM     63  C   UNL A   1      47.210  25.265  26.059  1.00  0.00     0.031 C 
ATOM     64  C   UNL A   1      48.063  27.564  26.415  1.00  0.00     0.037 A 
BRANCH  51  65
ATOM     65  C   UNL A   1      46.440  33.187  28.387  1.00  0.00     0.058 A 
ATOM     66  C   UNL A   1      47.119  33.647  29.526  1.00  0.00     0.135 A 
ATOM     67  C   UNL A   1      46.178  34.113  27.363  1.00  0.00     0.135 A 
ATOM     68  F   UNL A   1      47.382  32.809  30.541  1.00  0.00    -0.206 F 
ATOM     69  C   UNL A   1      47.507  34.978  29.654  1.00  0.00     0.059 A 
ATOM     70  C   UNL A   1      46.579  35.442  27.458  1.00  0.00     0.059 A 
ATOM     71  F   UNL A   1      45.532  33.725  26.251  1.00  0.00    -0.206 F 
ATOM     72  C   UNL A   1      47.234  35.868  28.613  1.00  0.00     0.060 A 
BRANCH  72  73
ATOM     73  S   UNL A   1      47.762  37.586  28.785  1.00  0.00     0.124 S 
ATOM     74  O   UNL A   1      46.708  38.288  28.061  1.00  0.00    -0.237 OA
ATOM     75  O   UNL A   1      47.766  37.768  30.233  1.00  0.00    -0.237 OA
ATOM     76  O   UNL A   1      49.077  37.602  28.150  1.00  0.00    -0.744 OA
ENDBRANCH  72  73
ENDBRANCH  51  65
BRANCH  52  77
ATOM     77  C   UNL A   1      43.387  23.766  27.025  1.00  0.00     0.058 A 
ATOM     78  C   UNL A   1      42.965  23.360  25.750  1.00  0.00     0.135 A 
ATOM     79  C   UNL A   1      43.354  22.816  28.057  1.00  0.00     0.135 A 
ATOM     80  F   UNL A   1      42.973  24.234  24.732  1.00  0.00    -0.206 F 
ATOM     81  C   UNL A   1      42.501  22.071  25.511  1.00  0.00     0.059 A 
ATOM     82  C   UNL A   1      42.918  21.512  27.837  1.00  0.00     0.059 A 
ATOM     83  F   UNL A   1      43.765  23.149  29.291  1.00  0.00    -0.206 F 
ATOM     84  C   UNL A   1      42.478  21.154  26.564  1.00  0.00     0.060 A 
BRANCH  84  85
ATOM     85  S   UNL A   1      41.898  19.475  26.240  1.00  0.00     0.124 S 
ATOM     86  O   UNL A   1      42.629  19.144  25.021  1.00  0.00    -0.237 OA
ATOM     87  O   UNL A   1      42.312  18.766  27.446  1.00  0.00    -0.237 OA
ATOM     88  O   UNL A   1      40.456  19.643  26.085  1.00  0.00    -0.744 OA
ENDBRANCH  84  85
ENDBRANCH  52  77
BRANCH  64  89
ATOM     89  C   UNL A   1      49.387  27.116  25.860  1.00  0.00     0.058 A 
ATOM     90  C   UNL A   1      49.686  27.218  24.493  1.00  0.00     0.135 A 
ATOM     91  C   UNL A   1      50.385  26.626  26.717  1.00  0.00     0.135 A 
ATOM     92  F   UNL A   1      48.764  27.673  23.631  1.00  0.00    -0.206 F 
ATOM     93  C   UNL A   1      50.924  26.829  23.992  1.00  0.00     0.059 A 
ATOM     94  C   UNL A   1      51.638  26.255  26.242  1.00  0.00     0.059 A 
ATOM     95  F   UNL A   1      50.152  26.519  28.035  1.00  0.00    -0.206 F 
ATOM     96  C   UNL A   1      51.894  26.350  24.874  1.00  0.00     0.060 A 
BRANCH  96  97
ATOM     97  S   UNL A   1      53.509  25.881  24.217  1.00  0.00     0.124 S 
ATOM     98  O   UNL A   1      53.663  24.532  24.752  1.00  0.00    -0.237 OA
ATOM     99  O   UNL A   1      53.300  25.971  22.775  1.00  0.00    -0.237 OA
ATOM    100  O   UNL A   1      54.408  26.885  24.778  1.00  0.00    -0.744 OA
ENDBRANCH  96  97
ENDBRANCH  64  89
ENDBRANCH  38  39
ENDBRANCH  30  33
ENDBRANCH  28  29
ENDBRANCH   1  28
TORSDOF 17
ENDMDL
MODEL 3
REMARK VINA RESULT:     -12.1      1.135      2.148
REMARK SMILES CN(C)c1cc(C(F)(F)F)cc(-c2cccc(/C=C/C(=O)NCCCNC(=O)c3ccc(-c4c5nc(c(-c6c(F)cc(S(=O)(=O)[O-])cc6F)c6ccc([nH]6)c(-c6c(F)cc(S(=O)(=O)[O-])cc6F)c6nc(c(-c7c(F)cc(S(=O)(=O)[O-])cc7F)c7ccc4[nH]7)C=C6)C=C5)cc3)c2)n1
REMARK SMILES IDX 24 1 23 2 22 3 20 4 21 5 19 7 18 8 17 9 13 10 14 11 95 12
REMARK SMILES IDX 15 13 16 14 12 15 4 16 5 17 96 18 6 19 11 20 2 21 1 22 3 23
REMARK SMILES IDX 7 24 8 25 9 26 10 27 25 28 26 29 27 30 28 32 29 33 30 34
REMARK SMILES IDX 94 35 31 36 93 37 32 38 33 39 34 40 87 41 35 42 92 43 86 44
REMARK SMILES IDX 88 45 36 46 91 47 85 48 84 49 37 51 71 52 50 53 70 54 51 55
REMARK SMILES IDX 54 56 69 57 89 58 52 59 53 60 68 62 90 63 55 64 38 65 39 66
REMARK SMILES IDX 48 67 40 68 41 69 47 70 49 71 42 72 43 73 44 74 45 75 46 76
REMARK SMILES IDX 72 77 73 78 82 79 74 80 75 81 81 82 83 83 76 84 77 85 78 86
REMARK SMILES IDX 79 87 80 88 56 89 57 90 66 91 58 92 59 93 65 94 67 95 60 96
REMARK SMILES IDX 61 97 62 98 63 99 64 100
REMARK H PARENT 22 6 26 31 88 50 54 61
REMARK Flexibility Score: inf
ROOT
ATOM      1  C   UNL A   1      44.941  22.778  26.648  1.00  0.00     0.042 C 
ENDROOT
BRANCH   1   2
ATOM      2  C   UNL A   1      44.417  21.986  25.451  1.00  0.00     0.118 C 
BRANCH   2   3
ATOM      3  N   UNL A   1      43.887  20.690  25.847  1.00  0.00    -0.352 N 
ATOM      4  C   UNL A   1      42.614  20.304  26.128  1.00  0.00     0.244 C 
ATOM      5  O   UNL A   1      42.360  19.113  26.297  1.00  0.00    -0.270 OA
ATOM      6  H   UNL A   1      44.562  19.976  25.924  1.00  0.00     0.163 HD
BRANCH   4   7
ATOM      7  C   UNL A   1      41.509  21.287  26.142  1.00  0.00     0.072 C 
ATOM      8  C   UNL A   1      40.213  20.948  26.105  1.00  0.00     0.014 C 
BRANCH   8   9
ATOM      9  C   UNL A   1      39.107  21.913  26.103  1.00  0.00    -0.025 A 
ATOM     10  C   UNL A   1      36.796  22.410  25.463  1.00  0.00     0.001 A 
ATOM     11  C   UNL A   1      36.984  23.729  25.900  1.00  0.00     0.010 A 
ATOM     12  C   UNL A   1      37.874  21.513  25.567  1.00  0.00     0.018 A 
ATOM     13  C   UNL A   1      38.204  24.136  26.443  1.00  0.00     0.001 A 
ATOM     14  C   UNL A   1      39.263  23.231  26.542  1.00  0.00     0.008 A 
BRANCH  10  15
ATOM     15  C   UNL A   1      35.514  21.981  24.894  1.00  0.00     0.073 A 
ATOM     16  C   UNL A   1      34.081  20.179  24.498  1.00  0.00     0.129 A 
ATOM     17  C   UNL A   1      33.165  21.028  23.884  1.00  0.00     0.060 A 
ATOM     18  N   UNL A   1      35.243  20.659  24.991  1.00  0.00    -0.231 NA
ATOM     19  C   UNL A   1      33.431  22.399  23.789  1.00  0.00     0.061 A 
ATOM     20  C   UNL A   1      34.635  22.878  24.305  1.00  0.00     0.042 A 
BRANCH  16  21
ATOM     21  N   UNL A   1      33.794  18.827  24.639  1.00  0.00    -0.363 N 
ATOM     22  C   UNL A   1      32.497  18.360  24.183  1.00  0.00     0.144 C 
ATOM     23  C   UNL A   1      34.926  17.917  24.552  1.00  0.00     0.144 C 
ENDBRANCH  16  21
BRANCH  19  24
ATOM     24  C   UNL A   1      32.443  23.342  23.164  1.00  0.00     0.416 C 
ATOM     25  F   UNL A   1      31.222  22.771  22.978  1.00  0.00    -0.166 F 
ATOM     26  F   UNL A   1      32.223  24.441  23.940  1.00  0.00    -0.166 F 
ATOM     27  F   UNL A   1      32.826  23.819  21.948  1.00  0.00    -0.166 F 
ENDBRANCH  19  24
ENDBRANCH  10  15
ENDBRANCH   8   9
ENDBRANCH   4   7
ENDBRANCH   2   3
ENDBRANCH   1   2
BRANCH   1  28
ATOM     28  C   UNL A   1      44.008  23.898  27.103  1.00  0.00     0.118 C 
BRANCH  28  29
ATOM     29  N   UNL A   1      43.221  24.437  26.004  1.00  0.00    -0.352 N 
ATOM     30  C   UNL A   1      42.244  25.402  25.998  1.00  0.00     0.251 C 
ATOM     31  H   UNL A   1      43.422  24.048  25.122  1.00  0.00     0.163 HD
ATOM     32  O   UNL A   1      41.553  25.543  24.993  1.00  0.00    -0.269 OA
BRANCH  30  33
ATOM     33  C   UNL A   1      42.012  26.262  27.180  1.00  0.00     0.039 A 
ATOM     34  C   UNL A   1      42.763  27.435  27.315  1.00  0.00     0.014 A 
ATOM     35  C   UNL A   1      41.112  25.897  28.185  1.00  0.00     0.014 A 
ATOM     36  C   UNL A   1      42.578  28.260  28.428  1.00  0.00     0.010 A 
ATOM     37  C   UNL A   1      40.880  26.752  29.262  1.00  0.00     0.010 A 
ATOM     38  C   UNL A   1      41.616  27.939  29.399  1.00  0.00    -0.014 A 
BRANCH  38  39
ATOM     39  C   UNL A   1      41.368  28.832  30.562  1.00  0.00     0.031 A 
ATOM     40  C   UNL A   1      42.214  28.714  31.803  1.00  0.00     0.074 A 
ATOM     41  C   UNL A   1      40.341  29.705  30.523  1.00  0.00     0.049 A 
ATOM     42  N   UNL A   1      42.105  29.353  32.939  1.00  0.00    -0.248 NA
ATOM     43  C   UNL A   1      43.308  27.730  31.773  1.00  0.00     0.031 C 
ATOM     44  C   UNL A   1      39.422  29.880  29.395  1.00  0.00     0.029 A 
ATOM     45  N   UNL A   1      39.888  30.600  31.459  1.00  0.00    -0.354 N 
ATOM     46  C   UNL A   1      43.096  28.834  33.765  1.00  0.00     0.074 A 
ATOM     47  C   UNL A   1      43.774  27.802  33.011  1.00  0.00     0.031 C 
ATOM     48  C   UNL A   1      38.530  30.835  29.698  1.00  0.00     0.029 A 
ATOM     49  C   UNL A   1      38.786  31.316  31.053  1.00  0.00     0.049 A 
ATOM     50  H   UNL A   1      40.311  30.718  32.340  1.00  0.00     0.167 HD
ATOM     51  C   UNL A   1      43.421  29.197  35.029  1.00  0.00     0.037 A 
ATOM     52  C   UNL A   1      38.060  32.248  31.699  1.00  0.00     0.037 A 
ATOM     53  C   UNL A   1      42.770  30.257  35.757  1.00  0.00     0.049 A 
ATOM     54  C   UNL A   1      38.456  32.645  33.097  1.00  0.00     0.074 A 
ATOM     55  C   UNL A   1      43.083  30.757  37.009  1.00  0.00     0.029 A 
ATOM     56  N   UNL A   1      41.678  30.979  35.299  1.00  0.00    -0.354 N 
ATOM     57  N   UNL A   1      39.444  32.196  33.832  1.00  0.00    -0.248 NA
ATOM     58  C   UNL A   1      37.640  33.679  33.750  1.00  0.00     0.031 C 
ATOM     59  C   UNL A   1      42.153  31.754  37.325  1.00  0.00     0.029 A 
ATOM     60  C   UNL A   1      41.290  31.904  36.253  1.00  0.00     0.049 A 
ATOM     61  H   UNL A   1      41.243  30.852  34.425  1.00  0.00     0.167 HD
ATOM     62  C   UNL A   1      39.389  32.915  35.022  1.00  0.00     0.074 A 
ATOM     63  C   UNL A   1      38.276  33.834  34.903  1.00  0.00     0.031 C 
ATOM     64  C   UNL A   1      40.189  32.824  36.112  1.00  0.00     0.037 A 
BRANCH  51  65
ATOM     65  C   UNL A   1      44.532  28.450  35.715  1.00  0.00     0.058 A 
ATOM     66  C   UNL A   1      44.284  27.312  36.499  1.00  0.00     0.135 A 
ATOM     67  C   UNL A   1      45.869  28.844  35.537  1.00  0.00     0.135 A 
ATOM     68  F   UNL A   1      43.024  26.901  36.713  1.00  0.00    -0.206 F 
ATOM     69  C   UNL A   1      45.320  26.603  37.099  1.00  0.00     0.059 A 
ATOM     70  C   UNL A   1      46.922  28.134  36.107  1.00  0.00     0.059 A 
ATOM     71  F   UNL A   1      46.162  29.925  34.796  1.00  0.00    -0.206 F 
ATOM     72  C   UNL A   1      46.637  27.021  36.896  1.00  0.00     0.060 A 
BRANCH  72  73
ATOM     73  S   UNL A   1      47.970  26.077  37.665  1.00  0.00     0.124 S 
ATOM     74  O   UNL A   1      47.221  25.149  38.506  1.00  0.00    -0.237 OA
ATOM     75  O   UNL A   1      48.640  25.486  36.512  1.00  0.00    -0.237 OA
ATOM     76  O   UNL A   1      48.736  27.093  38.380  1.00  0.00    -0.744 OA
ENDBRANCH  72  73
ENDBRANCH  51  65
BRANCH  52  77
ATOM     77  C   UNL A   1      36.898  32.890  31.030  1.00  0.00     0.058 A 
ATOM     78  C   UNL A   1      37.088  33.844  30.018  1.00  0.00     0.135 A 
ATOM     79  C   UNL A   1      35.580  32.575  31.392  1.00  0.00     0.135 A 
ATOM     80  F   UNL A   1      38.330  34.182  29.641  1.00  0.00    -0.206 F 
ATOM     81  C   UNL A   1      36.014  34.483  29.407  1.00  0.00     0.059 A 
ATOM     82  C   UNL A   1      34.488  33.181  30.777  1.00  0.00     0.059 A 
ATOM     83  F   UNL A   1      35.345  31.655  32.341  1.00  0.00    -0.206 F 
ATOM     84  C   UNL A   1      34.716  34.146  29.797  1.00  0.00     0.060 A 
BRANCH  84  85
ATOM     85  S   UNL A   1      33.326  34.961  28.981  1.00  0.00     0.124 S 
ATOM     86  O   UNL A   1      32.438  35.222  30.109  1.00  0.00    -0.237 OA
ATOM     87  O   UNL A   1      33.960  36.132  28.383  1.00  0.00    -0.237 OA
ATOM     88  O   UNL A   1      32.860  33.956  28.030  1.00  0.00    -0.744 OA
ENDBRANCH  84  85
ENDBRANCH  52  77
BRANCH  64  89
ATOM     89  C   UNL A   1      39.921  33.771  37.248  1.00  0.00     0.058 A 
ATOM     90  C   UNL A   1      40.495  35.050  37.294  1.00  0.00     0.135 A 
ATOM     91  C   UNL A   1      39.038  33.410  38.278  1.00  0.00     0.135 A 
ATOM     92  F   UNL A   1      41.352  35.441  36.337  1.00  0.00    -0.206 F 
ATOM     93  C   UNL A   1      40.219  35.932  38.333  1.00  0.00     0.059 A 
ATOM     94  C   UNL A   1      38.727  34.284  39.313  1.00  0.00     0.059 A 
ATOM     95  F   UNL A   1      38.454  32.200  38.275  1.00  0.00    -0.206 F 
ATOM     96  C   UNL A   1      39.333  35.541  39.338  1.00  0.00     0.060 A 
BRANCH  96  97
ATOM     97  S   UNL A   1      38.954  36.706  40.664  1.00  0.00     0.124 S 
ATOM     98  O   UNL A   1      37.912  35.991  41.394  1.00  0.00    -0.237 OA
ATOM     99  O   UNL A   1      40.237  36.830  41.349  1.00  0.00    -0.237 OA
ATOM    100  O   UNL A   1      38.514  37.901  39.951  1.00  0.00    -0.744 OA
ENDBRANCH  96  97
ENDBRANCH  64  89
ENDBRANCH  38  39
ENDBRANCH  30  33
ENDBRANCH  28  29
ENDBRANCH   1  28
TORSDOF 17
ENDMDL
