MODEL 1
REMARK VINA RESULT:     -12.8      0.000      0.000
REMARK SMILES Cc1nsc(NC(=O)C2([NH3+])CCCCC2)c1C(=O)NCCCNC(=O)c1ccc(-c2c3nc(c(-c4c(F)cc(S(=O)(=O)[O-])cc4F)c4ccc([nH]4)c(-c4c(F)cc(S(=O)(=O)[O-])cc4F)c4nc(c(-c5c(F)cc(S(=O)(=O)[O-])cc5F)c5ccc2[nH]5)C=C4)C=C3)cc1
REMARK SMILES IDX 21 1 20 2 19 3 17 4 18 5 16 7 1 8 2 9 3 10 4 11 5 12 6 13
REMARK SMILES IDX 7 14 8 16 9 17 11 18 15 19 12 20 14 21 13 22 10 23 22 27
REMARK SMILES IDX 23 28 24 29 25 31 26 32 27 33 91 34 28 35 90 36 29 37 30 38
REMARK SMILES IDX 31 39 84 40 32 41 89 42 83 43 85 44 33 45 88 46 82 47 81 48
REMARK SMILES IDX 34 50 68 51 47 52 67 53 48 54 51 55 66 56 86 57 49 58 50 59
REMARK SMILES IDX 65 61 87 62 52 63 35 64 36 65 45 66 37 67 38 68 44 69 46 70
REMARK SMILES IDX 39 71 40 72 41 73 42 74 43 75 69 76 70 77 79 78 71 79 72 80
REMARK SMILES IDX 78 81 80 82 73 83 74 84 75 85 76 86 77 87 53 88 54 89 63 90
REMARK SMILES IDX 55 91 56 92 62 93 64 94 57 95 58 96 59 97 60 98 61 99
REMARK H PARENT 19 6 6 15 10 24 10 25 10 26 23 30 85 49 51 60
REMARK Flexibility Score: inf
ROOT
ATOM      1  C   UNL A   1      37.946  21.401  25.241  1.00  0.00     0.042 C 
ENDROOT
BRANCH   1   2
ATOM      2  C   UNL A   1      36.458  21.736  25.393  1.00  0.00     0.118 C 
BRANCH   2   3
ATOM      3  N   UNL A   1      35.949  22.370  24.204  1.00  0.00    -0.352 N 
ATOM      4  C   UNL A   1      34.695  22.623  23.733  1.00  0.00     0.256 C 
ATOM      5  O   UNL A   1      34.680  23.252  22.669  1.00  0.00    -0.269 OA
ATOM      6  H   UNL A   1      36.659  22.688  23.602  1.00  0.00     0.163 HD
BRANCH   4   7
ATOM      7  C   UNL A   1      33.432  22.300  24.418  1.00  0.00     0.097 A 
ATOM      8  C   UNL A   1      32.642  19.781  23.868  1.00  0.00     0.069 C 
ATOM      9  C   UNL A   1      32.608  21.096  24.559  1.00  0.00     0.066 A 
ATOM     10  N   UNL A   1      31.600  21.181  25.430  1.00  0.00    -0.195 NA
ATOM     11  S   UNL A   1      31.511  22.699  25.999  1.00  0.00    -0.017 S 
ATOM     12  C   UNL A   1      32.720  23.352  25.021  1.00  0.00     0.129 A 
BRANCH  12  13
ATOM     13  N   UNL A   1      32.982  24.712  24.924  1.00  0.00    -0.310 N 
ATOM     14  C   UNL A   1      32.573  25.742  24.121  1.00  0.00     0.286 C 
ATOM     15  H   UNL A   1      33.626  25.010  25.606  1.00  0.00     0.171 HD
ATOM     16  O   UNL A   1      33.052  26.850  24.405  1.00  0.00    -0.267 OA
BRANCH  14  17
ATOM     17  C   UNL A   1      31.555  25.624  22.938  1.00  0.00     0.174 C 
ATOM     18  C   UNL A   1      30.196  25.131  23.481  1.00  0.00     0.079 C 
ATOM     19  C   UNL A   1      31.379  26.977  22.195  1.00  0.00     0.079 C 
ATOM     20  C   UNL A   1      29.421  26.210  24.239  1.00  0.00     0.007 C 
ATOM     21  C   UNL A   1      30.517  28.017  22.906  1.00  0.00     0.007 C 
ATOM     22  C   UNL A   1      29.193  27.434  23.371  1.00  0.00     0.001 C 
BRANCH  17  23
ATOM     23  N   UNL A   1      32.123  24.758  21.873  1.00  0.00    -0.345 N 
ATOM     24  H   UNL A   1      33.140  24.743  21.953  1.00  0.00     0.345 HD
ATOM     25  H   UNL A   1      31.858  25.125  20.959  1.00  0.00     0.345 HD
ATOM     26  H   UNL A   1      31.760  23.810  21.976  1.00  0.00     0.345 HD
ENDBRANCH  17  23
ENDBRANCH  14  17
ENDBRANCH  12  13
ENDBRANCH   4   7
ENDBRANCH   2   3
ENDBRANCH   1   2
BRANCH   1  27
ATOM     27  C   UNL A   1      38.802  22.268  26.142  1.00  0.00     0.118 C 
BRANCH  27  28
ATOM     28  N   UNL A   1      40.230  22.005  25.926  1.00  0.00    -0.352 N 
ATOM     29  C   UNL A   1      41.312  22.834  26.178  1.00  0.00     0.251 C 
ATOM     30  H   UNL A   1      40.448  21.121  25.551  1.00  0.00     0.163 HD
ATOM     31  O   UNL A   1      42.391  22.633  25.659  1.00  0.00    -0.269 OA
BRANCH  29  32
ATOM     32  C   UNL A   1      41.090  23.959  27.100  1.00  0.00     0.039 A 
ATOM     33  C   UNL A   1      41.878  24.154  28.233  1.00  0.00     0.014 A 
ATOM     34  C   UNL A   1      40.150  24.902  26.701  1.00  0.00     0.014 A 
ATOM     35  C   UNL A   1      41.771  25.371  28.898  1.00  0.00     0.010 A 
ATOM     36  C   UNL A   1      40.245  26.172  27.192  1.00  0.00     0.010 A 
ATOM     37  C   UNL A   1      40.980  26.395  28.342  1.00  0.00    -0.014 A 
BRANCH  37  38
ATOM     38  C   UNL A   1      40.972  27.744  28.890  1.00  0.00     0.031 A 
ATOM     39  C   UNL A   1      41.994  28.638  28.296  1.00  0.00     0.074 A 
ATOM     40  C   UNL A   1      40.043  28.206  29.754  1.00  0.00     0.049 A 
ATOM     41  N   UNL A   1      43.166  28.879  28.776  1.00  0.00    -0.248 NA
ATOM     42  C   UNL A   1      41.796  29.152  26.932  1.00  0.00     0.031 C 
ATOM     43  C   UNL A   1      38.798  27.578  30.221  1.00  0.00     0.029 A 
ATOM     44  N   UNL A   1      40.011  29.410  30.385  1.00  0.00    -0.354 N 
ATOM     45  C   UNL A   1      43.748  29.799  27.917  1.00  0.00     0.074 A 
ATOM     46  C   UNL A   1      42.971  29.750  26.705  1.00  0.00     0.031 C 
ATOM     47  C   UNL A   1      38.043  28.483  30.884  1.00  0.00     0.029 A 
ATOM     48  C   UNL A   1      38.829  29.688  31.063  1.00  0.00     0.049 A 
ATOM     49  H   UNL A   1      40.770  30.037  30.363  1.00  0.00     0.167 HD
ATOM     50  C   UNL A   1      44.653  30.703  28.387  1.00  0.00     0.037 A 
ATOM     51  C   UNL A   1      38.538  30.813  31.766  1.00  0.00     0.037 A 
ATOM     52  C   UNL A   1      45.082  30.348  29.722  1.00  0.00     0.049 A 
ATOM     53  C   UNL A   1      39.842  31.419  32.141  1.00  0.00     0.074 A 
ATOM     54  C   UNL A   1      45.712  29.253  30.284  1.00  0.00     0.029 A 
ATOM     55  N   UNL A   1      44.479  31.009  30.768  1.00  0.00    -0.354 N 
ATOM     56  N   UNL A   1      40.692  30.853  32.955  1.00  0.00    -0.248 NA
ATOM     57  C   UNL A   1      40.411  32.401  31.231  1.00  0.00     0.031 C 
ATOM     58  C   UNL A   1      45.056  29.051  31.535  1.00  0.00     0.029 A 
ATOM     59  C   UNL A   1      44.126  30.079  31.712  1.00  0.00     0.049 A 
ATOM     60  H   UNL A   1      44.330  31.980  30.828  1.00  0.00     0.167 HD
ATOM     61  C   UNL A   1      41.937  31.071  32.379  1.00  0.00     0.074 A 
ATOM     62  C   UNL A   1      41.705  32.094  31.360  1.00  0.00     0.031 C 
ATOM     63  C   UNL A   1      42.976  30.206  32.586  1.00  0.00     0.037 A 
BRANCH  50  64
ATOM     64  C   UNL A   1      44.850  32.094  27.837  1.00  0.00     0.058 A 
ATOM     65  C   UNL A   1      46.071  32.410  27.205  1.00  0.00     0.135 A 
ATOM     66  C   UNL A   1      44.020  33.195  28.142  1.00  0.00     0.135 A 
ATOM     67  F   UNL A   1      46.939  31.442  26.872  1.00  0.00    -0.206 F 
ATOM     68  C   UNL A   1      46.470  33.724  26.964  1.00  0.00     0.059 A 
ATOM     69  C   UNL A   1      44.376  34.510  27.864  1.00  0.00     0.059 A 
ATOM     70  F   UNL A   1      42.869  33.063  28.811  1.00  0.00    -0.206 F 
ATOM     71  C   UNL A   1      45.618  34.768  27.309  1.00  0.00     0.060 A 
BRANCH  71  72
ATOM     72  S   UNL A   1      46.163  36.466  27.069  1.00  0.00     0.124 S 
ATOM     73  O   UNL A   1      47.017  36.665  28.234  1.00  0.00    -0.237 OA
ATOM     74  O   UNL A   1      46.846  36.381  25.782  1.00  0.00    -0.237 OA
ATOM     75  O   UNL A   1      44.915  37.222  27.061  1.00  0.00    -0.744 OA
ENDBRANCH  71  72
ENDBRANCH  50  64
BRANCH  51  76
ATOM     76  C   UNL A   1      37.266  31.587  31.752  1.00  0.00     0.058 A 
ATOM     77  C   UNL A   1      36.612  31.928  32.951  1.00  0.00     0.135 A 
ATOM     78  C   UNL A   1      36.833  32.265  30.595  1.00  0.00     0.135 A 
ATOM     79  F   UNL A   1      36.971  31.343  34.104  1.00  0.00    -0.206 F 
ATOM     80  C   UNL A   1      35.632  32.927  33.011  1.00  0.00     0.059 A 
ATOM     81  C   UNL A   1      35.856  33.261  30.630  1.00  0.00     0.059 A 
ATOM     82  F   UNL A   1      37.417  32.044  29.408  1.00  0.00    -0.206 F 
ATOM     83  C   UNL A   1      35.277  33.607  31.847  1.00  0.00     0.060 A 
BRANCH  83  84
ATOM     84  S   UNL A   1      34.149  35.018  31.949  1.00  0.00     0.124 S 
ATOM     85  O   UNL A   1      33.022  34.451  32.682  1.00  0.00    -0.237 OA
ATOM     86  O   UNL A   1      34.948  36.001  32.672  1.00  0.00    -0.237 OA
ATOM     87  O   UNL A   1      33.885  35.343  30.550  1.00  0.00    -0.744 OA
ENDBRANCH  83  84
ENDBRANCH  51  76
BRANCH  63  88
ATOM     88  C   UNL A   1      42.852  29.188  33.694  1.00  0.00     0.058 A 
ATOM     89  C   UNL A   1      43.136  29.425  35.052  1.00  0.00     0.135 A 
ATOM     90  C   UNL A   1      42.273  27.949  33.375  1.00  0.00     0.135 A 
ATOM     91  F   UNL A   1      43.603  30.612  35.463  1.00  0.00    -0.206 F 
ATOM     92  C   UNL A   1      42.889  28.462  36.037  1.00  0.00     0.059 A 
ATOM     93  C   UNL A   1      41.990  26.988  34.341  1.00  0.00     0.059 A 
ATOM     94  F   UNL A   1      41.927  27.678  32.106  1.00  0.00    -0.206 F 
ATOM     95  C   UNL A   1      42.313  27.246  35.671  1.00  0.00     0.060 A 
BRANCH  95  96
ATOM     96  S   UNL A   1      41.935  26.022  36.945  1.00  0.00     0.124 S 
ATOM     97  O   UNL A   1      43.024  26.220  37.895  1.00  0.00    -0.237 OA
ATOM     98  O   UNL A   1      40.612  26.438  37.403  1.00  0.00    -0.237 OA
ATOM     99  O   UNL A   1      41.962  24.753  36.222  1.00  0.00    -0.744 OA
ENDBRANCH  95  96
ENDBRANCH  63  88
ENDBRANCH  37  38
ENDBRANCH  29  32
ENDBRANCH  27  28
ENDBRANCH   1  27
TORSDOF 16
ENDMDL
MODEL 2
REMARK VINA RESULT:     -12.7      1.661      3.413
REMARK SMILES Cc1nsc(NC(=O)C2([NH3+])CCCCC2)c1C(=O)NCCCNC(=O)c1ccc(-c2c3nc(c(-c4c(F)cc(S(=O)(=O)[O-])cc4F)c4ccc([nH]4)c(-c4c(F)cc(S(=O)(=O)[O-])cc4F)c4nc(c(-c5c(F)cc(S(=O)(=O)[O-])cc5F)c5ccc2[nH]5)C=C4)C=C3)cc1
REMARK SMILES IDX 21 1 20 2 19 3 17 4 18 5 16 7 1 8 2 9 3 10 4 11 5 12 6 13
REMARK SMILES IDX 7 14 8 16 9 17 11 18 15 19 12 20 14 21 13 22 10 23 22 27
REMARK SMILES IDX 23 28 24 29 25 31 26 32 27 33 91 34 28 35 90 36 29 37 30 38
REMARK SMILES IDX 31 39 84 40 32 41 89 42 83 43 85 44 33 45 88 46 82 47 81 48
REMARK SMILES IDX 34 50 68 51 47 52 67 53 48 54 51 55 66 56 86 57 49 58 50 59
REMARK SMILES IDX 65 61 87 62 52 63 35 64 36 65 45 66 37 67 38 68 44 69 46 70
REMARK SMILES IDX 39 71 40 72 41 73 42 74 43 75 69 76 70 77 79 78 71 79 72 80
REMARK SMILES IDX 78 81 80 82 73 83 74 84 75 85 76 86 77 87 53 88 54 89 63 90
REMARK SMILES IDX 55 91 56 92 62 93 64 94 57 95 58 96 59 97 60 98 61 99
REMARK H PARENT 19 6 6 15 10 24 10 25 10 26 23 30 85 49 51 60
REMARK Flexibility Score: inf
ROOT
ATOM      1  C   UNL A   1      37.860  22.221  25.010  1.00  0.00     0.042 C 
ENDROOT
BRANCH   1   2
ATOM      2  C   UNL A   1      36.966  20.977  25.079  1.00  0.00     0.118 C 
BRANCH   2   3
ATOM      3  N   UNL A   1      35.955  21.125  26.092  1.00  0.00    -0.352 N 
ATOM      4  C   UNL A   1      34.627  21.437  26.062  1.00  0.00     0.256 C 
ATOM      5  O   UNL A   1      34.084  21.411  27.172  1.00  0.00    -0.269 OA
ATOM      6  H   UNL A   1      36.293  20.968  27.003  1.00  0.00     0.163 HD
BRANCH   4   7
ATOM      7  C   UNL A   1      33.827  21.692  24.854  1.00  0.00     0.097 A 
ATOM      8  C   UNL A   1      34.222  24.196  23.934  1.00  0.00     0.069 C 
ATOM      9  C   UNL A   1      33.710  22.801  23.902  1.00  0.00     0.066 A 
ATOM     10  N   UNL A   1      32.973  22.560  22.815  1.00  0.00    -0.195 NA
ATOM     11  S   UNL A   1      32.295  21.090  22.946  1.00  0.00    -0.017 S 
ATOM     12  C   UNL A   1      32.837  20.754  24.507  1.00  0.00     0.129 A 
BRANCH  12  13
ATOM     13  N   UNL A   1      32.406  19.669  25.255  1.00  0.00    -0.310 N 
ATOM     14  C   UNL A   1      32.517  18.306  25.175  1.00  0.00     0.286 C 
ATOM     15  H   UNL A   1      31.889  19.949  26.044  1.00  0.00     0.171 HD
ATOM     16  O   UNL A   1      31.984  17.680  26.103  1.00  0.00    -0.267 OA
BRANCH  14  17
ATOM     17  C   UNL A   1      33.272  17.521  24.051  1.00  0.00     0.174 C 
ATOM     18  C   UNL A   1      34.757  17.948  24.038  1.00  0.00     0.079 C 
ATOM     19  C   UNL A   1      33.157  15.984  24.248  1.00  0.00     0.079 C 
ATOM     20  C   UNL A   1      35.563  17.365  25.199  1.00  0.00     0.007 C 
ATOM     21  C   UNL A   1      34.043  15.387  25.339  1.00  0.00     0.007 C 
ATOM     22  C   UNL A   1      35.486  15.849  25.213  1.00  0.00     0.001 C 
BRANCH  17  23
ATOM     23  N   UNL A   1      32.582  17.718  22.751  1.00  0.00    -0.345 N 
ATOM     24  H   UNL A   1      31.960  18.525  22.815  1.00  0.00     0.345 HD
ATOM     25  H   UNL A   1      32.038  16.886  22.525  1.00  0.00     0.345 HD
ATOM     26  H   UNL A   1      33.275  17.880  22.020  1.00  0.00     0.345 HD
ENDBRANCH  17  23
ENDBRANCH  14  17
ENDBRANCH  12  13
ENDBRANCH   4   7
ENDBRANCH   2   3
ENDBRANCH   1   2
BRANCH   1  27
ATOM     27  C   UNL A   1      38.669  22.391  26.279  1.00  0.00     0.118 C 
BRANCH  27  28
ATOM     28  N   UNL A   1      40.085  22.083  26.047  1.00  0.00    -0.352 N 
ATOM     29  C   UNL A   1      41.197  22.875  26.291  1.00  0.00     0.251 C 
ATOM     30  H   UNL A   1      40.271  21.194  25.666  1.00  0.00     0.163 HD
ATOM     31  O   UNL A   1      42.263  22.642  25.760  1.00  0.00    -0.269 OA
BRANCH  29  32
ATOM     32  C   UNL A   1      41.021  24.003  27.219  1.00  0.00     0.039 A 
ATOM     33  C   UNL A   1      41.903  24.238  28.274  1.00  0.00     0.014 A 
ATOM     34  C   UNL A   1      40.016  24.909  26.901  1.00  0.00     0.014 A 
ATOM     35  C   UNL A   1      41.814  25.459  28.935  1.00  0.00     0.010 A 
ATOM     36  C   UNL A   1      40.111  26.187  27.370  1.00  0.00     0.010 A 
ATOM     37  C   UNL A   1      40.940  26.449  28.446  1.00  0.00    -0.014 A 
BRANCH  37  38
ATOM     38  C   UNL A   1      40.936  27.803  28.980  1.00  0.00     0.031 A 
ATOM     39  C   UNL A   1      41.960  28.689  28.378  1.00  0.00     0.074 A 
ATOM     40  C   UNL A   1      40.007  28.275  29.840  1.00  0.00     0.049 A 
ATOM     41  N   UNL A   1      43.133  28.931  28.855  1.00  0.00    -0.248 NA
ATOM     42  C   UNL A   1      41.763  29.189  27.008  1.00  0.00     0.031 C 
ATOM     43  C   UNL A   1      38.761  27.655  30.313  1.00  0.00     0.029 A 
ATOM     44  N   UNL A   1      39.979  29.485  30.459  1.00  0.00    -0.354 N 
ATOM     45  C   UNL A   1      43.716  29.841  27.987  1.00  0.00     0.074 A 
ATOM     46  C   UNL A   1      42.939  29.782  26.776  1.00  0.00     0.031 C 
ATOM     47  C   UNL A   1      38.008  28.568  30.966  1.00  0.00     0.029 A 
ATOM     48  C   UNL A   1      38.797  29.773  31.134  1.00  0.00     0.049 A 
ATOM     49  H   UNL A   1      40.738  30.110  30.431  1.00  0.00     0.167 HD
ATOM     50  C   UNL A   1      44.623  30.748  28.449  1.00  0.00     0.037 A 
ATOM     51  C   UNL A   1      38.509  30.905  31.825  1.00  0.00     0.037 A 
ATOM     52  C   UNL A   1      45.052  30.405  29.786  1.00  0.00     0.049 A 
ATOM     53  C   UNL A   1      39.814  31.512  32.195  1.00  0.00     0.074 A 
ATOM     54  C   UNL A   1      45.679  29.315  30.359  1.00  0.00     0.029 A 
ATOM     55  N   UNL A   1      44.450  31.078  30.826  1.00  0.00    -0.354 N 
ATOM     56  N   UNL A   1      40.663  30.953  33.014  1.00  0.00    -0.248 NA
ATOM     57  C   UNL A   1      40.385  32.484  31.275  1.00  0.00     0.031 C 
ATOM     58  C   UNL A   1      45.022  29.126  31.612  1.00  0.00     0.029 A 
ATOM     59  C   UNL A   1      44.095  30.158  31.780  1.00  0.00     0.049 A 
ATOM     60  H   UNL A   1      44.303  32.050  30.876  1.00  0.00     0.167 HD
ATOM     61  C   UNL A   1      41.908  31.161  32.437  1.00  0.00     0.074 A 
ATOM     62  C   UNL A   1      41.679  32.175  31.408  1.00  0.00     0.031 C 
ATOM     63  C   UNL A   1      42.945  30.296  32.652  1.00  0.00     0.037 A 
BRANCH  50  64
ATOM     64  C   UNL A   1      44.824  32.133  27.884  1.00  0.00     0.058 A 
ATOM     65  C   UNL A   1      46.052  32.445  27.264  1.00  0.00     0.135 A 
ATOM     66  C   UNL A   1      43.988  33.235  28.167  1.00  0.00     0.135 A 
ATOM     67  F   UNL A   1      46.926  31.475  26.953  1.00  0.00    -0.206 F 
ATOM     68  C   UNL A   1      46.451  33.757  27.013  1.00  0.00     0.059 A 
ATOM     69  C   UNL A   1      44.343  34.547  27.878  1.00  0.00     0.059 A 
ATOM     70  F   UNL A   1      42.829  33.108  28.823  1.00  0.00    -0.206 F 
ATOM     71  C   UNL A   1      45.591  34.802  27.335  1.00  0.00     0.060 A 
BRANCH  71  72
ATOM     72  S   UNL A   1      46.136  36.499  27.081  1.00  0.00     0.124 S 
ATOM     73  O   UNL A   1      46.854  36.763  28.322  1.00  0.00    -0.237 OA
ATOM     74  O   UNL A   1      46.956  36.373  25.881  1.00  0.00    -0.237 OA
ATOM     75  O   UNL A   1      44.885  37.230  26.905  1.00  0.00    -0.744 OA
ENDBRANCH  71  72
ENDBRANCH  50  64
BRANCH  51  76
ATOM     76  C   UNL A   1      37.238  31.682  31.804  1.00  0.00     0.058 A 
ATOM     77  C   UNL A   1      36.583  32.034  32.999  1.00  0.00     0.135 A 
ATOM     78  C   UNL A   1      36.809  32.353  30.641  1.00  0.00     0.135 A 
ATOM     79  F   UNL A   1      36.939  31.457  34.157  1.00  0.00    -0.206 F 
ATOM     80  C   UNL A   1      35.606  33.036  33.050  1.00  0.00     0.059 A 
ATOM     81  C   UNL A   1      35.834  33.351  30.667  1.00  0.00     0.059 A 
ATOM     82  F   UNL A   1      37.394  32.121  29.457  1.00  0.00    -0.206 F 
ATOM     83  C   UNL A   1      35.254  33.708  31.880  1.00  0.00     0.060 A 
BRANCH  83  84
ATOM     84  S   UNL A   1      34.129  35.122  31.970  1.00  0.00     0.124 S 
ATOM     85  O   UNL A   1      32.995  34.560  32.696  1.00  0.00    -0.237 OA
ATOM     86  O   UNL A   1      34.925  36.105  32.697  1.00  0.00    -0.237 OA
ATOM     87  O   UNL A   1      33.877  35.444  30.568  1.00  0.00    -0.744 OA
ENDBRANCH  83  84
ENDBRANCH  51  76
BRANCH  63  88
ATOM     88  C   UNL A   1      42.819  29.289  33.770  1.00  0.00     0.058 A 
ATOM     89  C   UNL A   1      43.066  29.550  35.131  1.00  0.00     0.135 A 
ATOM     90  C   UNL A   1      42.275  28.034  33.453  1.00  0.00     0.135 A 
ATOM     91  F   UNL A   1      43.497  30.752  35.536  1.00  0.00    -0.206 F 
ATOM     92  C   UNL A   1      42.818  28.594  36.122  1.00  0.00     0.059 A 
ATOM     93  C   UNL A   1      41.992  27.079  34.426  1.00  0.00     0.059 A 
ATOM     94  F   UNL A   1      41.964  27.740  32.181  1.00  0.00    -0.206 F 
ATOM     95  C   UNL A   1      42.278  27.360  35.759  1.00  0.00     0.060 A 
BRANCH  95  96
ATOM     96  S   UNL A   1      41.898  26.145  37.040  1.00  0.00     0.124 S 
ATOM     97  O   UNL A   1      43.040  26.275  37.938  1.00  0.00    -0.237 OA
ATOM     98  O   UNL A   1      40.622  26.623  37.564  1.00  0.00    -0.237 OA
ATOM     99  O   UNL A   1      41.825  24.883  36.306  1.00  0.00    -0.744 OA
ENDBRANCH  95  96
ENDBRANCH  63  88
ENDBRANCH  37  38
ENDBRANCH  29  32
ENDBRANCH  27  28
ENDBRANCH   1  27
TORSDOF 16
ENDMDL
MODEL 3
REMARK VINA RESULT:     -12.7      2.941      9.596
REMARK SMILES Cc1nsc(NC(=O)C2([NH3+])CCCCC2)c1C(=O)NCCCNC(=O)c1ccc(-c2c3nc(c(-c4c(F)cc(S(=O)(=O)[O-])cc4F)c4ccc([nH]4)c(-c4c(F)cc(S(=O)(=O)[O-])cc4F)c4nc(c(-c5c(F)cc(S(=O)(=O)[O-])cc5F)c5ccc2[nH]5)C=C4)C=C3)cc1
REMARK SMILES IDX 21 1 20 2 19 3 17 4 18 5 16 7 1 8 2 9 3 10 4 11 5 12 6 13
REMARK SMILES IDX 7 14 8 16 9 17 11 18 15 19 12 20 14 21 13 22 10 23 22 27
REMARK SMILES IDX 23 28 24 29 25 31 26 32 27 33 91 34 28 35 90 36 29 37 30 38
REMARK SMILES IDX 31 39 84 40 32 41 89 42 83 43 85 44 33 45 88 46 82 47 81 48
REMARK SMILES IDX 34 50 68 51 47 52 67 53 48 54 51 55 66 56 86 57 49 58 50 59
REMARK SMILES IDX 65 61 87 62 52 63 35 64 36 65 45 66 37 67 38 68 44 69 46 70
REMARK SMILES IDX 39 71 40 72 41 73 42 74 43 75 69 76 70 77 79 78 71 79 72 80
REMARK SMILES IDX 78 81 80 82 73 83 74 84 75 85 76 86 77 87 53 88 54 89 63 90
REMARK SMILES IDX 55 91 56 92 62 93 64 94 57 95 58 96 59 97 60 98 61 99
REMARK H PARENT 19 6 6 15 10 24 10 25 10 26 23 30 85 49 51 60
REMARK Flexibility Score: inf
ROOT
ATOM      1  C   UNL A   1      33.117  31.095  27.427  1.00  0.00     0.042 C 
ENDROOT
BRANCH   1   2
ATOM      2  C   UNL A   1      33.641  29.660  27.296  1.00  0.00     0.118 C 
BRANCH   2   3
ATOM      3  N   UNL A   1      32.583  28.705  27.493  1.00  0.00    -0.352 N 
ATOM      4  C   UNL A   1      31.875  27.894  26.655  1.00  0.00     0.256 C 
ATOM      5  O   UNL A   1      31.064  27.163  27.235  1.00  0.00    -0.269 OA
ATOM      6  H   UNL A   1      32.310  28.619  28.434  1.00  0.00     0.163 HD
BRANCH   4   7
ATOM      7  C   UNL A   1      32.071  27.772  25.201  1.00  0.00     0.097 A 
ATOM      8  C   UNL A   1      30.471  29.474  23.855  1.00  0.00     0.069 C 
ATOM      9  C   UNL A   1      31.563  28.480  24.023  1.00  0.00     0.066 A 
ATOM     10  N   UNL A   1      32.136  28.160  22.860  1.00  0.00    -0.195 NA
ATOM     11  S   UNL A   1      33.178  26.938  23.097  1.00  0.00    -0.017 S 
ATOM     12  C   UNL A   1      32.825  26.683  24.726  1.00  0.00     0.129 A 
BRANCH  12  13
ATOM     13  N   UNL A   1      33.296  25.601  25.457  1.00  0.00    -0.310 N 
ATOM     14  C   UNL A   1      32.879  24.321  25.704  1.00  0.00     0.286 C 
ATOM     15  H   UNL A   1      34.143  25.806  25.912  1.00  0.00     0.171 HD
ATOM     16  O   UNL A   1      33.640  23.650  26.419  1.00  0.00    -0.267 OA
BRANCH  14  17
ATOM     17  C   UNL A   1      31.576  23.663  25.140  1.00  0.00     0.174 C 
ATOM     18  C   UNL A   1      31.659  23.605  23.598  1.00  0.00     0.079 C 
ATOM     19  C   UNL A   1      31.354  22.239  25.719  1.00  0.00     0.079 C 
ATOM     20  C   UNL A   1      32.609  22.523  23.085  1.00  0.00     0.007 C 
ATOM     21  C   UNL A   1      32.232  21.138  25.130  1.00  0.00     0.007 C 
ATOM     22  C   UNL A   1      32.217  21.154  23.610  1.00  0.00     0.001 C 
BRANCH  17  23
ATOM     23  N   UNL A   1      30.386  24.393  25.647  1.00  0.00    -0.345 N 
ATOM     24  H   UNL A   1      30.291  24.233  26.650  1.00  0.00     0.345 HD
ATOM     25  H   UNL A   1      29.551  24.056  25.168  1.00  0.00     0.345 HD
ATOM     26  H   UNL A   1      30.499  25.391  25.471  1.00  0.00     0.345 HD
ENDBRANCH  17  23
ENDBRANCH  14  17
ENDBRANCH  12  13
ENDBRANCH   4   7
ENDBRANCH   2   3
ENDBRANCH   1   2
BRANCH   1  27
ATOM     27  C   UNL A   1      34.246  32.076  27.665  1.00  0.00     0.118 C 
BRANCH  27  28
ATOM     28  N   UNL A   1      34.267  32.528  29.061  1.00  0.00    -0.352 N 
ATOM     29  C   UNL A   1      35.089  32.108  30.096  1.00  0.00     0.251 C 
ATOM     30  H   UNL A   1      33.610  33.223  29.294  1.00  0.00     0.163 HD
ATOM     31  O   UNL A   1      34.793  32.314  31.255  1.00  0.00    -0.269 OA
BRANCH  29  32
ATOM     32  C   UNL A   1      36.328  31.407  29.722  1.00  0.00     0.039 A 
ATOM     33  C   UNL A   1      37.519  32.089  29.479  1.00  0.00     0.014 A 
ATOM     34  C   UNL A   1      36.285  30.019  29.770  1.00  0.00     0.014 A 
ATOM     35  C   UNL A   1      38.689  31.342  29.389  1.00  0.00     0.010 A 
ATOM     36  C   UNL A   1      37.451  29.332  29.945  1.00  0.00     0.010 A 
ATOM     37  C   UNL A   1      38.651  29.962  29.668  1.00  0.00    -0.014 A 
BRANCH  37  38
ATOM     38  C   UNL A   1      39.865  29.164  29.769  1.00  0.00     0.031 A 
ATOM     39  C   UNL A   1      40.264  28.854  31.162  1.00  0.00     0.074 A 
ATOM     40  C   UNL A   1      40.508  28.625  28.711  1.00  0.00     0.049 A 
ATOM     41  N   UNL A   1      41.113  29.512  31.876  1.00  0.00    -0.248 NA
ATOM     42  C   UNL A   1      39.500  27.854  31.924  1.00  0.00     0.031 C 
ATOM     43  C   UNL A   1      40.108  28.566  27.297  1.00  0.00     0.029 A 
ATOM     44  N   UNL A   1      41.689  27.953  28.703  1.00  0.00    -0.354 N 
ATOM     45  C   UNL A   1      41.200  28.836  33.084  1.00  0.00     0.074 A 
ATOM     46  C   UNL A   1      40.039  27.985  33.141  1.00  0.00     0.031 C 
ATOM     47  C   UNL A   1      40.919  27.722  26.621  1.00  0.00     0.029 A 
ATOM     48  C   UNL A   1      42.009  27.338  27.497  1.00  0.00     0.049 A 
ATOM     49  H   UNL A   1      42.274  27.905  29.493  1.00  0.00     0.167 HD
ATOM     50  C   UNL A   1      42.361  28.850  33.798  1.00  0.00     0.037 A 
ATOM     51  C   UNL A   1      43.119  26.605  27.225  1.00  0.00     0.037 A 
ATOM     52  C   UNL A   1      43.266  29.851  33.280  1.00  0.00     0.049 A 
ATOM     53  C   UNL A   1      44.149  27.027  28.210  1.00  0.00     0.074 A 
ATOM     54  C   UNL A   1      43.214  31.223  33.120  1.00  0.00     0.029 A 
ATOM     55  N   UNL A   1      44.261  29.415  32.434  1.00  0.00    -0.354 N 
ATOM     56  N   UNL A   1      44.667  28.225  28.242  1.00  0.00    -0.248 NA
ATOM     57  C   UNL A   1      44.231  26.279  29.455  1.00  0.00     0.031 C 
ATOM     58  C   UNL A   1      43.827  31.472  31.856  1.00  0.00     0.029 A 
ATOM     59  C   UNL A   1      44.300  30.258  31.352  1.00  0.00     0.049 A 
ATOM     60  H   UNL A   1      44.844  28.635  32.581  1.00  0.00     0.167 HD
ATOM     61  C   UNL A   1      44.739  28.547  29.591  1.00  0.00     0.074 A 
ATOM     62  C   UNL A   1      44.527  27.280  30.290  1.00  0.00     0.031 C 
ATOM     63  C   UNL A   1      44.683  29.845  30.016  1.00  0.00     0.037 A 
BRANCH  50  64
ATOM     64  C   UNL A   1      42.845  27.726  34.681  1.00  0.00     0.058 A 
ATOM     65  C   UNL A   1      42.935  27.943  36.071  1.00  0.00     0.135 A 
ATOM     66  C   UNL A   1      43.479  26.558  34.205  1.00  0.00     0.135 A 
ATOM     67  F   UNL A   1      42.371  29.025  36.633  1.00  0.00    -0.206 F 
ATOM     68  C   UNL A   1      43.664  27.104  36.913  1.00  0.00     0.059 A 
ATOM     69  C   UNL A   1      44.167  25.680  35.033  1.00  0.00     0.059 A 
ATOM     70  F   UNL A   1      43.547  26.258  32.902  1.00  0.00    -0.206 F 
ATOM     71  C   UNL A   1      44.286  25.980  36.380  1.00  0.00     0.060 A 
BRANCH  71  72
ATOM     72  S   UNL A   1      45.289  24.938  37.451  1.00  0.00     0.124 S 
ATOM     73  O   UNL A   1      44.762  25.281  38.767  1.00  0.00    -0.237 OA
ATOM     74  O   UNL A   1      44.964  23.603  36.960  1.00  0.00    -0.237 OA
ATOM     75  O   UNL A   1      46.650  25.388  37.177  1.00  0.00    -0.744 OA
ENDBRANCH  71  72
ENDBRANCH  50  64
BRANCH  51  76
ATOM     76  C   UNL A   1      43.195  25.315  26.485  1.00  0.00     0.058 A 
ATOM     77  C   UNL A   1      44.019  25.176  25.352  1.00  0.00     0.135 A 
ATOM     78  C   UNL A   1      42.707  24.118  27.046  1.00  0.00     0.135 A 
ATOM     79  F   UNL A   1      44.541  26.263  24.762  1.00  0.00    -0.206 F 
ATOM     80  C   UNL A   1      44.389  23.925  24.844  1.00  0.00     0.059 A 
ATOM     81  C   UNL A   1      43.059  22.860  26.555  1.00  0.00     0.059 A 
ATOM     82  F   UNL A   1      41.947  24.135  28.151  1.00  0.00    -0.206 F 
ATOM     83  C   UNL A   1      43.922  22.769  25.468  1.00  0.00     0.060 A 
BRANCH  83  84
ATOM     84  S   UNL A   1      44.541  21.156  24.931  1.00  0.00     0.124 S 
ATOM     85  O   UNL A   1      45.800  21.056  25.662  1.00  0.00    -0.237 OA
ATOM     86  O   UNL A   1      43.479  20.256  25.367  1.00  0.00    -0.237 OA
ATOM     87  O   UNL A   1      44.669  21.306  23.483  1.00  0.00    -0.744 OA
ENDBRANCH  83  84
ENDBRANCH  51  76
BRANCH  63  88
ATOM     88  C   UNL A   1      44.859  30.943  28.993  1.00  0.00     0.058 A 
ATOM     89  C   UNL A   1      46.092  31.387  28.481  1.00  0.00     0.135 A 
ATOM     90  C   UNL A   1      43.699  31.466  28.398  1.00  0.00     0.135 A 
ATOM     91  F   UNL A   1      47.248  30.875  28.924  1.00  0.00    -0.206 F 
ATOM     92  C   UNL A   1      46.166  32.333  27.452  1.00  0.00     0.059 A 
ATOM     93  C   UNL A   1      43.749  32.383  27.353  1.00  0.00     0.059 A 
ATOM     94  F   UNL A   1      42.490  31.044  28.801  1.00  0.00    -0.206 F 
ATOM     95  C   UNL A   1      44.986  32.824  26.892  1.00  0.00     0.060 A 
BRANCH  95  96
ATOM     96  S   UNL A   1      45.075  33.998  25.522  1.00  0.00     0.124 S 
ATOM     97  O   UNL A   1      44.527  33.222  24.415  1.00  0.00    -0.237 OA
ATOM     98  O   UNL A   1      44.244  35.102  25.994  1.00  0.00    -0.237 OA
ATOM     99  O   UNL A   1      46.501  34.303  25.423  1.00  0.00    -0.744 OA
ENDBRANCH  95  96
ENDBRANCH  63  88
ENDBRANCH  37  38
ENDBRANCH  29  32
ENDBRANCH  27  28
ENDBRANCH   1  27
TORSDOF 16
ENDMDL
