MODEL 1
REMARK VINA RESULT:     -13.0      0.000      0.000
REMARK SMILES O=C(NCCCNC(=O)c1ccccc1/N=C/c1coc2ccccc2c1=O)c1ccc(-c2c3nc(c(-c4c(F)cc(S(=O)(=O)[O-])cc4F)c4ccc([nH]4)c(-c4c(F)cc(S(=O)(=O)[O-])cc4F)c4nc(c(-c5c(F)cc(S(=O)(=O)[O-])cc5F)c5ccc2[nH]5)C=C4)C=C3)cc1
REMARK SMILES IDX 4 1 3 2 1 3 2 4 29 6 30 7 94 8 31 9 93 10 32 11 33 12 34 13
REMARK SMILES IDX 87 14 35 15 92 16 86 17 88 18 36 19 91 20 85 21 84 22 37 24
REMARK SMILES IDX 71 25 50 26 70 27 51 28 54 29 69 30 89 31 52 32 53 33 68 35
REMARK SMILES IDX 90 36 55 37 38 38 39 39 48 40 40 41 41 42 47 43 49 44 42 45
REMARK SMILES IDX 43 46 44 47 45 48 46 49 72 50 73 51 82 52 74 53 75 54 81 55
REMARK SMILES IDX 83 56 76 57 77 58 78 59 79 60 80 61 56 62 57 63 66 64 58 65
REMARK SMILES IDX 59 66 65 67 67 68 60 69 61 70 62 71 63 72 64 73 5 74 6 75
REMARK SMILES IDX 7 76 8 77 9 79 10 80 11 81 15 82 12 83 14 84 13 85 16 86
REMARK SMILES IDX 17 87 18 88 19 89 27 90 20 91 26 92 28 93 21 94 25 95 22 96
REMARK SMILES IDX 24 97 23 98
REMARK H PARENT 3 5 88 23 54 34 7 78
REMARK Flexibility Score: inf
ROOT
ATOM      1  C   UNL A   1      38.074  24.007  26.372  1.00  0.00     0.118 C 
ENDROOT
BRANCH   1   2
ATOM      2  N   UNL A   1      39.484  23.780  26.096  1.00  0.00    -0.352 N 
ATOM      3  O   UNL A   1      41.714  24.135  26.249  1.00  0.00    -0.269 OA
ATOM      4  C   UNL A   1      40.580  24.426  26.627  1.00  0.00     0.251 C 
ATOM      5  H   UNL A   1      39.681  23.071  25.443  1.00  0.00     0.163 HD
BRANCH   4   6
ATOM      6  C   UNL A   1      40.413  25.520  27.617  1.00  0.00     0.039 A 
ATOM      7  C   UNL A   1      41.191  26.681  27.581  1.00  0.00     0.014 A 
ATOM      8  C   UNL A   1      39.434  25.375  28.607  1.00  0.00     0.014 A 
ATOM      9  C   UNL A   1      41.093  27.616  28.612  1.00  0.00     0.010 A 
ATOM     10  C   UNL A   1      39.293  26.345  29.605  1.00  0.00     0.010 A 
ATOM     11  C   UNL A   1      40.152  27.452  29.642  1.00  0.00    -0.014 A 
BRANCH  11  12
ATOM     12  C   UNL A   1      40.074  28.452  30.738  1.00  0.00     0.031 A 
ATOM     13  C   UNL A   1      41.013  28.382  31.915  1.00  0.00     0.074 A 
ATOM     14  C   UNL A   1      39.167  29.445  30.664  1.00  0.00     0.049 A 
ATOM     15  N   UNL A   1      41.099  29.183  32.946  1.00  0.00    -0.248 NA
ATOM     16  C   UNL A   1      41.973  27.267  31.942  1.00  0.00     0.031 C 
ATOM     17  C   UNL A   1      38.183  29.610  29.593  1.00  0.00     0.029 A 
ATOM     18  N   UNL A   1      38.935  30.510  31.497  1.00  0.00    -0.354 N 
ATOM     19  C   UNL A   1      42.093  28.654  33.761  1.00  0.00     0.074 A 
ATOM     20  C   UNL A   1      42.583  27.460  33.105  1.00  0.00     0.031 C 
ATOM     21  C   UNL A   1      37.479  30.732  29.813  1.00  0.00     0.029 A 
ATOM     22  C   UNL A   1      37.942  31.347  31.054  1.00  0.00     0.049 A 
ATOM     23  H   UNL A   1      39.434  30.659  32.333  1.00  0.00     0.167 HD
ATOM     24  C   UNL A   1      42.559  29.123  34.943  1.00  0.00     0.037 A 
ATOM     25  C   UNL A   1      37.452  32.483  31.585  1.00  0.00     0.037 A 
ATOM     26  C   UNL A   1      42.117  30.340  35.572  1.00  0.00     0.049 A 
ATOM     27  C   UNL A   1      38.005  32.997  32.879  1.00  0.00     0.074 A 
ATOM     28  C   UNL A   1      42.603  30.942  36.721  1.00  0.00     0.029 A 
ATOM     29  N   UNL A   1      41.087  31.141  35.106  1.00  0.00    -0.354 N 
ATOM     30  N   UNL A   1      38.973  32.502  33.611  1.00  0.00    -0.248 NA
ATOM     31  C   UNL A   1      37.390  34.214  33.427  1.00  0.00     0.031 C 
ATOM     32  C   UNL A   1      41.850  32.098  36.961  1.00  0.00     0.029 A 
ATOM     33  C   UNL A   1      40.905  32.219  35.956  1.00  0.00     0.049 A 
ATOM     34  H   UNL A   1      40.562  30.968  34.291  1.00  0.00     0.167 HD
ATOM     35  C   UNL A   1      39.071  33.335  34.718  1.00  0.00     0.074 A 
ATOM     36  C   UNL A   1      38.083  34.381  34.547  1.00  0.00     0.031 C 
ATOM     37  C   UNL A   1      39.900  33.234  35.785  1.00  0.00     0.037 A 
BRANCH  24  38
ATOM     38  C   UNL A   1      43.609  28.313  35.644  1.00  0.00     0.058 A 
ATOM     39  C   UNL A   1      43.270  27.338  36.592  1.00  0.00     0.135 A 
ATOM     40  C   UNL A   1      44.965  28.482  35.325  1.00  0.00     0.135 A 
ATOM     41  F   UNL A   1      41.987  27.150  36.940  1.00  0.00    -0.206 F 
ATOM     42  C   UNL A   1      44.243  26.558  37.209  1.00  0.00     0.059 A 
ATOM     43  C   UNL A   1      45.955  27.708  35.924  1.00  0.00     0.059 A 
ATOM     44  F   UNL A   1      45.338  29.407  34.427  1.00  0.00    -0.206 F 
ATOM     45  C   UNL A   1      45.584  26.754  36.873  1.00  0.00     0.060 A 
BRANCH  45  46
ATOM     46  S   UNL A   1      46.843  25.732  37.667  1.00  0.00     0.124 S 
ATOM     47  O   UNL A   1      46.139  24.462  37.807  1.00  0.00    -0.237 OA
ATOM     48  O   UNL A   1      47.930  25.747  36.692  1.00  0.00    -0.237 OA
ATOM     49  O   UNL A   1      47.116  26.442  38.913  1.00  0.00    -0.744 OA
ENDBRANCH  45  46
ENDBRANCH  24  38
BRANCH  25  50
ATOM     50  C   UNL A   1      36.364  33.202  30.881  1.00  0.00     0.058 A 
ATOM     51  C   UNL A   1      35.047  33.152  31.359  1.00  0.00     0.135 A 
ATOM     52  C   UNL A   1      36.632  33.995  29.758  1.00  0.00     0.135 A 
ATOM     53  F   UNL A   1      34.749  32.402  32.430  1.00  0.00    -0.206 F 
ATOM     54  C   UNL A   1      34.028  33.876  30.750  1.00  0.00     0.059 A 
ATOM     55  C   UNL A   1      35.632  34.736  29.138  1.00  0.00     0.059 A 
ATOM     56  F   UNL A   1      37.882  34.078  29.276  1.00  0.00    -0.206 F 
ATOM     57  C   UNL A   1      34.332  34.669  29.641  1.00  0.00     0.060 A 
BRANCH  57  58
ATOM     58  S   UNL A   1      33.042  35.690  28.896  1.00  0.00     0.124 S 
ATOM     59  O   UNL A   1      33.831  36.716  28.227  1.00  0.00    -0.237 OA
ATOM     60  O   UNL A   1      32.348  34.748  28.022  1.00  0.00    -0.237 OA
ATOM     61  O   UNL A   1      32.273  36.132  30.056  1.00  0.00    -0.744 OA
ENDBRANCH  57  58
ENDBRANCH  25  50
BRANCH  37  62
ATOM     62  C   UNL A   1      39.741  34.261  36.864  1.00  0.00     0.058 A 
ATOM     63  C   UNL A   1      39.004  33.974  38.022  1.00  0.00     0.135 A 
ATOM     64  C   UNL A   1      40.339  35.524  36.754  1.00  0.00     0.135 A 
ATOM     65  F   UNL A   1      38.410  32.779  38.165  1.00  0.00    -0.206 F 
ATOM     66  C   UNL A   1      38.849  34.914  39.034  1.00  0.00     0.059 A 
ATOM     67  C   UNL A   1      40.205  36.478  37.758  1.00  0.00     0.059 A 
ATOM     68  F   UNL A   1      41.055  35.842  35.664  1.00  0.00    -0.206 F 
ATOM     69  C   UNL A   1      39.447  36.167  38.889  1.00  0.00     0.060 A 
BRANCH  69  70
ATOM     70  S   UNL A   1      39.264  37.388  40.207  1.00  0.00     0.124 S 
ATOM     71  O   UNL A   1      38.757  36.565  41.300  1.00  0.00    -0.237 OA
ATOM     72  O   UNL A   1      40.625  37.891  40.375  1.00  0.00    -0.237 OA
ATOM     73  O   UNL A   1      38.315  38.344  39.645  1.00  0.00    -0.744 OA
ENDBRANCH  69  70
ENDBRANCH  37  62
ENDBRANCH  11  12
ENDBRANCH   4   6
ENDBRANCH   1   2
BRANCH   1  74
ATOM     74  C   UNL A   1      37.125  23.680  25.223  1.00  0.00     0.042 C 
BRANCH  74  75
ATOM     75  C   UNL A   1      36.088  22.601  25.493  1.00  0.00     0.118 C 
BRANCH  75  76
ATOM     76  N   UNL A   1      34.955  23.048  26.285  1.00  0.00    -0.352 N 
ATOM     77  C   UNL A   1      33.677  22.552  26.278  1.00  0.00     0.253 C 
ATOM     78  H   UNL A   1      35.124  23.798  26.899  1.00  0.00     0.163 HD
ATOM     79  O   UNL A   1      32.830  22.980  27.060  1.00  0.00    -0.269 OA
BRANCH  77  80
ATOM     80  C   UNL A   1      33.288  21.512  25.313  1.00  0.00     0.065 A 
ATOM     81  C   UNL A   1      33.512  20.180  25.696  1.00  0.00     0.016 A 
ATOM     82  C   UNL A   1      32.714  21.809  24.071  1.00  0.00     0.076 A 
ATOM     83  C   UNL A   1      33.120  19.133  24.861  1.00  0.00     0.001 A 
ATOM     84  C   UNL A   1      32.329  20.738  23.248  1.00  0.00     0.029 A 
ATOM     85  C   UNL A   1      32.524  19.413  23.635  1.00  0.00     0.002 A 
BRANCH  82  86
ATOM     86  N   UNL A   1      32.302  23.063  23.627  1.00  0.00    -0.255 NA
ATOM     87  C   UNL A   1      32.823  23.705  22.632  1.00  0.00     0.127 C 
BRANCH  87  88
ATOM     88  C   UNL A   1      32.227  25.035  22.374  1.00  0.00     0.076 A 
ATOM     89  C   UNL A   1      30.996  25.138  22.905  1.00  0.00     0.209 A 
ATOM     90  C   UNL A   1      33.102  26.224  22.552  1.00  0.00     0.201 A 
ATOM     91  O   UNL A   1      30.581  26.212  23.681  1.00  0.00    -0.463 OA
ATOM     92  C   UNL A   1      32.888  26.897  23.844  1.00  0.00     0.065 A 
ATOM     93  O   UNL A   1      34.003  26.503  21.783  1.00  0.00    -0.288 OA
ATOM     94  C   UNL A   1      31.607  26.808  24.391  1.00  0.00     0.137 A 
ATOM     95  C   UNL A   1      33.956  27.416  24.575  1.00  0.00     0.016 A 
ATOM     96  C   UNL A   1      31.379  27.234  25.695  1.00  0.00     0.048 A 
ATOM     97  C   UNL A   1      33.733  27.815  25.893  1.00  0.00     0.001 A 
ATOM     98  C   UNL A   1      32.452  27.720  26.451  1.00  0.00     0.004 A 
ENDBRANCH  87  88
ENDBRANCH  82  86
ENDBRANCH  77  80
ENDBRANCH  75  76
ENDBRANCH  74  75
ENDBRANCH   1  74
TORSDOF 15
ENDMDL
MODEL 2
REMARK VINA RESULT:     -13.0      0.942      2.046
REMARK SMILES O=C(NCCCNC(=O)c1ccccc1/N=C/c1coc2ccccc2c1=O)c1ccc(-c2c3nc(c(-c4c(F)cc(S(=O)(=O)[O-])cc4F)c4ccc([nH]4)c(-c4c(F)cc(S(=O)(=O)[O-])cc4F)c4nc(c(-c5c(F)cc(S(=O)(=O)[O-])cc5F)c5ccc2[nH]5)C=C4)C=C3)cc1
REMARK SMILES IDX 4 1 3 2 1 3 2 4 29 6 30 7 94 8 31 9 93 10 32 11 33 12 34 13
REMARK SMILES IDX 87 14 35 15 92 16 86 17 88 18 36 19 91 20 85 21 84 22 37 24
REMARK SMILES IDX 71 25 50 26 70 27 51 28 54 29 69 30 89 31 52 32 53 33 68 35
REMARK SMILES IDX 90 36 55 37 38 38 39 39 48 40 40 41 41 42 47 43 49 44 42 45
REMARK SMILES IDX 43 46 44 47 45 48 46 49 72 50 73 51 82 52 74 53 75 54 81 55
REMARK SMILES IDX 83 56 76 57 77 58 78 59 79 60 80 61 56 62 57 63 66 64 58 65
REMARK SMILES IDX 59 66 65 67 67 68 60 69 61 70 62 71 63 72 64 73 5 74 6 75
REMARK SMILES IDX 7 76 8 77 9 79 10 80 11 81 15 82 12 83 14 84 13 85 16 86
REMARK SMILES IDX 17 87 18 88 19 89 27 90 20 91 26 92 28 93 21 94 25 95 22 96
REMARK SMILES IDX 24 97 23 98
REMARK H PARENT 3 5 88 23 54 34 7 78
REMARK Flexibility Score: inf
ROOT
ATOM      1  C   UNL A   1      38.207  24.122  26.577  1.00  0.00     0.118 C 
ENDROOT
BRANCH   1   2
ATOM      2  N   UNL A   1      39.501  24.208  25.920  1.00  0.00    -0.352 N 
ATOM      3  O   UNL A   1      41.617  24.942  25.586  1.00  0.00    -0.269 OA
ATOM      4  C   UNL A   1      40.604  24.952  26.283  1.00  0.00     0.251 C 
ATOM      5  H   UNL A   1      39.603  23.663  25.107  1.00  0.00     0.163 HD
BRANCH   4   6
ATOM      6  C   UNL A   1      40.572  25.821  27.487  1.00  0.00     0.039 A 
ATOM      7  C   UNL A   1      39.653  25.624  28.522  1.00  0.00     0.014 A 
ATOM      8  C   UNL A   1      41.502  26.863  27.579  1.00  0.00     0.014 A 
ATOM      9  C   UNL A   1      39.569  26.548  29.564  1.00  0.00     0.010 A 
ATOM     10  C   UNL A   1      41.459  27.753  28.658  1.00  0.00     0.010 A 
ATOM     11  C   UNL A   1      40.463  27.629  29.637  1.00  0.00    -0.014 A 
BRANCH  11  12
ATOM     12  C   UNL A   1      40.348  28.611  30.747  1.00  0.00     0.031 A 
ATOM     13  C   UNL A   1      41.285  28.559  31.924  1.00  0.00     0.074 A 
ATOM     14  C   UNL A   1      39.405  29.571  30.683  1.00  0.00     0.049 A 
ATOM     15  N   UNL A   1      41.341  29.349  32.967  1.00  0.00    -0.248 NA
ATOM     16  C   UNL A   1      42.285  27.479  31.939  1.00  0.00     0.031 C 
ATOM     17  C   UNL A   1      38.418  29.715  29.612  1.00  0.00     0.029 A 
ATOM     18  N   UNL A   1      39.134  30.616  31.530  1.00  0.00    -0.354 N 
ATOM     19  C   UNL A   1      42.351  28.845  33.776  1.00  0.00     0.074 A 
ATOM     20  C   UNL A   1      42.885  27.678  33.107  1.00  0.00     0.031 C 
ATOM     21  C   UNL A   1      37.674  30.808  29.845  1.00  0.00     0.029 A 
ATOM     22  C   UNL A   1      38.111  31.423  31.095  1.00  0.00     0.049 A 
ATOM     23  H   UNL A   1      39.625  30.772  32.369  1.00  0.00     0.167 HD
ATOM     24  C   UNL A   1      42.798  29.315  34.966  1.00  0.00     0.037 A 
ATOM     25  C   UNL A   1      37.580  32.533  31.640  1.00  0.00     0.037 A 
ATOM     26  C   UNL A   1      42.311  30.506  35.610  1.00  0.00     0.049 A 
ATOM     27  C   UNL A   1      38.111  33.049  32.942  1.00  0.00     0.074 A 
ATOM     28  C   UNL A   1      42.773  31.110  36.768  1.00  0.00     0.029 A 
ATOM     29  N   UNL A   1      41.254  31.276  35.152  1.00  0.00    -0.354 N 
ATOM     30  N   UNL A   1      39.095  32.580  33.670  1.00  0.00    -0.248 NA
ATOM     31  C   UNL A   1      37.452  34.236  33.505  1.00  0.00     0.031 C 
ATOM     32  C   UNL A   1      41.978  32.235  37.021  1.00  0.00     0.029 A 
ATOM     33  C   UNL A   1      41.031  32.335  36.015  1.00  0.00     0.049 A 
ATOM     34  H   UNL A   1      40.737  31.095  34.334  1.00  0.00     0.167 HD
ATOM     35  C   UNL A   1      39.161  33.400  34.788  1.00  0.00     0.074 A 
ATOM     36  C   UNL A   1      38.136  34.412  34.629  1.00  0.00     0.031 C 
ATOM     37  C   UNL A   1      39.990  33.315  35.856  1.00  0.00     0.037 A 
BRANCH  24  38
ATOM     38  C   UNL A   1      43.875  28.534  35.659  1.00  0.00     0.058 A 
ATOM     39  C   UNL A   1      45.233  28.778  35.409  1.00  0.00     0.135 A 
ATOM     40  C   UNL A   1      43.544  27.565  36.618  1.00  0.00     0.135 A 
ATOM     41  F   UNL A   1      45.599  29.686  34.489  1.00  0.00    -0.206 F 
ATOM     42  C   UNL A   1      46.231  28.082  36.083  1.00  0.00     0.059 A 
ATOM     43  C   UNL A   1      44.525  26.862  37.311  1.00  0.00     0.059 A 
ATOM     44  F   UNL A   1      42.257  27.292  36.886  1.00  0.00    -0.206 F 
ATOM     45  C   UNL A   1      45.867  27.121  37.029  1.00  0.00     0.060 A 
BRANCH  45  46
ATOM     46  S   UNL A   1      47.165  26.228  37.912  1.00  0.00     0.124 S 
ATOM     47  O   UNL A   1      46.922  24.858  37.475  1.00  0.00    -0.237 OA
ATOM     48  O   UNL A   1      48.384  26.849  37.402  1.00  0.00    -0.237 OA
ATOM     49  O   UNL A   1      46.868  26.504  39.315  1.00  0.00    -0.744 OA
ENDBRANCH  45  46
ENDBRANCH  24  38
BRANCH  25  50
ATOM     50  C   UNL A   1      36.468  33.221  30.943  1.00  0.00     0.058 A 
ATOM     51  C   UNL A   1      35.159  33.153  31.440  1.00  0.00     0.135 A 
ATOM     52  C   UNL A   1      36.705  34.006  29.806  1.00  0.00     0.135 A 
ATOM     53  F   UNL A   1      34.892  32.410  32.525  1.00  0.00    -0.206 F 
ATOM     54  C   UNL A   1      34.118  33.848  30.837  1.00  0.00     0.059 A 
ATOM     55  C   UNL A   1      35.682  34.719  29.192  1.00  0.00     0.059 A 
ATOM     56  F   UNL A   1      37.946  34.106  29.305  1.00  0.00    -0.206 F 
ATOM     57  C   UNL A   1      34.391  34.633  29.715  1.00  0.00     0.060 A 
BRANCH  57  58
ATOM     58  S   UNL A   1      33.070  35.619  28.975  1.00  0.00     0.124 S 
ATOM     59  O   UNL A   1      32.348  36.075  30.157  1.00  0.00    -0.237 OA
ATOM     60  O   UNL A   1      33.804  36.646  28.242  1.00  0.00    -0.237 OA
ATOM     61  O   UNL A   1      32.373  34.646  28.138  1.00  0.00    -0.744 OA
ENDBRANCH  57  58
ENDBRANCH  25  50
BRANCH  37  62
ATOM     62  C   UNL A   1      39.792  34.321  36.948  1.00  0.00     0.058 A 
ATOM     63  C   UNL A   1      40.365  35.599  36.857  1.00  0.00     0.135 A 
ATOM     64  C   UNL A   1      39.015  34.022  38.076  1.00  0.00     0.135 A 
ATOM     65  F   UNL A   1      41.121  35.925  35.797  1.00  0.00    -0.206 F 
ATOM     66  C   UNL A   1      40.188  36.545  37.859  1.00  0.00     0.059 A 
ATOM     67  C   UNL A   1      38.818  34.957  39.087  1.00  0.00     0.059 A 
ATOM     68  F   UNL A   1      38.446  32.813  38.204  1.00  0.00    -0.206 F 
ATOM     69  C   UNL A   1      39.419  36.212  38.975  1.00  0.00     0.060 A 
BRANCH  69  70
ATOM     70  S   UNL A   1      39.172  37.442  40.274  1.00  0.00     0.124 S 
ATOM     71  O   UNL A   1      38.581  36.632  41.335  1.00  0.00    -0.237 OA
ATOM     72  O   UNL A   1      40.527  37.923  40.527  1.00  0.00    -0.237 OA
ATOM     73  O   UNL A   1      38.278  38.411  39.648  1.00  0.00    -0.744 OA
ENDBRANCH  69  70
ENDBRANCH  37  62
ENDBRANCH  11  12
ENDBRANCH   4   6
ENDBRANCH   1   2
BRANCH   1  74
ATOM     74  C   UNL A   1      37.035  23.775  25.664  1.00  0.00     0.042 C 
BRANCH  74  75
ATOM     75  C   UNL A   1      36.551  22.334  25.708  1.00  0.00     0.118 C 
BRANCH  75  76
ATOM     76  N   UNL A   1      35.641  22.045  26.804  1.00  0.00    -0.352 N 
ATOM     77  C   UNL A   1      34.334  21.639  26.726  1.00  0.00     0.253 C 
ATOM     78  H   UNL A   1      36.007  22.155  27.711  1.00  0.00     0.163 HD
ATOM     79  O   UNL A   1      33.700  21.356  27.741  1.00  0.00    -0.269 OA
BRANCH  77  80
ATOM     80  C   UNL A   1      33.656  21.560  25.423  1.00  0.00     0.065 A 
ATOM     81  C   UNL A   1      33.355  20.274  24.946  1.00  0.00     0.016 A 
ATOM     82  C   UNL A   1      33.311  22.694  24.680  1.00  0.00     0.076 A 
ATOM     83  C   UNL A   1      32.663  20.115  23.745  1.00  0.00     0.001 A 
ATOM     84  C   UNL A   1      32.616  22.508  23.474  1.00  0.00     0.029 A 
ATOM     85  C   UNL A   1      32.290  21.234  23.008  1.00  0.00     0.002 A 
BRANCH  82  86
ATOM     86  N   UNL A   1      33.414  24.020  25.094  1.00  0.00    -0.255 NA
ATOM     87  C   UNL A   1      32.510  24.660  25.764  1.00  0.00     0.127 C 
BRANCH  87  88
ATOM     88  C   UNL A   1      32.844  26.071  26.061  1.00  0.00     0.076 A 
ATOM     89  C   UNL A   1      33.907  26.489  25.352  1.00  0.00     0.209 A 
ATOM     90  C   UNL A   1      31.716  27.036  26.154  1.00  0.00     0.201 A 
ATOM     91  O   UNL A   1      33.933  27.679  24.637  1.00  0.00    -0.463 OA
ATOM     92  C   UNL A   1      31.543  27.825  24.922  1.00  0.00     0.065 A 
ATOM     93  O   UNL A   1      30.931  27.049  27.083  1.00  0.00    -0.288 OA
ATOM     94  C   UNL A   1      32.692  28.069  24.169  1.00  0.00     0.137 A 
ATOM     95  C   UNL A   1      30.274  28.132  24.432  1.00  0.00     0.016 A 
ATOM     96  C   UNL A   1      32.583  28.622  22.898  1.00  0.00     0.048 A 
ATOM     97  C   UNL A   1      30.163  28.659  23.146  1.00  0.00     0.001 A 
ATOM     98  C   UNL A   1      31.312  28.898  22.381  1.00  0.00     0.004 A 
ENDBRANCH  87  88
ENDBRANCH  82  86
ENDBRANCH  77  80
ENDBRANCH  75  76
ENDBRANCH  74  75
ENDBRANCH   1  74
TORSDOF 15
ENDMDL
MODEL 3
REMARK VINA RESULT:     -12.9      4.705     10.366
REMARK SMILES O=C(NCCCNC(=O)c1ccccc1/N=C/c1coc2ccccc2c1=O)c1ccc(-c2c3nc(c(-c4c(F)cc(S(=O)(=O)[O-])cc4F)c4ccc([nH]4)c(-c4c(F)cc(S(=O)(=O)[O-])cc4F)c4nc(c(-c5c(F)cc(S(=O)(=O)[O-])cc5F)c5ccc2[nH]5)C=C4)C=C3)cc1
REMARK SMILES IDX 4 1 3 2 1 3 2 4 29 6 30 7 94 8 31 9 93 10 32 11 33 12 34 13
REMARK SMILES IDX 87 14 35 15 92 16 86 17 88 18 36 19 91 20 85 21 84 22 37 24
REMARK SMILES IDX 71 25 50 26 70 27 51 28 54 29 69 30 89 31 52 32 53 33 68 35
REMARK SMILES IDX 90 36 55 37 38 38 39 39 48 40 40 41 41 42 47 43 49 44 42 45
REMARK SMILES IDX 43 46 44 47 45 48 46 49 72 50 73 51 82 52 74 53 75 54 81 55
REMARK SMILES IDX 83 56 76 57 77 58 78 59 79 60 80 61 56 62 57 63 66 64 58 65
REMARK SMILES IDX 59 66 65 67 67 68 60 69 61 70 62 71 63 72 64 73 5 74 6 75
REMARK SMILES IDX 7 76 8 77 9 79 10 80 11 81 15 82 12 83 14 84 13 85 16 86
REMARK SMILES IDX 17 87 18 88 19 89 27 90 20 91 26 92 28 93 21 94 25 95 22 96
REMARK SMILES IDX 24 97 23 98
REMARK H PARENT 3 5 88 23 54 34 7 78
REMARK Flexibility Score: inf
ROOT
ATOM      1  C   UNL A   1      33.540  28.318  27.269  1.00  0.00     0.118 C 
ENDROOT
BRANCH   1   2
ATOM      2  N   UNL A   1      33.414  29.723  27.622  1.00  0.00    -0.352 N 
ATOM      3  O   UNL A   1      34.089  31.739  28.399  1.00  0.00    -0.269 OA
ATOM      4  C   UNL A   1      34.378  30.580  28.110  1.00  0.00     0.251 C 
ATOM      5  H   UNL A   1      32.519  30.115  27.496  1.00  0.00     0.163 HD
BRANCH   4   6
ATOM      6  C   UNL A   1      35.764  30.105  28.351  1.00  0.00     0.039 A 
ATOM      7  C   UNL A   1      36.172  29.595  29.587  1.00  0.00     0.014 A 
ATOM      8  C   UNL A   1      36.680  30.169  27.294  1.00  0.00     0.014 A 
ATOM      9  C   UNL A   1      37.516  29.292  29.806  1.00  0.00     0.010 A 
ATOM     10  C   UNL A   1      38.016  29.804  27.497  1.00  0.00     0.010 A 
ATOM     11  C   UNL A   1      38.455  29.405  28.767  1.00  0.00    -0.014 A 
BRANCH  11  12
ATOM     12  C   UNL A   1      39.885  29.092  29.026  1.00  0.00     0.031 A 
ATOM     13  C   UNL A   1      40.777  30.084  29.725  1.00  0.00     0.074 A 
ATOM     14  C   UNL A   1      40.378  27.898  28.648  1.00  0.00     0.049 A 
ATOM     15  N   UNL A   1      42.040  29.966  30.051  1.00  0.00    -0.248 NA
ATOM     16  C   UNL A   1      40.181  31.375  30.103  1.00  0.00     0.031 C 
ATOM     17  C   UNL A   1      39.626  26.861  27.937  1.00  0.00     0.029 A 
ATOM     18  N   UNL A   1      41.623  27.348  28.821  1.00  0.00    -0.354 N 
ATOM     19  C   UNL A   1      42.399  31.174  30.636  1.00  0.00     0.074 A 
ATOM     20  C   UNL A   1      41.221  32.016  30.622  1.00  0.00     0.031 C 
ATOM     21  C   UNL A   1      40.414  25.786  27.770  1.00  0.00     0.029 A 
ATOM     22  C   UNL A   1      41.731  26.069  28.333  1.00  0.00     0.049 A 
ATOM     23  H   UNL A   1      42.367  27.826  29.253  1.00  0.00     0.167 HD
ATOM     24  C   UNL A   1      43.598  31.547  31.145  1.00  0.00     0.037 A 
ATOM     25  C   UNL A   1      42.773  25.217  28.334  1.00  0.00     0.037 A 
ATOM     26  C   UNL A   1      44.757  30.695  31.215  1.00  0.00     0.049 A 
ATOM     27  C   UNL A   1      44.080  25.641  28.929  1.00  0.00     0.074 A 
ATOM     28  C   UNL A   1      45.984  30.957  31.801  1.00  0.00     0.029 A 
ATOM     29  N   UNL A   1      44.833  29.419  30.681  1.00  0.00    -0.354 N 
ATOM     30  N   UNL A   1      44.385  26.774  29.514  1.00  0.00    -0.248 NA
ATOM     31  C   UNL A   1      45.189  24.680  28.852  1.00  0.00     0.031 C 
ATOM     32  C   UNL A   1      46.810  29.843  31.603  1.00  0.00     0.029 A 
ATOM     33  C   UNL A   1      46.092  28.888  30.903  1.00  0.00     0.049 A 
ATOM     34  H   UNL A   1      44.099  28.959  30.213  1.00  0.00     0.167 HD
ATOM     35  C   UNL A   1      45.727  26.671  29.857  1.00  0.00     0.074 A 
ATOM     36  C   UNL A   1      46.169  25.356  29.439  1.00  0.00     0.031 C 
ATOM     37  C   UNL A   1      46.523  27.590  30.456  1.00  0.00     0.037 A 
BRANCH  24  38
ATOM     38  C   UNL A   1      43.723  32.946  31.671  1.00  0.00     0.058 A 
ATOM     39  C   UNL A   1      43.526  33.239  33.028  1.00  0.00     0.135 A 
ATOM     40  C   UNL A   1      44.092  33.995  30.815  1.00  0.00     0.135 A 
ATOM     41  F   UNL A   1      43.158  32.270  33.882  1.00  0.00    -0.206 F 
ATOM     42  C   UNL A   1      43.684  34.530  33.520  1.00  0.00     0.059 A 
ATOM     43  C   UNL A   1      44.264  35.293  31.287  1.00  0.00     0.059 A 
ATOM     44  F   UNL A   1      44.286  33.763  29.507  1.00  0.00    -0.206 F 
ATOM     45  C   UNL A   1      44.048  35.552  32.641  1.00  0.00     0.060 A 
BRANCH  45  46
ATOM     46  S   UNL A   1      44.265  37.225  33.286  1.00  0.00     0.124 S 
ATOM     47  O   UNL A   1      45.333  37.023  34.259  1.00  0.00    -0.237 OA
ATOM     48  O   UNL A   1      44.630  37.983  32.094  1.00  0.00    -0.237 OA
ATOM     49  O   UNL A   1      42.954  37.541  33.847  1.00  0.00    -0.744 OA
ENDBRANCH  45  46
ENDBRANCH  24  38
BRANCH  25  50
ATOM     50  C   UNL A   1      42.608  23.871  27.736  1.00  0.00     0.058 A 
ATOM     51  C   UNL A   1      42.694  23.689  26.348  1.00  0.00     0.135 A 
ATOM     52  C   UNL A   1      42.422  22.740  28.542  1.00  0.00     0.135 A 
ATOM     53  F   UNL A   1      42.869  24.747  25.542  1.00  0.00    -0.206 F 
ATOM     54  C   UNL A   1      42.610  22.425  25.777  1.00  0.00     0.059 A 
ATOM     55  C   UNL A   1      42.346  21.465  27.995  1.00  0.00     0.059 A 
ATOM     56  F   UNL A   1      42.346  22.871  29.875  1.00  0.00    -0.206 F 
ATOM     57  C   UNL A   1      42.440  21.317  26.611  1.00  0.00     0.060 A 
BRANCH  57  58
ATOM     58  S   UNL A   1      42.425  19.658  25.895  1.00  0.00     0.124 S 
ATOM     59  O   UNL A   1      43.445  19.777  24.860  1.00  0.00    -0.237 OA
ATOM     60  O   UNL A   1      42.768  18.811  27.034  1.00  0.00    -0.237 OA
ATOM     61  O   UNL A   1      41.050  19.526  25.423  1.00  0.00    -0.744 OA
ENDBRANCH  57  58
ENDBRANCH  25  50
BRANCH  37  62
ATOM     62  C   UNL A   1      47.958  27.214  30.654  1.00  0.00     0.058 A 
ATOM     63  C   UNL A   1      48.935  27.600  29.724  1.00  0.00     0.135 A 
ATOM     64  C   UNL A   1      48.367  26.485  31.781  1.00  0.00     0.135 A 
ATOM     65  F   UNL A   1      48.587  28.293  28.629  1.00  0.00    -0.206 F 
ATOM     66  C   UNL A   1      50.272  27.261  29.895  1.00  0.00     0.059 A 
ATOM     67  C   UNL A   1      49.701  26.143  31.977  1.00  0.00     0.059 A 
ATOM     68  F   UNL A   1      47.467  26.097  32.698  1.00  0.00    -0.206 F 
ATOM     69  C   UNL A   1      50.644  26.525  31.022  1.00  0.00     0.060 A 
BRANCH  69  70
ATOM     70  S   UNL A   1      52.383  26.096  31.258  1.00  0.00     0.124 S 
ATOM     71  O   UNL A   1      52.842  27.194  32.102  1.00  0.00    -0.237 OA
ATOM     72  O   UNL A   1      52.309  24.790  31.906  1.00  0.00    -0.237 OA
ATOM     73  O   UNL A   1      52.910  26.083  29.897  1.00  0.00    -0.744 OA
ENDBRANCH  69  70
ENDBRANCH  37  62
ENDBRANCH  11  12
ENDBRANCH   4   6
ENDBRANCH   1   2
BRANCH   1  74
ATOM     74  C   UNL A   1      33.019  27.945  25.884  1.00  0.00     0.042 C 
BRANCH  74  75
ATOM     75  C   UNL A   1      33.657  28.670  24.708  1.00  0.00     0.118 C 
BRANCH  75  76
ATOM     76  N   UNL A   1      33.859  27.836  23.535  1.00  0.00    -0.352 N 
ATOM     77  C   UNL A   1      32.946  27.517  22.563  1.00  0.00     0.253 C 
ATOM     78  H   UNL A   1      34.759  27.454  23.425  1.00  0.00     0.163 HD
ATOM     79  O   UNL A   1      33.276  26.858  21.580  1.00  0.00    -0.269 OA
BRANCH  77  80
ATOM     80  C   UNL A   1      31.542  27.937  22.695  1.00  0.00     0.065 A 
ATOM     81  C   UNL A   1      31.207  29.192  22.161  1.00  0.00     0.016 A 
ATOM     82  C   UNL A   1      30.569  27.142  23.311  1.00  0.00     0.076 A 
ATOM     83  C   UNL A   1      29.886  29.639  22.196  1.00  0.00     0.001 A 
ATOM     84  C   UNL A   1      29.247  27.615  23.333  1.00  0.00     0.029 A 
ATOM     85  C   UNL A   1      28.903  28.848  22.781  1.00  0.00     0.002 A 
BRANCH  82  86
ATOM     86  N   UNL A   1      30.726  25.828  23.746  1.00  0.00    -0.255 NA
ATOM     87  C   UNL A   1      30.644  25.441  24.978  1.00  0.00     0.127 C 
BRANCH  87  88
ATOM     88  C   UNL A   1      30.877  23.994  25.188  1.00  0.00     0.076 A 
ATOM     89  C   UNL A   1      31.032  23.342  24.023  1.00  0.00     0.209 A 
ATOM     90  C   UNL A   1      31.819  23.603  26.271  1.00  0.00     0.201 A 
ATOM     91  O   UNL A   1      32.069  22.453  23.771  1.00  0.00    -0.463 OA
ATOM     92  C   UNL A   1      33.160  23.269  25.762  1.00  0.00     0.065 A 
ATOM     93  O   UNL A   1      31.549  23.708  27.452  1.00  0.00    -0.288 OA
ATOM     94  C   UNL A   1      33.226  22.743  24.470  1.00  0.00     0.137 A 
ATOM     95  C   UNL A   1      34.310  23.649  26.451  1.00  0.00     0.016 A 
ATOM     96  C   UNL A   1      34.459  22.598  23.843  1.00  0.00     0.048 A 
ATOM     97  C   UNL A   1      35.544  23.531  25.811  1.00  0.00     0.001 A 
ATOM     98  C   UNL A   1      35.616  23.013  24.512  1.00  0.00     0.004 A 
ENDBRANCH  87  88
ENDBRANCH  82  86
ENDBRANCH  77  80
ENDBRANCH  75  76
ENDBRANCH  74  75
ENDBRANCH   1  74
TORSDOF 15
ENDMDL
