MODEL 1
REMARK VINA RESULT:     -11.7      0.000      0.000
REMARK SMILES O=C(CCCc1nc(-c2ccc(Cl)c(Cl)c2)c(-c2ccccc2)o1)NCCCNC(=O)c1ccc(-c2c3nc(c(-c4c(F)cc(S(=O)(=O)[O-])cc4F)c4ccc([nH]4)c(-c4c(F)cc(S(=O)(=O)[O-])cc4F)c4nc(c(-c5c(F)cc(S(=O)(=O)[O-])cc5F)c5ccc2[nH]5)C=C4)C=C3)cc1
REMARK SMILES IDX 26 1 25 2 1 3 2 4 3 6 4 7 5 8 6 9 7 10 24 11 8 12 17 13 9 14
REMARK SMILES IDX 10 15 16 16 11 17 14 18 12 19 15 20 13 21 18 22 19 23 23 24
REMARK SMILES IDX 20 25 22 26 21 27 27 28 28 29 29 30 30 31 31 33 32 34 33 35
REMARK SMILES IDX 97 36 34 37 96 38 35 39 36 40 37 41 90 42 38 43 95 44 89 45
REMARK SMILES IDX 91 46 39 47 94 48 88 49 87 50 40 52 74 53 53 54 73 55 54 56
REMARK SMILES IDX 57 57 72 58 92 59 55 60 56 61 71 63 93 64 58 65 41 66 42 67
REMARK SMILES IDX 51 68 43 69 44 70 50 71 52 72 45 73 46 74 47 75 48 76 49 77
REMARK SMILES IDX 75 78 76 79 85 80 77 81 78 82 84 83 86 84 79 85 80 86 81 87
REMARK SMILES IDX 82 88 83 89 59 90 60 91 69 92 61 93 62 94 68 95 70 96 63 97
REMARK SMILES IDX 64 98 65 99 66 100 67 101
REMARK H PARENT 25 5 29 32 91 51 57 62
REMARK Flexibility Score: inf
ROOT
ATOM      1  C   UNL A   1      32.277  26.459  26.884  1.00  0.00     0.117 C 
ENDROOT
BRANCH   1   2
ATOM      2  N   UNL A   1      31.708  26.216  25.573  1.00  0.00    -0.356 N 
ATOM      3  O   UNL A   1      29.711  25.388  26.355  1.00  0.00    -0.275 OA
ATOM      4  C   UNL A   1      30.438  25.711  25.422  1.00  0.00     0.220 C 
ATOM      5  H   UNL A   1      32.245  26.415  24.772  1.00  0.00     0.163 HD
BRANCH   4   6
ATOM      6  C   UNL A   1      29.969  25.632  23.987  1.00  0.00     0.100 C 
BRANCH   6   7
ATOM      7  C   UNL A   1      30.918  26.366  23.036  1.00  0.00     0.020 C 
BRANCH   7   8
ATOM      8  C   UNL A   1      31.659  25.476  22.033  1.00  0.00     0.098 C 
BRANCH   8   9
ATOM      9  C   UNL A   1      32.554  24.499  22.703  1.00  0.00     0.195 A 
ATOM     10  N   UNL A   1      33.702  24.733  23.313  1.00  0.00    -0.213 NA
ATOM     11  O   UNL A   1      32.102  23.212  22.792  1.00  0.00    -0.440 OA
ATOM     12  C   UNL A   1      34.066  23.492  23.781  1.00  0.00     0.117 A 
ATOM     13  C   UNL A   1      33.070  22.572  23.518  1.00  0.00     0.162 A 
BRANCH  12  14
ATOM     14  C   UNL A   1      35.320  23.205  24.439  1.00  0.00     0.006 A 
ATOM     15  C   UNL A   1      35.940  24.169  25.239  1.00  0.00     0.012 A 
ATOM     16  C   UNL A   1      35.917  21.945  24.289  1.00  0.00     0.032 A 
ATOM     17  C   UNL A   1      37.133  23.866  25.903  1.00  0.00     0.023 A 
ATOM     18  C   UNL A   1      37.113  21.644  24.945  1.00  0.00     0.060 A 
ATOM     19  C   UNL A   1      37.721  22.604  25.760  1.00  0.00     0.059 A 
ATOM     20  Cl  UNL A   1      37.779  20.070  24.706  1.00  0.00    -0.083 Cl
ATOM     21  Cl  UNL A   1      39.192  22.300  26.607  1.00  0.00    -0.083 Cl
ENDBRANCH  12  14
BRANCH  13  22
ATOM     22  C   UNL A   1      32.825  21.184  23.860  1.00  0.00     0.020 A 
ATOM     23  C   UNL A   1      32.472  20.254  22.877  1.00  0.00     0.012 A 
ATOM     24  C   UNL A   1      32.968  20.755  25.187  1.00  0.00     0.012 A 
ATOM     25  C   UNL A   1      32.285  18.910  23.215  1.00  0.00     0.001 A 
ATOM     26  C   UNL A   1      32.771  19.416  25.525  1.00  0.00     0.001 A 
ATOM     27  C   UNL A   1      32.436  18.493  24.537  1.00  0.00     0.000 A 
ENDBRANCH  13  22
ENDBRANCH   8   9
ENDBRANCH   7   8
ENDBRANCH   6   7
ENDBRANCH   4   6
ENDBRANCH   1   2
BRANCH   1  28
ATOM     28  C   UNL A   1      32.315  27.935  27.255  1.00  0.00     0.042 C 
BRANCH  28  29
ATOM     29  C   UNL A   1      33.694  28.583  27.189  1.00  0.00     0.118 C 
BRANCH  29  30
ATOM     30  N   UNL A   1      33.692  29.996  27.538  1.00  0.00    -0.352 N 
ATOM     31  C   UNL A   1      34.690  30.754  28.107  1.00  0.00     0.251 C 
ATOM     32  H   UNL A   1      32.859  30.479  27.339  1.00  0.00     0.163 HD
ATOM     33  O   UNL A   1      34.472  31.921  28.418  1.00  0.00    -0.269 OA
BRANCH  31  34
ATOM     34  C   UNL A   1      36.011  30.147  28.383  1.00  0.00     0.039 A 
ATOM     35  C   UNL A   1      36.984  30.177  27.380  1.00  0.00     0.014 A 
ATOM     36  C   UNL A   1      36.301  29.579  29.626  1.00  0.00     0.014 A 
ATOM     37  C   UNL A   1      38.276  29.721  27.654  1.00  0.00     0.010 A 
ATOM     38  C   UNL A   1      37.605  29.181  29.917  1.00  0.00     0.010 A 
ATOM     39  C   UNL A   1      38.610  29.265  28.940  1.00  0.00    -0.014 A 
BRANCH  39  40
ATOM     40  C   UNL A   1      40.010  28.919  29.295  1.00  0.00     0.031 A 
ATOM     41  C   UNL A   1      40.899  29.927  29.968  1.00  0.00     0.074 A 
ATOM     42  C   UNL A   1      40.506  27.717  28.938  1.00  0.00     0.049 A 
ATOM     43  N   UNL A   1      42.167  29.832  30.276  1.00  0.00    -0.248 NA
ATOM     44  C   UNL A   1      40.289  31.217  30.323  1.00  0.00     0.031 C 
ATOM     45  C   UNL A   1      39.759  26.666  28.242  1.00  0.00     0.029 A 
ATOM     46  N   UNL A   1      41.759  27.179  29.097  1.00  0.00    -0.354 N 
ATOM     47  C   UNL A   1      42.511  31.050  30.850  1.00  0.00     0.074 A 
ATOM     48  C   UNL A   1      41.327  31.882  30.810  1.00  0.00     0.031 C 
ATOM     49  C   UNL A   1      40.564  25.610  28.044  1.00  0.00     0.029 A 
ATOM     50  C   UNL A   1      41.892  25.919  28.563  1.00  0.00     0.049 A 
ATOM     51  H   UNL A   1      42.494  27.652  29.550  1.00  0.00     0.167 HD
ATOM     52  C   UNL A   1      43.698  31.432  31.378  1.00  0.00     0.037 A 
ATOM     53  C   UNL A   1      42.965  25.107  28.484  1.00  0.00     0.037 A 
ATOM     54  C   UNL A   1      44.870  30.597  31.432  1.00  0.00     0.049 A 
ATOM     55  C   UNL A   1      44.277  25.562  29.060  1.00  0.00     0.074 A 
ATOM     56  C   UNL A   1      46.099  30.875  32.003  1.00  0.00     0.029 A 
ATOM     57  N   UNL A   1      44.963  29.325  30.886  1.00  0.00    -0.354 N 
ATOM     58  N   UNL A   1      44.566  26.693  29.658  1.00  0.00    -0.248 NA
ATOM     59  C   UNL A   1      45.410  24.632  28.951  1.00  0.00     0.031 C 
ATOM     60  C   UNL A   1      46.949  29.787  31.769  1.00  0.00     0.029 A 
ATOM     61  C   UNL A   1      46.236  28.815  31.085  1.00  0.00     0.049 A 
ATOM     62  H   UNL A   1      44.232  28.855  30.424  1.00  0.00     0.167 HD
ATOM     63  C   UNL A   1      45.907  26.605  30.011  1.00  0.00     0.074 A 
ATOM     64  C   UNL A   1      46.370  25.304  29.573  1.00  0.00     0.031 C 
ATOM     65  C   UNL A   1      46.685  27.519  30.641  1.00  0.00     0.037 A 
BRANCH  52  66
ATOM     66  C   UNL A   1      43.787  32.820  31.950  1.00  0.00     0.058 A 
ATOM     67  C   UNL A   1      44.055  33.932  31.137  1.00  0.00     0.135 A 
ATOM     68  C   UNL A   1      43.568  33.045  33.319  1.00  0.00     0.135 A 
ATOM     69  F   UNL A   1      44.284  33.771  29.824  1.00  0.00    -0.206 F 
ATOM     70  C   UNL A   1      44.131  35.217  31.665  1.00  0.00     0.059 A 
ATOM     71  C   UNL A   1      43.616  34.326  33.864  1.00  0.00     0.059 A 
ATOM     72  F   UNL A   1      43.306  32.017  34.140  1.00  0.00    -0.206 F 
ATOM     73  C   UNL A   1      43.912  35.404  33.030  1.00  0.00     0.060 A 
BRANCH  73  74
ATOM     74  S   UNL A   1      44.006  37.078  33.699  1.00  0.00     0.124 S 
ATOM     75  O   UNL A   1      45.431  37.194  33.993  1.00  0.00    -0.237 OA
ATOM     76  O   UNL A   1      43.522  37.889  32.585  1.00  0.00    -0.237 OA
ATOM     77  O   UNL A   1      43.126  37.031  34.862  1.00  0.00    -0.744 OA
ENDBRANCH  73  74
ENDBRANCH  52  66
BRANCH  53  78
ATOM     78  C   UNL A   1      42.841  23.775  27.836  1.00  0.00     0.058 A 
ATOM     79  C   UNL A   1      42.564  22.629  28.594  1.00  0.00     0.135 A 
ATOM     80  C   UNL A   1      42.982  23.624  26.448  1.00  0.00     0.135 A 
ATOM     81  F   UNL A   1      42.429  22.723  29.926  1.00  0.00    -0.206 F 
ATOM     82  C   UNL A   1      42.443  21.376  28.003  1.00  0.00     0.059 A 
ATOM     83  C   UNL A   1      42.844  22.386  25.829  1.00  0.00     0.059 A 
ATOM     84  F   UNL A   1      43.233  24.694  25.677  1.00  0.00    -0.206 F 
ATOM     85  C   UNL A   1      42.582  21.265  26.617  1.00  0.00     0.060 A 
BRANCH  85  86
ATOM     86  S   UNL A   1      42.371  19.644  25.851  1.00  0.00     0.124 S 
ATOM     87  O   UNL A   1      40.961  19.673  25.481  1.00  0.00    -0.237 OA
ATOM     88  O   UNL A   1      43.323  19.699  24.745  1.00  0.00    -0.237 OA
ATOM     89  O   UNL A   1      42.725  18.719  26.924  1.00  0.00    -0.744 OA
ENDBRANCH  85  86
ENDBRANCH  53  78
BRANCH  65  90
ATOM     90  C   UNL A   1      48.115  27.142  30.908  1.00  0.00     0.058 A 
ATOM     91  C   UNL A   1      48.493  26.491  32.094  1.00  0.00     0.135 A 
ATOM     92  C   UNL A   1      49.110  27.393  29.951  1.00  0.00     0.135 A 
ATOM     93  F   UNL A   1      47.580  26.237  33.045  1.00  0.00    -0.206 F 
ATOM     94  C   UNL A   1      49.812  26.117  32.328  1.00  0.00     0.059 A 
ATOM     95  C   UNL A   1      50.431  27.006  30.154  1.00  0.00     0.059 A 
ATOM     96  F   UNL A   1      48.800  28.006  28.798  1.00  0.00    -0.206 F 
ATOM     97  C   UNL A   1      50.775  26.378  31.350  1.00  0.00     0.060 A 
BRANCH  97  98
ATOM     98  S   UNL A   1      52.477  25.856  31.649  1.00  0.00     0.124 S 
ATOM     99  O   UNL A   1      52.300  24.443  31.967  1.00  0.00    -0.237 OA
ATOM    100  O   UNL A   1      53.124  26.142  30.372  1.00  0.00    -0.237 OA
ATOM    101  O   UNL A   1      52.901  26.701  32.761  1.00  0.00    -0.744 OA
ENDBRANCH  97  98
ENDBRANCH  65  90
ENDBRANCH  39  40
ENDBRANCH  31  34
ENDBRANCH  29  30
ENDBRANCH  28  29
ENDBRANCH   1  28
TORSDOF 18
ENDMDL
MODEL 2
REMARK VINA RESULT:     -11.6      1.350      2.739
REMARK SMILES O=C(CCCc1nc(-c2ccc(Cl)c(Cl)c2)c(-c2ccccc2)o1)NCCCNC(=O)c1ccc(-c2c3nc(c(-c4c(F)cc(S(=O)(=O)[O-])cc4F)c4ccc([nH]4)c(-c4c(F)cc(S(=O)(=O)[O-])cc4F)c4nc(c(-c5c(F)cc(S(=O)(=O)[O-])cc5F)c5ccc2[nH]5)C=C4)C=C3)cc1
REMARK SMILES IDX 26 1 25 2 1 3 2 4 3 6 4 7 5 8 6 9 7 10 24 11 8 12 17 13 9 14
REMARK SMILES IDX 10 15 16 16 11 17 14 18 12 19 15 20 13 21 18 22 19 23 23 24
REMARK SMILES IDX 20 25 22 26 21 27 27 28 28 29 29 30 30 31 31 33 32 34 33 35
REMARK SMILES IDX 97 36 34 37 96 38 35 39 36 40 37 41 90 42 38 43 95 44 89 45
REMARK SMILES IDX 91 46 39 47 94 48 88 49 87 50 40 52 74 53 53 54 73 55 54 56
REMARK SMILES IDX 57 57 72 58 92 59 55 60 56 61 71 63 93 64 58 65 41 66 42 67
REMARK SMILES IDX 51 68 43 69 44 70 50 71 52 72 45 73 46 74 47 75 48 76 49 77
REMARK SMILES IDX 75 78 76 79 85 80 77 81 78 82 84 83 86 84 79 85 80 86 81 87
REMARK SMILES IDX 82 88 83 89 59 90 60 91 69 92 61 93 62 94 68 95 70 96 63 97
REMARK SMILES IDX 64 98 65 99 66 100 67 101
REMARK H PARENT 25 5 29 32 91 51 57 62
REMARK Flexibility Score: inf
ROOT
ATOM      1  C   UNL A   1      32.812  26.722  26.537  1.00  0.00     0.117 C 
ENDROOT
BRANCH   1   2
ATOM      2  N   UNL A   1      32.081  26.707  25.286  1.00  0.00    -0.356 N 
ATOM      3  O   UNL A   1      30.124  25.910  26.190  1.00  0.00    -0.275 OA
ATOM      4  C   UNL A   1      30.764  26.315  25.226  1.00  0.00     0.220 C 
ATOM      5  H   UNL A   1      32.539  26.984  24.458  1.00  0.00     0.163 HD
BRANCH   4   6
ATOM      6  C   UNL A   1      30.131  26.474  23.862  1.00  0.00     0.100 C 
BRANCH   6   7
ATOM      7  C   UNL A   1      31.151  26.914  22.808  1.00  0.00     0.020 C 
BRANCH   7   8
ATOM      8  C   UNL A   1      31.625  25.814  21.854  1.00  0.00     0.098 C 
BRANCH   8   9
ATOM      9  C   UNL A   1      32.241  24.672  22.576  1.00  0.00     0.195 A 
ATOM     10  N   UNL A   1      31.812  23.424  22.640  1.00  0.00    -0.213 NA
ATOM     11  O   UNL A   1      33.450  24.899  23.172  1.00  0.00    -0.440 OA
ATOM     12  C   UNL A   1      32.778  22.799  23.392  1.00  0.00     0.117 A 
ATOM     13  C   UNL A   1      33.807  23.676  23.671  1.00  0.00     0.162 A 
BRANCH  12  14
ATOM     14  C   UNL A   1      32.706  21.424  23.831  1.00  0.00     0.006 A 
ATOM     15  C   UNL A   1      32.845  21.101  25.184  1.00  0.00     0.012 A 
ATOM     16  C   UNL A   1      32.481  20.403  22.897  1.00  0.00     0.032 A 
ATOM     17  C   UNL A   1      32.735  19.771  25.600  1.00  0.00     0.023 A 
ATOM     18  C   UNL A   1      32.378  19.073  23.312  1.00  0.00     0.060 A 
ATOM     19  C   UNL A   1      32.498  18.755  24.668  1.00  0.00     0.059 A 
ATOM     20  Cl  UNL A   1      32.099  17.878  22.097  1.00  0.00    -0.083 Cl
ATOM     21  Cl  UNL A   1      32.374  17.137  25.253  1.00  0.00    -0.083 Cl
ENDBRANCH  12  14
BRANCH  13  22
ATOM     22  C   UNL A   1      35.113  23.578  24.294  1.00  0.00     0.020 A 
ATOM     23  C   UNL A   1      35.399  24.270  25.476  1.00  0.00     0.012 A 
ATOM     24  C   UNL A   1      36.099  22.758  23.727  1.00  0.00     0.012 A 
ATOM     25  C   UNL A   1      36.646  24.127  26.090  1.00  0.00     0.001 A 
ATOM     26  C   UNL A   1      37.348  22.625  24.335  1.00  0.00     0.001 A 
ATOM     27  C   UNL A   1      37.618  23.305  25.520  1.00  0.00     0.000 A 
ENDBRANCH  13  22
ENDBRANCH   8   9
ENDBRANCH   7   8
ENDBRANCH   6   7
ENDBRANCH   4   6
ENDBRANCH   1   2
BRANCH   1  28
ATOM     28  C   UNL A   1      32.711  28.050  27.274  1.00  0.00     0.042 C 
BRANCH  28  29
ATOM     29  C   UNL A   1      33.795  29.066  26.930  1.00  0.00     0.118 C 
BRANCH  29  30
ATOM     30  N   UNL A   1      33.690  30.309  27.680  1.00  0.00    -0.352 N 
ATOM     31  C   UNL A   1      34.616  30.912  28.500  1.00  0.00     0.251 C 
ATOM     32  H   UNL A   1      32.835  30.787  27.587  1.00  0.00     0.163 HD
ATOM     33  O   UNL A   1      34.312  31.922  29.129  1.00  0.00    -0.269 OA
BRANCH  31  34
ATOM     34  C   UNL A   1      35.962  30.319  28.655  1.00  0.00     0.039 A 
ATOM     35  C   UNL A   1      36.810  30.280  27.545  1.00  0.00     0.014 A 
ATOM     36  C   UNL A   1      36.399  29.830  29.889  1.00  0.00     0.014 A 
ATOM     37  C   UNL A   1      38.126  29.837  27.692  1.00  0.00     0.010 A 
ATOM     38  C   UNL A   1      37.729  29.445  30.049  1.00  0.00     0.010 A 
ATOM     39  C   UNL A   1      38.611  29.462  28.956  1.00  0.00    -0.014 A 
BRANCH  39  40
ATOM     40  C   UNL A   1      40.045  29.134  29.165  1.00  0.00     0.031 A 
ATOM     41  C   UNL A   1      41.005  30.180  29.658  1.00  0.00     0.074 A 
ATOM     42  C   UNL A   1      40.498  27.908  28.833  1.00  0.00     0.049 A 
ATOM     43  N   UNL A   1      42.301  30.099  29.819  1.00  0.00    -0.248 NA
ATOM     44  C   UNL A   1      40.437  31.494  29.996  1.00  0.00     0.031 C 
ATOM     45  C   UNL A   1      39.676  26.817  28.303  1.00  0.00     0.029 A 
ATOM     46  N   UNL A   1      41.763  27.375  28.877  1.00  0.00    -0.354 N 
ATOM     47  C   UNL A   1      42.707  31.351  30.264  1.00  0.00     0.074 A 
ATOM     48  C   UNL A   1      41.524  32.185  30.310  1.00  0.00     0.031 C 
ATOM     49  C   UNL A   1      40.455  25.745  28.082  1.00  0.00     0.029 A 
ATOM     50  C   UNL A   1      41.834  26.081  28.417  1.00  0.00     0.049 A 
ATOM     51  H   UNL A   1      42.545  27.873  29.207  1.00  0.00     0.167 HD
ATOM     52  C   UNL A   1      43.948  31.761  30.621  1.00  0.00     0.037 A 
ATOM     53  C   UNL A   1      42.893  25.260  28.265  1.00  0.00     0.037 A 
ATOM     54  C   UNL A   1      45.120  30.926  30.590  1.00  0.00     0.049 A 
ATOM     55  C   UNL A   1      44.263  25.746  28.650  1.00  0.00     0.074 A 
ATOM     56  C   UNL A   1      46.408  31.235  30.991  1.00  0.00     0.029 A 
ATOM     57  N   UNL A   1      45.151  29.620  30.124  1.00  0.00    -0.354 N 
ATOM     58  N   UNL A   1      44.618  26.913  29.132  1.00  0.00    -0.248 NA
ATOM     59  C   UNL A   1      45.377  24.805  28.469  1.00  0.00     0.031 C 
ATOM     60  C   UNL A   1      47.226  30.129  30.731  1.00  0.00     0.029 A 
ATOM     61  C   UNL A   1      46.440  29.118  30.204  1.00  0.00     0.049 A 
ATOM     62  H   UNL A   1      44.371  29.123  29.785  1.00  0.00     0.167 HD
ATOM     63  C   UNL A   1      45.992  26.842  29.328  1.00  0.00     0.074 A 
ATOM     64  C   UNL A   1      46.403  25.512  28.926  1.00  0.00     0.031 C 
ATOM     65  C   UNL A   1      46.836  27.792  29.798  1.00  0.00     0.037 A 
BRANCH  52  66
ATOM     66  C   UNL A   1      44.100  33.184  31.084  1.00  0.00     0.058 A 
ATOM     67  C   UNL A   1      43.959  33.535  32.436  1.00  0.00     0.135 A 
ATOM     68  C   UNL A   1      44.426  34.202  30.173  1.00  0.00     0.135 A 
ATOM     69  F   UNL A   1      43.636  32.602  33.346  1.00  0.00    -0.206 F 
ATOM     70  C   UNL A   1      44.107  34.849  32.864  1.00  0.00     0.059 A 
ATOM     71  C   UNL A   1      44.602  35.521  30.584  1.00  0.00     0.059 A 
ATOM     72  F   UNL A   1      44.575  33.920  28.869  1.00  0.00    -0.206 F 
ATOM     73  C   UNL A   1      44.427  35.836  31.931  1.00  0.00     0.060 A 
BRANCH  73  74
ATOM     74  S   UNL A   1      44.623  37.537  32.505  1.00  0.00     0.124 S 
ATOM     75  O   UNL A   1      44.109  38.290  31.365  1.00  0.00    -0.237 OA
ATOM     76  O   UNL A   1      43.792  37.561  33.705  1.00  0.00    -0.237 OA
ATOM     77  O   UNL A   1      46.058  37.654  32.740  1.00  0.00    -0.744 OA
ENDBRANCH  73  74
ENDBRANCH  52  66
BRANCH  53  78
ATOM     78  C   UNL A   1      42.696  23.889  27.728  1.00  0.00     0.058 A 
ATOM     79  C   UNL A   1      42.643  22.780  28.585  1.00  0.00     0.135 A 
ATOM     80  C   UNL A   1      42.543  23.661  26.352  1.00  0.00     0.135 A 
ATOM     81  F   UNL A   1      42.793  22.948  29.908  1.00  0.00    -0.206 F 
ATOM     82  C   UNL A   1      42.458  21.491  28.098  1.00  0.00     0.059 A 
ATOM     83  C   UNL A   1      42.334  22.384  25.841  1.00  0.00     0.059 A 
ATOM     84  F   UNL A   1      42.571  24.691  25.492  1.00  0.00    -0.206 F 
ATOM     85  C   UNL A   1      42.302  21.303  26.723  1.00  0.00     0.060 A 
BRANCH  85  86
ATOM     86  S   UNL A   1      42.009  19.632  26.103  1.00  0.00     0.124 S 
ATOM     87  O   UNL A   1      42.381  18.821  27.255  1.00  0.00    -0.237 OA
ATOM     88  O   UNL A   1      40.585  19.669  25.780  1.00  0.00    -0.237 OA
ATOM     89  O   UNL A   1      42.901  19.543  24.951  1.00  0.00    -0.744 OA
ENDBRANCH  85  86
ENDBRANCH  53  78
BRANCH  65  90
ATOM     90  C   UNL A   1      48.289  27.426  29.918  1.00  0.00     0.058 A 
ATOM     91  C   UNL A   1      49.211  27.742  28.907  1.00  0.00     0.135 A 
ATOM     92  C   UNL A   1      48.773  26.793  31.073  1.00  0.00     0.135 A 
ATOM     93  F   UNL A   1      48.798  28.339  27.778  1.00  0.00    -0.206 F 
ATOM     94  C   UNL A   1      50.561  27.429  29.031  1.00  0.00     0.059 A 
ATOM     95  C   UNL A   1      50.122  26.491  31.229  1.00  0.00     0.059 A 
ATOM     96  F   UNL A   1      47.934  26.475  32.071  1.00  0.00    -0.206 F 
ATOM     97  C   UNL A   1      51.007  26.803  30.198  1.00  0.00     0.060 A 
BRANCH  97  98
ATOM     98  S   UNL A   1      52.766  26.432  30.364  1.00  0.00     0.124 S 
ATOM     99  O   UNL A   1      53.119  26.065  28.997  1.00  0.00    -0.237 OA
ATOM    100  O   UNL A   1      53.312  27.700  30.840  1.00  0.00    -0.237 OA
ATOM    101  O   UNL A   1      52.794  25.343  31.334  1.00  0.00    -0.744 OA
ENDBRANCH  97  98
ENDBRANCH  65  90
ENDBRANCH  39  40
ENDBRANCH  31  34
ENDBRANCH  29  30
ENDBRANCH  28  29
ENDBRANCH   1  28
TORSDOF 18
ENDMDL
MODEL 3
REMARK VINA RESULT:     -11.5      2.101      2.996
REMARK SMILES O=C(CCCc1nc(-c2ccc(Cl)c(Cl)c2)c(-c2ccccc2)o1)NCCCNC(=O)c1ccc(-c2c3nc(c(-c4c(F)cc(S(=O)(=O)[O-])cc4F)c4ccc([nH]4)c(-c4c(F)cc(S(=O)(=O)[O-])cc4F)c4nc(c(-c5c(F)cc(S(=O)(=O)[O-])cc5F)c5ccc2[nH]5)C=C4)C=C3)cc1
REMARK SMILES IDX 26 1 25 2 1 3 2 4 3 6 4 7 5 8 6 9 7 10 24 11 8 12 17 13 9 14
REMARK SMILES IDX 10 15 16 16 11 17 14 18 12 19 15 20 13 21 18 22 19 23 23 24
REMARK SMILES IDX 20 25 22 26 21 27 27 28 28 29 29 30 30 31 31 33 32 34 33 35
REMARK SMILES IDX 97 36 34 37 96 38 35 39 36 40 37 41 90 42 38 43 95 44 89 45
REMARK SMILES IDX 91 46 39 47 94 48 88 49 87 50 40 52 74 53 53 54 73 55 54 56
REMARK SMILES IDX 57 57 72 58 92 59 55 60 56 61 71 63 93 64 58 65 41 66 42 67
REMARK SMILES IDX 51 68 43 69 44 70 50 71 52 72 45 73 46 74 47 75 48 76 49 77
REMARK SMILES IDX 75 78 76 79 85 80 77 81 78 82 84 83 86 84 79 85 80 86 81 87
REMARK SMILES IDX 82 88 83 89 59 90 60 91 69 92 61 93 62 94 68 95 70 96 63 97
REMARK SMILES IDX 64 98 65 99 66 100 67 101
REMARK H PARENT 25 5 29 32 91 51 57 62
REMARK Flexibility Score: inf
ROOT
ATOM      1  C   UNL A   1      33.414  26.299  26.174  1.00  0.00     0.117 C 
ENDROOT
BRANCH   1   2
ATOM      2  N   UNL A   1      32.424  25.495  25.486  1.00  0.00    -0.356 N 
ATOM      3  O   UNL A   1      31.591  24.507  27.387  1.00  0.00    -0.275 OA
ATOM      4  C   UNL A   1      31.565  24.668  26.172  1.00  0.00     0.220 C 
ATOM      5  H   UNL A   1      32.365  25.542  24.504  1.00  0.00     0.163 HD
BRANCH   4   6
ATOM      6  C   UNL A   1      30.526  23.996  25.304  1.00  0.00     0.100 C 
BRANCH   6   7
ATOM      7  C   UNL A   1      30.762  24.271  23.816  1.00  0.00     0.020 C 
BRANCH   7   8
ATOM      8  C   UNL A   1      31.014  23.032  22.952  1.00  0.00     0.098 C 
BRANCH   8   9
ATOM      9  C   UNL A   1      32.160  22.228  23.444  1.00  0.00     0.195 A 
ATOM     10  N   UNL A   1      33.314  22.662  23.918  1.00  0.00    -0.213 NA
ATOM     11  O   UNL A   1      31.979  20.874  23.512  1.00  0.00    -0.440 OA
ATOM     12  C   UNL A   1      33.969  21.502  24.261  1.00  0.00     0.117 A 
ATOM     13  C   UNL A   1      33.141  20.414  24.070  1.00  0.00     0.162 A 
BRANCH  12  14
ATOM     14  C   UNL A   1      35.332  21.446  24.738  1.00  0.00     0.006 A 
ATOM     15  C   UNL A   1      36.055  20.251  24.683  1.00  0.00     0.012 A 
ATOM     16  C   UNL A   1      35.942  22.600  25.247  1.00  0.00     0.032 A 
ATOM     17  C   UNL A   1      37.386  20.220  25.111  1.00  0.00     0.023 A 
ATOM     18  C   UNL A   1      37.270  22.568  25.682  1.00  0.00     0.060 A 
ATOM     19  C   UNL A   1      37.997  21.376  25.609  1.00  0.00     0.059 A 
ATOM     20  Cl  UNL A   1      37.944  24.034  26.296  1.00  0.00    -0.083 Cl
ATOM     21  Cl  UNL A   1      39.640  21.263  26.119  1.00  0.00    -0.083 Cl
ENDBRANCH  12  14
BRANCH  13  22
ATOM     22  C   UNL A   1      33.213  18.994  24.356  1.00  0.00     0.020 A 
ATOM     23  C   UNL A   1      32.850  18.494  25.611  1.00  0.00     0.012 A 
ATOM     24  C   UNL A   1      33.623  18.099  23.357  1.00  0.00     0.012 A 
ATOM     25  C   UNL A   1      32.879  17.118  25.856  1.00  0.00     0.001 A 
ATOM     26  C   UNL A   1      33.662  16.727  23.606  1.00  0.00     0.001 A 
ATOM     27  C   UNL A   1      33.284  16.237  24.854  1.00  0.00     0.000 A 
ENDBRANCH  13  22
ENDBRANCH   8   9
ENDBRANCH   7   8
ENDBRANCH   6   7
ENDBRANCH   4   6
ENDBRANCH   1   2
BRANCH   1  28
ATOM     28  C   UNL A   1      32.982  27.746  26.366  1.00  0.00     0.042 C 
BRANCH  28  29
ATOM     29  C   UNL A   1      34.001  28.790  25.923  1.00  0.00     0.118 C 
BRANCH  29  30
ATOM     30  N   UNL A   1      33.757  30.115  26.473  1.00  0.00    -0.352 N 
ATOM     31  C   UNL A   1      34.468  30.808  27.426  1.00  0.00     0.251 C 
ATOM     32  H   UNL A   1      32.971  30.584  26.110  1.00  0.00     0.163 HD
ATOM     33  O   UNL A   1      34.053  31.888  27.836  1.00  0.00    -0.269 OA
BRANCH  31  34
ATOM     34  C   UNL A   1      35.709  30.229  27.986  1.00  0.00     0.039 A 
ATOM     35  C   UNL A   1      36.898  30.369  27.266  1.00  0.00     0.014 A 
ATOM     36  C   UNL A   1      35.710  29.578  29.222  1.00  0.00     0.014 A 
ATOM     37  C   UNL A   1      38.104  29.939  27.826  1.00  0.00     0.010 A 
ATOM     38  C   UNL A   1      36.919  29.205  29.807  1.00  0.00     0.010 A 
ATOM     39  C   UNL A   1      38.130  29.398  29.122  1.00  0.00    -0.014 A 
BRANCH  39  40
ATOM     40  C   UNL A   1      39.414  29.076  29.797  1.00  0.00     0.031 A 
ATOM     41  C   UNL A   1      39.910  29.917  30.939  1.00  0.00     0.074 A 
ATOM     42  C   UNL A   1      40.173  28.066  29.325  1.00  0.00     0.049 A 
ATOM     43  N   UNL A   1      41.041  29.837  31.591  1.00  0.00    -0.248 NA
ATOM     44  C   UNL A   1      39.027  31.002  31.395  1.00  0.00     0.031 C 
ATOM     45  C   UNL A   1      39.825  27.201  28.195  1.00  0.00     0.029 A 
ATOM     46  N   UNL A   1      41.403  27.604  29.725  1.00  0.00    -0.354 N 
ATOM     47  C   UNL A   1      41.015  30.865  32.525  1.00  0.00     0.074 A 
ATOM     48  C   UNL A   1      39.771  31.580  32.328  1.00  0.00     0.031 C 
ATOM     49  C   UNL A   1      40.811  26.311  28.001  1.00  0.00     0.029 A 
ATOM     50  C   UNL A   1      41.877  26.562  28.965  1.00  0.00     0.049 A 
ATOM     51  H   UNL A   1      41.899  27.985  30.486  1.00  0.00     0.167 HD
ATOM     52  C   UNL A   1      41.932  31.173  33.473  1.00  0.00     0.037 A 
ATOM     53  C   UNL A   1      43.045  25.892  29.023  1.00  0.00     0.037 A 
ATOM     54  C   UNL A   1      43.162  30.451  33.678  1.00  0.00     0.049 A 
ATOM     55  C   UNL A   1      44.056  26.265  30.071  1.00  0.00     0.074 A 
ATOM     56  C   UNL A   1      44.124  30.650  34.652  1.00  0.00     0.029 A 
ATOM     57  N   UNL A   1      43.603  29.397  32.891  1.00  0.00    -0.354 N 
ATOM     58  N   UNL A   1      43.985  27.199  30.990  1.00  0.00    -0.248 NA
ATOM     59  C   UNL A   1      45.309  25.495  30.092  1.00  0.00     0.031 C 
ATOM     60  C   UNL A   1      45.167  29.743  34.430  1.00  0.00     0.029 A 
ATOM     61  C   UNL A   1      44.835  28.952  33.341  1.00  0.00     0.049 A 
ATOM     62  H   UNL A   1      43.113  29.021  32.124  1.00  0.00     0.167 HD
ATOM     63  C   UNL A   1      45.173  27.118  31.707  1.00  0.00     0.074 A 
ATOM     64  C   UNL A   1      45.939  26.035  31.126  1.00  0.00     0.031 C 
ATOM     65  C   UNL A   1      45.590  27.874  32.752  1.00  0.00     0.037 A 
BRANCH  52  66
ATOM     66  C   UNL A   1      41.638  32.344  34.369  1.00  0.00     0.058 A 
ATOM     67  C   UNL A   1      40.902  32.193  35.555  1.00  0.00     0.135 A 
ATOM     68  C   UNL A   1      42.125  33.624  34.057  1.00  0.00     0.135 A 
ATOM     69  F   UNL A   1      40.404  30.994  35.893  1.00  0.00    -0.206 F 
ATOM     70  C   UNL A   1      40.637  33.275  36.387  1.00  0.00     0.059 A 
ATOM     71  C   UNL A   1      41.890  34.717  34.887  1.00  0.00     0.059 A 
ATOM     72  F   UNL A   1      42.836  33.822  32.935  1.00  0.00    -0.206 F 
ATOM     73  C   UNL A   1      41.132  34.534  36.044  1.00  0.00     0.060 A 
BRANCH  73  74
ATOM     74  S   UNL A   1      40.784  35.927  37.138  1.00  0.00     0.124 S 
ATOM     75  O   UNL A   1      42.105  36.534  37.267  1.00  0.00    -0.237 OA
ATOM     76  O   UNL A   1      39.807  36.693  36.369  1.00  0.00    -0.237 OA
ATOM     77  O   UNL A   1      40.265  35.291  38.345  1.00  0.00    -0.744 OA
ENDBRANCH  73  74
ENDBRANCH  52  66
BRANCH  53  78
ATOM     78  C   UNL A   1      43.319  24.793  28.061  1.00  0.00     0.058 A 
ATOM     79  C   UNL A   1      44.026  25.034  26.875  1.00  0.00     0.135 A 
ATOM     80  C   UNL A   1      42.892  23.480  28.313  1.00  0.00     0.135 A 
ATOM     81  F   UNL A   1      44.447  26.275  26.586  1.00  0.00    -0.206 F 
ATOM     82  C   UNL A   1      44.291  24.016  25.964  1.00  0.00     0.059 A 
ATOM     83  C   UNL A   1      43.163  22.440  27.430  1.00  0.00     0.059 A 
ATOM     84  F   UNL A   1      42.224  23.195  29.442  1.00  0.00    -0.206 F 
ATOM     85  C   UNL A   1      43.858  22.721  26.253  1.00  0.00     0.060 A 
BRANCH  85  86
ATOM     86  S   UNL A   1      44.252  21.395  25.092  1.00  0.00     0.124 S 
ATOM     87  O   UNL A   1      43.200  20.428  25.381  1.00  0.00    -0.237 OA
ATOM     88  O   UNL A   1      44.157  22.075  23.804  1.00  0.00    -0.237 OA
ATOM     89  O   UNL A   1      45.601  20.999  25.483  1.00  0.00    -0.744 OA
ENDBRANCH  85  86
ENDBRANCH  53  78
BRANCH  65  90
ATOM     90  C   UNL A   1      46.931  27.549  33.347  1.00  0.00     0.058 A 
ATOM     91  C   UNL A   1      48.102  28.191  32.913  1.00  0.00     0.135 A 
ATOM     92  C   UNL A   1      47.042  26.618  34.392  1.00  0.00     0.135 A 
ATOM     93  F   UNL A   1      48.051  29.082  31.910  1.00  0.00    -0.206 F 
ATOM     94  C   UNL A   1      49.339  27.910  33.483  1.00  0.00     0.059 A 
ATOM     95  C   UNL A   1      48.265  26.339  34.993  1.00  0.00     0.059 A 
ATOM     96  F   UNL A   1      45.953  25.981  34.848  1.00  0.00    -0.206 F 
ATOM     97  C   UNL A   1      49.410  26.982  34.524  1.00  0.00     0.060 A 
BRANCH  97  98
ATOM     98  S   UNL A   1      51.016  26.651  35.282  1.00  0.00     0.124 S 
ATOM     99  O   UNL A   1      51.873  26.521  34.108  1.00  0.00    -0.237 OA
ATOM    100  O   UNL A   1      51.232  27.844  36.096  1.00  0.00    -0.237 OA
ATOM    101  O   UNL A   1      50.789  25.421  36.034  1.00  0.00    -0.744 OA
ENDBRANCH  97  98
ENDBRANCH  65  90
ENDBRANCH  39  40
ENDBRANCH  31  34
ENDBRANCH  29  30
ENDBRANCH  28  29
ENDBRANCH   1  28
TORSDOF 18
ENDMDL
