MODEL 1
REMARK VINA RESULT:     -10.8      0.000      0.000
REMARK SMILES CCS(=O)(=O)/N=c1/[nH]c(C)c(C(=O)NCCCNC(=O)c2ccc(-c3c4nc(c(-c5c(F)cc(S(=O)(=O)[O-])cc5F)c5ccc([nH]5)c(-c5c(F)cc(S(=O)(=O)[O-])cc5F)c5nc(c(-c6c(F)cc(S(=O)(=O)[O-])cc6F)c6ccc3[nH]6)C=C5)C=C4)cc2)s1
REMARK SMILES IDX 16 1 15 2 14 3 12 4 13 5 11 7 6 8 7 9 8 10 87 11 9 12 10 14
REMARK SMILES IDX 3 15 4 16 5 17 2 18 1 19 17 20 18 21 19 22 20 24 21 25 22 26
REMARK SMILES IDX 86 27 23 28 85 29 24 30 25 31 26 32 79 33 27 34 84 35 78 36
REMARK SMILES IDX 80 37 28 38 83 39 77 40 76 41 29 43 63 44 42 45 62 46 43 47
REMARK SMILES IDX 46 48 61 49 81 50 44 51 45 52 60 54 82 55 47 56 30 57 31 58
REMARK SMILES IDX 40 59 32 60 33 61 39 62 41 63 34 64 35 65 36 66 37 67 38 68
REMARK SMILES IDX 64 69 65 70 74 71 66 72 67 73 73 74 75 75 68 76 69 77 70 78
REMARK SMILES IDX 71 79 72 80 48 81 49 82 58 83 50 84 51 85 57 86 59 87 52 88
REMARK SMILES IDX 53 89 54 90 55 91 56 92
REMARK H PARENT 14 6 8 13 18 23 80 42 46 53
REMARK Flexibility Score: inf
ROOT
ATOM      1  C   UNL A   1      33.901  27.492  25.146  1.00  0.00     0.042 C 
ENDROOT
BRANCH   1   2
ATOM      2  C   UNL A   1      32.612  26.784  24.787  1.00  0.00     0.118 C 
BRANCH   2   3
ATOM      3  N   UNL A   1      32.125  25.942  25.842  1.00  0.00    -0.351 N 
ATOM      4  C   UNL A   1      32.412  24.684  26.238  1.00  0.00     0.263 C 
ATOM      5  O   UNL A   1      31.800  24.331  27.255  1.00  0.00    -0.268 OA
ATOM      6  H   UNL A   1      31.435  26.374  26.395  1.00  0.00     0.163 HD
BRANCH   4   7
ATOM      7  C   UNL A   1      33.366  23.730  25.562  1.00  0.00     0.114 A 
ATOM      8  N   UNL A   1      34.143  20.148  24.509  1.00  0.00    -0.135 NA
ATOM      9  C   UNL A   1      33.946  21.404  24.661  1.00  0.00     0.199 A 
ATOM     10  N   UNL A   1      34.972  22.299  24.767  1.00  0.00    -0.333 N 
ATOM     11  S   UNL A   1      32.482  22.320  24.884  1.00  0.00    -0.091 S 
ATOM     12  C   UNL A   1      34.694  23.535  25.348  1.00  0.00     0.037 A 
ATOM     13  H   UNL A   1      35.876  22.079  24.443  1.00  0.00     0.169 HD
ATOM     14  C   UNL A   1      35.903  24.320  25.744  1.00  0.00     0.066 C 
BRANCH   8  15
ATOM     15  S   UNL A   1      33.160  18.883  24.540  1.00  0.00     0.255 S 
ATOM     16  O   UNL A   1      32.341  18.943  23.342  1.00  0.00    -0.205 OA
ATOM     17  O   UNL A   1      32.497  18.902  25.833  1.00  0.00    -0.205 OA
BRANCH  15  18
ATOM     18  C   UNL A   1      34.042  17.349  24.481  1.00  0.00     0.159 C 
ATOM     19  C   UNL A   1      34.002  16.655  23.130  1.00  0.00     0.023 C 
ENDBRANCH  15  18
ENDBRANCH   8  15
ENDBRANCH   4   7
ENDBRANCH   2   3
ENDBRANCH   1   2
BRANCH   1  20
ATOM     20  C   UNL A   1      33.986  27.806  26.633  1.00  0.00     0.118 C 
BRANCH  20  21
ATOM     21  N   UNL A   1      33.675  29.208  26.914  1.00  0.00    -0.352 N 
ATOM     22  C   UNL A   1      34.353  30.141  27.658  1.00  0.00     0.251 C 
ATOM     23  H   UNL A   1      32.843  29.535  26.501  1.00  0.00     0.163 HD
ATOM     24  O   UNL A   1      33.783  31.168  28.004  1.00  0.00    -0.269 OA
BRANCH  22  25
ATOM     25  C   UNL A   1      35.760  29.898  28.034  1.00  0.00     0.039 A 
ATOM     26  C   UNL A   1      36.061  29.463  29.326  1.00  0.00     0.014 A 
ATOM     27  C   UNL A   1      36.780  30.115  27.107  1.00  0.00     0.014 A 
ATOM     28  C   UNL A   1      37.386  29.180  29.661  1.00  0.00     0.010 A 
ATOM     29  C   UNL A   1      38.075  29.721  27.404  1.00  0.00     0.010 A 
ATOM     30  C   UNL A   1      38.396  29.267  28.689  1.00  0.00    -0.014 A 
BRANCH  30  31
ATOM     31  C   UNL A   1      39.804  28.915  28.990  1.00  0.00     0.031 A 
ATOM     32  C   UNL A   1      40.723  29.955  29.574  1.00  0.00     0.074 A 
ATOM     33  C   UNL A   1      40.269  27.695  28.657  1.00  0.00     0.049 A 
ATOM     34  N   UNL A   1      42.007  29.883  29.807  1.00  0.00    -0.248 NA
ATOM     35  C   UNL A   1      40.127  31.263  29.901  1.00  0.00     0.031 C 
ATOM     36  C   UNL A   1      39.484  26.630  28.028  1.00  0.00     0.029 A 
ATOM     37  N   UNL A   1      41.520  27.149  28.789  1.00  0.00    -0.354 N 
ATOM     38  C   UNL A   1      42.373  31.136  30.283  1.00  0.00     0.074 A 
ATOM     39  C   UNL A   1      41.193  31.969  30.243  1.00  0.00     0.031 C 
ATOM     40  C   UNL A   1      40.264  25.551  27.855  1.00  0.00     0.029 A 
ATOM     41  C   UNL A   1      41.612  25.860  28.319  1.00  0.00     0.049 A 
ATOM     42  H   UNL A   1      42.280  27.634  29.183  1.00  0.00     0.167 HD
ATOM     43  C   UNL A   1      43.580  31.547  30.741  1.00  0.00     0.037 A 
ATOM     44  C   UNL A   1      42.668  25.026  28.260  1.00  0.00     0.037 A 
ATOM     45  C   UNL A   1      44.736  30.695  30.813  1.00  0.00     0.049 A 
ATOM     46  C   UNL A   1      43.994  25.499  28.790  1.00  0.00     0.074 A 
ATOM     47  C   UNL A   1      45.988  30.985  31.322  1.00  0.00     0.029 A 
ATOM     48  N   UNL A   1      44.781  29.383  30.361  1.00  0.00    -0.354 N 
ATOM     49  N   UNL A   1      44.308  26.666  29.301  1.00  0.00    -0.248 NA
ATOM     50  C   UNL A   1      45.107  24.543  28.744  1.00  0.00     0.031 C 
ATOM     51  C   UNL A   1      46.803  29.864  31.138  1.00  0.00     0.029 A 
ATOM     52  C   UNL A   1      46.044  28.856  30.563  1.00  0.00     0.049 A 
ATOM     53  H   UNL A   1      44.024  28.899  29.958  1.00  0.00     0.167 HD
ATOM     54  C   UNL A   1      45.647  26.575  29.662  1.00  0.00     0.074 A 
ATOM     55  C   UNL A   1      46.078  25.235  29.323  1.00  0.00     0.031 C 
ATOM     56  C   UNL A   1      46.448  27.514  30.225  1.00  0.00     0.037 A 
BRANCH  43  57
ATOM     57  C   UNL A   1      43.702  32.971  31.211  1.00  0.00     0.058 A 
ATOM     58  C   UNL A   1      43.422  33.338  32.538  1.00  0.00     0.135 A 
ATOM     59  C   UNL A   1      44.129  33.979  30.332  1.00  0.00     0.135 A 
ATOM     60  F   UNL A   1      42.991  32.419  33.418  1.00  0.00    -0.206 F 
ATOM     61  C   UNL A   1      43.530  34.656  32.968  1.00  0.00     0.059 A 
ATOM     62  C   UNL A   1      44.276  35.299  30.748  1.00  0.00     0.059 A 
ATOM     63  F   UNL A   1      44.408  33.687  29.052  1.00  0.00    -0.206 F 
ATOM     64  C   UNL A   1      43.959  35.630  32.065  1.00  0.00     0.060 A 
BRANCH  64  65
ATOM     65  S   UNL A   1      44.103  37.334  32.642  1.00  0.00     0.124 S 
ATOM     66  O   UNL A   1      43.902  38.078  31.402  1.00  0.00    -0.237 OA
ATOM     67  O   UNL A   1      43.021  37.426  33.617  1.00  0.00    -0.237 OA
ATOM     68  O   UNL A   1      45.451  37.393  33.198  1.00  0.00    -0.744 OA
ENDBRANCH  64  65
ENDBRANCH  43  57
BRANCH  44  69
ATOM     69  C   UNL A   1      42.503  23.656  27.705  1.00  0.00     0.058 A 
ATOM     70  C   UNL A   1      42.550  23.429  26.322  1.00  0.00     0.135 A 
ATOM     71  C   UNL A   1      42.318  22.546  28.544  1.00  0.00     0.135 A 
ATOM     72  F   UNL A   1      42.722  24.458  25.479  1.00  0.00    -0.206 F 
ATOM     73  C   UNL A   1      42.401  22.154  25.787  1.00  0.00     0.059 A 
ATOM     74  C   UNL A   1      42.193  21.257  28.034  1.00  0.00     0.059 A 
ATOM     75  F   UNL A   1      42.288  22.706  29.876  1.00  0.00    -0.206 F 
ATOM     76  C   UNL A   1      42.225  21.072  26.653  1.00  0.00     0.060 A 
BRANCH  76  77
ATOM     77  S   UNL A   1      42.083  19.415  25.950  1.00  0.00     0.124 S 
ATOM     78  O   UNL A   1      40.644  19.310  25.736  1.00  0.00    -0.237 OA
ATOM     79  O   UNL A   1      42.903  19.522  24.747  1.00  0.00    -0.237 OA
ATOM     80  O   UNL A   1      42.631  18.559  26.999  1.00  0.00    -0.744 OA
ENDBRANCH  76  77
ENDBRANCH  44  69
BRANCH  56  81
ATOM     81  C   UNL A   1      47.862  27.116  30.542  1.00  0.00     0.058 A 
ATOM     82  C   UNL A   1      48.918  27.374  29.657  1.00  0.00     0.135 A 
ATOM     83  C   UNL A   1      48.168  26.523  31.778  1.00  0.00     0.135 A 
ATOM     84  F   UNL A   1      48.677  27.932  28.460  1.00  0.00    -0.206 F 
ATOM     85  C   UNL A   1      50.230  27.038  29.976  1.00  0.00     0.059 A 
ATOM     86  C   UNL A   1      49.475  26.206  32.131  1.00  0.00     0.059 A 
ATOM     87  F   UNL A   1      47.195  26.265  32.666  1.00  0.00    -0.206 F 
ATOM     88  C   UNL A   1      50.498  26.458  31.218  1.00  0.00     0.060 A 
BRANCH  88  89
ATOM     89  S   UNL A   1      52.209  26.064  31.635  1.00  0.00     0.124 S 
ATOM     90  O   UNL A   1      52.864  26.188  30.336  1.00  0.00    -0.237 OA
ATOM     91  O   UNL A   1      52.538  27.096  32.612  1.00  0.00    -0.237 OA
ATOM     92  O   UNL A   1      52.126  24.707  32.169  1.00  0.00    -0.744 OA
ENDBRANCH  88  89
ENDBRANCH  56  81
ENDBRANCH  30  31
ENDBRANCH  22  25
ENDBRANCH  20  21
ENDBRANCH   1  20
TORSDOF 15
ENDMDL
MODEL 2
REMARK VINA RESULT:     -10.7      2.678      3.320
REMARK SMILES CCS(=O)(=O)/N=c1/[nH]c(C)c(C(=O)NCCCNC(=O)c2ccc(-c3c4nc(c(-c5c(F)cc(S(=O)(=O)[O-])cc5F)c5ccc([nH]5)c(-c5c(F)cc(S(=O)(=O)[O-])cc5F)c5nc(c(-c6c(F)cc(S(=O)(=O)[O-])cc6F)c6ccc3[nH]6)C=C5)C=C4)cc2)s1
REMARK SMILES IDX 16 1 15 2 14 3 12 4 13 5 11 7 6 8 7 9 8 10 87 11 9 12 10 14
REMARK SMILES IDX 3 15 4 16 5 17 2 18 1 19 17 20 18 21 19 22 20 24 21 25 22 26
REMARK SMILES IDX 86 27 23 28 85 29 24 30 25 31 26 32 79 33 27 34 84 35 78 36
REMARK SMILES IDX 80 37 28 38 83 39 77 40 76 41 29 43 63 44 42 45 62 46 43 47
REMARK SMILES IDX 46 48 61 49 81 50 44 51 45 52 60 54 82 55 47 56 30 57 31 58
REMARK SMILES IDX 40 59 32 60 33 61 39 62 41 63 34 64 35 65 36 66 37 67 38 68
REMARK SMILES IDX 64 69 65 70 74 71 66 72 67 73 73 74 75 75 68 76 69 77 70 78
REMARK SMILES IDX 71 79 72 80 48 81 49 82 58 83 50 84 51 85 57 86 59 87 52 88
REMARK SMILES IDX 53 89 54 90 55 91 56 92
REMARK H PARENT 14 6 8 13 18 23 80 42 46 53
REMARK Flexibility Score: inf
ROOT
ATOM      1  C   UNL A   1      32.997  27.597  26.326  1.00  0.00     0.042 C 
ENDROOT
BRANCH   1   2
ATOM      2  C   UNL A   1      33.179  26.191  25.794  1.00  0.00     0.118 C 
BRANCH   2   3
ATOM      3  N   UNL A   1      32.331  25.234  26.446  1.00  0.00    -0.351 N 
ATOM      4  C   UNL A   1      32.324  23.886  26.509  1.00  0.00     0.263 C 
ATOM      5  O   UNL A   1      31.437  23.427  27.242  1.00  0.00    -0.268 OA
ATOM      6  H   UNL A   1      31.599  25.649  26.955  1.00  0.00     0.163 HD
BRANCH   4   7
ATOM      7  C   UNL A   1      33.262  22.952  25.784  1.00  0.00     0.114 A 
ATOM      8  N   UNL A   1      33.926  19.445  24.442  1.00  0.00    -0.135 NA
ATOM      9  C   UNL A   1      33.777  20.690  24.699  1.00  0.00     0.199 A 
ATOM     10  N   UNL A   1      34.835  21.524  24.921  1.00  0.00    -0.333 N 
ATOM     11  S   UNL A   1      32.346  21.649  24.951  1.00  0.00    -0.091 S 
ATOM     12  C   UNL A   1      34.588  22.715  25.601  1.00  0.00     0.037 A 
ATOM     13  H   UNL A   1      35.741  21.292  24.611  1.00  0.00     0.169 HD
ATOM     14  C   UNL A   1      35.813  23.406  26.108  1.00  0.00     0.066 C 
BRANCH   8  15
ATOM     15  S   UNL A   1      32.889  18.229  24.325  1.00  0.00     0.255 S 
ATOM     16  O   UNL A   1      32.043  18.492  23.174  1.00  0.00    -0.205 OA
ATOM     17  O   UNL A   1      32.261  18.089  25.628  1.00  0.00    -0.205 OA
BRANCH  15  18
ATOM     18  C   UNL A   1      33.701  16.685  24.022  1.00  0.00     0.159 C 
ATOM     19  C   UNL A   1      33.972  15.864  25.272  1.00  0.00     0.023 C 
ENDBRANCH  15  18
ENDBRANCH   8  15
ENDBRANCH   4   7
ENDBRANCH   2   3
ENDBRANCH   1   2
BRANCH   1  20
ATOM     20  C   UNL A   1      34.047  28.555  25.782  1.00  0.00     0.118 C 
BRANCH  20  21
ATOM     21  N   UNL A   1      33.815  29.929  26.227  1.00  0.00    -0.352 N 
ATOM     22  C   UNL A   1      34.385  30.645  27.250  1.00  0.00     0.251 C 
ATOM     23  H   UNL A   1      33.139  30.421  25.707  1.00  0.00     0.163 HD
ATOM     24  O   UNL A   1      33.852  31.677  27.637  1.00  0.00    -0.269 OA
BRANCH  22  25
ATOM     25  C   UNL A   1      35.634  30.164  27.874  1.00  0.00     0.039 A 
ATOM     26  C   UNL A   1      36.850  30.355  27.216  1.00  0.00     0.014 A 
ATOM     27  C   UNL A   1      35.595  29.512  29.108  1.00  0.00     0.014 A 
ATOM     28  C   UNL A   1      38.034  29.951  27.833  1.00  0.00     0.010 A 
ATOM     29  C   UNL A   1      36.776  29.221  29.770  1.00  0.00     0.010 A 
ATOM     30  C   UNL A   1      38.008  29.419  29.133  1.00  0.00    -0.014 A 
BRANCH  30  31
ATOM     31  C   UNL A   1      39.249  29.036  29.847  1.00  0.00     0.031 A 
ATOM     32  C   UNL A   1      39.667  29.800  31.075  1.00  0.00     0.074 A 
ATOM     33  C   UNL A   1      40.035  28.066  29.340  1.00  0.00     0.049 A 
ATOM     34  N   UNL A   1      40.766  29.696  31.777  1.00  0.00    -0.248 NA
ATOM     35  C   UNL A   1      38.748  30.848  31.553  1.00  0.00     0.031 C 
ATOM     36  C   UNL A   1      39.760  27.302  28.120  1.00  0.00     0.029 A 
ATOM     37  N   UNL A   1      41.233  27.565  29.779  1.00  0.00    -0.354 N 
ATOM     38  C   UNL A   1      40.678  30.675  32.759  1.00  0.00     0.074 A 
ATOM     39  C   UNL A   1      39.454  31.407  32.523  1.00  0.00     0.031 C 
ATOM     40  C   UNL A   1      40.745  26.411  27.926  1.00  0.00     0.029 A 
ATOM     41  C   UNL A   1      41.742  26.570  28.979  1.00  0.00     0.049 A 
ATOM     42  H   UNL A   1      41.686  27.887  30.592  1.00  0.00     0.167 HD
ATOM     43  C   UNL A   1      41.528  30.923  33.784  1.00  0.00     0.037 A 
ATOM     44  C   UNL A   1      42.889  25.871  29.079  1.00  0.00     0.037 A 
ATOM     45  C   UNL A   1      42.723  30.160  34.029  1.00  0.00     0.049 A 
ATOM     46  C   UNL A   1      43.809  26.152  30.236  1.00  0.00     0.074 A 
ATOM     47  C   UNL A   1      43.618  30.279  35.075  1.00  0.00     0.029 A 
ATOM     48  N   UNL A   1      43.186  29.135  33.217  1.00  0.00    -0.354 N 
ATOM     49  N   UNL A   1      43.679  27.036  31.196  1.00  0.00    -0.248 NA
ATOM     50  C   UNL A   1      45.028  25.338  30.327  1.00  0.00     0.031 C 
ATOM     51  C   UNL A   1      44.649  29.356  34.871  1.00  0.00     0.029 A 
ATOM     52  C   UNL A   1      44.367  28.625  33.728  1.00  0.00     0.049 A 
ATOM     53  H   UNL A   1      42.741  28.818  32.398  1.00  0.00     0.167 HD
ATOM     54  C   UNL A   1      44.784  26.867  32.022  1.00  0.00     0.074 A 
ATOM     55  C   UNL A   1      45.565  25.787  31.454  1.00  0.00     0.031 C 
ATOM     56  C   UNL A   1      45.122  27.542  33.149  1.00  0.00     0.037 A 
BRANCH  43  57
ATOM     57  C   UNL A   1      41.187  32.052  34.718  1.00  0.00     0.058 A 
ATOM     58  C   UNL A   1      40.328  31.869  35.815  1.00  0.00     0.135 A 
ATOM     59  C   UNL A   1      41.745  33.326  34.533  1.00  0.00     0.135 A 
ATOM     60  F   UNL A   1      39.751  30.675  36.031  1.00  0.00    -0.206 F 
ATOM     61  C   UNL A   1      40.010  32.914  36.675  1.00  0.00     0.059 A 
ATOM     62  C   UNL A   1      41.466  34.380  35.398  1.00  0.00     0.059 A 
ATOM     63  F   UNL A   1      42.569  33.560  33.499  1.00  0.00    -0.206 F 
ATOM     64  C   UNL A   1      40.586  34.167  36.458  1.00  0.00     0.060 A 
BRANCH  64  65
ATOM     65  S   UNL A   1      40.169  35.512  37.588  1.00  0.00     0.124 S 
ATOM     66  O   UNL A   1      39.815  36.577  36.653  1.00  0.00    -0.237 OA
ATOM     67  O   UNL A   1      39.062  34.946  38.351  1.00  0.00    -0.237 OA
ATOM     68  O   UNL A   1      41.403  35.721  38.338  1.00  0.00    -0.744 OA
ENDBRANCH  64  65
ENDBRANCH  43  57
BRANCH  44  69
ATOM     69  C   UNL A   1      43.212  24.824  28.074  1.00  0.00     0.058 A 
ATOM     70  C   UNL A   1      43.938  25.137  26.915  1.00  0.00     0.135 A 
ATOM     71  C   UNL A   1      42.822  23.488  28.259  1.00  0.00     0.135 A 
ATOM     72  F   UNL A   1      44.331  26.400  26.692  1.00  0.00    -0.206 F 
ATOM     73  C   UNL A   1      44.251  24.169  25.967  1.00  0.00     0.059 A 
ATOM     74  C   UNL A   1      43.145  22.497  27.337  1.00  0.00     0.059 A 
ATOM     75  F   UNL A   1      42.144  23.131  29.361  1.00  0.00    -0.206 F 
ATOM     76  C   UNL A   1      43.851  22.849  26.189  1.00  0.00     0.060 A 
BRANCH  76  77
ATOM     77  S   UNL A   1      44.306  21.592  24.975  1.00  0.00     0.124 S 
ATOM     78  O   UNL A   1      43.348  20.534  25.276  1.00  0.00    -0.237 OA
ATOM     79  O   UNL A   1      44.104  22.297  23.713  1.00  0.00    -0.237 OA
ATOM     80  O   UNL A   1      45.698  21.298  25.304  1.00  0.00    -0.744 OA
ENDBRANCH  76  77
ENDBRANCH  44  69
BRANCH  56  81
ATOM     81  C   UNL A   1      46.372  27.110  33.863  1.00  0.00     0.058 A 
ATOM     82  C   UNL A   1      46.355  26.101  34.837  1.00  0.00     0.135 A 
ATOM     83  C   UNL A   1      47.612  27.673  33.519  1.00  0.00     0.135 A 
ATOM     84  F   UNL A   1      45.195  25.536  35.206  1.00  0.00    -0.206 F 
ATOM     85  C   UNL A   1      47.523  25.679  35.464  1.00  0.00     0.059 A 
ATOM     86  C   UNL A   1      48.796  27.246  34.111  1.00  0.00     0.059 A 
ATOM     87  F   UNL A   1      47.684  28.634  32.584  1.00  0.00    -0.206 F 
ATOM     88  C   UNL A   1      48.740  26.256  35.091  1.00  0.00     0.060 A 
BRANCH  88  89
ATOM     89  S   UNL A   1      50.251  25.671  35.883  1.00  0.00     0.124 S 
ATOM     90  O   UNL A   1      50.829  26.919  36.371  1.00  0.00    -0.237 OA
ATOM     91  O   UNL A   1      49.738  24.767  36.907  1.00  0.00    -0.237 OA
ATOM     92  O   UNL A   1      50.980  25.026  34.794  1.00  0.00    -0.744 OA
ENDBRANCH  88  89
ENDBRANCH  56  81
ENDBRANCH  30  31
ENDBRANCH  22  25
ENDBRANCH  20  21
ENDBRANCH   1  20
TORSDOF 15
ENDMDL
MODEL 3
REMARK VINA RESULT:     -10.5      3.096      4.392
REMARK SMILES CCS(=O)(=O)/N=c1/[nH]c(C)c(C(=O)NCCCNC(=O)c2ccc(-c3c4nc(c(-c5c(F)cc(S(=O)(=O)[O-])cc5F)c5ccc([nH]5)c(-c5c(F)cc(S(=O)(=O)[O-])cc5F)c5nc(c(-c6c(F)cc(S(=O)(=O)[O-])cc6F)c6ccc3[nH]6)C=C5)C=C4)cc2)s1
REMARK SMILES IDX 16 1 15 2 14 3 12 4 13 5 11 7 6 8 7 9 8 10 87 11 9 12 10 14
REMARK SMILES IDX 3 15 4 16 5 17 2 18 1 19 17 20 18 21 19 22 20 24 21 25 22 26
REMARK SMILES IDX 86 27 23 28 85 29 24 30 25 31 26 32 79 33 27 34 84 35 78 36
REMARK SMILES IDX 80 37 28 38 83 39 77 40 76 41 29 43 63 44 42 45 62 46 43 47
REMARK SMILES IDX 46 48 61 49 81 50 44 51 45 52 60 54 82 55 47 56 30 57 31 58
REMARK SMILES IDX 40 59 32 60 33 61 39 62 41 63 34 64 35 65 36 66 37 67 38 68
REMARK SMILES IDX 64 69 65 70 74 71 66 72 67 73 73 74 75 75 68 76 69 77 70 78
REMARK SMILES IDX 71 79 72 80 48 81 49 82 58 83 50 84 51 85 57 86 59 87 52 88
REMARK SMILES IDX 53 89 54 90 55 91 56 92
REMARK H PARENT 14 6 8 13 18 23 80 42 46 53
REMARK Flexibility Score: inf
ROOT
ATOM      1  C   UNL A   1      34.037  29.362  27.601  1.00  0.00     0.042 C 
ENDROOT
BRANCH   1   2
ATOM      2  C   UNL A   1      33.255  30.010  26.478  1.00  0.00     0.118 C 
BRANCH   2   3
ATOM      3  N   UNL A   1      33.650  29.542  25.180  1.00  0.00    -0.351 N 
ATOM      4  C   UNL A   1      33.120  28.661  24.306  1.00  0.00     0.263 C 
ATOM      5  O   UNL A   1      33.749  28.576  23.243  1.00  0.00    -0.268 OA
ATOM      6  H   UNL A   1      34.485  29.951  24.859  1.00  0.00     0.163 HD
BRANCH   4   7
ATOM      7  C   UNL A   1      31.890  27.814  24.525  1.00  0.00     0.114 A 
ATOM      8  N   UNL A   1      30.432  24.442  25.547  1.00  0.00    -0.135 NA
ATOM      9  C   UNL A   1      30.767  25.659  25.333  1.00  0.00     0.199 A 
ATOM     10  N   UNL A   1      30.007  26.506  24.578  1.00  0.00    -0.333 N 
ATOM     11  S   UNL A   1      32.198  26.551  25.766  1.00  0.00    -0.091 S 
ATOM     12  C   UNL A   1      30.631  27.634  24.046  1.00  0.00     0.037 A 
ATOM     13  H   UNL A   1      29.053  26.327  24.415  1.00  0.00     0.169 HD
ATOM     14  C   UNL A   1      29.855  28.321  22.969  1.00  0.00     0.066 C 
BRANCH   8  15
ATOM     15  S   UNL A   1      31.200  23.207  26.221  1.00  0.00     0.255 S 
ATOM     16  O   UNL A   1      30.361  22.034  26.053  1.00  0.00    -0.205 OA
ATOM     17  O   UNL A   1      31.552  23.620  27.569  1.00  0.00    -0.205 OA
BRANCH  15  18
ATOM     18  C   UNL A   1      32.737  22.857  25.415  1.00  0.00     0.159 C 
ATOM     19  C   UNL A   1      33.965  23.311  26.186  1.00  0.00     0.023 C 
ENDBRANCH  15  18
ENDBRANCH   8  15
ENDBRANCH   4   7
ENDBRANCH   2   3
ENDBRANCH   1   2
BRANCH   1  20
ATOM     20  C   UNL A   1      35.358  30.071  27.861  1.00  0.00     0.118 C 
BRANCH  20  21
ATOM     21  N   UNL A   1      35.459  30.548  29.240  1.00  0.00    -0.352 N 
ATOM     22  C   UNL A   1      36.438  30.353  30.183  1.00  0.00     0.251 C 
ATOM     23  H   UNL A   1      34.701  31.099  29.541  1.00  0.00     0.163 HD
ATOM     24  O   UNL A   1      36.200  30.594  31.360  1.00  0.00    -0.269 OA
BRANCH  22  25
ATOM     25  C   UNL A   1      37.765  29.855  29.771  1.00  0.00     0.039 A 
ATOM     26  C   UNL A   1      38.136  29.920  28.426  1.00  0.00     0.014 A 
ATOM     27  C   UNL A   1      38.635  29.312  30.717  1.00  0.00     0.014 A 
ATOM     28  C   UNL A   1      39.412  29.502  28.047  1.00  0.00     0.010 A 
ATOM     29  C   UNL A   1      39.938  29.009  30.360  1.00  0.00     0.010 A 
ATOM     30  C   UNL A   1      40.336  29.082  29.019  1.00  0.00    -0.014 A 
BRANCH  30  31
ATOM     31  C   UNL A   1      41.721  28.689  28.663  1.00  0.00     0.031 A 
ATOM     32  C   UNL A   1      42.803  29.735  28.619  1.00  0.00     0.074 A 
ATOM     33  C   UNL A   1      41.978  27.418  28.299  1.00  0.00     0.049 A 
ATOM     34  N   UNL A   1      44.046  29.620  28.230  1.00  0.00    -0.248 NA
ATOM     35  C   UNL A   1      42.428  31.100  29.029  1.00  0.00     0.031 C 
ATOM     36  C   UNL A   1      40.992  26.335  28.243  1.00  0.00     0.029 A 
ATOM     37  N   UNL A   1      43.144  26.823  27.892  1.00  0.00    -0.354 N 
ATOM     38  C   UNL A   1      44.589  30.896  28.326  1.00  0.00     0.074 A 
ATOM     39  C   UNL A   1      43.527  31.781  28.745  1.00  0.00     0.031 C 
ATOM     40  C   UNL A   1      41.601  25.204  27.855  1.00  0.00     0.029 A 
ATOM     41  C   UNL A   1      43.008  25.489  27.591  1.00  0.00     0.049 A 
ATOM     42  H   UNL A   1      43.999  27.306  27.823  1.00  0.00     0.167 HD
ATOM     43  C   UNL A   1      45.868  31.288  28.112  1.00  0.00     0.037 A 
ATOM     44  C   UNL A   1      43.913  24.598  27.144  1.00  0.00     0.037 A 
ATOM     45  C   UNL A   1      46.924  30.387  27.733  1.00  0.00     0.049 A 
ATOM     46  C   UNL A   1      45.331  25.053  26.930  1.00  0.00     0.074 A 
ATOM     47  C   UNL A   1      48.266  30.663  27.558  1.00  0.00     0.029 A 
ATOM     48  N   UNL A   1      46.754  29.035  27.474  1.00  0.00    -0.354 N 
ATOM     49  N   UNL A   1      45.845  26.250  27.090  1.00  0.00    -0.248 NA
ATOM     50  C   UNL A   1      46.293  24.039  26.481  1.00  0.00     0.031 C 
ATOM     51  C   UNL A   1      48.902  29.487  27.148  1.00  0.00     0.029 A 
ATOM     52  C   UNL A   1      47.965  28.466  27.120  1.00  0.00     0.049 A 
ATOM     53  H   UNL A   1      45.898  28.552  27.532  1.00  0.00     0.167 HD
ATOM     54  C   UNL A   1      47.197  26.126  26.789  1.00  0.00     0.074 A 
ATOM     55  C   UNL A   1      47.421  24.736  26.449  1.00  0.00     0.031 C 
ATOM     56  C   UNL A   1      48.165  27.076  26.794  1.00  0.00     0.037 A 
BRANCH  43  57
ATOM     57  C   UNL A   1      46.192  32.745  28.296  1.00  0.00     0.058 A 
ATOM     58  C   UNL A   1      46.118  33.659  27.231  1.00  0.00     0.135 A 
ATOM     59  C   UNL A   1      46.556  33.243  29.557  1.00  0.00     0.135 A 
ATOM     60  F   UNL A   1      45.792  33.236  25.998  1.00  0.00    -0.206 F 
ATOM     61  C   UNL A   1      46.423  35.004  27.402  1.00  0.00     0.059 A 
ATOM     62  C   UNL A   1      46.836  34.591  29.759  1.00  0.00     0.059 A 
ATOM     63  F   UNL A   1      46.647  32.415  30.610  1.00  0.00    -0.206 F 
ATOM     64  C   UNL A   1      46.780  35.461  28.671  1.00  0.00     0.060 A 
BRANCH  64  65
ATOM     65  S   UNL A   1      47.166  37.213  28.877  1.00  0.00     0.124 S 
ATOM     66  O   UNL A   1      47.003  37.378  30.319  1.00  0.00    -0.237 OA
ATOM     67  O   UNL A   1      48.536  37.291  28.383  1.00  0.00    -0.237 OA
ATOM     68  O   UNL A   1      46.164  37.881  28.052  1.00  0.00    -0.744 OA
ENDBRANCH  64  65
ENDBRANCH  43  57
BRANCH  44  69
ATOM     69  C   UNL A   1      43.511  23.188  26.898  1.00  0.00     0.058 A 
ATOM     70  C   UNL A   1      43.254  22.315  27.966  1.00  0.00     0.135 A 
ATOM     71  C   UNL A   1      43.353  22.690  25.595  1.00  0.00     0.135 A 
ATOM     72  F   UNL A   1      43.393  22.743  29.229  1.00  0.00    -0.206 F 
ATOM     73  C   UNL A   1      42.874  20.994  27.753  1.00  0.00     0.059 A 
ATOM     74  C   UNL A   1      42.948  21.380  25.357  1.00  0.00     0.059 A 
ATOM     75  F   UNL A   1      43.565  23.489  24.539  1.00  0.00    -0.206 F 
ATOM     76  C   UNL A   1      42.721  20.536  26.442  1.00  0.00     0.060 A 
BRANCH  76  77
ATOM     77  S   UNL A   1      42.178  18.834  26.178  1.00  0.00     0.124 S 
ATOM     78  O   UNL A   1      43.135  18.373  25.178  1.00  0.00    -0.237 OA
ATOM     79  O   UNL A   1      42.320  18.258  27.512  1.00  0.00    -0.237 OA
ATOM     80  O   UNL A   1      40.803  18.990  25.714  1.00  0.00    -0.744 OA
ENDBRANCH  76  77
ENDBRANCH  44  69
BRANCH  56  81
ATOM     81  C   UNL A   1      49.563  26.638  26.456  1.00  0.00     0.058 A 
ATOM     82  C   UNL A   1      50.386  26.002  27.397  1.00  0.00     0.135 A 
ATOM     83  C   UNL A   1      50.059  26.804  25.152  1.00  0.00     0.135 A 
ATOM     84  F   UNL A   1      49.961  25.827  28.658  1.00  0.00    -0.206 F 
ATOM     85  C   UNL A   1      51.663  25.564  27.063  1.00  0.00     0.059 A 
ATOM     86  C   UNL A   1      51.320  26.346  24.788  1.00  0.00     0.059 A 
ATOM     87  F   UNL A   1      49.306  27.396  24.211  1.00  0.00    -0.206 F 
ATOM     88  C   UNL A   1      52.120  25.738  25.755  1.00  0.00     0.060 A 
BRANCH  88  89
ATOM     89  S   UNL A   1      53.763  25.128  25.326  1.00  0.00     0.124 S 
ATOM     90  O   UNL A   1      54.567  25.654  26.425  1.00  0.00    -0.237 OA
ATOM     91  O   UNL A   1      53.568  23.683  25.318  1.00  0.00    -0.237 OA
ATOM     92  O   UNL A   1      54.019  25.728  24.019  1.00  0.00    -0.744 OA
ENDBRANCH  88  89
ENDBRANCH  56  81
ENDBRANCH  30  31
ENDBRANCH  22  25
ENDBRANCH  20  21
ENDBRANCH   1  20
TORSDOF 15
ENDMDL
