MODEL 1
REMARK VINA RESULT:     -11.7      0.000      0.000
REMARK SMILES CC[C@@](C)([NH3+])C(=O)Nc1cc(C(=O)NCCCNC(=O)c2ccc(-c3c4nc(c(-c5c(F)cc(S(=O)(=O)[O-])cc5F)c5ccc([nH]5)c(-c5c(F)cc(S(=O)(=O)[O-])cc5F)c5nc(c(-c6c(F)cc(S(=O)(=O)[O-])cc6F)c6ccc3[nH]6)C=C5)C=C4)cc2)cc(C(F)(F)F)c1
REMARK SMILES IDX 16 1 15 2 14 3 12 4 13 5 11 7 9 8 10 9 93 10 88 11 87 12
REMARK SMILES IDX 8 13 6 14 7 15 3 17 4 18 2 19 1 20 5 21 89 25 90 26 91 27
REMARK SMILES IDX 92 28 17 29 18 30 19 31 20 33 21 34 22 35 86 36 23 37 85 38
REMARK SMILES IDX 24 39 25 40 26 41 79 42 27 43 84 44 78 45 80 46 28 47 83 48
REMARK SMILES IDX 77 49 76 50 29 52 63 53 42 54 62 55 43 56 46 57 61 58 81 59
REMARK SMILES IDX 44 60 45 61 60 63 82 64 47 65 30 66 31 67 40 68 32 69 33 70
REMARK SMILES IDX 39 71 41 72 34 73 35 74 36 75 37 76 38 77 64 78 65 79 74 80
REMARK SMILES IDX 66 81 67 82 73 83 75 84 68 85 69 86 70 87 71 88 72 89 48 90
REMARK SMILES IDX 49 91 58 92 50 93 51 94 57 95 59 96 52 97 53 98 54 99 55 100
REMARK SMILES IDX 56 101
REMARK H PARENT 14 6 8 16 5 22 5 23 5 24 18 32 80 51 46 62
REMARK Flexibility Score: inf
ROOT
ATOM      1  C   UNL A   1      33.843  28.163  26.115  1.00  0.00     0.042 C 
ENDROOT
BRANCH   1   2
ATOM      2  C   UNL A   1      33.703  29.311  25.133  1.00  0.00     0.118 C 
BRANCH   2   3
ATOM      3  N   UNL A   1      34.062  28.976  23.756  1.00  0.00    -0.352 N 
ATOM      4  C   UNL A   1      33.408  28.333  22.729  1.00  0.00     0.251 C 
ATOM      5  O   UNL A   1      33.995  28.191  21.658  1.00  0.00    -0.269 OA
ATOM      6  H   UNL A   1      34.967  29.276  23.508  1.00  0.00     0.163 HD
BRANCH   4   7
ATOM      7  C   UNL A   1      32.046  27.756  22.881  1.00  0.00     0.042 A 
ATOM      8  C   UNL A   1      30.610  25.947  23.575  1.00  0.00     0.042 A 
ATOM      9  C   UNL A   1      31.895  26.454  23.383  1.00  0.00     0.040 A 
ATOM     10  C   UNL A   1      29.532  26.823  23.570  1.00  0.00     0.039 A 
ATOM     11  C   UNL A   1      29.649  28.072  22.974  1.00  0.00     0.058 A 
ATOM     12  C   UNL A   1      30.902  28.452  22.500  1.00  0.00     0.027 A 
BRANCH   8  13
ATOM     13  N   UNL A   1      30.412  24.574  23.743  1.00  0.00    -0.321 N 
ATOM     14  C   UNL A   1      31.021  23.706  24.630  1.00  0.00     0.285 C 
ATOM     15  O   UNL A   1      30.814  22.499  24.442  1.00  0.00    -0.267 OA
ATOM     16  H   UNL A   1      29.744  24.167  23.144  1.00  0.00     0.170 HD
BRANCH  14  17
ATOM     17  C   UNL A   1      31.804  24.206  25.926  1.00  0.00     0.171 C 
ATOM     18  C   UNL A   1      31.832  23.116  27.011  1.00  0.00     0.090 C 
BRANCH  17  19
ATOM     19  C   UNL A   1      33.260  24.620  25.561  1.00  0.00     0.075 C 
ATOM     20  C   UNL A   1      34.366  24.007  26.410  1.00  0.00     0.011 C 
ENDBRANCH  17  19
BRANCH  17  21
ATOM     21  N   UNL A   1      31.188  25.443  26.465  1.00  0.00    -0.345 N 
ATOM     22  H   UNL A   1      30.468  25.773  25.823  1.00  0.00     0.345 HD
ATOM     23  H   UNL A   1      31.904  26.162  26.572  1.00  0.00     0.345 HD
ATOM     24  H   UNL A   1      30.768  25.246  27.374  1.00  0.00     0.345 HD
ENDBRANCH  17  21
ENDBRANCH  14  17
ENDBRANCH   8  13
BRANCH  11  25
ATOM     25  C   UNL A   1      28.481  29.010  22.849  1.00  0.00     0.416 C 
ATOM     26  F   UNL A   1      28.407  29.571  21.613  1.00  0.00    -0.166 F 
ATOM     27  F   UNL A   1      27.292  28.372  23.042  1.00  0.00    -0.166 F 
ATOM     28  F   UNL A   1      28.501  30.034  23.741  1.00  0.00    -0.166 F 
ENDBRANCH  11  25
ENDBRANCH   4   7
ENDBRANCH   2   3
ENDBRANCH   1   2
BRANCH   1  29
ATOM     29  C   UNL A   1      33.348  28.500  27.507  1.00  0.00     0.118 C 
BRANCH  29  30
ATOM     30  N   UNL A   1      33.396  29.934  27.786  1.00  0.00    -0.352 N 
ATOM     31  C   UNL A   1      34.402  30.717  28.301  1.00  0.00     0.251 C 
ATOM     32  H   UNL A   1      32.570  30.421  27.567  1.00  0.00     0.163 HD
ATOM     33  O   UNL A   1      34.149  31.864  28.662  1.00  0.00    -0.269 OA
BRANCH  31  34
ATOM     34  C   UNL A   1      35.771  30.179  28.444  1.00  0.00     0.039 A 
ATOM     35  C   UNL A   1      36.635  30.174  27.344  1.00  0.00     0.014 A 
ATOM     36  C   UNL A   1      36.203  29.669  29.667  1.00  0.00     0.014 A 
ATOM     37  C   UNL A   1      37.959  29.749  27.502  1.00  0.00     0.010 A 
ATOM     38  C   UNL A   1      37.542  29.355  29.851  1.00  0.00     0.010 A 
ATOM     39  C   UNL A   1      38.436  29.386  28.769  1.00  0.00    -0.014 A 
BRANCH  39  40
ATOM     40  C   UNL A   1      39.845  28.990  29.022  1.00  0.00     0.031 A 
ATOM     41  C   UNL A   1      40.816  30.029  29.520  1.00  0.00     0.074 A 
ATOM     42  C   UNL A   1      40.278  27.756  28.695  1.00  0.00     0.049 A 
ATOM     43  N   UNL A   1      42.122  29.996  29.553  1.00  0.00    -0.248 NA
ATOM     44  C   UNL A   1      40.235  31.295  30.001  1.00  0.00     0.031 C 
ATOM     45  C   UNL A   1      39.443  26.665  28.185  1.00  0.00     0.029 A 
ATOM     46  N   UNL A   1      41.542  27.220  28.715  1.00  0.00    -0.354 N 
ATOM     47  C   UNL A   1      42.518  31.241  30.026  1.00  0.00     0.074 A 
ATOM     48  C   UNL A   1      41.319  32.026  30.215  1.00  0.00     0.031 C 
ATOM     49  C   UNL A   1      40.214  25.590  27.952  1.00  0.00     0.029 A 
ATOM     50  C   UNL A   1      41.603  25.928  28.241  1.00  0.00     0.049 A 
ATOM     51  H   UNL A   1      42.330  27.712  29.039  1.00  0.00     0.167 HD
ATOM     52  C   UNL A   1      43.767  31.682  30.303  1.00  0.00     0.037 A 
ATOM     53  C   UNL A   1      42.664  25.123  28.038  1.00  0.00     0.037 A 
ATOM     54  C   UNL A   1      44.951  30.878  30.158  1.00  0.00     0.049 A 
ATOM     55  C   UNL A   1      44.045  25.640  28.348  1.00  0.00     0.074 A 
ATOM     56  C   UNL A   1      46.264  31.223  30.423  1.00  0.00     0.029 A 
ATOM     57  N   UNL A   1      44.958  29.558  29.732  1.00  0.00    -0.354 N 
ATOM     58  N   UNL A   1      44.403  26.821  28.791  1.00  0.00    -0.248 NA
ATOM     59  C   UNL A   1      45.169  24.718  28.127  1.00  0.00     0.031 C 
ATOM     60  C   UNL A   1      47.070  30.115  30.142  1.00  0.00     0.029 A 
ATOM     61  C   UNL A   1      46.253  29.070  29.739  1.00  0.00     0.049 A 
ATOM     62  H   UNL A   1      44.162  29.045  29.465  1.00  0.00     0.167 HD
ATOM     63  C   UNL A   1      45.784  26.767  28.948  1.00  0.00     0.074 A 
ATOM     64  C   UNL A   1      46.199  25.438  28.547  1.00  0.00     0.031 C 
ATOM     65  C   UNL A   1      46.633  27.727  29.386  1.00  0.00     0.037 A 
BRANCH  52  66
ATOM     66  C   UNL A   1      43.915  33.085  30.819  1.00  0.00     0.058 A 
ATOM     67  C   UNL A   1      44.090  34.170  29.944  1.00  0.00     0.135 A 
ATOM     68  C   UNL A   1      43.840  33.358  32.195  1.00  0.00     0.135 A 
ATOM     69  F   UNL A   1      44.188  33.961  28.622  1.00  0.00    -0.206 F 
ATOM     70  C   UNL A   1      44.209  35.472  30.415  1.00  0.00     0.059 A 
ATOM     71  C   UNL A   1      43.928  34.657  32.687  1.00  0.00     0.059 A 
ATOM     72  F   UNL A   1      43.677  32.359  33.075  1.00  0.00    -0.206 F 
ATOM     73  C   UNL A   1      44.124  35.707  31.788  1.00  0.00     0.060 A 
BRANCH  73  74
ATOM     74  S   UNL A   1      44.261  37.406  32.379  1.00  0.00     0.124 S 
ATOM     75  O   UNL A   1      43.819  38.157  31.208  1.00  0.00    -0.237 OA
ATOM     76  O   UNL A   1      43.348  37.415  33.518  1.00  0.00    -0.237 OA
ATOM     77  O   UNL A   1      45.675  37.539  32.712  1.00  0.00    -0.744 OA
ENDBRANCH  73  74
ENDBRANCH  52  66
BRANCH  53  78
ATOM     78  C   UNL A   1      42.477  23.739  27.525  1.00  0.00     0.058 A 
ATOM     79  C   UNL A   1      42.323  22.663  28.411  1.00  0.00     0.135 A 
ATOM     80  C   UNL A   1      42.485  23.457  26.150  1.00  0.00     0.135 A 
ATOM     81  F   UNL A   1      42.312  22.881  29.735  1.00  0.00    -0.206 F 
ATOM     82  C   UNL A   1      42.222  21.351  27.957  1.00  0.00     0.059 A 
ATOM     83  C   UNL A   1      42.359  22.157  25.670  1.00  0.00     0.059 A 
ATOM     84  F   UNL A   1      42.608  24.453  25.259  1.00  0.00    -0.206 F 
ATOM     85  C   UNL A   1      42.250  21.108  26.583  1.00  0.00     0.060 A 
BRANCH  85  86
ATOM     86  S   UNL A   1      42.125  19.402  26.002  1.00  0.00     0.124 S 
ATOM     87  O   UNL A   1      43.048  19.411  24.873  1.00  0.00    -0.237 OA
ATOM     88  O   UNL A   1      42.554  18.645  27.173  1.00  0.00    -0.237 OA
ATOM     89  O   UNL A   1      40.711  19.269  25.663  1.00  0.00    -0.744 OA
ENDBRANCH  85  86
ENDBRANCH  53  78
BRANCH  65  90
ATOM     90  C   UNL A   1      48.081  27.365  29.543  1.00  0.00     0.058 A 
ATOM     91  C   UNL A   1      49.037  27.698  28.572  1.00  0.00     0.135 A 
ATOM     92  C   UNL A   1      48.528  26.762  30.731  1.00  0.00     0.135 A 
ATOM     93  F   UNL A   1      48.657  28.267  27.417  1.00  0.00    -0.206 F 
ATOM     94  C   UNL A   1      50.389  27.444  28.773  1.00  0.00     0.059 A 
ATOM     95  C   UNL A   1      49.878  26.522  30.961  1.00  0.00     0.059 A 
ATOM     96  F   UNL A   1      47.651  26.432  31.691  1.00  0.00    -0.206 F 
ATOM     97  C   UNL A   1      50.801  26.864  29.975  1.00  0.00     0.060 A 
BRANCH  97  98
ATOM     98  S   UNL A   1      52.567  26.615  30.256  1.00  0.00     0.124 S 
ATOM     99  O   UNL A   1      53.002  26.102  28.961  1.00  0.00    -0.237 OA
ATOM    100  O   UNL A   1      53.023  27.961  30.591  1.00  0.00    -0.237 OA
ATOM    101  O   UNL A   1      52.604  25.657  31.356  1.00  0.00    -0.744 OA
ENDBRANCH  97  98
ENDBRANCH  65  90
ENDBRANCH  39  40
ENDBRANCH  31  34
ENDBRANCH  29  30
ENDBRANCH   1  29
TORSDOF 18
ENDMDL
MODEL 2
REMARK VINA RESULT:     -11.7      3.441      9.297
REMARK SMILES CC[C@@](C)([NH3+])C(=O)Nc1cc(C(=O)NCCCNC(=O)c2ccc(-c3c4nc(c(-c5c(F)cc(S(=O)(=O)[O-])cc5F)c5ccc([nH]5)c(-c5c(F)cc(S(=O)(=O)[O-])cc5F)c5nc(c(-c6c(F)cc(S(=O)(=O)[O-])cc6F)c6ccc3[nH]6)C=C5)C=C4)cc2)cc(C(F)(F)F)c1
REMARK SMILES IDX 16 1 15 2 14 3 12 4 13 5 11 7 9 8 10 9 93 10 88 11 87 12
REMARK SMILES IDX 8 13 6 14 7 15 3 17 4 18 2 19 1 20 5 21 89 25 90 26 91 27
REMARK SMILES IDX 92 28 17 29 18 30 19 31 20 33 21 34 22 35 86 36 23 37 85 38
REMARK SMILES IDX 24 39 25 40 26 41 79 42 27 43 84 44 78 45 80 46 28 47 83 48
REMARK SMILES IDX 77 49 76 50 29 52 63 53 42 54 62 55 43 56 46 57 61 58 81 59
REMARK SMILES IDX 44 60 45 61 60 63 82 64 47 65 30 66 31 67 40 68 32 69 33 70
REMARK SMILES IDX 39 71 41 72 34 73 35 74 36 75 37 76 38 77 64 78 65 79 74 80
REMARK SMILES IDX 66 81 67 82 73 83 75 84 68 85 69 86 70 87 71 88 72 89 48 90
REMARK SMILES IDX 49 91 58 92 50 93 51 94 57 95 59 96 52 97 53 98 54 99 55 100
REMARK SMILES IDX 56 101
REMARK H PARENT 14 6 8 16 5 22 5 23 5 24 18 32 80 51 46 62
REMARK Flexibility Score: inf
ROOT
ATOM      1  C   UNL A   1      35.235  23.809  24.569  1.00  0.00     0.042 C 
ENDROOT
BRANCH   1   2
ATOM      2  C   UNL A   1      34.352  25.023  24.359  1.00  0.00     0.118 C 
BRANCH   2   3
ATOM      3  N   UNL A   1      34.143  25.385  22.957  1.00  0.00    -0.352 N 
ATOM      4  C   UNL A   1      33.351  26.313  22.319  1.00  0.00     0.251 C 
ATOM      5  O   UNL A   1      33.388  26.370  21.092  1.00  0.00    -0.269 OA
ATOM      6  H   UNL A   1      34.686  24.849  22.334  1.00  0.00     0.163 HD
BRANCH   4   7
ATOM      7  C   UNL A   1      32.414  27.207  23.051  1.00  0.00     0.042 A 
ATOM      8  C   UNL A   1      30.162  27.883  23.586  1.00  0.00     0.042 A 
ATOM      9  C   UNL A   1      31.032  27.078  22.850  1.00  0.00     0.040 A 
ATOM     10  C   UNL A   1      30.647  28.554  24.701  1.00  0.00     0.039 A 
ATOM     11  C   UNL A   1      32.010  28.779  24.845  1.00  0.00     0.058 A 
ATOM     12  C   UNL A   1      32.865  28.208  23.906  1.00  0.00     0.027 A 
BRANCH   8  13
ATOM     13  N   UNL A   1      28.832  28.031  23.188  1.00  0.00    -0.321 N 
ATOM     14  C   UNL A   1      28.178  29.161  22.729  1.00  0.00     0.285 C 
ATOM     15  O   UNL A   1      26.946  29.076  22.631  1.00  0.00    -0.267 OA
ATOM     16  H   UNL A   1      28.281  27.217  23.241  1.00  0.00     0.170 HD
BRANCH  14  17
ATOM     17  C   UNL A   1      28.951  30.446  22.191  1.00  0.00     0.171 C 
ATOM     18  C   UNL A   1      28.144  31.157  21.089  1.00  0.00     0.090 C 
BRANCH  17  19
ATOM     19  C   UNL A   1      29.239  31.441  23.354  1.00  0.00     0.075 C 
ATOM     20  C   UNL A   1      28.866  32.896  23.102  1.00  0.00     0.011 C 
ENDBRANCH  17  19
BRANCH  17  21
ATOM     21  N   UNL A   1      30.292  30.074  21.676  1.00  0.00    -0.345 N 
ATOM     22  H   UNL A   1      30.188  29.502  20.838  1.00  0.00     0.345 HD
ATOM     23  H   UNL A   1      30.795  29.545  22.389  1.00  0.00     0.345 HD
ATOM     24  H   UNL A   1      30.816  30.919  21.448  1.00  0.00     0.345 HD
ENDBRANCH  17  21
ENDBRANCH  14  17
ENDBRANCH   8  13
BRANCH  11  25
ATOM     25  C   UNL A   1      32.571  29.594  25.977  1.00  0.00     0.416 C 
ATOM     26  F   UNL A   1      32.104  30.870  25.968  1.00  0.00    -0.166 F 
ATOM     27  F   UNL A   1      32.231  29.078  27.192  1.00  0.00    -0.166 F 
ATOM     28  F   UNL A   1      33.926  29.674  25.975  1.00  0.00    -0.166 F 
ENDBRANCH  11  25
ENDBRANCH   4   7
ENDBRANCH   2   3
ENDBRANCH   1   2
BRANCH   1  29
ATOM     29  C   UNL A   1      36.302  24.017  25.626  1.00  0.00     0.118 C 
BRANCH  29  30
ATOM     30  N   UNL A   1      37.287  22.938  25.644  1.00  0.00    -0.352 N 
ATOM     31  C   UNL A   1      38.602  22.927  26.046  1.00  0.00     0.251 C 
ATOM     32  H   UNL A   1      36.953  22.072  25.314  1.00  0.00     0.163 HD
ATOM     33  O   UNL A   1      39.312  21.963  25.764  1.00  0.00    -0.269 OA
BRANCH  31  34
ATOM     34  C   UNL A   1      39.168  24.072  26.789  1.00  0.00     0.039 A 
ATOM     35  C   UNL A   1      39.949  25.019  26.119  1.00  0.00     0.014 A 
ATOM     36  C   UNL A   1      38.935  24.208  28.157  1.00  0.00     0.014 A 
ATOM     37  C   UNL A   1      40.409  26.149  26.803  1.00  0.00     0.010 A 
ATOM     38  C   UNL A   1      39.294  25.381  28.806  1.00  0.00     0.010 A 
ATOM     39  C   UNL A   1      40.041  26.363  28.138  1.00  0.00    -0.014 A 
BRANCH  39  40
ATOM     40  C   UNL A   1      40.437  27.574  28.904  1.00  0.00     0.031 A 
ATOM     41  C   UNL A   1      41.729  27.555  29.679  1.00  0.00     0.074 A 
ATOM     42  C   UNL A   1      39.599  28.624  29.005  1.00  0.00     0.049 A 
ATOM     43  N   UNL A   1      42.146  28.364  30.616  1.00  0.00    -0.248 NA
ATOM     44  C   UNL A   1      42.654  26.444  29.389  1.00  0.00     0.031 C 
ATOM     45  C   UNL A   1      38.310  28.757  28.321  1.00  0.00     0.029 A 
ATOM     46  N   UNL A   1      39.695  29.773  29.752  1.00  0.00    -0.354 N 
ATOM     47  C   UNL A   1      43.361  27.845  31.048  1.00  0.00     0.074 A 
ATOM     48  C   UNL A   1      43.588  26.622  30.311  1.00  0.00     0.031 C 
ATOM     49  C   UNL A   1      37.743  29.924  28.671  1.00  0.00     0.029 A 
ATOM     50  C   UNL A   1      38.596  30.596  29.644  1.00  0.00     0.049 A 
ATOM     51  H   UNL A   1      40.475  29.988  30.311  1.00  0.00     0.167 HD
ATOM     52  C   UNL A   1      44.222  28.355  31.959  1.00  0.00     0.037 A 
ATOM     53  C   UNL A   1      38.303  31.746  30.281  1.00  0.00     0.037 A 
ATOM     54  C   UNL A   1      44.011  29.596  32.654  1.00  0.00     0.049 A 
ATOM     55  C   UNL A   1      39.275  32.290  31.296  1.00  0.00     0.074 A 
ATOM     56  C   UNL A   1      44.826  30.210  33.587  1.00  0.00     0.029 A 
ATOM     57  N   UNL A   1      42.915  30.425  32.469  1.00  0.00    -0.354 N 
ATOM     58  N   UNL A   1      40.417  31.785  31.696  1.00  0.00    -0.248 NA
ATOM     59  C   UNL A   1      38.918  33.557  31.951  1.00  0.00     0.031 C 
ATOM     60  C   UNL A   1      44.215  31.405  33.980  1.00  0.00     0.029 A 
ATOM     61  C   UNL A   1      43.038  31.552  33.262  1.00  0.00     0.049 A 
ATOM     62  H   UNL A   1      42.161  30.240  31.864  1.00  0.00     0.167 HD
ATOM     63  C   UNL A   1      40.937  32.696  32.610  1.00  0.00     0.074 A 
ATOM     64  C   UNL A   1      39.982  33.780  32.709  1.00  0.00     0.031 C 
ATOM     65  C   UNL A   1      42.099  32.643  33.303  1.00  0.00     0.037 A 
BRANCH  52  66
ATOM     66  C   UNL A   1      45.484  27.587  32.234  1.00  0.00     0.058 A 
ATOM     67  C   UNL A   1      46.655  27.817  31.493  1.00  0.00     0.135 A 
ATOM     68  C   UNL A   1      45.540  26.643  33.272  1.00  0.00     0.135 A 
ATOM     69  F   UNL A   1      46.649  28.694  30.477  1.00  0.00    -0.206 F 
ATOM     70  C   UNL A   1      47.830  27.123  31.756  1.00  0.00     0.059 A 
ATOM     71  C   UNL A   1      46.714  25.957  33.572  1.00  0.00     0.059 A 
ATOM     72  F   UNL A   1      44.450  26.382  34.010  1.00  0.00    -0.206 F 
ATOM     73  C   UNL A   1      47.851  26.196  32.798  1.00  0.00     0.060 A 
BRANCH  73  74
ATOM     74  S   UNL A   1      49.390  25.318  33.137  1.00  0.00     0.124 S 
ATOM     75  O   UNL A   1      49.860  25.024  31.786  1.00  0.00    -0.237 OA
ATOM     76  O   UNL A   1      50.163  26.315  33.872  1.00  0.00    -0.237 OA
ATOM     77  O   UNL A   1      48.960  24.162  33.917  1.00  0.00    -0.744 OA
ENDBRANCH  73  74
ENDBRANCH  52  66
BRANCH  53  78
ATOM     78  C   UNL A   1      37.042  32.477  29.982  1.00  0.00     0.058 A 
ATOM     79  C   UNL A   1      37.034  33.549  29.077  1.00  0.00     0.135 A 
ATOM     80  C   UNL A   1      35.833  32.148  30.613  1.00  0.00     0.135 A 
ATOM     81  F   UNL A   1      38.166  33.904  28.449  1.00  0.00    -0.206 F 
ATOM     82  C   UNL A   1      35.884  34.296  28.838  1.00  0.00     0.059 A 
ATOM     83  C   UNL A   1      34.663  32.863  30.371  1.00  0.00     0.059 A 
ATOM     84  F   UNL A   1      35.780  31.118  31.472  1.00  0.00    -0.206 F 
ATOM     85  C   UNL A   1      34.705  33.949  29.497  1.00  0.00     0.060 A 
BRANCH  85  86
ATOM     86  S   UNL A   1      33.218  34.927  29.186  1.00  0.00     0.124 S 
ATOM     87  O   UNL A   1      32.570  34.145  28.140  1.00  0.00    -0.237 OA
ATOM     88  O   UNL A   1      32.564  34.918  30.490  1.00  0.00    -0.237 OA
ATOM     89  O   UNL A   1      33.752  36.221  28.770  1.00  0.00    -0.744 OA
ENDBRANCH  85  86
ENDBRANCH  53  78
BRANCH  65  90
ATOM     90  C   UNL A   1      42.457  33.818  34.164  1.00  0.00     0.058 A 
ATOM     91  C   UNL A   1      42.233  33.817  35.549  1.00  0.00     0.135 A 
ATOM     92  C   UNL A   1      43.125  34.920  33.604  1.00  0.00     0.135 A 
ATOM     93  F   UNL A   1      41.592  32.791  36.128  1.00  0.00    -0.206 F 
ATOM     94  C   UNL A   1      42.658  34.871  36.350  1.00  0.00     0.059 A 
ATOM     95  C   UNL A   1      43.579  35.972  34.390  1.00  0.00     0.059 A 
ATOM     96  F   UNL A   1      43.368  34.962  32.284  1.00  0.00    -0.206 F 
ATOM     97  C   UNL A   1      43.338  35.940  35.762  1.00  0.00     0.060 A 
BRANCH  97  98
ATOM     98  S   UNL A   1      43.956  37.263  36.825  1.00  0.00     0.124 S 
ATOM     99  O   UNL A   1      45.175  36.665  37.361  1.00  0.00    -0.237 OA
ATOM    100  O   UNL A   1      44.149  38.359  35.881  1.00  0.00    -0.237 OA
ATOM    101  O   UNL A   1      42.876  37.457  37.787  1.00  0.00    -0.744 OA
ENDBRANCH  97  98
ENDBRANCH  65  90
ENDBRANCH  39  40
ENDBRANCH  31  34
ENDBRANCH  29  30
ENDBRANCH   1  29
TORSDOF 18
ENDMDL
MODEL 3
REMARK VINA RESULT:     -11.5      5.562     10.186
REMARK SMILES CC[C@@](C)([NH3+])C(=O)Nc1cc(C(=O)NCCCNC(=O)c2ccc(-c3c4nc(c(-c5c(F)cc(S(=O)(=O)[O-])cc5F)c5ccc([nH]5)c(-c5c(F)cc(S(=O)(=O)[O-])cc5F)c5nc(c(-c6c(F)cc(S(=O)(=O)[O-])cc6F)c6ccc3[nH]6)C=C5)C=C4)cc2)cc(C(F)(F)F)c1
REMARK SMILES IDX 16 1 15 2 14 3 12 4 13 5 11 7 9 8 10 9 93 10 88 11 87 12
REMARK SMILES IDX 8 13 6 14 7 15 3 17 4 18 2 19 1 20 5 21 89 25 90 26 91 27
REMARK SMILES IDX 92 28 17 29 18 30 19 31 20 33 21 34 22 35 86 36 23 37 85 38
REMARK SMILES IDX 24 39 25 40 26 41 79 42 27 43 84 44 78 45 80 46 28 47 83 48
REMARK SMILES IDX 77 49 76 50 29 52 63 53 42 54 62 55 43 56 46 57 61 58 81 59
REMARK SMILES IDX 44 60 45 61 60 63 82 64 47 65 30 66 31 67 40 68 32 69 33 70
REMARK SMILES IDX 39 71 41 72 34 73 35 74 36 75 37 76 38 77 64 78 65 79 74 80
REMARK SMILES IDX 66 81 67 82 73 83 75 84 68 85 69 86 70 87 71 88 72 89 48 90
REMARK SMILES IDX 49 91 58 92 50 93 51 94 57 95 59 96 52 97 53 98 54 99 55 100
REMARK SMILES IDX 56 101
REMARK H PARENT 14 6 8 16 5 22 5 23 5 24 18 32 80 51 46 62
REMARK Flexibility Score: inf
ROOT
ATOM      1  C   UNL A   1      39.320  22.339  26.435  1.00  0.00     0.042 C 
ENDROOT
BRANCH   1   2
ATOM      2  C   UNL A   1      38.022  23.045  26.097  1.00  0.00     0.118 C 
BRANCH   2   3
ATOM      3  N   UNL A   1      37.715  23.099  24.668  1.00  0.00    -0.352 N 
ATOM      4  C   UNL A   1      36.580  22.857  23.926  1.00  0.00     0.251 C 
ATOM      5  O   UNL A   1      36.643  22.980  22.705  1.00  0.00    -0.269 OA
ATOM      6  H   UNL A   1      38.486  23.366  24.117  1.00  0.00     0.163 HD
BRANCH   4   7
ATOM      7  C   UNL A   1      35.304  22.400  24.537  1.00  0.00     0.042 A 
ATOM      8  C   UNL A   1      33.160  22.906  25.518  1.00  0.00     0.042 A 
ATOM      9  C   UNL A   1      34.377  23.347  25.000  1.00  0.00     0.040 A 
ATOM     10  C   UNL A   1      32.762  21.596  25.282  1.00  0.00     0.039 A 
ATOM     11  C   UNL A   1      33.699  20.633  24.931  1.00  0.00     0.058 A 
ATOM     12  C   UNL A   1      35.009  21.051  24.709  1.00  0.00     0.027 A 
BRANCH   8  13
ATOM     13  N   UNL A   1      32.368  23.764  26.285  1.00  0.00    -0.321 N 
ATOM     14  C   UNL A   1      31.616  24.852  25.881  1.00  0.00     0.285 C 
ATOM     15  O   UNL A   1      31.164  25.568  26.786  1.00  0.00    -0.267 OA
ATOM     16  H   UNL A   1      32.342  23.567  27.250  1.00  0.00     0.170 HD
BRANCH  14  17
ATOM     17  C   UNL A   1      31.197  25.095  24.363  1.00  0.00     0.171 C 
ATOM     18  C   UNL A   1      30.738  23.785  23.698  1.00  0.00     0.090 C 
BRANCH  17  19
ATOM     19  C   UNL A   1      30.060  26.156  24.271  1.00  0.00     0.075 C 
ATOM     20  C   UNL A   1      30.297  27.314  23.309  1.00  0.00     0.011 C 
ENDBRANCH  17  19
BRANCH  17  21
ATOM     21  N   UNL A   1      32.322  25.686  23.597  1.00  0.00    -0.345 N 
ATOM     22  H   UNL A   1      32.315  25.318  22.645  1.00  0.00     0.345 HD
ATOM     23  H   UNL A   1      33.204  25.445  24.048  1.00  0.00     0.345 HD
ATOM     24  H   UNL A   1      32.220  26.700  23.570  1.00  0.00     0.345 HD
ENDBRANCH  17  21
ENDBRANCH  14  17
ENDBRANCH   8  13
BRANCH  11  25
ATOM     25  C   UNL A   1      33.334  19.183  24.772  1.00  0.00     0.416 C 
ATOM     26  F   UNL A   1      34.423  18.406  24.536  1.00  0.00    -0.166 F 
ATOM     27  F   UNL A   1      32.748  18.679  25.895  1.00  0.00    -0.166 F 
ATOM     28  F   UNL A   1      32.459  18.946  23.760  1.00  0.00    -0.166 F 
ENDBRANCH  11  25
ENDBRANCH   4   7
ENDBRANCH   2   3
ENDBRANCH   1   2
BRANCH   1  29
ATOM     29  C   UNL A   1      40.370  23.260  27.024  1.00  0.00     0.118 C 
BRANCH  29  30
ATOM     30  N   UNL A   1      40.923  24.182  26.034  1.00  0.00    -0.352 N 
ATOM     31  C   UNL A   1      41.173  25.532  26.102  1.00  0.00     0.251 C 
ATOM     32  H   UNL A   1      41.157  23.765  25.173  1.00  0.00     0.163 HD
ATOM     33  O   UNL A   1      41.432  26.151  25.072  1.00  0.00    -0.269 OA
BRANCH  31  34
ATOM     34  C   UNL A   1      41.107  26.242  27.396  1.00  0.00     0.039 A 
ATOM     35  C   UNL A   1      42.136  27.115  27.764  1.00  0.00     0.014 A 
ATOM     36  C   UNL A   1      40.030  26.038  28.257  1.00  0.00     0.014 A 
ATOM     37  C   UNL A   1      42.031  27.854  28.947  1.00  0.00     0.010 A 
ATOM     38  C   UNL A   1      39.872  26.852  29.370  1.00  0.00     0.010 A 
ATOM     39  C   UNL A   1      40.873  27.766  29.732  1.00  0.00    -0.014 A 
BRANCH  39  40
ATOM     40  C   UNL A   1      40.665  28.572  30.963  1.00  0.00     0.031 A 
ATOM     41  C   UNL A   1      39.634  29.670  30.950  1.00  0.00     0.074 A 
ATOM     42  C   UNL A   1      41.468  28.406  32.032  1.00  0.00     0.049 A 
ATOM     43  N   UNL A   1      39.464  30.659  31.787  1.00  0.00    -0.248 NA
ATOM     44  C   UNL A   1      38.697  29.680  29.811  1.00  0.00     0.031 C 
ATOM     45  C   UNL A   1      42.517  27.392  32.164  1.00  0.00     0.029 A 
ATOM     46  N   UNL A   1      41.546  29.113  33.207  1.00  0.00    -0.354 N 
ATOM     47  C   UNL A   1      38.428  31.423  31.262  1.00  0.00     0.074 A 
ATOM     48  C   UNL A   1      38.044  30.815  30.007  1.00  0.00     0.031 C 
ATOM     49  C   UNL A   1      43.125  27.535  33.354  1.00  0.00     0.029 A 
ATOM     50  C   UNL A   1      42.550  28.683  34.047  1.00  0.00     0.049 A 
ATOM     51  H   UNL A   1      40.941  29.857  33.429  1.00  0.00     0.167 HD
ATOM     52  C   UNL A   1      37.834  32.517  31.790  1.00  0.00     0.037 A 
ATOM     53  C   UNL A   1      42.972  29.178  35.226  1.00  0.00     0.037 A 
ATOM     54  C   UNL A   1      38.190  33.088  33.061  1.00  0.00     0.049 A 
ATOM     55  C   UNL A   1      42.298  30.402  35.790  1.00  0.00     0.074 A 
ATOM     56  C   UNL A   1      37.642  34.188  33.696  1.00  0.00     0.029 A 
ATOM     57  N   UNL A   1      39.170  32.584  33.903  1.00  0.00    -0.354 N 
ATOM     58  N   UNL A   1      41.322  31.114  35.280  1.00  0.00    -0.248 NA
ATOM     59  C   UNL A   1      42.783  30.893  37.088  1.00  0.00     0.031 C 
ATOM     60  C   UNL A   1      38.303  34.360  34.916  1.00  0.00     0.029 A 
ATOM     61  C   UNL A   1      39.235  33.344  35.057  1.00  0.00     0.049 A 
ATOM     62  H   UNL A   1      39.736  31.802  33.709  1.00  0.00     0.167 HD
ATOM     63  C   UNL A   1      41.045  32.106  36.215  1.00  0.00     0.074 A 
ATOM     64  C   UNL A   1      41.959  31.905  37.321  1.00  0.00     0.031 C 
ATOM     65  C   UNL A   1      40.118  33.091  36.167  1.00  0.00     0.037 A 
BRANCH  52  66
ATOM     66  C   UNL A   1      36.717  33.152  31.010  1.00  0.00     0.058 A 
ATOM     67  C   UNL A   1      35.373  32.945  31.360  1.00  0.00     0.135 A 
ATOM     68  C   UNL A   1      36.989  34.006  29.929  1.00  0.00     0.135 A 
ATOM     69  F   UNL A   1      35.058  32.122  32.372  1.00  0.00    -0.206 F 
ATOM     70  C   UNL A   1      34.337  33.544  30.653  1.00  0.00     0.059 A 
ATOM     71  C   UNL A   1      35.969  34.639  29.224  1.00  0.00     0.059 A 
ATOM     72  F   UNL A   1      38.256  34.235  29.549  1.00  0.00    -0.206 F 
ATOM     73  C   UNL A   1      34.644  34.391  29.588  1.00  0.00     0.060 A 
BRANCH  73  74
ATOM     74  S   UNL A   1      33.287  35.174  28.694  1.00  0.00     0.124 S 
ATOM     75  O   UNL A   1      32.488  35.711  29.792  1.00  0.00    -0.237 OA
ATOM     76  O   UNL A   1      33.981  36.164  27.875  1.00  0.00    -0.237 OA
ATOM     77  O   UNL A   1      32.680  34.070  27.957  1.00  0.00    -0.744 OA
ENDBRANCH  73  74
ENDBRANCH  52  66
BRANCH  53  78
ATOM     78  C   UNL A   1      44.082  28.522  35.968  1.00  0.00     0.058 A 
ATOM     79  C   UNL A   1      45.411  28.923  35.767  1.00  0.00     0.135 A 
ATOM     80  C   UNL A   1      43.848  27.465  36.860  1.00  0.00     0.135 A 
ATOM     81  F   UNL A   1      45.688  29.928  34.922  1.00  0.00    -0.206 F 
ATOM     82  C   UNL A   1      46.473  28.275  36.392  1.00  0.00     0.059 A 
ATOM     83  C   UNL A   1      44.890  26.818  37.518  1.00  0.00     0.059 A 
ATOM     84  F   UNL A   1      42.593  27.055  37.105  1.00  0.00    -0.206 F 
ATOM     85  C   UNL A   1      46.201  27.217  37.260  1.00  0.00     0.060 A 
BRANCH  85  86
ATOM     86  S   UNL A   1      47.584  26.377  38.063  1.00  0.00     0.124 S 
ATOM     87  O   UNL A   1      48.684  27.292  37.779  1.00  0.00    -0.237 OA
ATOM     88  O   UNL A   1      47.145  26.317  39.452  1.00  0.00    -0.237 OA
ATOM     89  O   UNL A   1      47.638  25.091  37.374  1.00  0.00    -0.744 OA
ENDBRANCH  85  86
ENDBRANCH  53  78
BRANCH  65  90
ATOM     90  C   UNL A   1      39.974  33.980  37.368  1.00  0.00     0.058 A 
ATOM     91  C   UNL A   1      40.625  35.219  37.455  1.00  0.00     0.135 A 
ATOM     92  C   UNL A   1      39.091  33.623  38.401  1.00  0.00     0.135 A 
ATOM     93  F   UNL A   1      41.483  35.599  36.496  1.00  0.00    -0.206 F 
ATOM     94  C   UNL A   1      40.407  36.076  38.528  1.00  0.00     0.059 A 
ATOM     95  C   UNL A   1      38.841  34.475  39.470  1.00  0.00     0.059 A 
ATOM     96  F   UNL A   1      38.440  32.450  38.358  1.00  0.00    -0.206 F 
ATOM     97  C   UNL A   1      39.506  35.699  39.526  1.00  0.00     0.060 A 
BRANCH  97  98
ATOM     98  S   UNL A   1      39.171  36.855  40.872  1.00  0.00     0.124 S 
ATOM     99  O   UNL A   1      38.489  35.996  41.835  1.00  0.00    -0.237 OA
ATOM    100  O   UNL A   1      40.511  37.293  41.249  1.00  0.00    -0.237 OA
ATOM    101  O   UNL A   1      38.340  37.876  40.242  1.00  0.00    -0.744 OA
ENDBRANCH  97  98
ENDBRANCH  65  90
ENDBRANCH  39  40
ENDBRANCH  31  34
ENDBRANCH  29  30
ENDBRANCH   1  29
TORSDOF 18
ENDMDL
