MODEL 1
REMARK VINA RESULT:     -13.3      0.000      0.000
REMARK SMILES CC(=O)N[C@H]1[C@@H](Oc2ccc(C)c(C)c2)O[C@H]2CO[C@H](c3ccco3)O[C@@H]2[C@H]1OCC(=O)NCCCNC(=O)c1ccc(-c2c3nc(c(-c4c(F)cc(S(=O)(=O)[O-])cc4F)c4ccc([nH]4)c(-c4c(F)cc(S(=O)(=O)[O-])cc4F)c4nc(c(-c5c(F)cc(S(=O)(=O)[O-])cc5F)c5ccc2[nH]5)C=C4)C=C3)cc1
REMARK SMILES IDX 34 1 33 2 31 3 32 4 30 6 29 7 28 8 5 9 6 10 16 11 27 12
REMARK SMILES IDX 17 13 26 14 18 15 20 16 19 17 4 18 1 19 2 20 3 21 7 23 8 24
REMARK SMILES IDX 9 25 15 26 10 27 13 28 11 29 14 30 12 31 21 32 22 33 25 34
REMARK SMILES IDX 23 35 24 36 35 37 36 38 37 39 38 40 39 42 40 43 41 44 105 45
REMARK SMILES IDX 42 46 104 47 43 48 44 49 45 50 98 51 46 52 103 53 97 54
REMARK SMILES IDX 99 55 47 56 102 57 96 58 95 59 48 61 82 62 61 63 81 64 62 65
REMARK SMILES IDX 65 66 80 67 100 68 63 69 64 70 79 72 101 73 66 74 49 75
REMARK SMILES IDX 50 76 59 77 51 78 52 79 58 80 60 81 53 82 54 83 55 84 56 85
REMARK SMILES IDX 57 86 83 87 84 88 93 89 85 90 86 91 92 92 94 93 87 94 88 95
REMARK SMILES IDX 89 96 90 97 91 98 67 99 68 100 77 101 69 102 70 103 76 104
REMARK SMILES IDX 78 105 71 106 72 107 73 108 74 109 75 110
REMARK H PARENT 33 5 4 22 37 41 99 60 65 71
REMARK Flexibility Score: inf
ROOT
ATOM      1  C   UNL A   1      34.859  30.771  27.727  1.00  0.00     0.117 C 
ENDROOT
BRANCH   1   2
ATOM      2  N   UNL A   1      33.511  30.818  27.189  1.00  0.00    -0.354 N 
ATOM      3  C   UNL A   1      32.672  29.775  26.916  1.00  0.00     0.246 C 
ATOM      4  O   UNL A   1      31.571  30.011  26.418  1.00  0.00    -0.272 OA
ATOM      5  H   UNL A   1      33.157  31.716  26.997  1.00  0.00     0.163 HD
BRANCH   3   6
ATOM      6  C   UNL A   1      33.127  28.357  27.257  1.00  0.00     0.260 C 
BRANCH   6   7
ATOM      7  O   UNL A   1      32.400  27.315  26.629  1.00  0.00    -0.363 OA
BRANCH   7   8
ATOM      8  C   UNL A   1      32.970  26.760  25.434  1.00  0.00     0.179 C 
ATOM      9  C   UNL A   1      33.361  25.294  25.745  1.00  0.00     0.182 C 
ATOM     10  C   UNL A   1      33.872  24.588  24.429  1.00  0.00     0.333 C 
ATOM     11  O   UNL A   1      33.029  24.751  23.284  1.00  0.00    -0.332 OA
ATOM     12  C   UNL A   1      32.042  26.747  24.210  1.00  0.00     0.184 C 
ATOM     13  C   UNL A   1      32.724  26.113  23.001  1.00  0.00     0.180 C 
ATOM     14  O   UNL A   1      31.535  28.023  23.867  1.00  0.00    -0.337 OA
ATOM     15  C   UNL A   1      31.754  26.168  21.807  1.00  0.00     0.199 C 
ATOM     16  C   UNL A   1      30.529  27.848  22.875  1.00  0.00     0.319 C 
ATOM     17  O   UNL A   1      31.134  27.449  21.649  1.00  0.00    -0.343 OA
BRANCH   9  18
ATOM     18  N   UNL A   1      32.418  24.515  26.613  1.00  0.00    -0.345 N 
ATOM     19  C   UNL A   1      30.822  23.117  25.228  1.00  0.00     0.114 C 
ATOM     20  C   UNL A   1      31.366  23.667  26.514  1.00  0.00     0.217 C 
ATOM     21  O   UNL A   1      30.854  23.285  27.573  1.00  0.00    -0.275 OA
ATOM     22  H   UNL A   1      32.633  24.671  27.561  1.00  0.00     0.164 HD
ENDBRANCH   9  18
BRANCH  10  23
ATOM     23  O   UNL A   1      34.320  23.236  24.606  1.00  0.00    -0.463 OA
BRANCH  23  24
ATOM     24  C   UNL A   1      35.638  22.968  24.833  1.00  0.00     0.123 A 
ATOM     25  C   UNL A   1      36.340  21.864  24.371  1.00  0.00     0.047 A 
ATOM     26  C   UNL A   1      36.298  23.887  25.653  1.00  0.00     0.050 A 
ATOM     27  C   UNL A   1      37.612  21.581  24.867  1.00  0.00     0.007 A 
ATOM     28  C   UNL A   1      37.606  23.649  26.115  1.00  0.00    -0.045 A 
ATOM     29  C   UNL A   1      38.236  22.438  25.781  1.00  0.00    -0.048 A 
ATOM     30  C   UNL A   1      38.265  24.714  26.949  1.00  0.00     0.045 C 
ATOM     31  C   UNL A   1      39.552  22.021  26.373  1.00  0.00     0.044 C 
ENDBRANCH  23  24
ENDBRANCH  10  23
BRANCH  16  32
ATOM     32  C   UNL A   1      29.789  29.122  22.687  1.00  0.00     0.159 A 
ATOM     33  C   UNL A   1      29.522  30.174  23.543  1.00  0.00     0.051 A 
ATOM     34  O   UNL A   1      29.382  29.451  21.422  1.00  0.00    -0.464 OA
ATOM     35  C   UNL A   1      28.918  31.189  22.763  1.00  0.00     0.042 A 
ATOM     36  C   UNL A   1      28.845  30.694  21.482  1.00  0.00     0.195 A 
ENDBRANCH  16  32
ENDBRANCH   7   8
ENDBRANCH   6   7
ENDBRANCH   3   6
ENDBRANCH   1   2
BRANCH   1  37
ATOM     37  C   UNL A   1      35.409  32.164  28.014  1.00  0.00     0.042 C 
BRANCH  37  38
ATOM     38  C   UNL A   1      36.495  32.205  29.083  1.00  0.00     0.118 C 
BRANCH  38  39
ATOM     39  N   UNL A   1      36.130  31.480  30.290  1.00  0.00    -0.352 N 
ATOM     40  C   UNL A   1      36.738  30.405  30.894  1.00  0.00     0.251 C 
ATOM     41  H   UNL A   1      35.322  31.811  30.745  1.00  0.00     0.163 HD
ATOM     42  O   UNL A   1      36.169  29.838  31.819  1.00  0.00    -0.269 OA
BRANCH  40  43
ATOM     43  C   UNL A   1      38.054  29.924  30.419  1.00  0.00     0.039 A 
ATOM     44  C   UNL A   1      38.288  29.862  29.043  1.00  0.00     0.014 A 
ATOM     45  C   UNL A   1      39.044  29.511  31.314  1.00  0.00     0.014 A 
ATOM     46  C   UNL A   1      39.532  29.441  28.568  1.00  0.00     0.010 A 
ATOM     47  C   UNL A   1      40.309  29.169  30.842  1.00  0.00     0.010 A 
ATOM     48  C   UNL A   1      40.566  29.125  29.464  1.00  0.00    -0.014 A 
BRANCH  48  49
ATOM     49  C   UNL A   1      41.918  28.744  28.976  1.00  0.00     0.031 A 
ATOM     50  C   UNL A   1      42.998  29.786  28.844  1.00  0.00     0.074 A 
ATOM     51  C   UNL A   1      42.153  27.473  28.590  1.00  0.00     0.049 A 
ATOM     52  N   UNL A   1      44.211  29.661  28.370  1.00  0.00    -0.248 NA
ATOM     53  C   UNL A   1      42.664  31.153  29.278  1.00  0.00     0.031 C 
ATOM     54  C   UNL A   1      41.173  26.385  28.621  1.00  0.00     0.029 A 
ATOM     55  N   UNL A   1      43.285  26.883  28.084  1.00  0.00    -0.354 N 
ATOM     56  C   UNL A   1      44.775  30.930  28.430  1.00  0.00     0.074 A 
ATOM     57  C   UNL A   1      43.758  31.821  28.942  1.00  0.00     0.031 C 
ATOM     58  C   UNL A   1      41.749  25.259  28.170  1.00  0.00     0.029 A 
ATOM     59  C   UNL A   1      43.124  25.551  27.776  1.00  0.00     0.049 A 
ATOM     60  H   UNL A   1      44.132  27.367  27.952  1.00  0.00     0.167 HD
ATOM     61  C   UNL A   1      46.032  31.313  28.105  1.00  0.00     0.037 A 
ATOM     62  C   UNL A   1      43.980  24.668  27.226  1.00  0.00     0.037 A 
ATOM     63  C   UNL A   1      47.051  30.413  27.627  1.00  0.00     0.049 A 
ATOM     64  C   UNL A   1      45.376  25.118  26.883  1.00  0.00     0.074 A 
ATOM     65  C   UNL A   1      48.376  30.691  27.342  1.00  0.00     0.029 A 
ATOM     66  N   UNL A   1      46.859  29.065  27.362  1.00  0.00    -0.354 N 
ATOM     67  N   UNL A   1      45.914  26.307  27.018  1.00  0.00    -0.248 NA
ATOM     68  C   UNL A   1      46.284  24.107  26.325  1.00  0.00     0.031 C 
ATOM     69  C   UNL A   1      48.971  29.526  26.850  1.00  0.00     0.029 A 
ATOM     70  C   UNL A   1      48.034  28.504  26.891  1.00  0.00     0.049 A 
ATOM     71  H   UNL A   1      46.013  28.579  27.490  1.00  0.00     0.167 HD
ATOM     72  C   UNL A   1      47.232  26.178  26.590  1.00  0.00     0.074 A 
ATOM     73  C   UNL A   1      47.413  24.794  26.206  1.00  0.00     0.031 C 
ATOM     74  C   UNL A   1      48.205  27.120  26.526  1.00  0.00     0.037 A 
BRANCH  61  75
ATOM     75  C   UNL A   1      46.392  32.767  28.255  1.00  0.00     0.058 A 
ATOM     76  C   UNL A   1      46.950  33.273  29.439  1.00  0.00     0.135 A 
ATOM     77  C   UNL A   1      46.244  33.650  27.173  1.00  0.00     0.135 A 
ATOM     78  F   UNL A   1      47.101  32.479  30.511  1.00  0.00    -0.206 F 
ATOM     79  C   UNL A   1      47.335  34.606  29.551  1.00  0.00     0.059 A 
ATOM     80  C   UNL A   1      46.648  34.980  27.253  1.00  0.00     0.059 A 
ATOM     81  F   UNL A   1      45.713  33.221  26.018  1.00  0.00    -0.206 F 
ATOM     82  C   UNL A   1      47.186  35.450  28.450  1.00  0.00     0.060 A 
BRANCH  82  83
ATOM     83  S   UNL A   1      47.723  37.167  28.602  1.00  0.00     0.124 S 
ATOM     84  O   UNL A   1      49.078  37.003  29.120  1.00  0.00    -0.237 OA
ATOM     85  O   UNL A   1      47.624  37.646  27.228  1.00  0.00    -0.237 OA
ATOM     86  O   UNL A   1      46.762  37.744  29.536  1.00  0.00    -0.744 OA
ENDBRANCH  82  83
ENDBRANCH  61  75
BRANCH  62  87
ATOM     87  C   UNL A   1      43.546  23.268  26.965  1.00  0.00     0.058 A 
ATOM     88  C   UNL A   1      43.341  22.362  28.016  1.00  0.00     0.135 A 
ATOM     89  C   UNL A   1      43.334  22.806  25.656  1.00  0.00     0.135 A 
ATOM     90  F   UNL A   1      43.533  22.754  29.286  1.00  0.00    -0.206 F 
ATOM     91  C   UNL A   1      42.972  21.042  27.780  1.00  0.00     0.059 A 
ATOM     92  C   UNL A   1      42.935  21.499  25.397  1.00  0.00     0.059 A 
ATOM     93  F   UNL A   1      43.498  23.636  24.614  1.00  0.00    -0.206 F 
ATOM     94  C   UNL A   1      42.773  20.619  26.466  1.00  0.00     0.060 A 
BRANCH  94  95
ATOM     95  S   UNL A   1      42.272  18.910  26.170  1.00  0.00     0.124 S 
ATOM     96  O   UNL A   1      42.398  18.334  27.504  1.00  0.00    -0.237 OA
ATOM     97  O   UNL A   1      40.912  19.071  25.668  1.00  0.00    -0.237 OA
ATOM     98  O   UNL A   1      43.244  18.441  25.186  1.00  0.00    -0.744 OA
ENDBRANCH  94  95
ENDBRANCH  62  87
BRANCH  74  99
ATOM     99  C   UNL A   1      49.571  26.682  26.069  1.00  0.00     0.058 A 
ATOM    100  C   UNL A   1      50.003  26.858  24.746  1.00  0.00     0.135 A 
ATOM    101  C   UNL A   1      50.479  26.131  26.988  1.00  0.00     0.135 A 
ATOM    102  F   UNL A   1      49.173  27.376  23.826  1.00  0.00    -0.206 F 
ATOM    103  C   UNL A   1      51.280  26.479  24.343  1.00  0.00     0.059 A 
ATOM    104  C   UNL A   1      51.771  25.774  26.614  1.00  0.00     0.059 A 
ATOM    105  F   UNL A   1      50.121  25.951  28.269  1.00  0.00    -0.206 F 
ATOM    106  C   UNL A   1      52.158  25.941  25.286  1.00  0.00     0.060 A 
BRANCH 106 107
ATOM    107  S   UNL A   1      53.823  25.487  24.758  1.00  0.00     0.124 S 
ATOM    108  O   UNL A   1      53.743  24.029  24.755  1.00  0.00    -0.237 OA
ATOM    109  O   UNL A   1      53.918  26.119  23.446  1.00  0.00    -0.237 OA
ATOM    110  O   UNL A   1      54.678  26.065  25.790  1.00  0.00    -0.744 OA
ENDBRANCH 106 107
ENDBRANCH  74  99
ENDBRANCH  48  49
ENDBRANCH  40  43
ENDBRANCH  38  39
ENDBRANCH  37  38
ENDBRANCH   1  37
TORSDOF 19
ENDMDL
MODEL 2
REMARK VINA RESULT:     -12.4      0.766      7.785
REMARK SMILES CC(=O)N[C@H]1[C@@H](Oc2ccc(C)c(C)c2)O[C@H]2CO[C@H](c3ccco3)O[C@@H]2[C@H]1OCC(=O)NCCCNC(=O)c1ccc(-c2c3nc(c(-c4c(F)cc(S(=O)(=O)[O-])cc4F)c4ccc([nH]4)c(-c4c(F)cc(S(=O)(=O)[O-])cc4F)c4nc(c(-c5c(F)cc(S(=O)(=O)[O-])cc5F)c5ccc2[nH]5)C=C4)C=C3)cc1
REMARK SMILES IDX 34 1 33 2 31 3 32 4 30 6 29 7 28 8 5 9 6 10 16 11 27 12
REMARK SMILES IDX 17 13 26 14 18 15 20 16 19 17 4 18 1 19 2 20 3 21 7 23 8 24
REMARK SMILES IDX 9 25 15 26 10 27 13 28 11 29 14 30 12 31 21 32 22 33 25 34
REMARK SMILES IDX 23 35 24 36 35 37 36 38 37 39 38 40 39 42 40 43 41 44 105 45
REMARK SMILES IDX 42 46 104 47 43 48 44 49 45 50 98 51 46 52 103 53 97 54
REMARK SMILES IDX 99 55 47 56 102 57 96 58 95 59 48 61 82 62 61 63 81 64 62 65
REMARK SMILES IDX 65 66 80 67 100 68 63 69 64 70 79 72 101 73 66 74 49 75
REMARK SMILES IDX 50 76 59 77 51 78 52 79 58 80 60 81 53 82 54 83 55 84 56 85
REMARK SMILES IDX 57 86 83 87 84 88 93 89 85 90 86 91 92 92 94 93 87 94 88 95
REMARK SMILES IDX 89 96 90 97 91 98 67 99 68 100 77 101 69 102 70 103 76 104
REMARK SMILES IDX 78 105 71 106 72 107 73 108 74 109 75 110
REMARK H PARENT 33 5 4 22 37 41 99 60 65 71
REMARK Flexibility Score: inf
ROOT
ATOM      1  C   UNL A   1      34.407  30.809  27.268  1.00  0.00     0.117 C 
ENDROOT
BRANCH   1   2
ATOM      2  N   UNL A   1      33.053  30.378  27.566  1.00  0.00    -0.354 N 
ATOM      3  C   UNL A   1      32.502  29.140  27.398  1.00  0.00     0.246 C 
ATOM      4  O   UNL A   1      31.313  28.974  27.670  1.00  0.00    -0.272 OA
ATOM      5  H   UNL A   1      32.456  31.067  27.939  1.00  0.00     0.163 HD
BRANCH   3   6
ATOM      6  C   UNL A   1      33.390  28.004  26.893  1.00  0.00     0.260 C 
BRANCH   6   7
ATOM      7  O   UNL A   1      32.704  26.880  26.367  1.00  0.00    -0.363 OA
BRANCH   7   8
ATOM      8  C   UNL A   1      33.204  26.339  25.135  1.00  0.00     0.179 C 
ATOM      9  C   UNL A   1      33.620  24.872  25.409  1.00  0.00     0.182 C 
ATOM     10  C   UNL A   1      34.056  24.181  24.058  1.00  0.00     0.333 C 
ATOM     11  O   UNL A   1      33.144  24.348  22.967  1.00  0.00    -0.332 OA
ATOM     12  C   UNL A   1      32.205  26.330  23.969  1.00  0.00     0.184 C 
ATOM     13  C   UNL A   1      32.816  25.711  22.715  1.00  0.00     0.180 C 
ATOM     14  O   UNL A   1      31.672  27.607  23.668  1.00  0.00    -0.337 OA
ATOM     15  C   UNL A   1      31.776  25.770  21.582  1.00  0.00     0.199 C 
ATOM     16  C   UNL A   1      30.609  27.434  22.736  1.00  0.00     0.319 C 
ATOM     17  O   UNL A   1      31.141  27.049  21.473  1.00  0.00    -0.343 OA
BRANCH   9  18
ATOM     18  N   UNL A   1      32.736  24.081  26.324  1.00  0.00    -0.345 N 
ATOM     19  C   UNL A   1      34.029  22.260  27.520  1.00  0.00     0.114 C 
ATOM     20  C   UNL A   1      32.784  23.018  27.164  1.00  0.00     0.217 C 
ATOM     21  O   UNL A   1      31.724  22.688  27.710  1.00  0.00    -0.275 OA
ATOM     22  H   UNL A   1      31.824  24.454  26.311  1.00  0.00     0.164 HD
ENDBRANCH   9  18
BRANCH  10  23
ATOM     23  O   UNL A   1      34.520  22.830  24.196  1.00  0.00    -0.463 OA
BRANCH  23  24
ATOM     24  C   UNL A   1      35.811  22.575  24.556  1.00  0.00     0.123 A 
ATOM     25  C   UNL A   1      36.489  21.377  24.377  1.00  0.00     0.047 A 
ATOM     26  C   UNL A   1      36.464  23.625  25.206  1.00  0.00     0.050 A 
ATOM     27  C   UNL A   1      37.720  21.166  24.999  1.00  0.00     0.007 A 
ATOM     28  C   UNL A   1      37.734  23.449  25.787  1.00  0.00    -0.045 A 
ATOM     29  C   UNL A   1      38.329  22.177  25.752  1.00  0.00    -0.048 A 
ATOM     30  C   UNL A   1      38.392  24.645  26.421  1.00  0.00     0.045 C 
ATOM     31  C   UNL A   1      39.591  21.854  26.498  1.00  0.00     0.044 C 
ENDBRANCH  23  24
ENDBRANCH  10  23
BRANCH  16  32
ATOM     32  C   UNL A   1      29.852  28.706  22.604  1.00  0.00     0.159 A 
ATOM     33  C   UNL A   1      29.092  29.430  23.503  1.00  0.00     0.051 A 
ATOM     34  O   UNL A   1      29.996  29.425  21.449  1.00  0.00    -0.464 OA
ATOM     35  C   UNL A   1      28.751  30.645  22.862  1.00  0.00     0.042 A 
ATOM     36  C   UNL A   1      29.316  30.587  21.609  1.00  0.00     0.195 A 
ENDBRANCH  16  32
ENDBRANCH   7   8
ENDBRANCH   6   7
ENDBRANCH   3   6
ENDBRANCH   1   2
BRANCH   1  37
ATOM     37  C   UNL A   1      35.425  30.196  28.223  1.00  0.00     0.042 C 
BRANCH  37  38
ATOM     38  C   UNL A   1      35.997  31.171  29.246  1.00  0.00     0.118 C 
BRANCH  38  39
ATOM     39  N   UNL A   1      35.976  30.646  30.603  1.00  0.00    -0.352 N 
ATOM     40  C   UNL A   1      36.864  29.817  31.244  1.00  0.00     0.251 C 
ATOM     41  H   UNL A   1      35.206  30.931  31.146  1.00  0.00     0.163 HD
ATOM     42  O   UNL A   1      36.570  29.359  32.342  1.00  0.00    -0.269 OA
BRANCH  40  43
ATOM     43  C   UNL A   1      38.152  29.461  30.608  1.00  0.00     0.039 A 
ATOM     44  C   UNL A   1      38.290  29.642  29.229  1.00  0.00     0.014 A 
ATOM     45  C   UNL A   1      39.209  28.930  31.351  1.00  0.00     0.014 A 
ATOM     46  C   UNL A   1      39.505  29.345  28.608  1.00  0.00     0.010 A 
ATOM     47  C   UNL A   1      40.443  28.711  30.745  1.00  0.00     0.010 A 
ATOM     48  C   UNL A   1      40.604  28.910  29.366  1.00  0.00    -0.014 A 
BRANCH  48  49
ATOM     49  C   UNL A   1      41.925  28.657  28.732  1.00  0.00     0.031 A 
ATOM     50  C   UNL A   1      42.267  27.285  28.213  1.00  0.00     0.074 A 
ATOM     51  C   UNL A   1      42.840  29.647  28.682  1.00  0.00     0.049 A 
ATOM     52  N   UNL A   1      43.390  26.854  27.698  1.00  0.00    -0.248 NA
ATOM     53  C   UNL A   1      41.220  26.254  28.309  1.00  0.00     0.031 C 
ATOM     54  C   UNL A   1      42.646  31.004  29.198  1.00  0.00     0.029 A 
ATOM     55  N   UNL A   1      44.121  29.662  28.186  1.00  0.00    -0.354 N 
ATOM     56  C   UNL A   1      43.192  25.505  27.428  1.00  0.00     0.074 A 
ATOM     57  C   UNL A   1      41.858  25.175  27.878  1.00  0.00     0.031 C 
ATOM     58  C   UNL A   1      43.759  31.723  28.978  1.00  0.00     0.029 A 
ATOM     59  C   UNL A   1      44.761  30.870  28.347  1.00  0.00     0.049 A 
ATOM     60  H   UNL A   1      44.541  28.882  27.758  1.00  0.00     0.167 HD
ATOM     61  C   UNL A   1      44.038  24.626  26.840  1.00  0.00     0.037 A 
ATOM     62  C   UNL A   1      46.017  31.244  28.035  1.00  0.00     0.037 A 
ATOM     63  C   UNL A   1      45.353  24.971  26.363  1.00  0.00     0.049 A 
ATOM     64  C   UNL A   1      46.935  30.250  27.373  1.00  0.00     0.074 A 
ATOM     65  C   UNL A   1      46.257  24.170  25.688  1.00  0.00     0.029 A 
ATOM     66  N   UNL A   1      45.953  26.213  26.512  1.00  0.00    -0.354 N 
ATOM     67  N   UNL A   1      46.703  28.998  27.058  1.00  0.00    -0.248 NA
ATOM     68  C   UNL A   1      48.281  30.720  27.016  1.00  0.00     0.031 C 
ATOM     69  C   UNL A   1      47.425  24.910  25.479  1.00  0.00     0.029 A 
ATOM     70  C   UNL A   1      47.225  26.192  25.966  1.00  0.00     0.049 A 
ATOM     71  H   UNL A   1      45.536  26.993  26.943  1.00  0.00     0.167 HD
ATOM     72  C   UNL A   1      47.861  28.541  26.436  1.00  0.00     0.074 A 
ATOM     73  C   UNL A   1      48.786  29.654  26.409  1.00  0.00     0.031 C 
ATOM     74  C   UNL A   1      48.132  27.313  25.931  1.00  0.00     0.037 A 
BRANCH  61  75
ATOM     75  C   UNL A   1      43.578  23.203  26.670  1.00  0.00     0.058 A 
ATOM     76  C   UNL A   1      43.351  22.645  25.403  1.00  0.00     0.135 A 
ATOM     77  C   UNL A   1      43.433  22.366  27.789  1.00  0.00     0.135 A 
ATOM     78  F   UNL A   1      43.461  23.401  24.300  1.00  0.00    -0.206 F 
ATOM     79  C   UNL A   1      42.983  21.311  25.250  1.00  0.00     0.059 A 
ATOM     80  C   UNL A   1      43.092  21.022  27.658  1.00  0.00     0.059 A 
ATOM     81  F   UNL A   1      43.634  22.849  29.025  1.00  0.00    -0.206 F 
ATOM     82  C   UNL A   1      42.862  20.507  26.384  1.00  0.00     0.060 A 
BRANCH  82  83
ATOM     83  S   UNL A   1      42.418  18.771  26.164  1.00  0.00     0.124 S 
ATOM     84  O   UNL A   1      42.650  18.239  27.504  1.00  0.00    -0.237 OA
ATOM     85  O   UNL A   1      41.022  18.858  25.751  1.00  0.00    -0.237 OA
ATOM     86  O   UNL A   1      43.346  18.308  25.138  1.00  0.00    -0.744 OA
ENDBRANCH  82  83
ENDBRANCH  61  75
BRANCH  62  87
ATOM     87  C   UNL A   1      46.485  32.624  28.342  1.00  0.00     0.058 A 
ATOM     88  C   UNL A   1      46.367  33.658  27.402  1.00  0.00     0.135 A 
ATOM     89  C   UNL A   1      47.066  32.935  29.582  1.00  0.00     0.135 A 
ATOM     90  F   UNL A   1      45.821  33.412  26.200  1.00  0.00    -0.206 F 
ATOM     91  C   UNL A   1      46.834  34.941  27.665  1.00  0.00     0.059 A 
ATOM     92  C   UNL A   1      47.513  34.217  29.880  1.00  0.00     0.059 A 
ATOM     93  F   UNL A   1      47.187  31.987  30.525  1.00  0.00    -0.206 F 
ATOM     94  C   UNL A   1      47.408  35.211  28.908  1.00  0.00     0.060 A 
BRANCH  94  95
ATOM     95  S   UNL A   1      47.992  36.885  29.250  1.00  0.00     0.124 S 
ATOM     96  O   UNL A   1      48.083  36.872  30.705  1.00  0.00    -0.237 OA
ATOM     97  O   UNL A   1      49.260  36.921  28.529  1.00  0.00    -0.237 OA
ATOM     98  O   UNL A   1      46.938  37.728  28.691  1.00  0.00    -0.744 OA
ENDBRANCH  94  95
ENDBRANCH  62  87
BRANCH  74  99
ATOM     99  C   UNL A   1      49.463  27.112  25.258  1.00  0.00     0.058 A 
ATOM    100  C   UNL A   1      49.649  27.362  23.891  1.00  0.00     0.135 A 
ATOM    101  C   UNL A   1      50.581  26.718  26.012  1.00  0.00     0.135 A 
ATOM    102  F   UNL A   1      48.613  27.736  23.123  1.00  0.00    -0.206 F 
ATOM    103  C   UNL A   1      50.893  27.203  23.287  1.00  0.00     0.059 A 
ATOM    104  C   UNL A   1      51.841  26.585  25.436  1.00  0.00     0.059 A 
ATOM    105  F   UNL A   1      50.461  26.477  27.327  1.00  0.00    -0.206 F 
ATOM    106  C   UNL A   1      51.984  26.819  24.069  1.00  0.00     0.060 A 
BRANCH 106 107
ATOM    107  S   UNL A   1      53.599  26.651  23.281  1.00  0.00     0.124 S 
ATOM    108  O   UNL A   1      54.003  28.047  23.139  1.00  0.00    -0.237 OA
ATOM    109  O   UNL A   1      54.346  25.872  24.262  1.00  0.00    -0.237 OA
ATOM    110  O   UNL A   1      53.299  25.956  22.032  1.00  0.00    -0.744 OA
ENDBRANCH 106 107
ENDBRANCH  74  99
ENDBRANCH  48  49
ENDBRANCH  40  43
ENDBRANCH  38  39
ENDBRANCH  37  38
ENDBRANCH   1  37
TORSDOF 19
ENDMDL
MODEL 3
REMARK VINA RESULT:     -12.4      2.952      4.005
REMARK SMILES CC(=O)N[C@H]1[C@@H](Oc2ccc(C)c(C)c2)O[C@H]2CO[C@H](c3ccco3)O[C@@H]2[C@H]1OCC(=O)NCCCNC(=O)c1ccc(-c2c3nc(c(-c4c(F)cc(S(=O)(=O)[O-])cc4F)c4ccc([nH]4)c(-c4c(F)cc(S(=O)(=O)[O-])cc4F)c4nc(c(-c5c(F)cc(S(=O)(=O)[O-])cc5F)c5ccc2[nH]5)C=C4)C=C3)cc1
REMARK SMILES IDX 34 1 33 2 31 3 32 4 30 6 29 7 28 8 5 9 6 10 16 11 27 12
REMARK SMILES IDX 17 13 26 14 18 15 20 16 19 17 4 18 1 19 2 20 3 21 7 23 8 24
REMARK SMILES IDX 9 25 15 26 10 27 13 28 11 29 14 30 12 31 21 32 22 33 25 34
REMARK SMILES IDX 23 35 24 36 35 37 36 38 37 39 38 40 39 42 40 43 41 44 105 45
REMARK SMILES IDX 42 46 104 47 43 48 44 49 45 50 98 51 46 52 103 53 97 54
REMARK SMILES IDX 99 55 47 56 102 57 96 58 95 59 48 61 82 62 61 63 81 64 62 65
REMARK SMILES IDX 65 66 80 67 100 68 63 69 64 70 79 72 101 73 66 74 49 75
REMARK SMILES IDX 50 76 59 77 51 78 52 79 58 80 60 81 53 82 54 83 55 84 56 85
REMARK SMILES IDX 57 86 83 87 84 88 93 89 85 90 86 91 92 92 94 93 87 94 88 95
REMARK SMILES IDX 89 96 90 97 91 98 67 99 68 100 77 101 69 102 70 103 76 104
REMARK SMILES IDX 78 105 71 106 72 107 73 108 74 109 75 110
REMARK H PARENT 33 5 4 22 37 41 99 60 65 71
REMARK Flexibility Score: inf
ROOT
ATOM      1  C   UNL A   1      33.054  29.087  24.575  1.00  0.00     0.117 C 
ENDROOT
BRANCH   1   2
ATOM      2  N   UNL A   1      33.480  29.146  23.188  1.00  0.00    -0.354 N 
ATOM      3  C   UNL A   1      33.966  28.136  22.407  1.00  0.00     0.246 C 
ATOM      4  O   UNL A   1      34.318  28.389  21.256  1.00  0.00    -0.272 OA
ATOM      5  H   UNL A   1      33.407  30.027  22.754  1.00  0.00     0.163 HD
BRANCH   3   6
ATOM      6  C   UNL A   1      34.037  26.726  22.992  1.00  0.00     0.260 C 
BRANCH   6   7
ATOM      7  O   UNL A   1      33.688  25.679  22.103  1.00  0.00    -0.363 OA
BRANCH   7   8
ATOM      8  C   UNL A   1      32.609  24.823  22.506  1.00  0.00     0.179 C 
ATOM      9  C   UNL A   1      33.200  23.739  23.441  1.00  0.00     0.182 C 
ATOM     10  C   UNL A   1      32.037  22.845  24.024  1.00  0.00     0.333 C 
ATOM     11  O   UNL A   1      30.932  23.569  24.575  1.00  0.00    -0.332 OA
ATOM     12  C   UNL A   1      31.468  25.520  23.263  1.00  0.00     0.184 C 
ATOM     13  C   UNL A   1      30.385  24.527  23.675  1.00  0.00     0.180 C 
ATOM     14  O   UNL A   1      30.891  26.600  22.553  1.00  0.00    -0.337 OA
ATOM     15  C   UNL A   1      29.261  25.297  24.392  1.00  0.00     0.199 C 
ATOM     16  C   UNL A   1      30.015  27.293  23.436  1.00  0.00     0.319 C 
ATOM     17  O   UNL A   1      28.870  26.488  23.699  1.00  0.00    -0.343 OA
BRANCH   9  18
ATOM     18  N   UNL A   1      34.264  24.184  24.399  1.00  0.00    -0.345 N 
ATOM     19  C   UNL A   1      36.408  22.872  24.081  1.00  0.00     0.114 C 
ATOM     20  C   UNL A   1      35.536  23.888  24.760  1.00  0.00     0.217 C 
ATOM     21  O   UNL A   1      36.021  24.545  25.689  1.00  0.00    -0.275 OA
ATOM     22  H   UNL A   1      33.929  24.934  24.943  1.00  0.00     0.164 HD
ENDBRANCH   9  18
BRANCH  10  23
ATOM     23  O   UNL A   1      32.472  21.765  24.862  1.00  0.00    -0.463 OA
BRANCH  23  24
ATOM     24  C   UNL A   1      32.858  20.576  24.315  1.00  0.00     0.123 A 
ATOM     25  C   UNL A   1      32.131  19.819  23.406  1.00  0.00     0.047 A 
ATOM     26  C   UNL A   1      34.083  20.082  24.771  1.00  0.00     0.050 A 
ATOM     27  C   UNL A   1      32.523  18.515  23.105  1.00  0.00     0.007 A 
ATOM     28  C   UNL A   1      34.525  18.790  24.429  1.00  0.00    -0.045 A 
ATOM     29  C   UNL A   1      33.691  17.969  23.652  1.00  0.00    -0.048 A 
ATOM     30  C   UNL A   1      35.880  18.355  24.918  1.00  0.00     0.045 C 
ATOM     31  C   UNL A   1      33.997  16.522  23.390  1.00  0.00     0.044 C 
ENDBRANCH  23  24
ENDBRANCH  10  23
BRANCH  16  32
ATOM     32  C   UNL A   1      29.603  28.580  22.819  1.00  0.00     0.159 A 
ATOM     33  C   UNL A   1      28.524  29.413  23.047  1.00  0.00     0.051 A 
ATOM     34  O   UNL A   1      30.470  29.186  21.952  1.00  0.00    -0.464 OA
ATOM     35  C   UNL A   1      28.742  30.580  22.277  1.00  0.00     0.042 A 
ATOM     36  C   UNL A   1      29.934  30.387  21.620  1.00  0.00     0.195 A 
ENDBRANCH  16  32
ENDBRANCH   7   8
ENDBRANCH   6   7
ENDBRANCH   3   6
ENDBRANCH   1   2
BRANCH   1  37
ATOM     37  C   UNL A   1      33.947  28.174  25.408  1.00  0.00     0.042 C 
BRANCH  37  38
ATOM     38  C   UNL A   1      33.758  28.311  26.914  1.00  0.00     0.118 C 
BRANCH  38  39
ATOM     39  N   UNL A   1      33.620  29.693  27.345  1.00  0.00    -0.352 N 
ATOM     40  C   UNL A   1      34.496  30.495  28.036  1.00  0.00     0.251 C 
ATOM     41  H   UNL A   1      32.767  30.120  27.104  1.00  0.00     0.163 HD
ATOM     42  O   UNL A   1      34.114  31.585  28.446  1.00  0.00    -0.269 OA
BRANCH  40  43
ATOM     43  C   UNL A   1      35.880  30.042  28.301  1.00  0.00     0.039 A 
ATOM     44  C   UNL A   1      36.815  30.107  27.264  1.00  0.00     0.014 A 
ATOM     45  C   UNL A   1      36.253  29.533  29.547  1.00  0.00     0.014 A 
ATOM     46  C   UNL A   1      38.136  29.715  27.496  1.00  0.00     0.010 A 
ATOM     47  C   UNL A   1      37.586  29.219  29.798  1.00  0.00     0.010 A 
ATOM     48  C   UNL A   1      38.542  29.301  28.774  1.00  0.00    -0.014 A 
BRANCH  48  49
ATOM     49  C   UNL A   1      39.959  28.949  29.056  1.00  0.00     0.031 A 
ATOM     50  C   UNL A   1      40.899  29.981  29.622  1.00  0.00     0.074 A 
ATOM     51  C   UNL A   1      40.414  27.719  28.741  1.00  0.00     0.049 A 
ATOM     52  N   UNL A   1      42.181  29.884  29.863  1.00  0.00    -0.248 NA
ATOM     53  C   UNL A   1      40.330  31.303  29.932  1.00  0.00     0.031 C 
ATOM     54  C   UNL A   1      39.614  26.649  28.140  1.00  0.00     0.029 A 
ATOM     55  N   UNL A   1      41.664  27.164  28.869  1.00  0.00    -0.354 N 
ATOM     56  C   UNL A   1      42.574  31.132  30.334  1.00  0.00     0.074 A 
ATOM     57  C   UNL A   1      41.407  31.984  30.301  1.00  0.00     0.031 C 
ATOM     58  C   UNL A   1      40.387  25.565  27.966  1.00  0.00     0.029 A 
ATOM     59  C   UNL A   1      41.745  25.872  28.401  1.00  0.00     0.049 A 
ATOM     60  H   UNL A   1      42.429  27.645  29.258  1.00  0.00     0.167 HD
ATOM     61  C   UNL A   1      43.794  31.525  30.772  1.00  0.00     0.037 A 
ATOM     62  C   UNL A   1      42.798  25.035  28.318  1.00  0.00     0.037 A 
ATOM     63  C   UNL A   1      44.944  30.660  30.835  1.00  0.00     0.049 A 
ATOM     64  C   UNL A   1      44.141  25.493  28.822  1.00  0.00     0.074 A 
ATOM     65  C   UNL A   1      46.204  30.943  31.333  1.00  0.00     0.029 A 
ATOM     66  N   UNL A   1      44.979  29.348  30.385  1.00  0.00    -0.354 N 
ATOM     67  N   UNL A   1      44.476  26.655  29.333  1.00  0.00    -0.248 NA
ATOM     68  C   UNL A   1      45.246  24.529  28.747  1.00  0.00     0.031 C 
ATOM     69  C   UNL A   1      47.016  29.824  31.132  1.00  0.00     0.029 A 
ATOM     70  C   UNL A   1      46.245  28.819  30.569  1.00  0.00     0.049 A 
ATOM     71  H   UNL A   1      44.216  28.866  29.993  1.00  0.00     0.167 HD
ATOM     72  C   UNL A   1      45.821  26.547  29.671  1.00  0.00     0.074 A 
ATOM     73  C   UNL A   1      46.234  25.206  29.317  1.00  0.00     0.031 C 
ATOM     74  C   UNL A   1      46.639  27.474  30.226  1.00  0.00     0.037 A 
BRANCH  61  75
ATOM     75  C   UNL A   1      43.959  32.950  31.227  1.00  0.00     0.058 A 
ATOM     76  C   UNL A   1      43.638  33.354  32.532  1.00  0.00     0.135 A 
ATOM     77  C   UNL A   1      44.515  33.910  30.364  1.00  0.00     0.135 A 
ATOM     78  F   UNL A   1      43.090  32.484  33.394  1.00  0.00    -0.206 F 
ATOM     79  C   UNL A   1      43.848  34.660  32.963  1.00  0.00     0.059 A 
ATOM     80  C   UNL A   1      44.760  35.215  30.782  1.00  0.00     0.059 A 
ATOM     81  F   UNL A   1      44.837  33.580  29.104  1.00  0.00    -0.206 F 
ATOM     82  C   UNL A   1      44.416  35.582  32.082  1.00  0.00     0.060 A 
BRANCH  82  83
ATOM     83  S   UNL A   1      44.714  37.263  32.669  1.00  0.00     0.124 S 
ATOM     84  O   UNL A   1      46.140  37.418  32.395  1.00  0.00    -0.237 OA
ATOM     85  O   UNL A   1      43.819  38.049  31.827  1.00  0.00    -0.237 OA
ATOM     86  O   UNL A   1      44.351  37.201  34.081  1.00  0.00    -0.744 OA
ENDBRANCH  82  83
ENDBRANCH  61  75
BRANCH  62  87
ATOM     87  C   UNL A   1      42.627  23.675  27.736  1.00  0.00     0.058 A 
ATOM     88  C   UNL A   1      42.416  22.555  28.554  1.00  0.00     0.135 A 
ATOM     89  C   UNL A   1      42.680  23.467  26.349  1.00  0.00     0.135 A 
ATOM     90  F   UNL A   1      42.361  22.699  29.888  1.00  0.00    -0.206 F 
ATOM     91  C   UNL A   1      42.293  21.275  28.023  1.00  0.00     0.059 A 
ATOM     92  C   UNL A   1      42.529  22.202  25.792  1.00  0.00     0.059 A 
ATOM     93  F   UNL A   1      42.861  24.506  25.518  1.00  0.00    -0.206 F 
ATOM     94  C   UNL A   1      42.352  21.109  26.639  1.00  0.00     0.060 A 
BRANCH  94  95
ATOM     95  S   UNL A   1      42.170  19.447  25.956  1.00  0.00     0.124 S 
ATOM     96  O   UNL A   1      40.730  19.379  25.734  1.00  0.00    -0.237 OA
ATOM     97  O   UNL A   1      43.000  19.514  24.758  1.00  0.00    -0.237 OA
ATOM     98  O   UNL A   1      42.685  18.589  27.019  1.00  0.00    -0.744 OA
ENDBRANCH  94  95
ENDBRANCH  62  87
BRANCH  74  99
ATOM     99  C   UNL A   1      48.053  27.063  30.536  1.00  0.00     0.058 A 
ATOM    100  C   UNL A   1      49.105  27.284  29.634  1.00  0.00     0.135 A 
ATOM    101  C   UNL A   1      48.365  26.489  31.779  1.00  0.00     0.135 A 
ATOM    102  F   UNL A   1      48.863  27.824  28.430  1.00  0.00    -0.206 F 
ATOM    103  C   UNL A   1      50.414  26.928  29.946  1.00  0.00     0.059 A 
ATOM    104  C   UNL A   1      49.671  26.155  32.124  1.00  0.00     0.059 A 
ATOM    105  F   UNL A   1      47.397  26.266  32.683  1.00  0.00    -0.206 F 
ATOM    106  C   UNL A   1      50.687  26.368  31.194  1.00  0.00     0.060 A 
BRANCH 106 107
ATOM    107  S   UNL A   1      52.394  25.943  31.599  1.00  0.00     0.124 S 
ATOM    108  O   UNL A   1      52.246  24.585  32.112  1.00  0.00    -0.237 OA
ATOM    109  O   UNL A   1      53.060  26.063  30.306  1.00  0.00    -0.237 OA
ATOM    110  O   UNL A   1      52.771  26.949  32.588  1.00  0.00    -0.744 OA
ENDBRANCH 106 107
ENDBRANCH  74  99
ENDBRANCH  48  49
ENDBRANCH  40  43
ENDBRANCH  38  39
ENDBRANCH  37  38
ENDBRANCH   1  37
TORSDOF 19
ENDMDL
