MODEL 1
REMARK VINA RESULT:     -12.1      0.000      0.000
REMARK SMILES CCC1(C)CC[NH+]([C@@H]2CC[C@]([NH2+]C3CC3)(C(=O)NCCCNC(=O)c3ccc(-c4c5nc(c(-c6c(F)cc(S(=O)(=O)[O-])cc6F)c6ccc([nH]6)c(-c6c(F)cc(S(=O)(=O)[O-])cc6F)c6nc(c(-c7c(F)cc(S(=O)(=O)[O-])cc7F)c7ccc4[nH]7)C=C6)C=C5)cc3)C2)CC1
REMARK SMILES IDX 20 1 19 2 18 3 16 4 17 5 11 7 8 8 9 9 91 10 10 11 7 12 3 13
REMARK SMILES IDX 4 14 5 15 93 16 6 17 92 18 2 20 1 21 12 22 13 25 14 26 15 27
REMARK SMILES IDX 21 28 22 29 23 30 24 32 25 33 26 34 90 35 27 36 89 37 28 38
REMARK SMILES IDX 29 39 30 40 83 41 31 42 88 43 82 44 84 45 32 46 87 47 81 48
REMARK SMILES IDX 80 49 33 51 67 52 46 53 66 54 47 55 50 56 65 57 85 58 48 59
REMARK SMILES IDX 49 60 64 62 86 63 51 64 34 65 35 66 44 67 36 68 37 69 43 70
REMARK SMILES IDX 45 71 38 72 39 73 40 74 41 75 42 76 68 77 69 78 78 79 70 80
REMARK SMILES IDX 71 81 77 82 79 83 72 84 73 85 74 86 75 87 76 88 52 89 53 90
REMARK SMILES IDX 62 91 54 92 55 93 61 94 63 95 56 96 57 97 58 98 59 99 60 100
REMARK H PARENT 18 6 7 19 12 23 12 24 22 31 84 50 50 61
REMARK Flexibility Score: inf
ROOT
ATOM      1  C   UNL A   1      39.255  21.986  26.242  1.00  0.00     0.042 C 
ENDROOT
BRANCH   1   2
ATOM      2  C   UNL A   1      37.839  22.464  25.913  1.00  0.00     0.118 C 
BRANCH   2   3
ATOM      3  N   UNL A   1      37.609  22.574  24.485  1.00  0.00    -0.351 N 
ATOM      4  C   UNL A   1      36.499  22.931  23.779  1.00  0.00     0.281 C 
ATOM      5  O   UNL A   1      36.660  23.072  22.558  1.00  0.00    -0.268 OA
ATOM      6  H   UNL A   1      38.391  22.355  23.930  1.00  0.00     0.163 HD
BRANCH   4   7
ATOM      7  C   UNL A   1      35.124  23.269  24.456  1.00  0.00     0.181 C 
ATOM      8  C   UNL A   1      33.270  24.888  24.337  1.00  0.00     0.191 C 
ATOM      9  C   UNL A   1      34.195  25.350  25.468  1.00  0.00     0.072 C 
ATOM     10  C   UNL A   1      34.146  23.959  23.494  1.00  0.00     0.144 C 
ATOM     11  C   UNL A   1      35.373  24.371  25.518  1.00  0.00     0.085 C 
BRANCH   8  12
ATOM     12  N   UNL A   1      32.474  25.855  23.568  1.00  0.00    -0.332 N 
ATOM     13  C   UNL A   1      31.768  28.347  25.062  1.00  0.00    -0.022 C 
ATOM     14  C   UNL A   1      30.926  29.319  24.207  1.00  0.00     0.012 C 
ATOM     15  C   UNL A   1      30.977  27.015  25.219  1.00  0.00     0.068 C 
ATOM     16  C   UNL A   1      33.136  28.125  24.368  1.00  0.00     0.068 C 
ATOM     17  C   UNL A   1      31.103  26.052  24.036  1.00  0.00     0.263 C 
ATOM     18  C   UNL A   1      33.072  27.138  23.208  1.00  0.00     0.263 C 
ATOM     19  H   UNL A   1      32.455  25.335  22.691  1.00  0.00     0.348 HD
BRANCH  13  20
ATOM     20  C   UNL A   1      31.966  28.945  26.486  1.00  0.00     0.004 C 
ATOM     21  C   UNL A   1      31.549  28.052  27.647  1.00  0.00     0.004 C 
ENDBRANCH  13  20
ENDBRANCH   8  12
BRANCH   7  22
ATOM     22  N   UNL A   1      34.663  21.998  25.071  1.00  0.00    -0.331 N 
ATOM     23  H   UNL A   1      34.278  22.225  25.987  1.00  0.00     0.347 HD
ATOM     24  H   UNL A   1      35.487  21.398  25.079  1.00  0.00     0.347 HD
BRANCH  22  25
ATOM     25  C   UNL A   1      33.650  21.227  24.350  1.00  0.00     0.183 C 
ATOM     26  C   UNL A   1      33.233  19.894  24.903  1.00  0.00     0.071 C 
ATOM     27  C   UNL A   1      32.292  21.059  24.971  1.00  0.00     0.071 C 
ENDBRANCH  22  25
ENDBRANCH   7  22
ENDBRANCH   4   7
ENDBRANCH   2   3
ENDBRANCH   1   2
BRANCH   1  28
ATOM     28  C   UNL A   1      40.111  23.017  26.976  1.00  0.00     0.118 C 
BRANCH  28  29
ATOM     29  N   UNL A   1      41.160  23.566  26.129  1.00  0.00    -0.352 N 
ATOM     30  C   UNL A   1      41.760  24.800  26.143  1.00  0.00     0.251 C 
ATOM     31  H   UNL A   1      41.492  22.952  25.435  1.00  0.00     0.163 HD
ATOM     32  O   UNL A   1      42.472  25.125  25.196  1.00  0.00    -0.269 OA
BRANCH  30  33
ATOM     33  C   UNL A   1      41.558  25.741  27.269  1.00  0.00     0.039 A 
ATOM     34  C   UNL A   1      42.542  26.705  27.519  1.00  0.00     0.014 A 
ATOM     35  C   UNL A   1      40.453  25.643  28.119  1.00  0.00     0.014 A 
ATOM     36  C   UNL A   1      42.394  27.595  28.585  1.00  0.00     0.010 A 
ATOM     37  C   UNL A   1      40.276  26.572  29.146  1.00  0.00     0.010 A 
ATOM     38  C   UNL A   1      41.247  27.555  29.393  1.00  0.00    -0.014 A 
BRANCH  38  39
ATOM     39  C   UNL A   1      41.053  28.525  30.503  1.00  0.00     0.031 A 
ATOM     40  C   UNL A   1      41.908  28.443  31.740  1.00  0.00     0.074 A 
ATOM     41  C   UNL A   1      40.076  29.450  30.416  1.00  0.00     0.049 A 
ATOM     42  N   UNL A   1      41.831  29.140  32.844  1.00  0.00    -0.248 NA
ATOM     43  C   UNL A   1      42.975  27.430  31.744  1.00  0.00     0.031 C 
ATOM     44  C   UNL A   1      39.161  29.611  29.284  1.00  0.00     0.029 A 
ATOM     45  N   UNL A   1      39.681  30.423  31.300  1.00  0.00    -0.354 N 
ATOM     46  C   UNL A   1      42.835  28.652  33.673  1.00  0.00     0.074 A 
ATOM     47  C   UNL A   1      43.472  27.562  32.965  1.00  0.00     0.031 C 
ATOM     48  C   UNL A   1      38.321  30.628  29.537  1.00  0.00     0.029 A 
ATOM     49  C   UNL A   1      38.612  31.169  30.861  1.00  0.00     0.049 A 
ATOM     50  H   UNL A   1      40.122  30.573  32.168  1.00  0.00     0.167 HD
ATOM     51  C   UNL A   1      43.210  29.089  34.900  1.00  0.00     0.037 A 
ATOM     52  C   UNL A   1      37.936  32.166  31.461  1.00  0.00     0.037 A 
ATOM     53  C   UNL A   1      42.585  30.184  35.594  1.00  0.00     0.049 A 
ATOM     54  C   UNL A   1      38.361  32.620  32.833  1.00  0.00     0.074 A 
ATOM     55  C   UNL A   1      42.902  30.712  36.835  1.00  0.00     0.029 A 
ATOM     56  N   UNL A   1      41.523  30.929  35.105  1.00  0.00    -0.354 N 
ATOM     57  N   UNL A   1      39.332  32.164  33.588  1.00  0.00    -0.248 NA
ATOM     58  C   UNL A   1      37.604  33.728  33.431  1.00  0.00     0.031 C 
ATOM     59  C   UNL A   1      42.013  31.757  37.107  1.00  0.00     0.029 A 
ATOM     60  C   UNL A   1      41.169  31.908  36.019  1.00  0.00     0.049 A 
ATOM     61  H   UNL A   1      41.085  30.784  34.234  1.00  0.00     0.167 HD
ATOM     62  C   UNL A   1      39.320  32.948  34.736  1.00  0.00     0.074 A 
ATOM     63  C   UNL A   1      38.254  33.915  34.571  1.00  0.00     0.031 C 
ATOM     64  C   UNL A   1      40.117  32.874  35.829  1.00  0.00     0.037 A 
BRANCH  51  65
ATOM     65  C   UNL A   1      44.367  28.392  35.564  1.00  0.00     0.058 A 
ATOM     66  C   UNL A   1      44.165  27.289  36.409  1.00  0.00     0.135 A 
ATOM     67  C   UNL A   1      45.690  28.796  35.320  1.00  0.00     0.135 A 
ATOM     68  F   UNL A   1      42.919  26.871  36.688  1.00  0.00    -0.206 F 
ATOM     69  C   UNL A   1      45.230  26.625  37.008  1.00  0.00     0.059 A 
ATOM     70  C   UNL A   1      46.772  28.130  35.889  1.00  0.00     0.059 A 
ATOM     71  F   UNL A   1      45.940  29.844  34.522  1.00  0.00    -0.206 F 
ATOM     72  C   UNL A   1      46.531  27.053  36.740  1.00  0.00     0.060 A 
BRANCH  72  73
ATOM     73  S   UNL A   1      47.903  26.170  37.515  1.00  0.00     0.124 S 
ATOM     74  O   UNL A   1      47.248  25.580  38.678  1.00  0.00    -0.237 OA
ATOM     75  O   UNL A   1      48.301  25.233  36.470  1.00  0.00    -0.237 OA
ATOM     76  O   UNL A   1      48.866  27.227  37.806  1.00  0.00    -0.744 OA
ENDBRANCH  72  73
ENDBRANCH  51  65
BRANCH  52  77
ATOM     77  C   UNL A   1      36.787  32.815  30.774  1.00  0.00     0.058 A 
ATOM     78  C   UNL A   1      36.993  33.806  29.802  1.00  0.00     0.135 A 
ATOM     79  C   UNL A   1      35.464  32.474  31.090  1.00  0.00     0.135 A 
ATOM     80  F   UNL A   1      38.241  34.168  29.468  1.00  0.00    -0.206 F 
ATOM     81  C   UNL A   1      35.928  34.461  29.192  1.00  0.00     0.059 A 
ATOM     82  C   UNL A   1      34.382  33.097  30.475  1.00  0.00     0.059 A 
ATOM     83  F   UNL A   1      35.212  31.518  31.999  1.00  0.00    -0.206 F 
ATOM     84  C   UNL A   1      34.625  34.103  29.540  1.00  0.00     0.060 A 
BRANCH  84  85
ATOM     85  S   UNL A   1      33.246  34.950  28.737  1.00  0.00     0.124 S 
ATOM     86  O   UNL A   1      32.757  33.916  27.832  1.00  0.00    -0.237 OA
ATOM     87  O   UNL A   1      32.381  35.272  29.867  1.00  0.00    -0.237 OA
ATOM     88  O   UNL A   1      33.885  36.097  28.101  1.00  0.00    -0.744 OA
ENDBRANCH  84  85
ENDBRANCH  52  77
BRANCH  64  89
ATOM     89  C   UNL A   1      39.899  33.892  36.912  1.00  0.00     0.058 A 
ATOM     90  C   UNL A   1      39.142  33.600  38.058  1.00  0.00     0.135 A 
ATOM     91  C   UNL A   1      40.491  35.162  36.823  1.00  0.00     0.135 A 
ATOM     92  F   UNL A   1      38.549  32.403  38.187  1.00  0.00    -0.206 F 
ATOM     93  C   UNL A   1      38.961  34.541  39.067  1.00  0.00     0.059 A 
ATOM     94  C   UNL A   1      40.345  36.109  37.831  1.00  0.00     0.059 A 
ATOM     95  F   UNL A   1      41.233  35.488  35.752  1.00  0.00    -0.206 F 
ATOM     96  C   UNL A   1      39.567  35.792  38.945  1.00  0.00     0.060 A 
BRANCH  96  97
ATOM     97  S   UNL A   1      39.352  36.993  40.275  1.00  0.00     0.124 S 
ATOM     98  O   UNL A   1      38.320  36.353  41.085  1.00  0.00    -0.237 OA
ATOM     99  O   UNL A   1      40.683  37.042  40.872  1.00  0.00    -0.237 OA
ATOM    100  O   UNL A   1      38.940  38.206  39.577  1.00  0.00    -0.744 OA
ENDBRANCH  96  97
ENDBRANCH  64  89
ENDBRANCH  38  39
ENDBRANCH  30  33
ENDBRANCH  28  29
ENDBRANCH   1  28
TORSDOF 17
ENDMDL
MODEL 2
REMARK VINA RESULT:     -12.0      5.944      8.220
REMARK SMILES CCC1(C)CC[NH+]([C@@H]2CC[C@]([NH2+]C3CC3)(C(=O)NCCCNC(=O)c3ccc(-c4c5nc(c(-c6c(F)cc(S(=O)(=O)[O-])cc6F)c6ccc([nH]6)c(-c6c(F)cc(S(=O)(=O)[O-])cc6F)c6nc(c(-c7c(F)cc(S(=O)(=O)[O-])cc7F)c7ccc4[nH]7)C=C6)C=C5)cc3)C2)CC1
REMARK SMILES IDX 20 1 19 2 18 3 16 4 17 5 11 7 8 8 9 9 91 10 10 11 7 12 3 13
REMARK SMILES IDX 4 14 5 15 93 16 6 17 92 18 2 20 1 21 12 22 13 25 14 26 15 27
REMARK SMILES IDX 21 28 22 29 23 30 24 32 25 33 26 34 90 35 27 36 89 37 28 38
REMARK SMILES IDX 29 39 30 40 83 41 31 42 88 43 82 44 84 45 32 46 87 47 81 48
REMARK SMILES IDX 80 49 33 51 67 52 46 53 66 54 47 55 50 56 65 57 85 58 48 59
REMARK SMILES IDX 49 60 64 62 86 63 51 64 34 65 35 66 44 67 36 68 37 69 43 70
REMARK SMILES IDX 45 71 38 72 39 73 40 74 41 75 42 76 68 77 69 78 78 79 70 80
REMARK SMILES IDX 71 81 77 82 79 83 72 84 73 85 74 86 75 87 76 88 52 89 53 90
REMARK SMILES IDX 62 91 54 92 55 93 61 94 63 95 56 96 57 97 58 98 59 99 60 100
REMARK H PARENT 18 6 7 19 12 23 12 24 22 31 84 50 50 61
REMARK Flexibility Score: inf
ROOT
ATOM      1  C   UNL A   1      38.248  19.243  25.252  1.00  0.00     0.042 C 
ENDROOT
BRANCH   1   2
ATOM      2  C   UNL A   1      37.229  20.108  24.505  1.00  0.00     0.118 C 
BRANCH   2   3
ATOM      3  N   UNL A   1      35.883  19.948  25.021  1.00  0.00    -0.351 N 
ATOM      4  C   UNL A   1      34.995  20.859  25.511  1.00  0.00     0.281 C 
ATOM      5  O   UNL A   1      33.856  20.430  25.743  1.00  0.00    -0.268 OA
ATOM      6  H   UNL A   1      35.553  19.021  25.015  1.00  0.00     0.163 HD
BRANCH   4   7
ATOM      7  C   UNL A   1      35.329  22.385  25.664  1.00  0.00     0.181 C 
ATOM      8  C   UNL A   1      34.235  24.591  25.757  1.00  0.00     0.191 C 
ATOM      9  C   UNL A   1      34.729  24.398  24.320  1.00  0.00     0.072 C 
ATOM     10  C   UNL A   1      34.193  23.174  26.332  1.00  0.00     0.144 C 
ATOM     11  C   UNL A   1      35.371  23.009  24.245  1.00  0.00     0.085 C 
BRANCH   8  12
ATOM     12  N   UNL A   1      33.050  25.411  26.047  1.00  0.00    -0.332 N 
ATOM     13  C   UNL A   1      31.424  26.131  23.643  1.00  0.00    -0.022 C 
ATOM     14  C   UNL A   1      30.199  26.999  24.007  1.00  0.00     0.012 C 
ATOM     15  C   UNL A   1      32.715  26.901  24.052  1.00  0.00     0.068 C 
ATOM     16  C   UNL A   1      31.310  24.771  24.375  1.00  0.00     0.068 C 
ATOM     17  C   UNL A   1      33.093  26.779  25.529  1.00  0.00     0.263 C 
ATOM     18  C   UNL A   1      31.723  24.837  25.842  1.00  0.00     0.263 C 
ATOM     19  H   UNL A   1      33.157  25.435  27.060  1.00  0.00     0.348 HD
BRANCH  13  20
ATOM     20  C   UNL A   1      31.472  25.922  22.101  1.00  0.00     0.004 C 
ATOM     21  C   UNL A   1      32.861  25.843  21.482  1.00  0.00     0.004 C 
ENDBRANCH  13  20
ENDBRANCH   8  12
BRANCH   7  22
ATOM     22  N   UNL A   1      36.654  22.435  26.334  1.00  0.00    -0.331 N 
ATOM     23  H   UNL A   1      37.092  21.523  26.211  1.00  0.00     0.347 HD
ATOM     24  H   UNL A   1      36.448  22.695  27.298  1.00  0.00     0.347 HD
BRANCH  22  25
ATOM     25  C   UNL A   1      37.607  23.445  25.871  1.00  0.00     0.183 C 
ATOM     26  C   UNL A   1      38.149  24.429  26.867  1.00  0.00     0.071 C 
ATOM     27  C   UNL A   1      39.036  23.350  26.324  1.00  0.00     0.071 C 
ENDBRANCH  22  25
ENDBRANCH   7  22
ENDBRANCH   4   7
ENDBRANCH   2   3
ENDBRANCH   1   2
BRANCH   1  28
ATOM     28  C   UNL A   1      39.464  20.012  25.768  1.00  0.00     0.118 C 
BRANCH  28  29
ATOM     29  N   UNL A   1      40.577  19.132  26.091  1.00  0.00    -0.352 N 
ATOM     30  C   UNL A   1      41.899  19.416  26.319  1.00  0.00     0.251 C 
ATOM     31  H   UNL A   1      40.342  18.178  26.155  1.00  0.00     0.163 HD
ATOM     32  O   UNL A   1      42.707  18.492  26.361  1.00  0.00    -0.269 OA
BRANCH  30  33
ATOM     33  C   UNL A   1      42.365  20.810  26.508  1.00  0.00     0.039 A 
ATOM     34  C   UNL A   1      42.423  21.324  27.809  1.00  0.00     0.014 A 
ATOM     35  C   UNL A   1      42.677  21.634  25.423  1.00  0.00     0.014 A 
ATOM     36  C   UNL A   1      42.837  22.641  28.022  1.00  0.00     0.010 A 
ATOM     37  C   UNL A   1      43.150  22.929  25.642  1.00  0.00     0.010 A 
ATOM     38  C   UNL A   1      43.230  23.448  26.943  1.00  0.00    -0.014 A 
BRANCH  38  39
ATOM     39  C   UNL A   1      43.718  24.837  27.157  1.00  0.00     0.031 A 
ATOM     40  C   UNL A   1      45.173  25.168  26.961  1.00  0.00     0.074 A 
ATOM     41  C   UNL A   1      42.857  25.787  27.571  1.00  0.00     0.049 A 
ATOM     42  N   UNL A   1      45.800  26.295  27.183  1.00  0.00    -0.248 NA
ATOM     43  C   UNL A   1      46.042  24.085  26.473  1.00  0.00     0.031 C 
ATOM     44  C   UNL A   1      41.429  25.584  27.827  1.00  0.00     0.029 A 
ATOM     45  N   UNL A   1      43.058  27.113  27.864  1.00  0.00    -0.354 N 
ATOM     46  C   UNL A   1      47.133  26.058  26.863  1.00  0.00     0.074 A 
ATOM     47  C   UNL A   1      47.233  24.664  26.486  1.00  0.00     0.031 C 
ATOM     48  C   UNL A   1      40.883  26.745  28.224  1.00  0.00     0.029 A 
ATOM     49  C   UNL A   1      41.924  27.765  28.287  1.00  0.00     0.049 A 
ATOM     50  H   UNL A   1      43.934  27.557  27.777  1.00  0.00     0.167 HD
ATOM     51  C   UNL A   1      48.172  26.928  26.859  1.00  0.00     0.037 A 
ATOM     52  C   UNL A   1      41.745  29.037  28.692  1.00  0.00     0.037 A 
ATOM     53  C   UNL A   1      48.065  28.317  27.220  1.00  0.00     0.049 A 
ATOM     54  C   UNL A   1      42.921  29.978  28.696  1.00  0.00     0.074 A 
ATOM     55  C   UNL A   1      49.058  29.283  27.235  1.00  0.00     0.029 A 
ATOM     56  N   UNL A   1      46.895  28.944  27.620  1.00  0.00    -0.354 N 
ATOM     57  N   UNL A   1      44.168  29.741  28.364  1.00  0.00    -0.248 NA
ATOM     58  C   UNL A   1      42.665  31.360  29.125  1.00  0.00     0.031 C 
ATOM     59  C   UNL A   1      48.492  30.486  27.670  1.00  0.00     0.029 A 
ATOM     60  C   UNL A   1      47.139  30.281  27.887  1.00  0.00     0.049 A 
ATOM     61  H   UNL A   1      46.017  28.503  27.701  1.00  0.00     0.167 HD
ATOM     62  C   UNL A   1      44.836  30.951  28.514  1.00  0.00     0.074 A 
ATOM     63  C   UNL A   1      43.854  31.920  28.956  1.00  0.00     0.031 C 
ATOM     64  C   UNL A   1      46.145  31.235  28.307  1.00  0.00     0.037 A 
BRANCH  51  65
ATOM     65  C   UNL A   1      49.517  26.405  26.432  1.00  0.00     0.058 A 
ATOM     66  C   UNL A   1      49.985  26.586  25.120  1.00  0.00     0.135 A 
ATOM     67  C   UNL A   1      50.365  25.760  27.346  1.00  0.00     0.135 A 
ATOM     68  F   UNL A   1      49.209  27.183  24.202  1.00  0.00    -0.206 F 
ATOM     69  C   UNL A   1      51.237  26.127  24.724  1.00  0.00     0.059 A 
ATOM     70  C   UNL A   1      51.632  25.315  26.978  1.00  0.00     0.059 A 
ATOM     71  F   UNL A   1      49.968  25.560  28.612  1.00  0.00    -0.206 F 
ATOM     72  C   UNL A   1      52.054  25.493  25.661  1.00  0.00     0.060 A 
BRANCH  72  73
ATOM     73  S   UNL A   1      53.681  24.916  25.132  1.00  0.00     0.124 S 
ATOM     74  O   UNL A   1      54.518  25.345  26.249  1.00  0.00    -0.237 OA
ATOM     75  O   UNL A   1      53.479  23.478  25.008  1.00  0.00    -0.237 OA
ATOM     76  O   UNL A   1      53.901  25.626  23.876  1.00  0.00    -0.744 OA
ENDBRANCH  72  73
ENDBRANCH  51  65
BRANCH  52  77
ATOM     77  C   UNL A   1      40.401  29.506  29.124  1.00  0.00     0.058 A 
ATOM     78  C   UNL A   1      39.399  29.791  28.184  1.00  0.00     0.135 A 
ATOM     79  C   UNL A   1      40.099  29.700  30.480  1.00  0.00     0.135 A 
ATOM     80  F   UNL A   1      39.642  29.625  26.875  1.00  0.00    -0.206 F 
ATOM     81  C   UNL A   1      38.157  30.285  28.569  1.00  0.00     0.059 A 
ATOM     82  C   UNL A   1      38.855  30.168  30.893  1.00  0.00     0.059 A 
ATOM     83  F   UNL A   1      41.016  29.423  31.421  1.00  0.00    -0.206 F 
ATOM     84  C   UNL A   1      37.897  30.475  29.927  1.00  0.00     0.060 A 
BRANCH  84  85
ATOM     85  S   UNL A   1      36.278  31.105  30.423  1.00  0.00     0.124 S 
ATOM     86  O   UNL A   1      35.928  30.191  31.502  1.00  0.00    -0.237 OA
ATOM     87  O   UNL A   1      36.588  32.475  30.820  1.00  0.00    -0.237 OA
ATOM     88  O   UNL A   1      35.485  30.979  29.204  1.00  0.00    -0.744 OA
ENDBRANCH  84  85
ENDBRANCH  52  77
BRANCH  64  89
ATOM     89  C   UNL A   1      46.583  32.658  28.512  1.00  0.00     0.058 A 
ATOM     90  C   UNL A   1      47.069  33.109  29.749  1.00  0.00     0.135 A 
ATOM     91  C   UNL A   1      46.558  33.569  27.445  1.00  0.00     0.135 A 
ATOM     92  F   UNL A   1      47.107  32.278  30.803  1.00  0.00    -0.206 F 
ATOM     93  C   UNL A   1      47.493  34.422  29.927  1.00  0.00     0.059 A 
ATOM     94  C   UNL A   1      47.000  34.879  27.593  1.00  0.00     0.059 A 
ATOM     95  F   UNL A   1      46.111  33.185  26.239  1.00  0.00    -0.206 F 
ATOM     96  C   UNL A   1      47.455  35.300  28.842  1.00  0.00     0.060 A 
BRANCH  96  97
ATOM     97  S   UNL A   1      48.038  36.992  29.076  1.00  0.00     0.124 S 
ATOM     98  O   UNL A   1      47.706  37.227  30.478  1.00  0.00    -0.237 OA
ATOM     99  O   UNL A   1      49.462  36.878  28.774  1.00  0.00    -0.237 OA
ATOM    100  O   UNL A   1      47.258  37.758  28.109  1.00  0.00    -0.744 OA
ENDBRANCH  96  97
ENDBRANCH  64  89
ENDBRANCH  38  39
ENDBRANCH  30  33
ENDBRANCH  28  29
ENDBRANCH   1  28
TORSDOF 17
ENDMDL
MODEL 3
REMARK VINA RESULT:     -11.9      5.986     10.823
REMARK SMILES CCC1(C)CC[NH+]([C@@H]2CC[C@]([NH2+]C3CC3)(C(=O)NCCCNC(=O)c3ccc(-c4c5nc(c(-c6c(F)cc(S(=O)(=O)[O-])cc6F)c6ccc([nH]6)c(-c6c(F)cc(S(=O)(=O)[O-])cc6F)c6nc(c(-c7c(F)cc(S(=O)(=O)[O-])cc7F)c7ccc4[nH]7)C=C6)C=C5)cc3)C2)CC1
REMARK SMILES IDX 20 1 19 2 18 3 16 4 17 5 11 7 8 8 9 9 91 10 10 11 7 12 3 13
REMARK SMILES IDX 4 14 5 15 93 16 6 17 92 18 2 20 1 21 12 22 13 25 14 26 15 27
REMARK SMILES IDX 21 28 22 29 23 30 24 32 25 33 26 34 90 35 27 36 89 37 28 38
REMARK SMILES IDX 29 39 30 40 83 41 31 42 88 43 82 44 84 45 32 46 87 47 81 48
REMARK SMILES IDX 80 49 33 51 67 52 46 53 66 54 47 55 50 56 65 57 85 58 48 59
REMARK SMILES IDX 49 60 64 62 86 63 51 64 34 65 35 66 44 67 36 68 37 69 43 70
REMARK SMILES IDX 45 71 38 72 39 73 40 74 41 75 42 76 68 77 69 78 78 79 70 80
REMARK SMILES IDX 71 81 77 82 79 83 72 84 73 85 74 86 75 87 76 88 52 89 53 90
REMARK SMILES IDX 62 91 54 92 55 93 61 94 63 95 56 96 57 97 58 98 59 99 60 100
REMARK H PARENT 18 6 7 19 12 23 12 24 22 31 84 50 50 61
REMARK Flexibility Score: inf
ROOT
ATOM      1  C   UNL A   1      38.284  19.501  25.054  1.00  0.00     0.042 C 
ENDROOT
BRANCH   1   2
ATOM      2  C   UNL A   1      37.239  20.504  24.559  1.00  0.00     0.118 C 
BRANCH   2   3
ATOM      3  N   UNL A   1      35.929  20.267  25.135  1.00  0.00    -0.351 N 
ATOM      4  C   UNL A   1      35.009  21.128  25.656  1.00  0.00     0.281 C 
ATOM      5  O   UNL A   1      33.909  20.632  25.940  1.00  0.00    -0.268 OA
ATOM      6  H   UNL A   1      35.657  19.322  25.151  1.00  0.00     0.163 HD
BRANCH   4   7
ATOM      7  C   UNL A   1      35.254  22.673  25.781  1.00  0.00     0.181 C 
ATOM      8  C   UNL A   1      34.049  24.821  25.716  1.00  0.00     0.191 C 
ATOM      9  C   UNL A   1      34.663  24.610  24.328  1.00  0.00     0.072 C 
ATOM     10  C   UNL A   1      34.032  23.422  26.333  1.00  0.00     0.144 C 
ATOM     11  C   UNL A   1      35.377  23.255  24.349  1.00  0.00     0.085 C 
BRANCH   8  12
ATOM     12  N   UNL A   1      32.806  25.588  25.885  1.00  0.00    -0.332 N 
ATOM     13  C   UNL A   1      32.685  28.120  24.300  1.00  0.00    -0.022 C 
ATOM     14  C   UNL A   1      31.362  28.885  24.525  1.00  0.00     0.012 C 
ATOM     15  C   UNL A   1      33.431  28.011  25.662  1.00  0.00     0.068 C 
ATOM     16  C   UNL A   1      32.363  26.724  23.708  1.00  0.00     0.068 C 
ATOM     17  C   UNL A   1      32.951  26.874  26.567  1.00  0.00     0.263 C 
ATOM     18  C   UNL A   1      31.894  25.718  24.753  1.00  0.00     0.263 C 
ATOM     19  H   UNL A   1      32.337  24.932  26.509  1.00  0.00     0.348 HD
BRANCH  13  20
ATOM     20  C   UNL A   1      33.595  28.930  23.330  1.00  0.00     0.004 C 
ATOM     21  C   UNL A   1      33.972  28.232  22.030  1.00  0.00     0.004 C 
ENDBRANCH  13  20
ENDBRANCH   8  12
BRANCH   7  22
ATOM     22  N   UNL A   1      36.519  22.811  26.549  1.00  0.00    -0.331 N 
ATOM     23  H   UNL A   1      36.913  21.877  26.657  1.00  0.00     0.347 HD
ATOM     24  H   UNL A   1      36.248  23.276  27.415  1.00  0.00     0.347 HD
BRANCH  22  25
ATOM     25  C   UNL A   1      37.563  23.664  25.980  1.00  0.00     0.183 C 
ATOM     26  C   UNL A   1      38.269  24.634  26.884  1.00  0.00     0.071 C 
ATOM     27  C   UNL A   1      38.991  23.421  26.380  1.00  0.00     0.071 C 
ENDBRANCH  22  25
ENDBRANCH   7  22
ENDBRANCH   4   7
ENDBRANCH   2   3
ENDBRANCH   1   2
BRANCH   1  28
ATOM     28  C   UNL A   1      39.424  20.128  25.856  1.00  0.00     0.118 C 
BRANCH  28  29
ATOM     29  N   UNL A   1      40.497  19.181  26.123  1.00  0.00    -0.352 N 
ATOM     30  C   UNL A   1      41.837  19.388  26.327  1.00  0.00     0.251 C 
ATOM     31  H   UNL A   1      40.213  18.239  26.163  1.00  0.00     0.163 HD
ATOM     32  O   UNL A   1      42.596  18.423  26.320  1.00  0.00    -0.269 OA
BRANCH  30  33
ATOM     33  C   UNL A   1      42.380  20.749  26.549  1.00  0.00     0.039 A 
ATOM     34  C   UNL A   1      42.509  21.212  27.863  1.00  0.00     0.014 A 
ATOM     35  C   UNL A   1      42.696  21.596  25.482  1.00  0.00     0.014 A 
ATOM     36  C   UNL A   1      42.997  22.497  28.108  1.00  0.00     0.010 A 
ATOM     37  C   UNL A   1      43.242  22.857  25.729  1.00  0.00     0.010 A 
ATOM     38  C   UNL A   1      43.394  23.323  27.044  1.00  0.00    -0.014 A 
BRANCH  38  39
ATOM     39  C   UNL A   1      43.959  24.677  27.289  1.00  0.00     0.031 A 
ATOM     40  C   UNL A   1      43.055  25.816  27.677  1.00  0.00     0.074 A 
ATOM     41  C   UNL A   1      45.279  24.888  27.118  1.00  0.00     0.049 A 
ATOM     42  N   UNL A   1      43.347  27.081  27.847  1.00  0.00    -0.248 NA
ATOM     43  C   UNL A   1      41.632  25.498  27.879  1.00  0.00     0.031 C 
ATOM     44  C   UNL A   1      46.254  23.873  26.714  1.00  0.00     0.029 A 
ATOM     45  N   UNL A   1      46.029  26.030  27.251  1.00  0.00    -0.354 N 
ATOM     46  C   UNL A   1      42.149  27.707  28.174  1.00  0.00     0.074 A 
ATOM     47  C   UNL A   1      41.117  26.694  28.124  1.00  0.00     0.031 C 
ATOM     48  C   UNL A   1      47.472  24.434  26.644  1.00  0.00     0.029 A 
ATOM     49  C   UNL A   1      47.362  25.854  26.963  1.00  0.00     0.049 A 
ATOM     50  H   UNL A   1      45.647  26.895  27.527  1.00  0.00     0.167 HD
ATOM     51  C   UNL A   1      41.933  29.002  28.511  1.00  0.00     0.037 A 
ATOM     52  C   UNL A   1      48.378  26.737  26.944  1.00  0.00     0.037 A 
ATOM     53  C   UNL A   1      42.965  30.004  28.575  1.00  0.00     0.049 A 
ATOM     54  C   UNL A   1      48.107  28.174  27.305  1.00  0.00     0.074 A 
ATOM     55  C   UNL A   1      42.848  31.340  28.919  1.00  0.00     0.029 A 
ATOM     56  N   UNL A   1      44.305  29.779  28.300  1.00  0.00    -0.354 N 
ATOM     57  N   UNL A   1      46.971  28.741  27.638  1.00  0.00    -0.248 NA
ATOM     58  C   UNL A   1      49.255  29.091  27.292  1.00  0.00     0.031 C 
ATOM     59  C   UNL A   1      44.114  31.929  28.826  1.00  0.00     0.029 A 
ATOM     60  C   UNL A   1      45.026  30.951  28.462  1.00  0.00     0.049 A 
ATOM     61  H   UNL A   1      44.688  28.913  28.029  1.00  0.00     0.167 HD
ATOM     62  C   UNL A   1      47.275  30.071  27.903  1.00  0.00     0.074 A 
ATOM     63  C   UNL A   1      48.702  30.223  27.704  1.00  0.00     0.031 C 
ATOM     64  C   UNL A   1      46.448  31.078  28.277  1.00  0.00     0.037 A 
BRANCH  51  65
ATOM     65  C   UNL A   1      40.525  29.407  28.856  1.00  0.00     0.058 A 
ATOM     66  C   UNL A   1      39.541  29.542  27.864  1.00  0.00     0.135 A 
ATOM     67  C   UNL A   1      40.141  29.615  30.191  1.00  0.00     0.135 A 
ATOM     68  F   UNL A   1      39.858  29.369  26.570  1.00  0.00    -0.206 F 
ATOM     69  C   UNL A   1      38.233  29.892  28.178  1.00  0.00     0.059 A 
ATOM     70  C   UNL A   1      38.831  29.941  30.531  1.00  0.00     0.059 A 
ATOM     71  F   UNL A   1      41.041  29.499  31.180  1.00  0.00    -0.206 F 
ATOM     72  C   UNL A   1      37.887  30.089  29.516  1.00  0.00     0.060 A 
BRANCH  72  73
ATOM     73  S   UNL A   1      36.180  30.528  29.906  1.00  0.00     0.124 S 
ATOM     74  O   UNL A   1      36.214  31.980  29.763  1.00  0.00    -0.237 OA
ATOM     75  O   UNL A   1      35.429  29.808  28.885  1.00  0.00    -0.237 OA
ATOM     76  O   UNL A   1      36.006  30.037  31.271  1.00  0.00    -0.744 OA
ENDBRANCH  72  73
ENDBRANCH  51  65
BRANCH  52  77
ATOM     77  C   UNL A   1      49.750  26.296  26.579  1.00  0.00     0.058 A 
ATOM     78  C   UNL A   1      50.176  26.291  25.243  1.00  0.00     0.135 A 
ATOM     79  C   UNL A   1      50.654  25.850  27.555  1.00  0.00     0.135 A 
ATOM     80  F   UNL A   1      49.345  26.705  24.274  1.00  0.00    -0.206 F 
ATOM     81  C   UNL A   1      51.436  25.827  24.880  1.00  0.00     0.059 A 
ATOM     82  C   UNL A   1      51.930  25.406  27.221  1.00  0.00     0.059 A 
ATOM     83  F   UNL A   1      50.304  25.853  28.851  1.00  0.00    -0.206 F 
ATOM     84  C   UNL A   1      52.305  25.381  25.878  1.00  0.00     0.060 A 
BRANCH  84  85
ATOM     85  S   UNL A   1      53.945  24.790  25.403  1.00  0.00     0.124 S 
ATOM     86  O   UNL A   1      53.673  23.391  25.099  1.00  0.00    -0.237 OA
ATOM     87  O   UNL A   1      54.262  25.643  24.262  1.00  0.00    -0.237 OA
ATOM     88  O   UNL A   1      54.746  25.035  26.599  1.00  0.00    -0.744 OA
ENDBRANCH  84  85
ENDBRANCH  52  77
BRANCH  64  89
ATOM     89  C   UNL A   1      47.071  32.421  28.538  1.00  0.00     0.058 A 
ATOM     90  C   UNL A   1      47.187  33.389  27.529  1.00  0.00     0.135 A 
ATOM     91  C   UNL A   1      47.517  32.758  29.826  1.00  0.00     0.135 A 
ATOM     92  F   UNL A   1      46.782  33.113  26.279  1.00  0.00    -0.206 F 
ATOM     93  C   UNL A   1      47.745  34.638  27.781  1.00  0.00     0.059 A 
ATOM     94  C   UNL A   1      48.055  34.009  30.108  1.00  0.00     0.059 A 
ATOM     95  F   UNL A   1      47.420  31.871  30.829  1.00  0.00    -0.206 F 
ATOM     96  C   UNL A   1      48.176  34.939  29.075  1.00  0.00     0.060 A 
BRANCH  96  97
ATOM     97  S   UNL A   1      48.868  36.574  29.399  1.00  0.00     0.124 S 
ATOM     98  O   UNL A   1      49.208  36.475  30.814  1.00  0.00    -0.237 OA
ATOM     99  O   UNL A   1      49.999  36.625  28.478  1.00  0.00    -0.237 OA
ATOM    100  O   UNL A   1      47.768  37.479  29.080  1.00  0.00    -0.744 OA
ENDBRANCH  96  97
ENDBRANCH  64  89
ENDBRANCH  38  39
ENDBRANCH  30  33
ENDBRANCH  28  29
ENDBRANCH   1  28
TORSDOF 17
ENDMDL
