MODEL 1
REMARK VINA RESULT:     -12.8      0.000      0.000
REMARK SMILES CCc1nc(-c2cccnc2)nc(Oc2ccc(C(=O)NCCCNC(=O)c3ccc(-c4c5nc(c(-c6c(F)cc(S(=O)(=O)[O-])cc6F)c6ccc([nH]6)c(-c6c(F)cc(S(=O)(=O)[O-])cc6F)c6nc(c(-c7c(F)cc(S(=O)(=O)[O-])cc7F)c7ccc4[nH]7)C=C6)C=C5)cc3)cc2)c1C
REMARK SMILES IDX 23 1 22 2 21 3 19 4 20 5 18 7 15 8 16 9 95 10 17 11 94 12
REMARK SMILES IDX 14 13 13 14 3 15 4 16 96 17 5 18 97 19 12 20 2 21 1 22 6 23
REMARK SMILES IDX 7 24 11 25 8 26 10 27 9 28 24 29 25 30 26 31 27 33 28 34
REMARK SMILES IDX 29 35 93 36 30 37 92 38 31 39 32 40 33 41 86 42 34 43 91 44
REMARK SMILES IDX 85 45 87 46 35 47 90 48 84 49 83 50 36 52 70 53 49 54 69 55
REMARK SMILES IDX 50 56 53 57 68 58 88 59 51 60 52 61 67 63 89 64 54 65 37 66
REMARK SMILES IDX 38 67 47 68 39 69 40 70 46 71 48 72 41 73 42 74 43 75 44 76
REMARK SMILES IDX 45 77 71 78 72 79 81 80 73 81 74 82 80 83 82 84 75 85 76 86
REMARK SMILES IDX 77 87 78 88 79 89 55 90 56 91 65 92 57 93 58 94 64 95 66 96
REMARK SMILES IDX 59 97 60 98 61 99 62 100 63 101
REMARK H PARENT 21 6 25 32 87 51 53 62
REMARK Flexibility Score: inf
ROOT
ATOM      1  C   UNL A   1      37.934  22.785  26.179  1.00  0.00     0.042 C 
ENDROOT
BRANCH   1   2
ATOM      2  C   UNL A   1      36.479  23.016  25.777  1.00  0.00     0.118 C 
BRANCH   2   3
ATOM      3  N   UNL A   1      35.870  21.789  25.294  1.00  0.00    -0.352 N 
ATOM      4  C   UNL A   1      34.562  21.388  25.192  1.00  0.00     0.251 C 
ATOM      5  O   UNL A   1      34.331  20.289  24.687  1.00  0.00    -0.269 OA
ATOM      6  H   UNL A   1      36.518  21.119  24.980  1.00  0.00     0.163 HD
BRANCH   4   7
ATOM      7  C   UNL A   1      33.424  22.267  25.563  1.00  0.00     0.040 A 
ATOM      8  C   UNL A   1      31.546  24.238  26.162  1.00  0.00     0.129 A 
ATOM      9  C   UNL A   1      31.952  24.054  24.841  1.00  0.00     0.048 A 
ATOM     10  C   UNL A   1      31.928  23.333  27.150  1.00  0.00     0.048 A 
ATOM     11  C   UNL A   1      32.908  23.084  24.547  1.00  0.00     0.017 A 
ATOM     12  C   UNL A   1      32.861  22.338  26.843  1.00  0.00     0.017 A 
BRANCH   8  13
ATOM     13  O   UNL A   1      30.768  25.331  26.425  1.00  0.00    -0.439 OA
BRANCH  13  14
ATOM     14  C   UNL A   1      30.987  26.519  25.756  1.00  0.00     0.226 A 
ATOM     15  C   UNL A   1      30.695  28.260  24.189  1.00  0.00     0.051 A 
ATOM     16  N   UNL A   1      31.623  28.995  24.829  1.00  0.00    -0.233 NA
ATOM     17  C   UNL A   1      30.258  27.025  24.673  1.00  0.00     0.033 A 
ATOM     18  C   UNL A   1      32.214  28.452  25.899  1.00  0.00     0.165 A 
ATOM     19  C   UNL A   1      29.089  26.352  24.019  1.00  0.00     0.052 C 
ATOM     20  N   UNL A   1      31.963  27.226  26.368  1.00  0.00    -0.193 NA
BRANCH  15  21
ATOM     21  C   UNL A   1      30.104  28.894  22.945  1.00  0.00     0.053 C 
ATOM     22  C   UNL A   1      29.255  30.131  23.218  1.00  0.00     0.011 C 
ENDBRANCH  15  21
BRANCH  18  23
ATOM     23  C   UNL A   1      33.169  29.289  26.611  1.00  0.00     0.038 A 
ATOM     24  C   UNL A   1      34.458  28.856  26.940  1.00  0.00     0.015 A 
ATOM     25  C   UNL A   1      32.841  30.595  26.976  1.00  0.00     0.123 A 
ATOM     26  C   UNL A   1      35.345  29.722  27.578  1.00  0.00     0.021 A 
ATOM     27  N   UNL A   1      33.672  31.458  27.615  1.00  0.00    -0.264 NA
ATOM     28  C   UNL A   1      34.909  30.998  27.894  1.00  0.00     0.111 A 
ENDBRANCH  18  23
ENDBRANCH  13  14
ENDBRANCH   8  13
ENDBRANCH   4   7
ENDBRANCH   2   3
ENDBRANCH   1   2
BRANCH   1  29
ATOM     29  C   UNL A   1      38.697  24.078  26.463  1.00  0.00     0.118 C 
BRANCH  29  30
ATOM     30  N   UNL A   1      40.106  23.969  26.119  1.00  0.00    -0.352 N 
ATOM     31  C   UNL A   1      41.162  24.777  26.464  1.00  0.00     0.251 C 
ATOM     32  H   UNL A   1      40.339  23.198  25.553  1.00  0.00     0.163 HD
ATOM     33  O   UNL A   1      42.238  24.631  25.891  1.00  0.00    -0.269 OA
BRANCH  31  34
ATOM     34  C   UNL A   1      41.011  25.823  27.501  1.00  0.00     0.039 A 
ATOM     35  C   UNL A   1      40.031  25.657  28.485  1.00  0.00     0.014 A 
ATOM     36  C   UNL A   1      41.791  26.984  27.486  1.00  0.00     0.014 A 
ATOM     37  C   UNL A   1      39.872  26.624  29.482  1.00  0.00     0.010 A 
ATOM     38  C   UNL A   1      41.676  27.914  28.518  1.00  0.00     0.010 A 
ATOM     39  C   UNL A   1      40.714  27.748  29.525  1.00  0.00    -0.014 A 
BRANCH  39  40
ATOM     40  C   UNL A   1      40.606  28.750  30.618  1.00  0.00     0.031 A 
ATOM     41  C   UNL A   1      41.457  28.622  31.854  1.00  0.00     0.074 A 
ATOM     42  C   UNL A   1      39.691  29.735  30.528  1.00  0.00     0.049 A 
ATOM     43  N   UNL A   1      41.447  29.349  32.941  1.00  0.00    -0.248 NA
ATOM     44  C   UNL A   1      42.426  27.514  31.885  1.00  0.00     0.031 C 
ATOM     45  C   UNL A   1      38.768  29.933  29.406  1.00  0.00     0.029 A 
ATOM     46  N   UNL A   1      39.367  30.745  31.401  1.00  0.00    -0.354 N 
ATOM     47  C   UNL A   1      42.383  28.776  33.793  1.00  0.00     0.074 A 
ATOM     48  C   UNL A   1      42.921  27.619  33.111  1.00  0.00     0.031 C 
ATOM     49  C   UNL A   1      37.991  31.000  29.657  1.00  0.00     0.029 A 
ATOM     50  C   UNL A   1      38.333  31.541  30.968  1.00  0.00     0.049 A 
ATOM     51  H   UNL A   1      39.833  30.885  32.257  1.00  0.00     0.167 HD
ATOM     52  C   UNL A   1      42.769  29.186  35.026  1.00  0.00     0.037 A 
ATOM     53  C   UNL A   1      37.718  32.581  31.565  1.00  0.00     0.037 A 
ATOM     54  C   UNL A   1      42.264  30.365  35.680  1.00  0.00     0.049 A 
ATOM     55  C   UNL A   1      38.189  33.033  32.920  1.00  0.00     0.074 A 
ATOM     56  C   UNL A   1      42.663  30.915  36.886  1.00  0.00     0.029 A 
ATOM     57  N   UNL A   1      41.249  31.172  35.189  1.00  0.00    -0.354 N 
ATOM     58  N   UNL A   1      39.139  32.530  33.672  1.00  0.00    -0.248 NA
ATOM     59  C   UNL A   1      37.512  34.199  33.506  1.00  0.00     0.031 C 
ATOM     60  C   UNL A   1      41.859  32.030  37.145  1.00  0.00     0.029 A 
ATOM     61  C   UNL A   1      40.992  32.201  36.079  1.00  0.00     0.049 A 
ATOM     62  H   UNL A   1      40.781  31.033  34.334  1.00  0.00     0.167 HD
ATOM     63  C   UNL A   1      39.191  33.334  34.806  1.00  0.00     0.074 A 
ATOM     64  C   UNL A   1      38.187  34.363  34.636  1.00  0.00     0.031 C 
ATOM     65  C   UNL A   1      39.997  33.227  35.890  1.00  0.00     0.037 A 
BRANCH  52  66
ATOM     66  C   UNL A   1      43.793  28.362  35.757  1.00  0.00     0.058 A 
ATOM     67  C   UNL A   1      45.170  28.604  35.622  1.00  0.00     0.135 A 
ATOM     68  C   UNL A   1      43.390  27.367  36.661  1.00  0.00     0.135 A 
ATOM     69  F   UNL A   1      45.612  29.533  34.761  1.00  0.00    -0.206 F 
ATOM     70  C   UNL A   1      46.110  27.876  36.346  1.00  0.00     0.059 A 
ATOM     71  C   UNL A   1      44.311  26.645  37.415  1.00  0.00     0.059 A 
ATOM     72  F   UNL A   1      42.085  27.094  36.829  1.00  0.00    -0.206 F 
ATOM     73  C   UNL A   1      45.670  26.901  37.243  1.00  0.00     0.060 A 
BRANCH  73  74
ATOM     74  S   UNL A   1      46.902  25.990  38.198  1.00  0.00     0.124 S 
ATOM     75  O   UNL A   1      46.637  26.471  39.551  1.00  0.00    -0.237 OA
ATOM     76  O   UNL A   1      46.534  24.602  37.937  1.00  0.00    -0.237 OA
ATOM     77  O   UNL A   1      48.169  26.419  37.616  1.00  0.00    -0.744 OA
ENDBRANCH  73  74
ENDBRANCH  52  66
BRANCH  53  78
ATOM     78  C   UNL A   1      36.588  33.271  30.886  1.00  0.00     0.058 A 
ATOM     79  C   UNL A   1      36.811  34.116  29.788  1.00  0.00     0.135 A 
ATOM     80  C   UNL A   1      35.265  33.104  31.324  1.00  0.00     0.135 A 
ATOM     81  F   UNL A   1      38.058  34.310  29.335  1.00  0.00    -0.206 F 
ATOM     82  C   UNL A   1      35.767  34.796  29.168  1.00  0.00     0.059 A 
ATOM     83  C   UNL A   1      34.202  33.751  30.704  1.00  0.00     0.059 A 
ATOM     84  F   UNL A   1      34.996  32.291  32.357  1.00  0.00    -0.206 F 
ATOM     85  C   UNL A   1      34.465  34.608  29.635  1.00  0.00     0.060 A 
BRANCH  85  86
ATOM     86  S   UNL A   1      33.112  35.471  28.806  1.00  0.00     0.124 S 
ATOM     87  O   UNL A   1      33.837  36.449  28.005  1.00  0.00    -0.237 OA
ATOM     88  O   UNL A   1      32.465  34.392  28.067  1.00  0.00    -0.237 OA
ATOM     89  O   UNL A   1      32.334  36.013  29.915  1.00  0.00    -0.744 OA
ENDBRANCH  85  86
ENDBRANCH  53  78
BRANCH  65  90
ATOM     90  C   UNL A   1      39.856  34.270  36.964  1.00  0.00     0.058 A 
ATOM     91  C   UNL A   1      40.480  35.523  36.862  1.00  0.00     0.135 A 
ATOM     92  C   UNL A   1      39.045  34.029  38.084  1.00  0.00     0.135 A 
ATOM     93  F   UNL A   1      41.272  35.800  35.814  1.00  0.00    -0.206 F 
ATOM     94  C   UNL A   1      40.322  36.494  37.844  1.00  0.00     0.059 A 
ATOM     95  C   UNL A   1      38.851  34.996  39.065  1.00  0.00     0.059 A 
ATOM     96  F   UNL A   1      38.417  32.851  38.224  1.00  0.00    -0.206 F 
ATOM     97  C   UNL A   1      39.503  36.222  38.942  1.00  0.00     0.060 A 
BRANCH  97  98
ATOM     98  S   UNL A   1      39.278  37.503  40.194  1.00  0.00     0.124 S 
ATOM     99  O   UNL A   1      38.249  38.335  39.581  1.00  0.00    -0.237 OA
ATOM    100  O   UNL A   1      38.858  36.732  41.360  1.00  0.00    -0.237 OA
ATOM    101  O   UNL A   1      40.600  38.113  40.298  1.00  0.00    -0.744 OA
ENDBRANCH  97  98
ENDBRANCH  65  90
ENDBRANCH  39  40
ENDBRANCH  31  34
ENDBRANCH  29  30
ENDBRANCH   1  29
TORSDOF 17
ENDMDL
MODEL 2
REMARK VINA RESULT:     -12.3      6.509     12.369
REMARK SMILES CCc1nc(-c2cccnc2)nc(Oc2ccc(C(=O)NCCCNC(=O)c3ccc(-c4c5nc(c(-c6c(F)cc(S(=O)(=O)[O-])cc6F)c6ccc([nH]6)c(-c6c(F)cc(S(=O)(=O)[O-])cc6F)c6nc(c(-c7c(F)cc(S(=O)(=O)[O-])cc7F)c7ccc4[nH]7)C=C6)C=C5)cc3)cc2)c1C
REMARK SMILES IDX 23 1 22 2 21 3 19 4 20 5 18 7 15 8 16 9 95 10 17 11 94 12
REMARK SMILES IDX 14 13 13 14 3 15 4 16 96 17 5 18 97 19 12 20 2 21 1 22 6 23
REMARK SMILES IDX 7 24 11 25 8 26 10 27 9 28 24 29 25 30 26 31 27 33 28 34
REMARK SMILES IDX 29 35 93 36 30 37 92 38 31 39 32 40 33 41 86 42 34 43 91 44
REMARK SMILES IDX 85 45 87 46 35 47 90 48 84 49 83 50 36 52 70 53 49 54 69 55
REMARK SMILES IDX 50 56 53 57 68 58 88 59 51 60 52 61 67 63 89 64 54 65 37 66
REMARK SMILES IDX 38 67 47 68 39 69 40 70 46 71 48 72 41 73 42 74 43 75 44 76
REMARK SMILES IDX 45 77 71 78 72 79 81 80 73 81 74 82 80 83 82 84 75 85 76 86
REMARK SMILES IDX 77 87 78 88 79 89 55 90 56 91 65 92 57 93 58 94 64 95 66 96
REMARK SMILES IDX 59 97 60 98 61 99 62 100 63 101
REMARK H PARENT 21 6 25 32 87 51 53 62
REMARK Flexibility Score: inf
ROOT
ATOM      1  C   UNL A   1      33.799  28.939  27.168  1.00  0.00     0.042 C 
ENDROOT
BRANCH   1   2
ATOM      2  C   UNL A   1      33.726  28.500  25.708  1.00  0.00     0.118 C 
BRANCH   2   3
ATOM      3  N   UNL A   1      32.507  28.981  25.079  1.00  0.00    -0.352 N 
ATOM      4  C   UNL A   1      31.406  28.328  24.587  1.00  0.00     0.251 C 
ATOM      5  O   UNL A   1      30.480  29.008  24.145  1.00  0.00    -0.269 OA
ATOM      6  H   UNL A   1      32.463  29.959  24.991  1.00  0.00     0.163 HD
BRANCH   4   7
ATOM      7  C   UNL A   1      31.247  26.854  24.668  1.00  0.00     0.040 A 
ATOM      8  C   UNL A   1      31.261  24.100  25.103  1.00  0.00     0.129 A 
ATOM      9  C   UNL A   1      30.853  24.956  26.126  1.00  0.00     0.048 A 
ATOM     10  C   UNL A   1      31.483  24.591  23.819  1.00  0.00     0.048 A 
ATOM     11  C   UNL A   1      30.869  26.333  25.914  1.00  0.00     0.017 A 
ATOM     12  C   UNL A   1      31.463  25.973  23.601  1.00  0.00     0.017 A 
BRANCH   8  13
ATOM     13  O   UNL A   1      31.424  22.782  25.427  1.00  0.00    -0.439 OA
BRANCH  13  14
ATOM     14  C   UNL A   1      32.664  22.185  25.311  1.00  0.00     0.226 A 
ATOM     15  C   UNL A   1      35.011  21.934  25.367  1.00  0.00     0.051 A 
ATOM     16  N   UNL A   1      34.877  20.614  25.145  1.00  0.00    -0.233 NA
ATOM     17  C   UNL A   1      33.910  22.773  25.559  1.00  0.00     0.033 A 
ATOM     18  C   UNL A   1      33.638  20.133  24.992  1.00  0.00     0.165 A 
ATOM     19  C   UNL A   1      34.134  24.190  25.994  1.00  0.00     0.052 C 
ATOM     20  N   UNL A   1      32.525  20.872  25.026  1.00  0.00    -0.193 NA
BRANCH  15  21
ATOM     21  C   UNL A   1      36.437  22.439  25.467  1.00  0.00     0.053 C 
ATOM     22  C   UNL A   1      37.488  21.436  25.001  1.00  0.00     0.011 C 
ENDBRANCH  15  21
BRANCH  18  23
ATOM     23  C   UNL A   1      33.515  18.693  24.813  1.00  0.00     0.038 A 
ATOM     24  C   UNL A   1      34.378  17.955  23.996  1.00  0.00     0.015 A 
ATOM     25  C   UNL A   1      32.528  17.972  25.486  1.00  0.00     0.123 A 
ATOM     26  C   UNL A   1      34.240  16.570  23.905  1.00  0.00     0.021 A 
ATOM     27  N   UNL A   1      32.353  16.628  25.405  1.00  0.00    -0.264 NA
ATOM     28  C   UNL A   1      33.222  15.960  24.619  1.00  0.00     0.111 A 
ENDBRANCH  18  23
ENDBRANCH  13  14
ENDBRANCH   8  13
ENDBRANCH   4   7
ENDBRANCH   2   3
ENDBRANCH   1   2
BRANCH   1  29
ATOM     29  C   UNL A   1      35.208  29.328  27.614  1.00  0.00     0.118 C 
BRANCH  29  30
ATOM     30  N   UNL A   1      35.197  30.121  28.834  1.00  0.00    -0.352 N 
ATOM     31  C   UNL A   1      36.213  30.390  29.719  1.00  0.00     0.251 C 
ATOM     32  H   UNL A   1      34.329  30.526  29.061  1.00  0.00     0.163 HD
ATOM     33  O   UNL A   1      35.942  30.902  30.801  1.00  0.00    -0.269 OA
BRANCH  31  34
ATOM     34  C   UNL A   1      37.617  30.056  29.388  1.00  0.00     0.039 A 
ATOM     35  C   UNL A   1      38.517  29.824  30.433  1.00  0.00     0.014 A 
ATOM     36  C   UNL A   1      38.065  30.015  28.064  1.00  0.00     0.014 A 
ATOM     37  C   UNL A   1      39.846  29.497  30.150  1.00  0.00     0.010 A 
ATOM     38  C   UNL A   1      39.374  29.624  27.782  1.00  0.00     0.010 A 
ATOM     39  C   UNL A   1      40.280  29.365  28.821  1.00  0.00    -0.014 A 
BRANCH  39  40
ATOM     40  C   UNL A   1      41.671  28.949  28.502  1.00  0.00     0.031 A 
ATOM     41  C   UNL A   1      42.775  29.972  28.437  1.00  0.00     0.074 A 
ATOM     42  C   UNL A   1      41.926  27.661  28.198  1.00  0.00     0.049 A 
ATOM     43  N   UNL A   1      44.028  29.813  28.098  1.00  0.00    -0.248 NA
ATOM     44  C   UNL A   1      42.417  31.361  28.771  1.00  0.00     0.031 C 
ATOM     45  C   UNL A   1      40.931  26.585  28.170  1.00  0.00     0.029 A 
ATOM     46  N   UNL A   1      43.095  27.038  27.835  1.00  0.00    -0.354 N 
ATOM     47  C   UNL A   1      44.602  31.078  28.151  1.00  0.00     0.074 A 
ATOM     48  C   UNL A   1      43.552  32.001  28.524  1.00  0.00     0.031 C 
ATOM     49  C   UNL A   1      41.533  25.438  27.817  1.00  0.00     0.029 A 
ATOM     50  C   UNL A   1      42.945  25.698  27.559  1.00  0.00     0.049 A 
ATOM     51  H   UNL A   1      43.959  27.506  27.777  1.00  0.00     0.167 HD
ATOM     52  C   UNL A   1      45.889  31.434  27.924  1.00  0.00     0.037 A 
ATOM     53  C   UNL A   1      43.841  24.785  27.133  1.00  0.00     0.037 A 
ATOM     54  C   UNL A   1      46.939  30.503  27.600  1.00  0.00     0.049 A 
ATOM     55  C   UNL A   1      45.270  25.203  26.919  1.00  0.00     0.074 A 
ATOM     56  C   UNL A   1      48.292  30.755  27.447  1.00  0.00     0.029 A 
ATOM     57  N   UNL A   1      46.757  29.148  27.375  1.00  0.00    -0.354 N 
ATOM     58  N   UNL A   1      45.811  26.389  27.061  1.00  0.00    -0.248 NA
ATOM     59  C   UNL A   1      46.214  24.158  26.496  1.00  0.00     0.031 C 
ATOM     60  C   UNL A   1      48.921  29.559  27.085  1.00  0.00     0.029 A 
ATOM     61  C   UNL A   1      47.968  28.554  27.060  1.00  0.00     0.049 A 
ATOM     62  H   UNL A   1      45.894  28.677  27.430  1.00  0.00     0.167 HD
ATOM     63  C   UNL A   1      47.162  26.227  26.771  1.00  0.00     0.074 A 
ATOM     64  C   UNL A   1      47.358  24.827  26.459  1.00  0.00     0.031 C 
ATOM     65  C   UNL A   1      48.150  27.156  26.763  1.00  0.00     0.037 A 
BRANCH  52  66
ATOM     66  C   UNL A   1      46.248  32.891  28.021  1.00  0.00     0.058 A 
ATOM     67  C   UNL A   1      46.792  33.443  29.192  1.00  0.00     0.135 A 
ATOM     68  C   UNL A   1      46.116  33.731  26.903  1.00  0.00     0.135 A 
ATOM     69  F   UNL A   1      46.927  32.690  30.294  1.00  0.00    -0.206 F 
ATOM     70  C   UNL A   1      47.176  34.779  29.256  1.00  0.00     0.059 A 
ATOM     71  C   UNL A   1      46.518  35.063  26.936  1.00  0.00     0.059 A 
ATOM     72  F   UNL A   1      45.601  33.255  25.757  1.00  0.00    -0.206 F 
ATOM     73  C   UNL A   1      47.039  35.580  28.121  1.00  0.00     0.060 A 
BRANCH  73  74
ATOM     74  S   UNL A   1      47.573  37.303  28.212  1.00  0.00     0.124 S 
ATOM     75  O   UNL A   1      48.897  37.230  27.603  1.00  0.00    -0.237 OA
ATOM     76  O   UNL A   1      46.552  37.988  27.425  1.00  0.00    -0.237 OA
ATOM     77  O   UNL A   1      47.554  37.589  29.643  1.00  0.00    -0.744 OA
ENDBRANCH  73  74
ENDBRANCH  52  66
BRANCH  53  78
ATOM     78  C   UNL A   1      43.414  23.383  26.880  1.00  0.00     0.058 A 
ATOM     79  C   UNL A   1      43.134  22.509  27.942  1.00  0.00     0.135 A 
ATOM     80  C   UNL A   1      43.286  22.886  25.574  1.00  0.00     0.135 A 
ATOM     81  F   UNL A   1      43.246  22.937  29.208  1.00  0.00    -0.206 F 
ATOM     82  C   UNL A   1      42.770  21.185  27.720  1.00  0.00     0.059 A 
ATOM     83  C   UNL A   1      42.898  21.574  25.325  1.00  0.00     0.059 A 
ATOM     84  F   UNL A   1      43.523  23.687  24.524  1.00  0.00    -0.206 F 
ATOM     85  C   UNL A   1      42.657  20.726  26.406  1.00  0.00     0.060 A 
BRANCH  85  86
ATOM     86  S   UNL A   1      42.156  19.013  26.125  1.00  0.00     0.124 S 
ATOM     87  O   UNL A   1      40.756  19.176  25.751  1.00  0.00    -0.237 OA
ATOM     88  O   UNL A   1      43.059  18.599  25.057  1.00  0.00    -0.237 OA
ATOM     89  O   UNL A   1      42.397  18.380  27.418  1.00  0.00    -0.744 OA
ENDBRANCH  85  86
ENDBRANCH  53  78
BRANCH  65  90
ATOM     90  C   UNL A   1      49.541  26.684  26.443  1.00  0.00     0.058 A 
ATOM     91  C   UNL A   1      50.356  26.078  27.411  1.00  0.00     0.135 A 
ATOM     92  C   UNL A   1      50.044  26.796  25.137  1.00  0.00     0.135 A 
ATOM     93  F   UNL A   1      49.924  25.953  28.676  1.00  0.00    -0.206 F 
ATOM     94  C   UNL A   1      51.631  25.617  27.100  1.00  0.00     0.059 A 
ATOM     95  C   UNL A   1      51.306  26.318  24.798  1.00  0.00     0.059 A 
ATOM     96  F   UNL A   1      49.301  27.359  24.171  1.00  0.00    -0.206 F 
ATOM     97  C   UNL A   1      52.096  25.740  25.790  1.00  0.00     0.060 A 
BRANCH  97  98
ATOM     98  S   UNL A   1      53.740  25.108  25.391  1.00  0.00     0.124 S 
ATOM     99  O   UNL A   1      54.530  25.619  26.506  1.00  0.00    -0.237 OA
ATOM    100  O   UNL A   1      53.525  23.664  25.375  1.00  0.00    -0.237 OA
ATOM    101  O   UNL A   1      54.028  25.706  24.090  1.00  0.00    -0.744 OA
ENDBRANCH  97  98
ENDBRANCH  65  90
ENDBRANCH  39  40
ENDBRANCH  31  34
ENDBRANCH  29  30
ENDBRANCH   1  29
TORSDOF 17
ENDMDL
MODEL 3
REMARK VINA RESULT:     -12.3      4.726     10.753
REMARK SMILES CCc1nc(-c2cccnc2)nc(Oc2ccc(C(=O)NCCCNC(=O)c3ccc(-c4c5nc(c(-c6c(F)cc(S(=O)(=O)[O-])cc6F)c6ccc([nH]6)c(-c6c(F)cc(S(=O)(=O)[O-])cc6F)c6nc(c(-c7c(F)cc(S(=O)(=O)[O-])cc7F)c7ccc4[nH]7)C=C6)C=C5)cc3)cc2)c1C
REMARK SMILES IDX 23 1 22 2 21 3 19 4 20 5 18 7 15 8 16 9 95 10 17 11 94 12
REMARK SMILES IDX 14 13 13 14 3 15 4 16 96 17 5 18 97 19 12 20 2 21 1 22 6 23
REMARK SMILES IDX 7 24 11 25 8 26 10 27 9 28 24 29 25 30 26 31 27 33 28 34
REMARK SMILES IDX 29 35 93 36 30 37 92 38 31 39 32 40 33 41 86 42 34 43 91 44
REMARK SMILES IDX 85 45 87 46 35 47 90 48 84 49 83 50 36 52 70 53 49 54 69 55
REMARK SMILES IDX 50 56 53 57 68 58 88 59 51 60 52 61 67 63 89 64 54 65 37 66
REMARK SMILES IDX 38 67 47 68 39 69 40 70 46 71 48 72 41 73 42 74 43 75 44 76
REMARK SMILES IDX 45 77 71 78 72 79 81 80 73 81 74 82 80 83 82 84 75 85 76 86
REMARK SMILES IDX 77 87 78 88 79 89 55 90 56 91 65 92 57 93 58 94 64 95 66 96
REMARK SMILES IDX 59 97 60 98 61 99 62 100 63 101
REMARK H PARENT 21 6 25 32 87 51 53 62
REMARK Flexibility Score: inf
ROOT
ATOM      1  C   UNL A   1      32.953  28.354  25.244  1.00  0.00     0.042 C 
ENDROOT
BRANCH   1   2
ATOM      2  C   UNL A   1      33.314  28.666  23.794  1.00  0.00     0.118 C 
BRANCH   2   3
ATOM      3  N   UNL A   1      32.122  28.926  23.004  1.00  0.00    -0.352 N 
ATOM      4  C   UNL A   1      31.077  28.124  22.622  1.00  0.00     0.251 C 
ATOM      5  O   UNL A   1      30.158  28.635  21.982  1.00  0.00    -0.269 OA
ATOM      6  H   UNL A   1      32.051  29.853  22.683  1.00  0.00     0.163 HD
BRANCH   4   7
ATOM      7  C   UNL A   1      30.963  26.704  23.044  1.00  0.00     0.040 A 
ATOM      8  C   UNL A   1      30.953  24.160  24.184  1.00  0.00     0.129 A 
ATOM      9  C   UNL A   1      30.202  25.179  24.770  1.00  0.00     0.048 A 
ATOM     10  C   UNL A   1      31.555  24.352  22.942  1.00  0.00     0.048 A 
ATOM     11  C   UNL A   1      30.227  26.455  24.212  1.00  0.00     0.017 A 
ATOM     12  C   UNL A   1      31.548  25.627  22.367  1.00  0.00     0.017 A 
BRANCH   8  13
ATOM     13  O   UNL A   1      31.060  22.989  24.881  1.00  0.00    -0.439 OA
BRANCH  13  14
ATOM     14  C   UNL A   1      32.292  22.389  25.050  1.00  0.00     0.226 A 
ATOM     15  C   UNL A   1      34.566  22.133  25.632  1.00  0.00     0.051 A 
ATOM     16  N   UNL A   1      34.480  20.811  25.393  1.00  0.00    -0.233 NA
ATOM     17  C   UNL A   1      33.453  22.976  25.567  1.00  0.00     0.033 A 
ATOM     18  C   UNL A   1      33.305  20.332  24.970  1.00  0.00     0.165 A 
ATOM     19  C   UNL A   1      33.580  24.396  26.031  1.00  0.00     0.052 C 
ATOM     20  N   UNL A   1      32.215  21.074  24.750  1.00  0.00    -0.193 NA
BRANCH  15  21
ATOM     21  C   UNL A   1      35.935  22.635  26.044  1.00  0.00     0.053 C 
ATOM     22  C   UNL A   1      36.857  22.966  24.875  1.00  0.00     0.011 C 
ENDBRANCH  15  21
BRANCH  18  23
ATOM     23  C   UNL A   1      33.219  18.891  24.778  1.00  0.00     0.038 A 
ATOM     24  C   UNL A   1      33.665  18.255  23.615  1.00  0.00     0.015 A 
ATOM     25  C   UNL A   1      32.705  18.067  25.780  1.00  0.00     0.123 A 
ATOM     26  C   UNL A   1      33.603  16.865  23.511  1.00  0.00     0.021 A 
ATOM     27  N   UNL A   1      32.612  16.714  25.703  1.00  0.00    -0.264 NA
ATOM     28  C   UNL A   1      33.071  16.147  24.569  1.00  0.00     0.111 A 
ENDBRANCH  18  23
ENDBRANCH  13  14
ENDBRANCH   8  13
ENDBRANCH   4   7
ENDBRANCH   2   3
ENDBRANCH   1   2
BRANCH   1  29
ATOM     29  C   UNL A   1      34.061  28.708  26.234  1.00  0.00     0.118 C 
BRANCH  29  30
ATOM     30  N   UNL A   1      33.806  29.967  26.916  1.00  0.00    -0.352 N 
ATOM     31  C   UNL A   1      34.541  30.612  27.880  1.00  0.00     0.251 C 
ATOM     32  H   UNL A   1      32.979  30.428  26.646  1.00  0.00     0.163 HD
ATOM     33  O   UNL A   1      34.040  31.557  28.482  1.00  0.00    -0.269 OA
BRANCH  31  34
ATOM     34  C   UNL A   1      35.916  30.169  28.209  1.00  0.00     0.039 A 
ATOM     35  C   UNL A   1      36.896  30.226  27.213  1.00  0.00     0.014 A 
ATOM     36  C   UNL A   1      36.237  29.659  29.471  1.00  0.00     0.014 A 
ATOM     37  C   UNL A   1      38.205  29.825  27.498  1.00  0.00     0.010 A 
ATOM     38  C   UNL A   1      37.556  29.321  29.772  1.00  0.00     0.010 A 
ATOM     39  C   UNL A   1      38.554  29.397  28.789  1.00  0.00    -0.014 A 
BRANCH  39  40
ATOM     40  C   UNL A   1      39.955  29.033  29.128  1.00  0.00     0.031 A 
ATOM     41  C   UNL A   1      40.878  30.053  29.742  1.00  0.00     0.074 A 
ATOM     42  C   UNL A   1      40.417  27.806  28.817  1.00  0.00     0.049 A 
ATOM     43  N   UNL A   1      42.149  29.946  30.032  1.00  0.00    -0.248 NA
ATOM     44  C   UNL A   1      40.305  31.376  30.043  1.00  0.00     0.031 C 
ATOM     45  C   UNL A   1      39.637  26.748  28.169  1.00  0.00     0.029 A 
ATOM     46  N   UNL A   1      41.659  27.244  28.984  1.00  0.00    -0.354 N 
ATOM     47  C   UNL A   1      42.534  31.188  30.523  1.00  0.00     0.074 A 
ATOM     48  C   UNL A   1      41.370  32.045  30.462  1.00  0.00     0.031 C 
ATOM     49  C   UNL A   1      40.415  25.666  28.001  1.00  0.00     0.029 A 
ATOM     50  C   UNL A   1      41.756  25.962  28.494  1.00  0.00     0.049 A 
ATOM     51  H   UNL A   1      42.409  27.715  29.414  1.00  0.00     0.167 HD
ATOM     52  C   UNL A   1      43.744  31.574  30.996  1.00  0.00     0.037 A 
ATOM     53  C   UNL A   1      42.810  25.123  28.436  1.00  0.00     0.037 A 
ATOM     54  C   UNL A   1      44.886  30.702  31.098  1.00  0.00     0.049 A 
ATOM     55  C   UNL A   1      44.133  25.568  28.997  1.00  0.00     0.074 A 
ATOM     56  C   UNL A   1      46.125  30.972  31.652  1.00  0.00     0.029 A 
ATOM     57  N   UNL A   1      44.932  29.396  30.635  1.00  0.00    -0.354 N 
ATOM     58  N   UNL A   1      44.453  26.718  29.539  1.00  0.00    -0.248 NA
ATOM     59  C   UNL A   1      45.237  24.598  28.947  1.00  0.00     0.031 C 
ATOM     60  C   UNL A   1      46.935  29.845  31.484  1.00  0.00     0.029 A 
ATOM     61  C   UNL A   1      46.186  28.856  30.868  1.00  0.00     0.049 A 
ATOM     62  H   UNL A   1      44.184  28.923  30.204  1.00  0.00     0.167 HD
ATOM     63  C   UNL A   1      45.786  26.601  29.919  1.00  0.00     0.074 A 
ATOM     64  C   UNL A   1      46.208  25.264  29.557  1.00  0.00     0.031 C 
ATOM     65  C   UNL A   1      46.588  27.519  30.513  1.00  0.00     0.037 A 
BRANCH  52  66
ATOM     66  C   UNL A   1      43.907  32.999  31.447  1.00  0.00     0.058 A 
ATOM     67  C   UNL A   1      44.326  34.010  30.568  1.00  0.00     0.135 A 
ATOM     68  C   UNL A   1      43.568  33.371  32.758  1.00  0.00     0.135 A 
ATOM     69  F   UNL A   1      44.676  33.708  29.308  1.00  0.00    -0.206 F 
ATOM     70  C   UNL A   1      44.418  35.337  30.977  1.00  0.00     0.059 A 
ATOM     71  C   UNL A   1      43.628  34.696  33.182  1.00  0.00     0.059 A 
ATOM     72  F   UNL A   1      43.161  32.444  33.640  1.00  0.00    -0.206 F 
ATOM     73  C   UNL A   1      44.063  35.671  32.285  1.00  0.00     0.060 A 
BRANCH  73  74
ATOM     74  S   UNL A   1      44.158  37.402  32.789  1.00  0.00     0.124 S 
ATOM     75  O   UNL A   1      43.917  38.088  31.523  1.00  0.00    -0.237 OA
ATOM     76  O   UNL A   1      43.085  37.499  33.774  1.00  0.00    -0.237 OA
ATOM     77  O   UNL A   1      45.510  37.527  33.324  1.00  0.00    -0.744 OA
ENDBRANCH  73  74
ENDBRANCH  52  66
BRANCH  53  78
ATOM     78  C   UNL A   1      42.659  23.776  27.825  1.00  0.00     0.058 A 
ATOM     79  C   UNL A   1      42.391  22.648  28.615  1.00  0.00     0.135 A 
ATOM     80  C   UNL A   1      42.787  23.587  26.440  1.00  0.00     0.135 A 
ATOM     81  F   UNL A   1      42.264  22.777  29.945  1.00  0.00    -0.206 F 
ATOM     82  C   UNL A   1      42.284  21.377  28.060  1.00  0.00     0.059 A 
ATOM     83  C   UNL A   1      42.658  22.330  25.858  1.00  0.00     0.059 A 
ATOM     84  F   UNL A   1      43.023  24.636  25.637  1.00  0.00    -0.206 F 
ATOM     85  C   UNL A   1      42.421  21.229  26.679  1.00  0.00     0.060 A 
BRANCH  85  86
ATOM     86  S   UNL A   1      42.252  19.579  25.962  1.00  0.00     0.124 S 
ATOM     87  O   UNL A   1      42.732  18.737  27.051  1.00  0.00    -0.237 OA
ATOM     88  O   UNL A   1      40.823  19.509  25.681  1.00  0.00    -0.237 OA
ATOM     89  O   UNL A   1      43.111  19.639  24.783  1.00  0.00    -0.744 OA
ENDBRANCH  85  86
ENDBRANCH  53  78
BRANCH  65  90
ATOM     90  C   UNL A   1      47.994  27.100  30.844  1.00  0.00     0.058 A 
ATOM     91  C   UNL A   1      48.289  26.351  31.993  1.00  0.00     0.135 A 
ATOM     92  C   UNL A   1      49.050  27.411  29.973  1.00  0.00     0.135 A 
ATOM     93  F   UNL A   1      47.315  26.033  32.861  1.00  0.00    -0.206 F 
ATOM     94  C   UNL A   1      49.587  25.941  32.278  1.00  0.00     0.059 A 
ATOM     95  C   UNL A   1      50.351  26.989  30.225  1.00  0.00     0.059 A 
ATOM     96  F   UNL A   1      48.820  28.117  28.855  1.00  0.00    -0.206 F 
ATOM     97  C   UNL A   1      50.612  26.264  31.387  1.00  0.00     0.060 A 
BRANCH  97  98
ATOM     98  S   UNL A   1      52.287  25.698  31.750  1.00  0.00     0.124 S 
ATOM     99  O   UNL A   1      52.699  26.645  32.781  1.00  0.00    -0.237 OA
ATOM    100  O   UNL A   1      52.065  24.328  32.200  1.00  0.00    -0.237 OA
ATOM    101  O   UNL A   1      52.975  25.826  30.469  1.00  0.00    -0.744 OA
ENDBRANCH  97  98
ENDBRANCH  65  90
ENDBRANCH  39  40
ENDBRANCH  31  34
ENDBRANCH  29  30
ENDBRANCH   1  29
TORSDOF 17
ENDMDL
