MODEL 1
REMARK VINA RESULT:     -13.5      0.000      0.000
REMARK SMILES C[NH2+][C@@]1(C(=O)NCCCNC(=O)c2ccc(-c3c4nc(c(-c5c(F)cc(S(=O)(=O)[O-])cc5F)c5ccc([nH]5)c(-c5c(F)cc(S(=O)(=O)[O-])cc5F)c5nc(c(-c6c(F)cc(S(=O)(=O)[O-])cc6F)c6ccc3[nH]6)C=C5)C=C4)cc2)CC[C@H]([NH+]2CC[NH+](C)CC2)C1
REMARK SMILES IDX 9 1 8 2 7 3 6 4 4 5 5 6 3 8 79 9 89 10 80 11 81 12 2 13 1 14
REMARK SMILES IDX 82 17 83 18 88 19 84 21 87 22 85 23 86 24 10 26 11 27 12 29
REMARK SMILES IDX 13 30 14 31 78 32 15 33 77 34 16 35 17 36 18 37 71 38 19 39
REMARK SMILES IDX 76 40 70 41 72 42 20 43 75 44 69 45 68 46 21 48 55 49 34 50
REMARK SMILES IDX 54 51 35 52 38 53 53 54 73 55 36 56 37 57 52 59 74 60 39 61
REMARK SMILES IDX 22 62 23 63 32 64 24 65 25 66 31 67 33 68 26 69 27 70 28 71
REMARK SMILES IDX 29 72 30 73 56 74 57 75 66 76 58 77 59 78 65 79 67 80 60 81
REMARK SMILES IDX 61 82 62 83 63 84 64 85 40 86 41 87 50 88 42 89 43 90 49 91
REMARK SMILES IDX 51 92 44 93 45 94 46 95 47 96 48 97
REMARK H PARENT 6 7 2 15 2 16 82 20 85 25 10 28 72 47 38 58
REMARK Flexibility Score: inf
ROOT
ATOM      1  C   UNL A   1      35.476  29.886  28.087  1.00  0.00     0.118 C 
ENDROOT
BRANCH   1   2
ATOM      2  C   UNL A   1      34.035  30.305  27.340  1.00  0.00     0.042 C 
BRANCH   2   3
ATOM      3  C   UNL A   1      32.988  29.910  25.536  1.00  0.00     0.118 C 
BRANCH   3   4
ATOM      4  N   UNL A   1      33.468  29.426  24.083  1.00  0.00    -0.351 N 
ATOM      5  C   UNL A   1      32.984  28.800  22.982  1.00  0.00     0.281 C 
ATOM      6  O   UNL A   1      33.862  28.440  22.181  1.00  0.00    -0.268 OA
ATOM      7  H   UNL A   1      34.415  29.657  23.948  1.00  0.00     0.163 HD
BRANCH   5   8
ATOM      8  C   UNL A   1      31.480  28.504  22.703  1.00  0.00     0.181 C 
ATOM      9  C   UNL A   1      30.765  28.349  24.047  1.00  0.00     0.085 C 
ATOM     10  C   UNL A   1      31.283  27.176  21.954  1.00  0.00     0.144 C 
ATOM     11  C   UNL A   1      30.384  26.875  24.117  1.00  0.00     0.072 C 
ATOM     12  C   UNL A   1      31.232  26.119  23.054  1.00  0.00     0.191 C 
BRANCH   8  13
ATOM     13  N   UNL A   1      30.976  29.701  21.977  1.00  0.00    -0.336 N 
ATOM     14  C   UNL A   1      29.554  29.973  22.018  1.00  0.00     0.331 C 
ATOM     15  H   UNL A   1      31.451  30.515  22.366  1.00  0.00     0.346 HD
ATOM     16  H   UNL A   1      31.167  29.501  20.994  1.00  0.00     0.346 HD
ENDBRANCH   8  13
BRANCH  12  17
ATOM     17  N   UNL A   1      32.517  25.533  23.451  1.00  0.00    -0.323 N 
ATOM     18  C   UNL A   1      32.910  23.960  22.576  1.00  0.00     0.324 C 
ATOM     19  C   UNL A   1      33.217  25.806  25.163  1.00  0.00     0.324 C 
ATOM     20  H   UNL A   1      33.166  26.221  23.072  1.00  0.00     0.348 HD
ATOM     21  C   UNL A   1      33.565  22.421  23.587  1.00  0.00     0.324 C 
ATOM     22  C   UNL A   1      33.917  24.252  26.180  1.00  0.00     0.324 C 
ATOM     23  N   UNL A   1      34.230  22.655  25.289  1.00  0.00    -0.328 N 
ATOM     24  C   UNL A   1      34.038  21.461  26.106  1.00  0.00     0.333 C 
ATOM     25  H   UNL A   1      35.228  22.783  25.114  1.00  0.00     0.348 HD
ENDBRANCH  12  17
ENDBRANCH   5   8
ENDBRANCH   3   4
ENDBRANCH   2   3
ENDBRANCH   1   2
BRANCH   1  26
ATOM     26  N   UNL A   1      35.535  30.190  29.514  1.00  0.00    -0.352 N 
ATOM     27  C   UNL A   1      36.481  29.935  30.458  1.00  0.00     0.251 C 
ATOM     28  H   UNL A   1      34.745  30.668  29.857  1.00  0.00     0.163 HD
ATOM     29  O   UNL A   1      36.226  29.989  31.656  1.00  0.00    -0.269 OA
BRANCH  27  30
ATOM     30  C   UNL A   1      37.811  29.544  29.990  1.00  0.00     0.039 A 
ATOM     31  C   UNL A   1      38.175  29.839  28.676  1.00  0.00     0.014 A 
ATOM     32  C   UNL A   1      38.702  28.948  30.885  1.00  0.00     0.014 A 
ATOM     33  C   UNL A   1      39.465  29.548  28.259  1.00  0.00     0.010 A 
ATOM     34  C   UNL A   1      40.010  28.742  30.495  1.00  0.00     0.010 A 
ATOM     35  C   UNL A   1      40.386  29.008  29.170  1.00  0.00    -0.014 A 
BRANCH  35  36
ATOM     36  C   UNL A   1      41.740  28.621  28.737  1.00  0.00     0.031 A 
ATOM     37  C   UNL A   1      42.806  29.677  28.699  1.00  0.00     0.074 A 
ATOM     38  C   UNL A   1      41.969  27.359  28.336  1.00  0.00     0.049 A 
ATOM     39  N   UNL A   1      44.036  29.593  28.272  1.00  0.00    -0.248 NA
ATOM     40  C   UNL A   1      42.423  31.025  29.161  1.00  0.00     0.031 C 
ATOM     41  C   UNL A   1      40.969  26.289  28.293  1.00  0.00     0.029 A 
ATOM     42  N   UNL A   1      43.114  26.764  27.883  1.00  0.00    -0.354 N 
ATOM     43  C   UNL A   1      44.558  30.875  28.386  1.00  0.00     0.074 A 
ATOM     44  C   UNL A   1      43.498  31.734  28.856  1.00  0.00     0.031 C 
ATOM     45  C   UNL A   1      41.555  25.158  27.867  1.00  0.00     0.029 A 
ATOM     46  C   UNL A   1      42.957  25.433  27.576  1.00  0.00     0.049 A 
ATOM     47  H   UNL A   1      43.968  27.243  27.786  1.00  0.00     0.167 HD
ATOM     48  C   UNL A   1      45.824  31.287  28.148  1.00  0.00     0.037 A 
ATOM     49  C   UNL A   1      43.857  24.546  27.115  1.00  0.00     0.037 A 
ATOM     50  C   UNL A   1      46.870  30.393  27.733  1.00  0.00     0.049 A 
ATOM     51  C   UNL A   1      45.270  25.018  26.900  1.00  0.00     0.074 A 
ATOM     52  C   UNL A   1      48.209  30.667  27.524  1.00  0.00     0.029 A 
ATOM     53  N   UNL A   1      46.689  29.039  27.474  1.00  0.00    -0.354 N 
ATOM     54  N   UNL A   1      45.770  26.220  27.066  1.00  0.00    -0.248 NA
ATOM     55  C   UNL A   1      46.242  24.016  26.450  1.00  0.00     0.031 C 
ATOM     56  C   UNL A   1      48.829  29.486  27.103  1.00  0.00     0.029 A 
ATOM     57  C   UNL A   1      47.889  28.466  27.096  1.00  0.00     0.049 A 
ATOM     58  H   UNL A   1      45.833  28.560  27.548  1.00  0.00     0.167 HD
ATOM     59  C   UNL A   1      47.122  26.115  26.765  1.00  0.00     0.074 A 
ATOM     60  C   UNL A   1      47.360  24.727  26.421  1.00  0.00     0.031 C 
ATOM     61  C   UNL A   1      48.083  27.074  26.771  1.00  0.00     0.037 A 
BRANCH  48  62
ATOM     62  C   UNL A   1      46.132  32.746  28.342  1.00  0.00     0.058 A 
ATOM     63  C   UNL A   1      46.546  33.258  29.583  1.00  0.00     0.135 A 
ATOM     64  C   UNL A   1      46.010  33.648  27.273  1.00  0.00     0.135 A 
ATOM     65  F   UNL A   1      46.660  32.447  30.647  1.00  0.00    -0.206 F 
ATOM     66  C   UNL A   1      46.793  34.615  29.767  1.00  0.00     0.059 A 
ATOM     67  C   UNL A   1      46.283  35.004  27.426  1.00  0.00     0.059 A 
ATOM     68  F   UNL A   1      45.610  33.217  26.067  1.00  0.00    -0.206 F 
ATOM     69  C   UNL A   1      46.657  35.481  28.681  1.00  0.00     0.060 A 
BRANCH  69  70
ATOM     70  S   UNL A   1      46.987  37.238  28.935  1.00  0.00     0.124 S 
ATOM     71  O   UNL A   1      47.592  37.233  30.263  1.00  0.00    -0.237 OA
ATOM     72  O   UNL A   1      47.887  37.550  27.830  1.00  0.00    -0.237 OA
ATOM     73  O   UNL A   1      45.663  37.847  28.850  1.00  0.00    -0.744 OA
ENDBRANCH  69  70
ENDBRANCH  48  62
BRANCH  49  74
ATOM     74  C   UNL A   1      43.456  23.135  26.876  1.00  0.00     0.058 A 
ATOM     75  C   UNL A   1      43.380  22.618  25.574  1.00  0.00     0.135 A 
ATOM     76  C   UNL A   1      43.178  22.263  27.940  1.00  0.00     0.135 A 
ATOM     77  F   UNL A   1      43.639  23.410  24.522  1.00  0.00    -0.206 F 
ATOM     78  C   UNL A   1      43.023  21.295  25.333  1.00  0.00     0.059 A 
ATOM     79  C   UNL A   1      42.843  20.930  27.726  1.00  0.00     0.059 A 
ATOM     80  F   UNL A   1      43.260  22.700  29.206  1.00  0.00    -0.206 F 
ATOM     81  C   UNL A   1      42.759  20.457  26.417  1.00  0.00     0.060 A 
BRANCH  81  82
ATOM     82  S   UNL A   1      42.343  18.729  26.094  1.00  0.00     0.124 S 
ATOM     83  O   UNL A   1      42.583  18.121  27.397  1.00  0.00    -0.237 OA
ATOM     84  O   UNL A   1      40.947  18.823  25.679  1.00  0.00    -0.237 OA
ATOM     85  O   UNL A   1      43.278  18.350  25.038  1.00  0.00    -0.744 OA
ENDBRANCH  81  82
ENDBRANCH  49  74
BRANCH  61  86
ATOM     86  C   UNL A   1      49.478  26.642  26.429  1.00  0.00     0.058 A 
ATOM     87  C   UNL A   1      50.302  26.007  27.369  1.00  0.00     0.135 A 
ATOM     88  C   UNL A   1      49.969  26.810  25.124  1.00  0.00     0.135 A 
ATOM     89  F   UNL A   1      49.877  25.828  28.630  1.00  0.00    -0.206 F 
ATOM     90  C   UNL A   1      51.579  25.573  27.034  1.00  0.00     0.059 A 
ATOM     91  C   UNL A   1      51.232  26.358  24.760  1.00  0.00     0.059 A 
ATOM     92  F   UNL A   1      49.212  27.401  24.186  1.00  0.00    -0.206 F 
ATOM     93  C   UNL A   1      52.033  25.751  25.725  1.00  0.00     0.060 A 
BRANCH  93  94
ATOM     94  S   UNL A   1      53.679  25.150  25.294  1.00  0.00     0.124 S 
ATOM     95  O   UNL A   1      54.497  25.767  26.333  1.00  0.00    -0.237 OA
ATOM     96  O   UNL A   1      53.518  23.702  25.390  1.00  0.00    -0.237 OA
ATOM     97  O   UNL A   1      53.884  25.663  23.943  1.00  0.00    -0.744 OA
ENDBRANCH  93  94
ENDBRANCH  61  86
ENDBRANCH  35  36
ENDBRANCH  27  30
ENDBRANCH   1  26
TORSDOF 15
ENDMDL
MODEL 2
REMARK VINA RESULT:     -13.2      6.732     12.399
REMARK SMILES C[NH2+][C@@]1(C(=O)NCCCNC(=O)c2ccc(-c3c4nc(c(-c5c(F)cc(S(=O)(=O)[O-])cc5F)c5ccc([nH]5)c(-c5c(F)cc(S(=O)(=O)[O-])cc5F)c5nc(c(-c6c(F)cc(S(=O)(=O)[O-])cc6F)c6ccc3[nH]6)C=C5)C=C4)cc2)CC[C@H]([NH+]2CC[NH+](C)CC2)C1
REMARK SMILES IDX 9 1 8 2 7 3 6 4 4 5 5 6 3 8 79 9 89 10 80 11 81 12 2 13 1 14
REMARK SMILES IDX 82 17 83 18 88 19 84 21 87 22 85 23 86 24 10 26 11 27 12 29
REMARK SMILES IDX 13 30 14 31 78 32 15 33 77 34 16 35 17 36 18 37 71 38 19 39
REMARK SMILES IDX 76 40 70 41 72 42 20 43 75 44 69 45 68 46 21 48 55 49 34 50
REMARK SMILES IDX 54 51 35 52 38 53 53 54 73 55 36 56 37 57 52 59 74 60 39 61
REMARK SMILES IDX 22 62 23 63 32 64 24 65 25 66 31 67 33 68 26 69 27 70 28 71
REMARK SMILES IDX 29 72 30 73 56 74 57 75 66 76 58 77 59 78 65 79 67 80 60 81
REMARK SMILES IDX 61 82 62 83 63 84 64 85 40 86 41 87 50 88 42 89 43 90 49 91
REMARK SMILES IDX 51 92 44 93 45 94 46 95 47 96 48 97
REMARK H PARENT 6 7 2 15 2 16 82 20 85 25 10 28 72 47 38 58
REMARK Flexibility Score: inf
ROOT
ATOM      1  C   UNL A   1      38.473  24.194  26.635  1.00  0.00     0.118 C 
ENDROOT
BRANCH   1   2
ATOM      2  C   UNL A   1      37.466  23.182  25.757  1.00  0.00     0.042 C 
BRANCH   2   3
ATOM      3  C   UNL A   1      36.681  23.013  23.791  1.00  0.00     0.118 C 
BRANCH   3   4
ATOM      4  N   UNL A   1      35.184  22.996  23.214  1.00  0.00    -0.351 N 
ATOM      5  C   UNL A   1      33.943  22.567  23.552  1.00  0.00     0.281 C 
ATOM      6  O   UNL A   1      33.129  22.593  22.614  1.00  0.00    -0.268 OA
ATOM      7  H   UNL A   1      35.158  23.439  22.336  1.00  0.00     0.163 HD
BRANCH   5   8
ATOM      8  C   UNL A   1      33.522  22.049  24.959  1.00  0.00     0.181 C 
ATOM      9  C   UNL A   1      32.009  21.809  24.948  1.00  0.00     0.085 C 
ATOM     10  C   UNL A   1      33.785  23.090  26.059  1.00  0.00     0.144 C 
ATOM     11  C   UNL A   1      31.440  22.878  25.873  1.00  0.00     0.072 C 
ATOM     12  C   UNL A   1      32.535  23.967  26.066  1.00  0.00     0.191 C 
BRANCH   8  13
ATOM     13  N   UNL A   1      34.252  20.766  25.138  1.00  0.00    -0.336 N 
ATOM     14  C   UNL A   1      33.640  19.556  24.631  1.00  0.00     0.331 C 
ATOM     15  H   UNL A   1      35.156  20.864  24.676  1.00  0.00     0.346 HD
ATOM     16  H   UNL A   1      34.283  20.630  26.149  1.00  0.00     0.346 HD
ENDBRANCH   8  13
BRANCH  12  17
ATOM     17  N   UNL A   1      32.552  25.129  25.169  1.00  0.00    -0.323 N 
ATOM     18  C   UNL A   1      33.998  26.239  25.434  1.00  0.00     0.324 C 
ATOM     19  C   UNL A   1      30.966  25.862  24.506  1.00  0.00     0.324 C 
ATOM     20  H   UNL A   1      32.723  24.675  24.272  1.00  0.00     0.348 HD
ATOM     21  C   UNL A   1      33.733  28.173  25.541  1.00  0.00     0.324 C 
ATOM     22  C   UNL A   1      30.707  27.829  24.579  1.00  0.00     0.324 C 
ATOM     23  N   UNL A   1      32.166  28.921  24.925  1.00  0.00    -0.328 N 
ATOM     24  C   UNL A   1      31.843  30.150  25.643  1.00  0.00     0.333 C 
ATOM     25  H   UNL A   1      32.403  29.152  23.959  1.00  0.00     0.348 HD
ENDBRANCH  12  17
ENDBRANCH   5   8
ENDBRANCH   3   4
ENDBRANCH   2   3
ENDBRANCH   1   2
BRANCH   1  26
ATOM     26  N   UNL A   1      39.844  24.274  26.136  1.00  0.00    -0.352 N 
ATOM     27  C   UNL A   1      40.826  25.197  26.323  1.00  0.00     0.251 C 
ATOM     28  H   UNL A   1      40.106  23.521  25.557  1.00  0.00     0.163 HD
ATOM     29  O   UNL A   1      41.802  25.257  25.584  1.00  0.00    -0.269 OA
BRANCH  27  30
ATOM     30  C   UNL A   1      40.652  26.153  27.417  1.00  0.00     0.039 A 
ATOM     31  C   UNL A   1      39.790  25.826  28.465  1.00  0.00     0.014 A 
ATOM     32  C   UNL A   1      41.399  27.332  27.419  1.00  0.00     0.014 A 
ATOM     33  C   UNL A   1      39.692  26.692  29.544  1.00  0.00     0.010 A 
ATOM     34  C   UNL A   1      41.367  28.147  28.533  1.00  0.00     0.010 A 
ATOM     35  C   UNL A   1      40.487  27.848  29.583  1.00  0.00    -0.014 A 
BRANCH  35  36
ATOM     36  C   UNL A   1      40.351  28.821  30.680  1.00  0.00     0.031 A 
ATOM     37  C   UNL A   1      41.245  28.677  31.877  1.00  0.00     0.074 A 
ATOM     38  C   UNL A   1      39.402  29.770  30.607  1.00  0.00     0.049 A 
ATOM     39  N   UNL A   1      41.246  29.355  32.993  1.00  0.00    -0.248 NA
ATOM     40  C   UNL A   1      42.242  27.590  31.835  1.00  0.00     0.031 C 
ATOM     41  C   UNL A   1      38.459  29.941  29.498  1.00  0.00     0.029 A 
ATOM     42  N   UNL A   1      39.070  30.765  31.483  1.00  0.00    -0.354 N 
ATOM     43  C   UNL A   1      42.216  28.760  33.789  1.00  0.00     0.074 A 
ATOM     44  C   UNL A   1      42.737  27.626  33.062  1.00  0.00     0.031 C 
ATOM     45  C   UNL A   1      37.674  31.001  29.750  1.00  0.00     0.029 A 
ATOM     46  C   UNL A   1      38.036  31.559  31.047  1.00  0.00     0.049 A 
ATOM     47  H   UNL A   1      39.527  30.900  32.344  1.00  0.00     0.167 HD
ATOM     48  C   UNL A   1      42.654  29.151  35.007  1.00  0.00     0.037 A 
ATOM     49  C   UNL A   1      37.457  32.619  31.640  1.00  0.00     0.037 A 
ATOM     50  C   UNL A   1      42.152  30.317  35.679  1.00  0.00     0.049 A 
ATOM     51  C   UNL A   1      37.991  33.061  32.976  1.00  0.00     0.074 A 
ATOM     52  C   UNL A   1      42.556  30.862  36.883  1.00  0.00     0.029 A 
ATOM     53  N   UNL A   1      41.134  31.128  35.190  1.00  0.00    -0.354 N 
ATOM     54  N   UNL A   1      38.950  32.527  33.697  1.00  0.00    -0.248 NA
ATOM     55  C   UNL A   1      37.379  34.253  33.573  1.00  0.00     0.031 C 
ATOM     56  C   UNL A   1      41.758  31.982  37.138  1.00  0.00     0.029 A 
ATOM     57  C   UNL A   1      40.889  32.162  36.072  1.00  0.00     0.049 A 
ATOM     58  H   UNL A   1      40.659  30.985  34.340  1.00  0.00     0.167 HD
ATOM     59  C   UNL A   1      39.074  33.332  34.822  1.00  0.00     0.074 A 
ATOM     60  C   UNL A   1      38.100  34.396  34.676  1.00  0.00     0.031 C 
ATOM     61  C   UNL A   1      39.913  33.209  35.881  1.00  0.00     0.037 A 
BRANCH  48  62
ATOM     62  C   UNL A   1      43.720  28.319  35.666  1.00  0.00     0.058 A 
ATOM     63  C   UNL A   1      45.087  28.541  35.427  1.00  0.00     0.135 A 
ATOM     64  C   UNL A   1      43.373  27.284  36.548  1.00  0.00     0.135 A 
ATOM     65  F   UNL A   1      45.478  29.502  34.576  1.00  0.00    -0.206 F 
ATOM     66  C   UNL A   1      46.068  27.745  36.009  1.00  0.00     0.059 A 
ATOM     67  C   UNL A   1      44.338  26.495  37.167  1.00  0.00     0.059 A 
ATOM     68  F   UNL A   1      42.082  27.021  36.808  1.00  0.00    -0.206 F 
ATOM     69  C   UNL A   1      45.684  26.722  36.878  1.00  0.00     0.060 A 
BRANCH  69  70
ATOM     70  S   UNL A   1      46.968  25.702  37.630  1.00  0.00     0.124 S 
ATOM     71  O   UNL A   1      46.373  25.389  38.924  1.00  0.00    -0.237 OA
ATOM     72  O   UNL A   1      47.070  24.587  36.693  1.00  0.00    -0.237 OA
ATOM     73  O   UNL A   1      48.127  26.589  37.669  1.00  0.00    -0.744 OA
ENDBRANCH  69  70
ENDBRANCH  48  62
BRANCH  49  74
ATOM     74  C   UNL A   1      36.355  33.345  30.957  1.00  0.00     0.058 A 
ATOM     75  C   UNL A   1      35.042  33.288  31.447  1.00  0.00     0.135 A 
ATOM     76  C   UNL A   1      36.594  34.139  29.825  1.00  0.00     0.135 A 
ATOM     77  F   UNL A   1      34.761  32.544  32.528  1.00  0.00    -0.206 F 
ATOM     78  C   UNL A   1      34.002  33.975  30.829  1.00  0.00     0.059 A 
ATOM     79  C   UNL A   1      35.575  34.855  29.204  1.00  0.00     0.059 A 
ATOM     80  F   UNL A   1      37.837  34.248  29.330  1.00  0.00    -0.206 F 
ATOM     81  C   UNL A   1      34.279  34.759  29.709  1.00  0.00     0.060 A 
BRANCH  81  82
ATOM     82  S   UNL A   1      32.929  35.685  28.944  1.00  0.00     0.124 S 
ATOM     83  O   UNL A   1      32.348  34.681  28.060  1.00  0.00    -0.237 OA
ATOM     84  O   UNL A   1      32.123  36.062  30.100  1.00  0.00    -0.237 OA
ATOM     85  O   UNL A   1      33.615  36.790  28.280  1.00  0.00    -0.744 OA
ENDBRANCH  81  82
ENDBRANCH  49  74
BRANCH  61  86
ATOM     86  C   UNL A   1      39.834  34.268  36.941  1.00  0.00     0.058 A 
ATOM     87  C   UNL A   1      40.479  35.505  36.792  1.00  0.00     0.135 A 
ATOM     88  C   UNL A   1      39.051  34.064  38.087  1.00  0.00     0.135 A 
ATOM     89  F   UNL A   1      41.243  35.744  35.714  1.00  0.00    -0.206 F 
ATOM     90  C   UNL A   1      40.369  36.497  37.759  1.00  0.00     0.059 A 
ATOM     91  C   UNL A   1      38.903  35.052  39.052  1.00  0.00     0.059 A 
ATOM     92  F   UNL A   1      38.404  32.900  38.267  1.00  0.00    -0.206 F 
ATOM     93  C   UNL A   1      39.575  36.262  38.884  1.00  0.00     0.060 A 
BRANCH  93  94
ATOM     94  S   UNL A   1      39.412  37.572  40.113  1.00  0.00     0.124 S 
ATOM     95  O   UNL A   1      39.106  36.807  41.317  1.00  0.00    -0.237 OA
ATOM     96  O   UNL A   1      40.729  38.200  40.077  1.00  0.00    -0.237 OA
ATOM     97  O   UNL A   1      38.320  38.390  39.593  1.00  0.00    -0.744 OA
ENDBRANCH  93  94
ENDBRANCH  61  86
ENDBRANCH  35  36
ENDBRANCH  27  30
ENDBRANCH   1  26
TORSDOF 15
ENDMDL
MODEL 3
REMARK VINA RESULT:     -13.2      1.143      1.528
REMARK SMILES C[NH2+][C@@]1(C(=O)NCCCNC(=O)c2ccc(-c3c4nc(c(-c5c(F)cc(S(=O)(=O)[O-])cc5F)c5ccc([nH]5)c(-c5c(F)cc(S(=O)(=O)[O-])cc5F)c5nc(c(-c6c(F)cc(S(=O)(=O)[O-])cc6F)c6ccc3[nH]6)C=C5)C=C4)cc2)CC[C@H]([NH+]2CC[NH+](C)CC2)C1
REMARK SMILES IDX 9 1 8 2 7 3 6 4 4 5 5 6 3 8 79 9 89 10 80 11 81 12 2 13 1 14
REMARK SMILES IDX 82 17 83 18 88 19 84 21 87 22 85 23 86 24 10 26 11 27 12 29
REMARK SMILES IDX 13 30 14 31 78 32 15 33 77 34 16 35 17 36 18 37 71 38 19 39
REMARK SMILES IDX 76 40 70 41 72 42 20 43 75 44 69 45 68 46 21 48 55 49 34 50
REMARK SMILES IDX 54 51 35 52 38 53 53 54 73 55 36 56 37 57 52 59 74 60 39 61
REMARK SMILES IDX 22 62 23 63 32 64 24 65 25 66 31 67 33 68 26 69 27 70 28 71
REMARK SMILES IDX 29 72 30 73 56 74 57 75 66 76 58 77 59 78 65 79 67 80 60 81
REMARK SMILES IDX 61 82 62 83 63 84 64 85 40 86 41 87 50 88 42 89 43 90 49 91
REMARK SMILES IDX 51 92 44 93 45 94 46 95 47 96 48 97
REMARK H PARENT 6 7 2 15 2 16 82 20 85 25 10 28 72 47 38 58
REMARK Flexibility Score: inf
ROOT
ATOM      1  C   UNL A   1      35.289  29.328  27.634  1.00  0.00     0.118 C 
ENDROOT
BRANCH   1   2
ATOM      2  C   UNL A   1      33.744  29.153  27.007  1.00  0.00     0.042 C 
BRANCH   2   3
ATOM      3  C   UNL A   1      31.914  28.192  27.495  1.00  0.00     0.118 C 
BRANCH   3   4
ATOM      4  N   UNL A   1      31.132  26.950  26.848  1.00  0.00    -0.351 N 
ATOM      5  C   UNL A   1      30.741  26.481  25.638  1.00  0.00     0.281 C 
ATOM      6  O   UNL A   1      29.921  25.549  25.699  1.00  0.00    -0.268 OA
ATOM      7  H   UNL A   1      30.844  26.329  27.557  1.00  0.00     0.163 HD
BRANCH   5   8
ATOM      8  C   UNL A   1      31.217  27.035  24.262  1.00  0.00     0.181 C 
ATOM      9  C   UNL A   1      30.672  26.119  23.163  1.00  0.00     0.085 C 
ATOM     10  C   UNL A   1      32.748  27.007  24.127  1.00  0.00     0.144 C 
ATOM     11  C   UNL A   1      31.902  25.425  22.591  1.00  0.00     0.072 C 
ATOM     12  C   UNL A   1      33.062  25.604  23.612  1.00  0.00     0.191 C 
BRANCH   8  13
ATOM     13  N   UNL A   1      30.614  28.391  24.158  1.00  0.00    -0.336 N 
ATOM     14  C   UNL A   1      29.856  28.711  22.966  1.00  0.00     0.331 C 
ATOM     15  H   UNL A   1      29.989  28.507  24.955  1.00  0.00     0.346 HD
ATOM     16  H   UNL A   1      31.416  29.022  24.125  1.00  0.00     0.346 HD
ENDBRANCH   8  13
BRANCH  12  17
ATOM     17  N   UNL A   1      33.282  24.572  24.632  1.00  0.00    -0.323 N 
ATOM     18  C   UNL A   1      34.940  24.666  25.428  1.00  0.00     0.324 C 
ATOM     19  C   UNL A   1      32.429  22.912  24.526  1.00  0.00     0.324 C 
ATOM     20  H   UNL A   1      32.621  24.870  25.349  1.00  0.00     0.348 HD
ATOM     21  C   UNL A   1      36.002  23.041  25.659  1.00  0.00     0.324 C 
ATOM     22  C   UNL A   1      33.496  21.259  24.796  1.00  0.00     0.324 C 
ATOM     23  N   UNL A   1      35.196  21.390  25.528  1.00  0.00    -0.328 N 
ATOM     24  C   UNL A   1      36.134  20.374  25.061  1.00  0.00     0.333 C 
ATOM     25  H   UNL A   1      34.948  21.194  26.499  1.00  0.00     0.348 HD
ENDBRANCH  12  17
ENDBRANCH   5   8
ENDBRANCH   3   4
ENDBRANCH   2   3
ENDBRANCH   1   2
BRANCH   1  26
ATOM     26  N   UNL A   1      35.352  30.028  28.914  1.00  0.00    -0.352 N 
ATOM     27  C   UNL A   1      36.334  30.117  29.852  1.00  0.00     0.251 C 
ATOM     28  H   UNL A   1      34.534  30.528  29.140  1.00  0.00     0.163 HD
ATOM     29  O   UNL A   1      36.099  30.492  30.995  1.00  0.00    -0.269 OA
BRANCH  27  30
ATOM     30  C   UNL A   1      37.681  29.702  29.459  1.00  0.00     0.039 A 
ATOM     31  C   UNL A   1      38.061  29.831  28.123  1.00  0.00     0.014 A 
ATOM     32  C   UNL A   1      38.569  29.253  30.438  1.00  0.00     0.014 A 
ATOM     33  C   UNL A   1      39.365  29.520  27.766  1.00  0.00     0.010 A 
ATOM     34  C   UNL A   1      39.888  29.030  30.097  1.00  0.00     0.010 A 
ATOM     35  C   UNL A   1      40.282  29.129  28.754  1.00  0.00    -0.014 A 
BRANCH  35  36
ATOM     36  C   UNL A   1      41.652  28.723  28.396  1.00  0.00     0.031 A 
ATOM     37  C   UNL A   1      42.725  29.773  28.376  1.00  0.00     0.074 A 
ATOM     38  C   UNL A   1      41.892  27.449  28.043  1.00  0.00     0.049 A 
ATOM     39  N   UNL A   1      43.973  29.670  28.009  1.00  0.00    -0.248 NA
ATOM     40  C   UNL A   1      42.329  31.136  28.779  1.00  0.00     0.031 C 
ATOM     41  C   UNL A   1      40.888  26.382  27.985  1.00  0.00     0.029 A 
ATOM     42  N   UNL A   1      43.052  26.835  27.661  1.00  0.00    -0.354 N 
ATOM     43  C   UNL A   1      44.497  30.952  28.109  1.00  0.00     0.074 A 
ATOM     44  C   UNL A   1      43.421  31.830  28.503  1.00  0.00     0.031 C 
ATOM     45  C   UNL A   1      41.486  25.237  27.620  1.00  0.00     0.029 A 
ATOM     46  C   UNL A   1      42.902  25.497  27.387  1.00  0.00     0.049 A 
ATOM     47  H   UNL A   1      43.913  27.307  27.590  1.00  0.00     0.167 HD
ATOM     48  C   UNL A   1      45.775  31.351  27.918  1.00  0.00     0.037 A 
ATOM     49  C   UNL A   1      43.816  24.592  26.994  1.00  0.00     0.037 A 
ATOM     50  C   UNL A   1      46.833  30.440  27.577  1.00  0.00     0.049 A 
ATOM     51  C   UNL A   1      45.241  25.051  26.831  1.00  0.00     0.074 A 
ATOM     52  C   UNL A   1      48.182  30.702  27.423  1.00  0.00     0.029 A 
ATOM     53  N   UNL A   1      46.656  29.081  27.350  1.00  0.00    -0.354 N 
ATOM     54  N   UNL A   1      45.740  26.255  26.984  1.00  0.00    -0.248 NA
ATOM     55  C   UNL A   1      46.226  24.031  26.456  1.00  0.00     0.031 C 
ATOM     56  C   UNL A   1      48.814  29.506  27.066  1.00  0.00     0.029 A 
ATOM     57  C   UNL A   1      47.869  28.491  27.046  1.00  0.00     0.049 A 
ATOM     58  H   UNL A   1      45.795  28.608  27.399  1.00  0.00     0.167 HD
ATOM     59  C   UNL A   1      47.104  26.135  26.749  1.00  0.00     0.074 A 
ATOM     60  C   UNL A   1      47.349  24.736  26.457  1.00  0.00     0.031 C 
ATOM     61  C   UNL A   1      48.069  27.089  26.771  1.00  0.00     0.037 A 
BRANCH  48  62
ATOM     62  C   UNL A   1      46.082  32.814  28.082  1.00  0.00     0.058 A 
ATOM     63  C   UNL A   1      46.472  33.356  29.319  1.00  0.00     0.135 A 
ATOM     64  C   UNL A   1      45.985  33.690  26.989  1.00  0.00     0.135 A 
ATOM     65  F   UNL A   1      46.561  32.570  30.404  1.00  0.00    -0.206 F 
ATOM     66  C   UNL A   1      46.718  34.716  29.475  1.00  0.00     0.059 A 
ATOM     67  C   UNL A   1      46.258  35.049  27.115  1.00  0.00     0.059 A 
ATOM     68  F   UNL A   1      45.609  33.231  25.786  1.00  0.00    -0.206 F 
ATOM     69  C   UNL A   1      46.607  35.556  28.366  1.00  0.00     0.060 A 
BRANCH  69  70
ATOM     70  S   UNL A   1      46.935  37.317  28.584  1.00  0.00     0.124 S 
ATOM     71  O   UNL A   1      46.449  37.539  29.941  1.00  0.00    -0.237 OA
ATOM     72  O   UNL A   1      48.383  37.389  28.410  1.00  0.00    -0.237 OA
ATOM     73  O   UNL A   1      46.150  37.943  27.524  1.00  0.00    -0.744 OA
ENDBRANCH  69  70
ENDBRANCH  48  62
BRANCH  49  74
ATOM     74  C   UNL A   1      43.419  23.176  26.778  1.00  0.00     0.058 A 
ATOM     75  C   UNL A   1      43.379  22.628  25.488  1.00  0.00     0.135 A 
ATOM     76  C   UNL A   1      43.107  22.332  27.855  1.00  0.00     0.135 A 
ATOM     77  F   UNL A   1      43.671  23.392  24.425  1.00  0.00    -0.206 F 
ATOM     78  C   UNL A   1      43.026  21.300  25.270  1.00  0.00     0.059 A 
ATOM     79  C   UNL A   1      42.774  20.994  27.665  1.00  0.00     0.059 A 
ATOM     80  F   UNL A   1      43.154  22.800  29.112  1.00  0.00    -0.206 F 
ATOM     81  C   UNL A   1      42.727  20.489  26.366  1.00  0.00     0.060 A 
BRANCH  81  82
ATOM     82  S   UNL A   1      42.316  18.755  26.074  1.00  0.00     0.124 S 
ATOM     83  O   UNL A   1      42.604  18.161  27.375  1.00  0.00    -0.237 OA
ATOM     84  O   UNL A   1      40.906  18.832  25.705  1.00  0.00    -0.237 OA
ATOM     85  O   UNL A   1      43.219  18.373  24.991  1.00  0.00    -0.744 OA
ENDBRANCH  81  82
ENDBRANCH  49  74
BRANCH  61  86
ATOM     86  C   UNL A   1      49.476  26.640  26.506  1.00  0.00     0.058 A 
ATOM     87  C   UNL A   1      50.310  26.190  27.540  1.00  0.00     0.135 A 
ATOM     88  C   UNL A   1      49.970  26.602  25.193  1.00  0.00     0.135 A 
ATOM     89  F   UNL A   1      49.883  26.212  28.813  1.00  0.00    -0.206 F 
ATOM     90  C   UNL A   1      51.599  25.738  27.282  1.00  0.00     0.059 A 
ATOM     91  C   UNL A   1      51.244  26.127  24.909  1.00  0.00     0.059 A 
ATOM     92  F   UNL A   1      49.203  27.011  24.169  1.00  0.00    -0.206 F 
ATOM     93  C   UNL A   1      52.055  25.708  25.963  1.00  0.00     0.060 A 
BRANCH  93  94
ATOM     94  S   UNL A   1      53.717  25.084  25.639  1.00  0.00     0.124 S 
ATOM     95  O   UNL A   1      53.453  23.674  25.374  1.00  0.00    -0.237 OA
ATOM     96  O   UNL A   1      54.129  25.879  24.486  1.00  0.00    -0.237 OA
ATOM     97  O   UNL A   1      54.433  25.369  26.878  1.00  0.00    -0.744 OA
ENDBRANCH  93  94
ENDBRANCH  61  86
ENDBRANCH  35  36
ENDBRANCH  27  30
ENDBRANCH   1  26
TORSDOF 15
ENDMDL
