MODEL 1
REMARK VINA RESULT:     -11.8      0.000      0.000
REMARK SMILES C[N@H+]1CC[C@@H](Cc2nccnc2C(=O)NCCCNC(=O)c2ccc(-c3c4nc(c(-c5c(F)cc(S(=O)(=O)[O-])cc5F)c5ccc([nH]5)c(-c5c(F)cc(S(=O)(=O)[O-])cc5F)c5nc(c(-c6c(F)cc(S(=O)(=O)[O-])cc6F)c6ccc3[nH]6)C=C5)C=C4)cc2)C1
REMARK SMILES IDX 17 1 16 2 15 3 13 4 14 5 12 7 7 8 8 9 9 10 11 11 10 12 6 13
REMARK SMILES IDX 5 14 1 15 2 16 3 17 88 18 4 20 18 21 19 22 20 23 21 25 22 26
REMARK SMILES IDX 23 27 87 28 24 29 86 30 25 31 26 32 27 33 80 34 28 35 85 36
REMARK SMILES IDX 79 37 81 38 29 39 84 40 78 41 77 42 30 44 64 45 43 46 63 47
REMARK SMILES IDX 44 48 47 49 62 50 82 51 45 52 46 53 61 55 83 56 48 57 31 58
REMARK SMILES IDX 32 59 41 60 33 61 34 62 40 63 42 64 35 65 36 66 37 67 38 68
REMARK SMILES IDX 39 69 65 70 66 71 75 72 67 73 68 74 74 75 76 76 69 77 70 78
REMARK SMILES IDX 71 79 72 80 73 81 49 82 50 83 59 84 51 85 52 86 58 87 60 88
REMARK SMILES IDX 53 89 54 90 55 91 56 92 57 93
REMARK H PARENT 15 6 2 19 19 24 81 43 47 54
REMARK Flexibility Score: inf
ROOT
ATOM      1  C   UNL A   1      33.806  31.140  27.263  1.00  0.00     0.042 C 
ENDROOT
BRANCH   1   2
ATOM      2  C   UNL A   1      32.807  30.202  26.567  1.00  0.00     0.118 C 
BRANCH   2   3
ATOM      3  N   UNL A   1      33.434  29.577  25.414  1.00  0.00    -0.351 N 
ATOM      4  C   UNL A   1      33.172  28.516  24.579  1.00  0.00     0.271 C 
ATOM      5  O   UNL A   1      34.075  28.316  23.754  1.00  0.00    -0.267 OA
ATOM      6  H   UNL A   1      34.268  30.035  25.164  1.00  0.00     0.163 HD
BRANCH   4   7
ATOM      7  C   UNL A   1      31.944  27.629  24.495  1.00  0.00     0.149 A 
ATOM      8  C   UNL A   1      30.718  27.832  23.843  1.00  0.00     0.072 A 
ATOM      9  N   UNL A   1      29.668  26.965  24.004  1.00  0.00    -0.257 NA
ATOM     10  C   UNL A   1      29.836  25.940  24.860  1.00  0.00     0.131 A 
ATOM     11  N   UNL A   1      32.087  26.547  25.332  1.00  0.00    -0.248 NA
ATOM     12  C   UNL A   1      31.026  25.736  25.512  1.00  0.00     0.132 A 
BRANCH   8  13
ATOM     13  C   UNL A   1      30.404  28.937  22.893  1.00  0.00     0.068 C 
BRANCH  13  14
ATOM     14  C   UNL A   1      29.075  29.677  23.076  1.00  0.00     0.056 C 
ATOM     15  C   UNL A   1      28.815  33.350  22.999  1.00  0.00     0.332 C 
ATOM     16  N   UNL A   1      28.430  31.949  22.895  1.00  0.00    -0.337 N 
ATOM     17  C   UNL A   1      28.499  31.459  21.523  1.00  0.00     0.262 C 
ATOM     18  C   UNL A   1      29.281  31.068  23.692  1.00  0.00     0.266 C 
ATOM     19  H   UNL A   1      27.471  31.924  23.243  1.00  0.00     0.347 HD
ATOM     20  C   UNL A   1      28.413  29.954  21.712  1.00  0.00     0.071 C 
ENDBRANCH  13  14
ENDBRANCH   8  13
ENDBRANCH   4   7
ENDBRANCH   2   3
ENDBRANCH   1   2
BRANCH   1  21
ATOM     21  C   UNL A   1      35.034  30.465  27.853  1.00  0.00     0.118 C 
BRANCH  21  22
ATOM     22  N   UNL A   1      35.218  30.835  29.244  1.00  0.00    -0.352 N 
ATOM     23  C   UNL A   1      36.225  30.545  30.135  1.00  0.00     0.251 C 
ATOM     24  H   UNL A   1      34.496  31.392  29.616  1.00  0.00     0.163 HD
ATOM     25  O   UNL A   1      35.986  30.703  31.333  1.00  0.00    -0.269 OA
BRANCH  23  26
ATOM     26  C   UNL A   1      37.567  30.054  29.717  1.00  0.00     0.039 A 
ATOM     27  C   UNL A   1      38.433  29.568  30.708  1.00  0.00     0.014 A 
ATOM     28  C   UNL A   1      38.044  30.160  28.409  1.00  0.00     0.014 A 
ATOM     29  C   UNL A   1      39.741  29.179  30.388  1.00  0.00     0.010 A 
ATOM     30  C   UNL A   1      39.314  29.681  28.072  1.00  0.00     0.010 A 
ATOM     31  C   UNL A   1      40.190  29.211  29.059  1.00  0.00    -0.014 A 
BRANCH  31  32
ATOM     32  C   UNL A   1      41.576  28.803  28.693  1.00  0.00     0.031 A 
ATOM     33  C   UNL A   1      42.697  29.816  28.687  1.00  0.00     0.074 A 
ATOM     34  C   UNL A   1      41.827  27.534  28.314  1.00  0.00     0.049 A 
ATOM     35  N   UNL A   1      43.945  29.670  28.324  1.00  0.00    -0.248 NA
ATOM     36  C   UNL A   1      42.357  31.182  29.118  1.00  0.00     0.031 C 
ATOM     37  C   UNL A   1      40.833  26.461  28.243  1.00  0.00     0.029 A 
ATOM     38  N   UNL A   1      42.994  26.931  27.910  1.00  0.00    -0.354 N 
ATOM     39  C   UNL A   1      44.532  30.925  28.455  1.00  0.00     0.074 A 
ATOM     40  C   UNL A   1      43.489  31.831  28.884  1.00  0.00     0.031 C 
ATOM     41  C   UNL A   1      41.436  25.327  27.850  1.00  0.00     0.029 A 
ATOM     42  C   UNL A   1      42.849  25.599  27.600  1.00  0.00     0.049 A 
ATOM     43  H   UNL A   1      43.853  27.407  27.849  1.00  0.00     0.167 HD
ATOM     44  C   UNL A   1      45.823  31.289  28.256  1.00  0.00     0.037 A 
ATOM     45  C   UNL A   1      43.747  24.697  27.156  1.00  0.00     0.037 A 
ATOM     46  C   UNL A   1      46.868  30.378  27.864  1.00  0.00     0.049 A 
ATOM     47  C   UNL A   1      45.174  25.120  26.942  1.00  0.00     0.074 A 
ATOM     48  C   UNL A   1      48.219  30.633  27.706  1.00  0.00     0.029 A 
ATOM     49  N   UNL A   1      46.678  29.037  27.563  1.00  0.00    -0.354 N 
ATOM     50  N   UNL A   1      45.720  26.298  27.124  1.00  0.00    -0.248 NA
ATOM     51  C   UNL A   1      46.107  24.092  26.461  1.00  0.00     0.031 C 
ATOM     52  C   UNL A   1      48.839  29.458  27.266  1.00  0.00     0.029 A 
ATOM     53  C   UNL A   1      47.883  28.457  27.195  1.00  0.00     0.049 A 
ATOM     54  H   UNL A   1      45.815  28.565  27.604  1.00  0.00     0.167 HD
ATOM     55  C   UNL A   1      47.064  26.148  26.800  1.00  0.00     0.074 A 
ATOM     56  C   UNL A   1      47.250  24.762  26.424  1.00  0.00     0.031 C 
ATOM     57  C   UNL A   1      48.054  27.075  26.817  1.00  0.00     0.037 A 
BRANCH  44  58
ATOM     58  C   UNL A   1      46.173  32.742  28.452  1.00  0.00     0.058 A 
ATOM     59  C   UNL A   1      46.057  33.680  27.414  1.00  0.00     0.135 A 
ATOM     60  C   UNL A   1      46.627  33.205  29.699  1.00  0.00     0.135 A 
ATOM     61  F   UNL A   1      45.636  33.294  26.198  1.00  0.00    -0.206 F 
ATOM     62  C   UNL A   1      46.427  35.010  27.586  1.00  0.00     0.059 A 
ATOM     63  C   UNL A   1      46.975  34.538  29.903  1.00  0.00     0.059 A 
ATOM     64  F   UNL A   1      46.751  32.356  30.731  1.00  0.00    -0.206 F 
ATOM     65  C   UNL A   1      46.894  35.427  28.833  1.00  0.00     0.060 A 
BRANCH  65  66
ATOM     66  S   UNL A   1      47.406  37.147  29.032  1.00  0.00     0.124 S 
ATOM     67  O   UNL A   1      47.485  37.259  30.486  1.00  0.00    -0.237 OA
ATOM     68  O   UNL A   1      48.683  37.179  28.325  1.00  0.00    -0.237 OA
ATOM     69  O   UNL A   1      46.325  37.900  28.402  1.00  0.00    -0.744 OA
ENDBRANCH  65  66
ENDBRANCH  44  58
BRANCH  45  70
ATOM     70  C   UNL A   1      43.320  23.292  26.921  1.00  0.00     0.058 A 
ATOM     71  C   UNL A   1      43.225  22.782  25.618  1.00  0.00     0.135 A 
ATOM     72  C   UNL A   1      43.047  22.421  27.986  1.00  0.00     0.135 A 
ATOM     73  F   UNL A   1      43.466  23.580  24.566  1.00  0.00    -0.206 F 
ATOM     74  C   UNL A   1      42.877  21.457  25.378  1.00  0.00     0.059 A 
ATOM     75  C   UNL A   1      42.721  21.085  27.773  1.00  0.00     0.059 A 
ATOM     76  F   UNL A   1      43.137  22.859  29.253  1.00  0.00    -0.206 F 
ATOM     77  C   UNL A   1      42.636  20.613  26.464  1.00  0.00     0.060 A 
BRANCH  77  78
ATOM     78  S   UNL A   1      42.267  18.874  26.141  1.00  0.00     0.124 S 
ATOM     79  O   UNL A   1      42.555  18.267  27.437  1.00  0.00    -0.237 OA
ATOM     80  O   UNL A   1      40.858  18.928  25.761  1.00  0.00    -0.237 OA
ATOM     81  O   UNL A   1      43.186  18.529  25.064  1.00  0.00    -0.744 OA
ENDBRANCH  77  78
ENDBRANCH  45  70
BRANCH  57  82
ATOM     82  C   UNL A   1      49.437  26.620  26.437  1.00  0.00     0.058 A 
ATOM     83  C   UNL A   1      50.277  25.971  27.357  1.00  0.00     0.135 A 
ATOM     84  C   UNL A   1      49.907  26.788  25.125  1.00  0.00     0.135 A 
ATOM     85  F   UNL A   1      49.879  25.792  28.625  1.00  0.00    -0.206 F 
ATOM     86  C   UNL A   1      51.544  25.525  26.993  1.00  0.00     0.059 A 
ATOM     87  C   UNL A   1      51.159  26.326  24.733  1.00  0.00     0.059 A 
ATOM     88  F   UNL A   1      49.139  27.393  24.204  1.00  0.00    -0.206 F 
ATOM     89  C   UNL A   1      51.975  25.705  25.677  1.00  0.00     0.060 A 
BRANCH  89  90
ATOM     90  S   UNL A   1      53.607  25.090  25.209  1.00  0.00     0.124 S 
ATOM     91  O   UNL A   1      53.725  25.580  23.840  1.00  0.00    -0.237 OA
ATOM     92  O   UNL A   1      54.477  25.731  26.190  1.00  0.00    -0.237 OA
ATOM     93  O   UNL A   1      53.476  23.642  25.349  1.00  0.00    -0.744 OA
ENDBRANCH  89  90
ENDBRANCH  57  82
ENDBRANCH  31  32
ENDBRANCH  23  26
ENDBRANCH  21  22
ENDBRANCH   1  21
TORSDOF 15
ENDMDL
MODEL 2
REMARK VINA RESULT:     -11.8      7.203     12.760
REMARK SMILES C[N@H+]1CC[C@@H](Cc2nccnc2C(=O)NCCCNC(=O)c2ccc(-c3c4nc(c(-c5c(F)cc(S(=O)(=O)[O-])cc5F)c5ccc([nH]5)c(-c5c(F)cc(S(=O)(=O)[O-])cc5F)c5nc(c(-c6c(F)cc(S(=O)(=O)[O-])cc6F)c6ccc3[nH]6)C=C5)C=C4)cc2)C1
REMARK SMILES IDX 17 1 16 2 15 3 13 4 14 5 12 7 7 8 8 9 9 10 11 11 10 12 6 13
REMARK SMILES IDX 5 14 1 15 2 16 3 17 88 18 4 20 18 21 19 22 20 23 21 25 22 26
REMARK SMILES IDX 23 27 87 28 24 29 86 30 25 31 26 32 27 33 80 34 28 35 85 36
REMARK SMILES IDX 79 37 81 38 29 39 84 40 78 41 77 42 30 44 64 45 43 46 63 47
REMARK SMILES IDX 44 48 47 49 62 50 82 51 45 52 46 53 61 55 83 56 48 57 31 58
REMARK SMILES IDX 32 59 41 60 33 61 34 62 40 63 42 64 35 65 36 66 37 67 38 68
REMARK SMILES IDX 39 69 65 70 66 71 75 72 67 73 68 74 74 75 76 76 69 77 70 78
REMARK SMILES IDX 71 79 72 80 73 81 49 82 50 83 59 84 51 85 52 86 58 87 60 88
REMARK SMILES IDX 53 89 54 90 55 91 56 92 57 93
REMARK H PARENT 15 6 2 19 19 24 81 43 47 54
REMARK Flexibility Score: inf
ROOT
ATOM      1  C   UNL A   1      37.218  22.819  25.969  1.00  0.00     0.042 C 
ENDROOT
BRANCH   1   2
ATOM      2  C   UNL A   1      37.147  22.194  24.566  1.00  0.00     0.118 C 
BRANCH   2   3
ATOM      3  N   UNL A   1      36.254  22.971  23.722  1.00  0.00    -0.351 N 
ATOM      4  C   UNL A   1      34.969  23.453  23.793  1.00  0.00     0.271 C 
ATOM      5  O   UNL A   1      34.604  24.015  22.751  1.00  0.00    -0.267 OA
ATOM      6  H   UNL A   1      36.685  23.218  22.872  1.00  0.00     0.163 HD
BRANCH   4   7
ATOM      7  C   UNL A   1      33.993  23.444  24.956  1.00  0.00     0.149 A 
ATOM      8  C   UNL A   1      33.392  22.370  25.631  1.00  0.00     0.072 A 
ATOM      9  N   UNL A   1      32.418  22.572  26.574  1.00  0.00    -0.257 NA
ATOM     10  C   UNL A   1      32.015  23.837  26.789  1.00  0.00     0.131 A 
ATOM     11  N   UNL A   1      33.579  24.725  25.233  1.00  0.00    -0.248 NA
ATOM     12  C   UNL A   1      32.587  24.896  26.129  1.00  0.00     0.132 A 
BRANCH   8  13
ATOM     13  C   UNL A   1      33.735  20.929  25.464  1.00  0.00     0.068 C 
BRANCH  13  14
ATOM     14  C   UNL A   1      32.590  19.953  25.174  1.00  0.00     0.056 C 
ATOM     15  C   UNL A   1      32.530  17.782  22.200  1.00  0.00     0.332 C 
ATOM     16  N   UNL A   1      32.249  18.269  23.545  1.00  0.00    -0.337 N 
ATOM     17  C   UNL A   1      33.126  17.666  24.542  1.00  0.00     0.262 C 
ATOM     18  C   UNL A   1      32.416  19.715  23.667  1.00  0.00     0.266 C 
ATOM     19  H   UNL A   1      31.276  18.009  23.710  1.00  0.00     0.347 HD
ATOM     20  C   UNL A   1      32.902  18.559  25.751  1.00  0.00     0.071 C 
ENDBRANCH  13  14
ENDBRANCH   8  13
ENDBRANCH   4   7
ENDBRANCH   2   3
ENDBRANCH   1   2
BRANCH   1  21
ATOM     21  C   UNL A   1      38.063  24.078  26.081  1.00  0.00     0.118 C 
BRANCH  21  22
ATOM     22  N   UNL A   1      39.478  23.758  26.125  1.00  0.00    -0.352 N 
ATOM     23  C   UNL A   1      40.544  24.428  26.680  1.00  0.00     0.251 C 
ATOM     24  H   UNL A   1      39.717  22.912  25.682  1.00  0.00     0.163 HD
ATOM     25  O   UNL A   1      41.672  24.112  26.301  1.00  0.00    -0.269 OA
BRANCH  23  26
ATOM     26  C   UNL A   1      40.391  25.503  27.699  1.00  0.00     0.039 A 
ATOM     27  C   UNL A   1      41.364  26.511  27.751  1.00  0.00     0.014 A 
ATOM     28  C   UNL A   1      39.392  25.491  28.674  1.00  0.00     0.014 A 
ATOM     29  C   UNL A   1      41.323  27.496  28.747  1.00  0.00     0.010 A 
ATOM     30  C   UNL A   1      39.294  26.527  29.609  1.00  0.00     0.010 A 
ATOM     31  C   UNL A   1      40.272  27.527  29.676  1.00  0.00    -0.014 A 
BRANCH  31  32
ATOM     32  C   UNL A   1      40.206  28.564  30.745  1.00  0.00     0.031 A 
ATOM     33  C   UNL A   1      41.111  28.480  31.951  1.00  0.00     0.074 A 
ATOM     34  C   UNL A   1      39.299  29.558  30.665  1.00  0.00     0.049 A 
ATOM     35  N   UNL A   1      41.148  29.239  33.016  1.00  0.00    -0.248 NA
ATOM     36  C   UNL A   1      42.085  27.376  31.973  1.00  0.00     0.031 C 
ATOM     37  C   UNL A   1      38.340  29.741  29.573  1.00  0.00     0.029 A 
ATOM     38  N   UNL A   1      39.027  30.597  31.522  1.00  0.00    -0.354 N 
ATOM     39  C   UNL A   1      42.122  28.691  33.846  1.00  0.00     0.074 A 
ATOM     40  C   UNL A   1      42.618  27.506  33.179  1.00  0.00     0.031 C 
ATOM     41  C   UNL A   1      37.608  30.841  29.811  1.00  0.00     0.029 A 
ATOM     42  C   UNL A   1      38.012  31.419  31.090  1.00  0.00     0.049 A 
ATOM     43  H   UNL A   1      39.513  30.741  32.365  1.00  0.00     0.167 HD
ATOM     44  C   UNL A   1      42.578  29.139  35.041  1.00  0.00     0.037 A 
ATOM     45  C   UNL A   1      37.460  32.508  31.659  1.00  0.00     0.037 A 
ATOM     46  C   UNL A   1      42.108  30.340  35.685  1.00  0.00     0.049 A 
ATOM     47  C   UNL A   1      37.979  32.991  32.986  1.00  0.00     0.074 A 
ATOM     48  C   UNL A   1      42.554  30.918  36.861  1.00  0.00     0.029 A 
ATOM     49  N   UNL A   1      41.081  31.143  35.211  1.00  0.00    -0.354 N 
ATOM     50  N   UNL A   1      38.938  32.490  33.727  1.00  0.00    -0.248 NA
ATOM     51  C   UNL A   1      37.341  34.186  33.554  1.00  0.00     0.031 C 
ATOM     52  C   UNL A   1      41.768  32.045  37.121  1.00  0.00     0.029 A 
ATOM     53  C   UNL A   1      40.862  32.198  36.084  1.00  0.00     0.049 A 
ATOM     54  H   UNL A   1      40.580  30.988  34.378  1.00  0.00     0.167 HD
ATOM     55  C   UNL A   1      39.033  33.320  34.838  1.00  0.00     0.074 A 
ATOM     56  C   UNL A   1      38.042  34.363  34.665  1.00  0.00     0.031 C 
ATOM     57  C   UNL A   1      39.868  33.228  35.903  1.00  0.00     0.037 A 
BRANCH  44  58
ATOM     58  C   UNL A   1      43.636  28.319  35.734  1.00  0.00     0.058 A 
ATOM     59  C   UNL A   1      45.005  28.524  35.500  1.00  0.00     0.135 A 
ATOM     60  C   UNL A   1      43.275  27.317  36.649  1.00  0.00     0.135 A 
ATOM     61  F   UNL A   1      45.409  29.463  34.628  1.00  0.00    -0.206 F 
ATOM     62  C   UNL A   1      45.975  27.733  36.105  1.00  0.00     0.059 A 
ATOM     63  C   UNL A   1      44.231  26.532  37.290  1.00  0.00     0.059 A 
ATOM     64  F   UNL A   1      41.982  27.080  36.919  1.00  0.00    -0.206 F 
ATOM     65  C   UNL A   1      45.578  26.732  36.993  1.00  0.00     0.060 A 
BRANCH  65  66
ATOM     66  S   UNL A   1      46.845  25.687  37.742  1.00  0.00     0.124 S 
ATOM     67  O   UNL A   1      46.078  24.998  38.777  1.00  0.00    -0.237 OA
ATOM     68  O   UNL A   1      47.276  24.861  36.619  1.00  0.00    -0.237 OA
ATOM     69  O   UNL A   1      47.833  26.646  38.227  1.00  0.00    -0.744 OA
ENDBRANCH  65  66
ENDBRANCH  44  58
BRANCH  45  70
ATOM     70  C   UNL A   1      36.374  33.235  30.950  1.00  0.00     0.058 A 
ATOM     71  C   UNL A   1      35.051  33.170  31.411  1.00  0.00     0.135 A 
ATOM     72  C   UNL A   1      36.640  34.044  29.835  1.00  0.00     0.135 A 
ATOM     73  F   UNL A   1      34.745  32.402  32.468  1.00  0.00    -0.206 F 
ATOM     74  C   UNL A   1      34.028  33.883  30.793  1.00  0.00     0.059 A 
ATOM     75  C   UNL A   1      35.638  34.786  29.214  1.00  0.00     0.059 A 
ATOM     76  F   UNL A   1      37.893  34.149  29.364  1.00  0.00    -0.206 F 
ATOM     77  C   UNL A   1      34.335  34.697  29.700  1.00  0.00     0.060 A 
BRANCH  77  78
ATOM     78  S   UNL A   1      33.014  35.681  28.960  1.00  0.00     0.124 S 
ATOM     79  O   UNL A   1      33.765  36.789  28.377  1.00  0.00    -0.237 OA
ATOM     80  O   UNL A   1      32.428  34.739  28.010  1.00  0.00    -0.237 OA
ATOM     81  O   UNL A   1      32.169  36.021  30.097  1.00  0.00    -0.744 OA
ENDBRANCH  77  78
ENDBRANCH  45  70
BRANCH  57  82
ATOM     82  C   UNL A   1      39.763  34.294  36.959  1.00  0.00     0.058 A 
ATOM     83  C   UNL A   1      40.400  35.538  36.816  1.00  0.00     0.135 A 
ATOM     84  C   UNL A   1      38.977  34.089  38.104  1.00  0.00     0.135 A 
ATOM     85  F   UNL A   1      41.169  35.783  35.744  1.00  0.00    -0.206 F 
ATOM     86  C   UNL A   1      40.277  36.532  37.781  1.00  0.00     0.059 A 
ATOM     87  C   UNL A   1      38.819  35.078  39.069  1.00  0.00     0.059 A 
ATOM     88  F   UNL A   1      38.339  32.921  38.285  1.00  0.00    -0.206 F 
ATOM     89  C   UNL A   1      39.482  36.293  38.905  1.00  0.00     0.060 A 
BRANCH  89  90
ATOM     90  S   UNL A   1      39.302  37.605  40.132  1.00  0.00     0.124 S 
ATOM     91  O   UNL A   1      40.592  38.280  40.032  1.00  0.00    -0.237 OA
ATOM     92  O   UNL A   1      38.154  38.351  39.628  1.00  0.00    -0.237 OA
ATOM     93  O   UNL A   1      39.071  36.876  41.377  1.00  0.00    -0.744 OA
ENDBRANCH  89  90
ENDBRANCH  57  82
ENDBRANCH  31  32
ENDBRANCH  23  26
ENDBRANCH  21  22
ENDBRANCH   1  21
TORSDOF 15
ENDMDL
MODEL 3
REMARK VINA RESULT:     -11.8      6.855     12.284
REMARK SMILES C[N@H+]1CC[C@@H](Cc2nccnc2C(=O)NCCCNC(=O)c2ccc(-c3c4nc(c(-c5c(F)cc(S(=O)(=O)[O-])cc5F)c5ccc([nH]5)c(-c5c(F)cc(S(=O)(=O)[O-])cc5F)c5nc(c(-c6c(F)cc(S(=O)(=O)[O-])cc6F)c6ccc3[nH]6)C=C5)C=C4)cc2)C1
REMARK SMILES IDX 17 1 16 2 15 3 13 4 14 5 12 7 7 8 8 9 9 10 11 11 10 12 6 13
REMARK SMILES IDX 5 14 1 15 2 16 3 17 88 18 4 20 18 21 19 22 20 23 21 25 22 26
REMARK SMILES IDX 23 27 87 28 24 29 86 30 25 31 26 32 27 33 80 34 28 35 85 36
REMARK SMILES IDX 79 37 81 38 29 39 84 40 78 41 77 42 30 44 64 45 43 46 63 47
REMARK SMILES IDX 44 48 47 49 62 50 82 51 45 52 46 53 61 55 83 56 48 57 31 58
REMARK SMILES IDX 32 59 41 60 33 61 34 62 40 63 42 64 35 65 36 66 37 67 38 68
REMARK SMILES IDX 39 69 65 70 66 71 75 72 67 73 68 74 74 75 76 76 69 77 70 78
REMARK SMILES IDX 71 79 72 80 73 81 49 82 50 83 59 84 51 85 52 86 58 87 60 88
REMARK SMILES IDX 53 89 54 90 55 91 56 92 57 93
REMARK H PARENT 15 6 2 19 19 24 81 43 47 54
REMARK Flexibility Score: inf
ROOT
ATOM      1  C   UNL A   1      37.337  23.193  25.670  1.00  0.00     0.042 C 
ENDROOT
BRANCH   1   2
ATOM      2  C   UNL A   1      36.059  23.801  25.071  1.00  0.00     0.118 C 
BRANCH   2   3
ATOM      3  N   UNL A   1      34.941  23.597  25.977  1.00  0.00    -0.351 N 
ATOM      4  C   UNL A   1      33.612  23.947  26.030  1.00  0.00     0.271 C 
ATOM      5  O   UNL A   1      33.061  23.597  27.083  1.00  0.00    -0.267 OA
ATOM      6  H   UNL A   1      35.205  23.068  26.764  1.00  0.00     0.163 HD
BRANCH   4   7
ATOM      7  C   UNL A   1      32.746  24.625  24.984  1.00  0.00     0.149 A 
ATOM      8  C   UNL A   1      32.644  25.978  24.627  1.00  0.00     0.072 A 
ATOM      9  N   UNL A   1      31.689  26.416  23.745  1.00  0.00    -0.257 NA
ATOM     10  C   UNL A   1      30.813  25.508  23.278  1.00  0.00     0.131 A 
ATOM     11  N   UNL A   1      31.855  23.722  24.455  1.00  0.00    -0.248 NA
ATOM     12  C   UNL A   1      30.896  24.183  23.628  1.00  0.00     0.132 A 
BRANCH   8  13
ATOM     13  C   UNL A   1      33.537  27.077  25.092  1.00  0.00     0.068 C 
BRANCH  13  14
ATOM     14  C   UNL A   1      33.415  27.524  26.553  1.00  0.00     0.056 C 
ATOM     15  C   UNL A   1      33.905  31.017  27.613  1.00  0.00     0.332 C 
ATOM     16  N   UNL A   1      33.440  29.636  27.625  1.00  0.00    -0.337 N 
ATOM     17  C   UNL A   1      32.097  29.502  27.070  1.00  0.00     0.262 C 
ATOM     18  C   UNL A   1      34.299  28.745  26.847  1.00  0.00     0.266 C 
ATOM     19  H   UNL A   1      33.456  29.372  28.610  1.00  0.00     0.347 HD
ATOM     20  C   UNL A   1      31.982  28.002  26.859  1.00  0.00     0.071 C 
ENDBRANCH  13  14
ENDBRANCH   8  13
ENDBRANCH   4   7
ENDBRANCH   2   3
ENDBRANCH   1   2
BRANCH   1  21
ATOM     21  C   UNL A   1      38.193  24.148  26.487  1.00  0.00     0.118 C 
BRANCH  21  22
ATOM     22  N   UNL A   1      39.595  24.033  26.130  1.00  0.00    -0.352 N 
ATOM     23  C   UNL A   1      40.680  24.818  26.445  1.00  0.00     0.251 C 
ATOM     24  H   UNL A   1      39.808  23.257  25.562  1.00  0.00     0.163 HD
ATOM     25  O   UNL A   1      41.693  24.689  25.757  1.00  0.00    -0.269 OA
BRANCH  23  26
ATOM     26  C   UNL A   1      40.678  25.801  27.564  1.00  0.00     0.039 A 
ATOM     27  C   UNL A   1      39.676  25.691  28.540  1.00  0.00     0.014 A 
ATOM     28  C   UNL A   1      41.551  26.887  27.625  1.00  0.00     0.014 A 
ATOM     29  C   UNL A   1      39.569  26.641  29.565  1.00  0.00     0.010 A 
ATOM     30  C   UNL A   1      41.506  27.781  28.700  1.00  0.00     0.010 A 
ATOM     31  C   UNL A   1      40.498  27.687  29.669  1.00  0.00    -0.014 A 
BRANCH  31  32
ATOM     32  C   UNL A   1      40.404  28.710  30.749  1.00  0.00     0.031 A 
ATOM     33  C   UNL A   1      41.312  28.637  31.954  1.00  0.00     0.074 A 
ATOM     34  C   UNL A   1      39.470  29.679  30.680  1.00  0.00     0.049 A 
ATOM     35  N   UNL A   1      41.328  29.385  33.028  1.00  0.00    -0.248 NA
ATOM     36  C   UNL A   1      42.315  27.560  31.964  1.00  0.00     0.031 C 
ATOM     37  C   UNL A   1      38.506  29.849  29.591  1.00  0.00     0.029 A 
ATOM     38  N   UNL A   1      39.170  30.702  31.548  1.00  0.00    -0.354 N 
ATOM     39  C   UNL A   1      42.318  28.855  33.851  1.00  0.00     0.074 A 
ATOM     40  C   UNL A   1      42.845  27.691  33.171  1.00  0.00     0.031 C 
ATOM     41  C   UNL A   1      37.744  30.926  29.840  1.00  0.00     0.029 A 
ATOM     42  C   UNL A   1      38.133  31.500  31.126  1.00  0.00     0.049 A 
ATOM     43  H   UNL A   1      39.653  30.850  32.393  1.00  0.00     0.167 HD
ATOM     44  C   UNL A   1      42.761  29.303  35.050  1.00  0.00     0.037 A 
ATOM     45  C   UNL A   1      37.552  32.568  31.707  1.00  0.00     0.037 A 
ATOM     46  C   UNL A   1      42.259  30.482  35.708  1.00  0.00     0.049 A 
ATOM     47  C   UNL A   1      38.058  33.050  33.038  1.00  0.00     0.074 A 
ATOM     48  C   UNL A   1      42.690  31.059  36.890  1.00  0.00     0.029 A 
ATOM     49  N   UNL A   1      41.211  31.263  35.243  1.00  0.00    -0.354 N 
ATOM     50  N   UNL A   1      39.031  32.567  33.774  1.00  0.00    -0.248 NA
ATOM     51  C   UNL A   1      37.388  34.221  33.619  1.00  0.00     0.031 C 
ATOM     52  C   UNL A   1      41.873  32.162  37.163  1.00  0.00     0.029 A 
ATOM     53  C   UNL A   1      40.963  32.302  36.127  1.00  0.00     0.049 A 
ATOM     54  H   UNL A   1      40.714  31.103  34.408  1.00  0.00     0.167 HD
ATOM     55  C   UNL A   1      39.104  33.388  34.894  1.00  0.00     0.074 A 
ATOM     56  C   UNL A   1      38.085  34.404  34.733  1.00  0.00     0.031 C 
ATOM     57  C   UNL A   1      39.941  33.306  35.958  1.00  0.00     0.037 A 
BRANCH  44  58
ATOM     58  C   UNL A   1      43.841  28.504  35.734  1.00  0.00     0.058 A 
ATOM     59  C   UNL A   1      45.205  28.745  35.498  1.00  0.00     0.135 A 
ATOM     60  C   UNL A   1      43.508  27.486  36.643  1.00  0.00     0.135 A 
ATOM     61  F   UNL A   1      45.582  29.699  34.632  1.00  0.00    -0.206 F 
ATOM     62  C   UNL A   1      46.196  27.973  36.095  1.00  0.00     0.059 A 
ATOM     63  C   UNL A   1      44.485  26.720  37.276  1.00  0.00     0.059 A 
ATOM     64  F   UNL A   1      42.222  27.216  36.915  1.00  0.00    -0.206 F 
ATOM     65  C   UNL A   1      45.826  26.956  36.976  1.00  0.00     0.060 A 
BRANCH  65  66
ATOM     66  S   UNL A   1      47.121  25.938  37.714  1.00  0.00     0.124 S 
ATOM     67  O   UNL A   1      48.144  25.969  36.671  1.00  0.00    -0.237 OA
ATOM     68  O   UNL A   1      47.441  26.671  38.935  1.00  0.00    -0.237 OA
ATOM     69  O   UNL A   1      46.467  24.648  37.914  1.00  0.00    -0.744 OA
ENDBRANCH  65  66
ENDBRANCH  44  58
BRANCH  45  70
ATOM     70  C   UNL A   1      36.446  33.273  31.006  1.00  0.00     0.058 A 
ATOM     71  C   UNL A   1      35.143  33.252  31.524  1.00  0.00     0.135 A 
ATOM     72  C   UNL A   1      36.675  34.018  29.839  1.00  0.00     0.135 A 
ATOM     73  F   UNL A   1      34.873  32.545  32.632  1.00  0.00    -0.206 F 
ATOM     74  C   UNL A   1      34.104  33.946  30.912  1.00  0.00     0.059 A 
ATOM     75  C   UNL A   1      35.658  34.741  29.222  1.00  0.00     0.059 A 
ATOM     76  F   UNL A   1      37.908  34.079  29.312  1.00  0.00    -0.206 F 
ATOM     77  C   UNL A   1      34.375  34.697  29.766  1.00  0.00     0.060 A 
BRANCH  77  78
ATOM     78  S   UNL A   1      33.037  35.661  29.030  1.00  0.00     0.124 S 
ATOM     79  O   UNL A   1      32.429  34.682  28.133  1.00  0.00    -0.237 OA
ATOM     80  O   UNL A   1      32.247  36.029  30.201  1.00  0.00    -0.237 OA
ATOM     81  O   UNL A   1      33.733  36.764  28.381  1.00  0.00    -0.744 OA
ENDBRANCH  77  78
ENDBRANCH  45  70
BRANCH  57  82
ATOM     82  C   UNL A   1      39.809  34.357  37.026  1.00  0.00     0.058 A 
ATOM     83  C   UNL A   1      40.392  35.627  36.886  1.00  0.00     0.135 A 
ATOM     84  C   UNL A   1      39.048  34.109  38.180  1.00  0.00     0.135 A 
ATOM     85  F   UNL A   1      41.135  35.914  35.806  1.00  0.00    -0.206 F 
ATOM     86  C   UNL A   1      40.242  36.607  37.862  1.00  0.00     0.059 A 
ATOM     87  C   UNL A   1      38.863  35.083  39.156  1.00  0.00     0.059 A 
ATOM     88  F   UNL A   1      38.460  32.915  38.358  1.00  0.00    -0.206 F 
ATOM     89  C   UNL A   1      39.473  36.325  38.994  1.00  0.00     0.060 A 
BRANCH  89  90
ATOM     90  S   UNL A   1      39.258  37.617  40.237  1.00  0.00     0.124 S 
ATOM     91  O   UNL A   1      38.218  38.440  39.629  1.00  0.00    -0.237 OA
ATOM     92  O   UNL A   1      38.856  36.855  41.415  1.00  0.00    -0.237 OA
ATOM     93  O   UNL A   1      40.579  38.234  40.318  1.00  0.00    -0.744 OA
ENDBRANCH  89  90
ENDBRANCH  57  82
ENDBRANCH  31  32
ENDBRANCH  23  26
ENDBRANCH  21  22
ENDBRANCH   1  21
TORSDOF 15
ENDMDL
