MODEL 1
REMARK VINA RESULT:     -13.3      0.000      0.000
REMARK SMILES O=C(NCCCNC(=O)[C@@H](Cc1c[nH]c2ccccc12)Nc1ncnc2ccccc12)c1ccc(-c2c3nc(c(-c4c(F)cc(S(=O)(=O)[O-])cc4F)c4ccc([nH]4)c(-c4c(F)cc(S(=O)(=O)[O-])cc4F)c4nc(c(-c5c(F)cc(S(=O)(=O)[O-])cc5F)c5ccc2[nH]5)C=C4)C=C3)cc1
REMARK SMILES IDX 4 1 3 2 1 3 2 4 32 6 33 7 97 8 34 9 96 10 35 11 36 12 37 13
REMARK SMILES IDX 90 14 38 15 95 16 89 17 91 18 39 19 94 20 88 21 87 22 40 24
REMARK SMILES IDX 74 25 53 26 73 27 54 28 57 29 72 30 92 31 55 32 56 33 71 35
REMARK SMILES IDX 93 36 58 37 41 38 42 39 51 40 43 41 44 42 50 43 52 44 45 45
REMARK SMILES IDX 46 46 47 47 48 48 49 49 75 50 76 51 85 52 77 53 78 54 84 55
REMARK SMILES IDX 86 56 79 57 80 58 81 59 82 60 83 61 59 62 60 63 69 64 61 65
REMARK SMILES IDX 62 66 68 67 70 68 63 69 64 70 65 71 66 72 67 73 5 74 6 75
REMARK SMILES IDX 7 76 8 77 9 79 10 80 11 81 12 82 13 83 20 84 14 85 15 86
REMARK SMILES IDX 19 87 16 89 18 90 17 91 21 92 22 94 23 95 31 96 24 97 26 98
REMARK SMILES IDX 30 99 25 100 27 101 29 102 28 103
REMARK H PARENT 3 5 91 23 57 34 7 78 14 88 21 93
REMARK Flexibility Score: inf
ROOT
ATOM      1  C   UNL A   1      35.280  31.471  28.164  1.00  0.00     0.118 C 
ENDROOT
BRANCH   1   2
ATOM      2  N   UNL A   1      35.366  31.157  29.580  1.00  0.00    -0.352 N 
ATOM      3  O   UNL A   1      35.952  30.174  31.487  1.00  0.00    -0.269 OA
ATOM      4  C   UNL A   1      36.270  30.437  30.324  1.00  0.00     0.251 C 
ATOM      5  H   UNL A   1      34.630  31.536  30.113  1.00  0.00     0.163 HD
BRANCH   4   6
ATOM      6  C   UNL A   1      37.584  29.945  29.815  1.00  0.00     0.039 A 
ATOM      7  C   UNL A   1      37.979  30.017  28.482  1.00  0.00     0.014 A 
ATOM      8  C   UNL A   1      38.533  29.517  30.761  1.00  0.00     0.014 A 
ATOM      9  C   UNL A   1      39.257  29.585  28.090  1.00  0.00     0.010 A 
ATOM     10  C   UNL A   1      39.836  29.155  30.377  1.00  0.00     0.010 A 
ATOM     11  C   UNL A   1      40.214  29.160  29.029  1.00  0.00    -0.014 A 
BRANCH  11  12
ATOM     12  C   UNL A   1      41.600  28.787  28.595  1.00  0.00     0.031 A 
ATOM     13  C   UNL A   1      42.729  29.795  28.590  1.00  0.00     0.074 A 
ATOM     14  C   UNL A   1      41.864  27.524  28.192  1.00  0.00     0.049 A 
ATOM     15  N   UNL A   1      43.984  29.630  28.243  1.00  0.00    -0.248 NA
ATOM     16  C   UNL A   1      42.407  31.165  29.014  1.00  0.00     0.031 C 
ATOM     17  C   UNL A   1      40.878  26.445  28.099  1.00  0.00     0.029 A 
ATOM     18  N   UNL A   1      43.040  26.928  27.797  1.00  0.00    -0.354 N 
ATOM     19  C   UNL A   1      44.591  30.876  28.375  1.00  0.00     0.074 A 
ATOM     20  C   UNL A   1      43.559  31.792  28.817  1.00  0.00     0.031 C 
ATOM     21  C   UNL A   1      41.498  25.311  27.736  1.00  0.00     0.029 A 
ATOM     22  C   UNL A   1      42.912  25.589  27.508  1.00  0.00     0.049 A 
ATOM     23  H   UNL A   1      43.892  27.415  27.728  1.00  0.00     0.167 HD
ATOM     24  C   UNL A   1      45.884  31.229  28.158  1.00  0.00     0.037 A 
ATOM     25  C   UNL A   1      43.819  24.679  27.096  1.00  0.00     0.037 A 
ATOM     26  C   UNL A   1      46.928  30.320  27.754  1.00  0.00     0.049 A 
ATOM     27  C   UNL A   1      45.248  25.091  26.878  1.00  0.00     0.074 A 
ATOM     28  C   UNL A   1      48.277  30.586  27.575  1.00  0.00     0.029 A 
ATOM     29  N   UNL A   1      46.751  28.976  27.465  1.00  0.00    -0.354 N 
ATOM     30  N   UNL A   1      45.803  26.266  27.050  1.00  0.00    -0.248 NA
ATOM     31  C   UNL A   1      46.174  24.050  26.405  1.00  0.00     0.031 C 
ATOM     32  C   UNL A   1      48.907  29.415  27.140  1.00  0.00     0.029 A 
ATOM     33  C   UNL A   1      47.960  28.406  27.092  1.00  0.00     0.049 A 
ATOM     34  H   UNL A   1      45.894  28.497  27.518  1.00  0.00     0.167 HD
ATOM     35  C   UNL A   1      47.146  26.101  26.727  1.00  0.00     0.074 A 
ATOM     36  C   UNL A   1      47.323  24.710  26.363  1.00  0.00     0.031 C 
ATOM     37  C   UNL A   1      48.140  27.022  26.733  1.00  0.00     0.037 A 
BRANCH  24  38
ATOM     38  C   UNL A   1      46.254  32.678  28.340  1.00  0.00     0.058 A 
ATOM     39  C   UNL A   1      46.163  33.604  27.290  1.00  0.00     0.135 A 
ATOM     40  C   UNL A   1      46.656  33.155  29.600  1.00  0.00     0.135 A 
ATOM     41  F   UNL A   1      45.794  33.201  26.064  1.00  0.00    -0.206 F 
ATOM     42  C   UNL A   1      46.486  34.945  27.473  1.00  0.00     0.059 A 
ATOM     43  C   UNL A   1      46.960  34.498  29.812  1.00  0.00     0.059 A 
ATOM     44  F   UNL A   1      46.752  32.315  30.642  1.00  0.00    -0.206 F 
ATOM     45  C   UNL A   1      46.887  35.382  28.737  1.00  0.00     0.060 A 
BRANCH  45  46
ATOM     46  S   UNL A   1      47.315  37.123  28.956  1.00  0.00     0.124 S 
ATOM     47  O   UNL A   1      47.954  37.426  27.679  1.00  0.00    -0.237 OA
ATOM     48  O   UNL A   1      46.011  37.741  29.174  1.00  0.00    -0.237 OA
ATOM     49  O   UNL A   1      48.202  37.111  30.115  1.00  0.00    -0.744 OA
ENDBRANCH  45  46
ENDBRANCH  24  38
BRANCH  25  50
ATOM     50  C   UNL A   1      43.400  23.269  26.874  1.00  0.00     0.058 A 
ATOM     51  C   UNL A   1      43.289  22.747  25.576  1.00  0.00     0.135 A 
ATOM     52  C   UNL A   1      43.116  22.414  27.951  1.00  0.00     0.135 A 
ATOM     53  F   UNL A   1      43.538  23.530  24.516  1.00  0.00    -0.206 F 
ATOM     54  C   UNL A   1      42.905  21.430  25.352  1.00  0.00     0.059 A 
ATOM     55  C   UNL A   1      42.756  21.085  27.752  1.00  0.00     0.059 A 
ATOM     56  F   UNL A   1      43.219  22.863  29.211  1.00  0.00    -0.206 F 
ATOM     57  C   UNL A   1      42.645  20.604  26.447  1.00  0.00     0.060 A 
BRANCH  57  58
ATOM     58  S   UNL A   1      42.210  18.877  26.150  1.00  0.00     0.124 S 
ATOM     59  O   UNL A   1      43.143  18.518  25.089  1.00  0.00    -0.237 OA
ATOM     60  O   UNL A   1      42.459  18.268  27.453  1.00  0.00    -0.237 OA
ATOM     61  O   UNL A   1      40.805  18.949  25.760  1.00  0.00    -0.744 OA
ENDBRANCH  57  58
ENDBRANCH  25  50
BRANCH  37  62
ATOM     62  C   UNL A   1      49.523  26.552  26.371  1.00  0.00     0.058 A 
ATOM     63  C   UNL A   1      50.031  26.679  25.068  1.00  0.00     0.135 A 
ATOM     64  C   UNL A   1      50.358  25.984  27.346  1.00  0.00     0.135 A 
ATOM     65  F   UNL A   1      49.272  27.208  24.096  1.00  0.00    -0.206 F 
ATOM     66  C   UNL A   1      51.306  26.231  24.738  1.00  0.00     0.059 A 
ATOM     67  C   UNL A   1      51.647  25.552  27.043  1.00  0.00     0.059 A 
ATOM     68  F   UNL A   1      49.927  25.848  28.610  1.00  0.00    -0.206 F 
ATOM     69  C   UNL A   1      52.106  25.664  25.732  1.00  0.00     0.060 A 
BRANCH  69  70
ATOM     70  S   UNL A   1      53.765  25.094  25.299  1.00  0.00     0.124 S 
ATOM     71  O   UNL A   1      53.941  25.685  23.976  1.00  0.00    -0.237 OA
ATOM     72  O   UNL A   1      54.582  25.674  26.364  1.00  0.00    -0.237 OA
ATOM     73  O   UNL A   1      53.646  23.643  25.330  1.00  0.00    -0.744 OA
ENDBRANCH  69  70
ENDBRANCH  37  62
ENDBRANCH  11  12
ENDBRANCH   4   6
ENDBRANCH   1   2
BRANCH   1  74
ATOM     74  C   UNL A   1      33.845  31.453  27.650  1.00  0.00     0.042 C 
BRANCH  74  75
ATOM     75  C   UNL A   1      33.312  30.106  27.160  1.00  0.00     0.117 C 
BRANCH  75  76
ATOM     76  N   UNL A   1      33.440  29.936  25.718  1.00  0.00    -0.354 N 
ATOM     77  C   UNL A   1      33.126  28.941  24.845  1.00  0.00     0.242 C 
ATOM     78  H   UNL A   1      33.843  30.719  25.276  1.00  0.00     0.163 HD
ATOM     79  O   UNL A   1      33.493  29.135  23.674  1.00  0.00    -0.273 OA
BRANCH  77  80
ATOM     80  C   UNL A   1      32.402  27.617  25.190  1.00  0.00     0.174 C 
BRANCH  80  81
ATOM     81  C   UNL A   1      31.770  26.949  23.962  1.00  0.00     0.072 C 
BRANCH  81  82
ATOM     82  C   UNL A   1      30.289  26.999  23.795  1.00  0.00    -0.020 A 
ATOM     83  C   UNL A   1      29.386  25.975  24.008  1.00  0.00     0.087 A 
ATOM     84  C   UNL A   1      29.525  28.163  23.463  1.00  0.00     0.003 A 
ATOM     85  N   UNL A   1      28.122  26.467  23.812  1.00  0.00    -0.361 N 
ATOM     86  C   UNL A   1      28.179  27.793  23.455  1.00  0.00     0.046 A 
ATOM     87  C   UNL A   1      29.863  29.491  23.121  1.00  0.00     0.010 A 
ATOM     88  H   UNL A   1      27.293  25.945  23.913  1.00  0.00     0.166 HD
ATOM     89  C   UNL A   1      27.155  28.681  23.106  1.00  0.00     0.026 A 
ATOM     90  C   UNL A   1      28.853  30.388  22.766  1.00  0.00     0.001 A 
ATOM     91  C   UNL A   1      27.519  29.987  22.764  1.00  0.00     0.002 A 
ENDBRANCH  81  82
ENDBRANCH  80  81
BRANCH  80  92
ATOM     92  N   UNL A   1      33.171  26.706  26.068  1.00  0.00    -0.358 N 
ATOM     93  H   UNL A   1      33.891  27.048  26.646  1.00  0.00     0.162 HD
BRANCH  92  94
ATOM     94  C   UNL A   1      32.846  25.348  26.055  1.00  0.00     0.137 A 
ATOM     95  N   UNL A   1      31.693  25.077  26.687  1.00  0.00    -0.219 NA
ATOM     96  C   UNL A   1      33.620  24.343  25.440  1.00  0.00     0.043 A 
ATOM     97  C   UNL A   1      31.273  23.808  26.642  1.00  0.00     0.224 A 
ATOM     98  C   UNL A   1      33.051  23.060  25.440  1.00  0.00     0.076 A 
ATOM     99  C   UNL A   1      34.906  24.510  24.870  1.00  0.00     0.014 A 
ATOM    100  N   UNL A   1      31.884  22.787  26.029  1.00  0.00    -0.236 NA
ATOM    101  C   UNL A   1      33.734  22.021  24.815  1.00  0.00     0.029 A 
ATOM    102  C   UNL A   1      35.574  23.458  24.246  1.00  0.00     0.001 A 
ATOM    103  C   UNL A   1      34.978  22.209  24.207  1.00  0.00     0.002 A 
ENDBRANCH  92  94
ENDBRANCH  80  92
ENDBRANCH  77  80
ENDBRANCH  75  76
ENDBRANCH  74  75
ENDBRANCH   1  74
TORSDOF 17
ENDMDL
MODEL 2
REMARK VINA RESULT:     -13.3      6.554     12.111
REMARK SMILES O=C(NCCCNC(=O)[C@@H](Cc1c[nH]c2ccccc12)Nc1ncnc2ccccc12)c1ccc(-c2c3nc(c(-c4c(F)cc(S(=O)(=O)[O-])cc4F)c4ccc([nH]4)c(-c4c(F)cc(S(=O)(=O)[O-])cc4F)c4nc(c(-c5c(F)cc(S(=O)(=O)[O-])cc5F)c5ccc2[nH]5)C=C4)C=C3)cc1
REMARK SMILES IDX 4 1 3 2 1 3 2 4 32 6 33 7 97 8 34 9 96 10 35 11 36 12 37 13
REMARK SMILES IDX 90 14 38 15 95 16 89 17 91 18 39 19 94 20 88 21 87 22 40 24
REMARK SMILES IDX 74 25 53 26 73 27 54 28 57 29 72 30 92 31 55 32 56 33 71 35
REMARK SMILES IDX 93 36 58 37 41 38 42 39 51 40 43 41 44 42 50 43 52 44 45 45
REMARK SMILES IDX 46 46 47 47 48 48 49 49 75 50 76 51 85 52 77 53 78 54 84 55
REMARK SMILES IDX 86 56 79 57 80 58 81 59 82 60 83 61 59 62 60 63 69 64 61 65
REMARK SMILES IDX 62 66 68 67 70 68 63 69 64 70 65 71 66 72 67 73 5 74 6 75
REMARK SMILES IDX 7 76 8 77 9 79 10 80 11 81 12 82 13 83 20 84 14 85 15 86
REMARK SMILES IDX 19 87 16 89 18 90 17 91 21 92 22 94 23 95 31 96 24 97 26 98
REMARK SMILES IDX 30 99 25 100 27 101 29 102 28 103
REMARK H PARENT 3 5 91 23 57 34 7 78 14 88 21 93
REMARK Flexibility Score: inf
ROOT
ATOM      1  C   UNL A   1      39.509  23.105  26.639  1.00  0.00     0.118 C 
ENDROOT
BRANCH   1   2
ATOM      2  N   UNL A   1      40.811  23.547  26.169  1.00  0.00    -0.352 N 
ATOM      3  O   UNL A   1      42.546  24.855  25.696  1.00  0.00    -0.269 OA
ATOM      4  C   UNL A   1      41.561  24.672  26.416  1.00  0.00     0.251 C 
ATOM      5  H   UNL A   1      41.242  22.914  25.550  1.00  0.00     0.163 HD
BRANCH   4   6
ATOM      6  C   UNL A   1      41.253  25.680  27.473  1.00  0.00     0.039 A 
ATOM      7  C   UNL A   1      40.188  25.572  28.364  1.00  0.00     0.014 A 
ATOM      8  C   UNL A   1      42.176  26.720  27.673  1.00  0.00     0.014 A 
ATOM      9  C   UNL A   1      39.997  26.534  29.371  1.00  0.00     0.010 A 
ATOM     10  C   UNL A   1      42.025  27.640  28.726  1.00  0.00     0.010 A 
ATOM     11  C   UNL A   1      40.917  27.576  29.581  1.00  0.00    -0.014 A 
BRANCH  11  12
ATOM     12  C   UNL A   1      40.738  28.538  30.717  1.00  0.00     0.031 A 
ATOM     13  C   UNL A   1      41.623  28.492  31.944  1.00  0.00     0.074 A 
ATOM     14  C   UNL A   1      39.766  29.475  30.660  1.00  0.00     0.049 A 
ATOM     15  N   UNL A   1      41.597  29.254  33.012  1.00  0.00    -0.248 NA
ATOM     16  C   UNL A   1      42.659  27.451  31.985  1.00  0.00     0.031 C 
ATOM     17  C   UNL A   1      38.803  29.627  29.567  1.00  0.00     0.029 A 
ATOM     18  N   UNL A   1      39.431  30.484  31.534  1.00  0.00    -0.354 N 
ATOM     19  C   UNL A   1      42.585  28.766  33.862  1.00  0.00     0.074 A 
ATOM     20  C   UNL A   1      43.180  27.628  33.192  1.00  0.00     0.031 C 
ATOM     21  C   UNL A   1      38.030  30.699  29.804  1.00  0.00     0.029 A 
ATOM     22  C   UNL A   1      38.396  31.277  31.093  1.00  0.00     0.049 A 
ATOM     23  H   UNL A   1      39.889  30.625  32.393  1.00  0.00     0.167 HD
ATOM     24  C   UNL A   1      42.969  29.221  35.083  1.00  0.00     0.037 A 
ATOM     25  C   UNL A   1      37.793  32.345  31.656  1.00  0.00     0.037 A 
ATOM     26  C   UNL A   1      42.410  30.373  35.745  1.00  0.00     0.049 A 
ATOM     27  C   UNL A   1      38.248  32.839  33.001  1.00  0.00     0.074 A 
ATOM     28  C   UNL A   1      42.789  30.937  36.954  1.00  0.00     0.029 A 
ATOM     29  N   UNL A   1      41.360  31.140  35.266  1.00  0.00    -0.354 N 
ATOM     30  N   UNL A   1      39.211  32.384  33.764  1.00  0.00    -0.248 NA
ATOM     31  C   UNL A   1      37.528  33.992  33.562  1.00  0.00     0.031 C 
ATOM     32  C   UNL A   1      41.942  32.018  37.224  1.00  0.00     0.029 A 
ATOM     33  C   UNL A   1      41.066  32.158  36.161  1.00  0.00     0.049 A 
ATOM     34  H   UNL A   1      40.892  30.985  34.414  1.00  0.00     0.167 HD
ATOM     35  C   UNL A   1      39.227  33.208  34.885  1.00  0.00     0.074 A 
ATOM     36  C   UNL A   1      38.187  34.197  34.695  1.00  0.00     0.031 C 
ATOM     37  C   UNL A   1      40.034  33.146  35.973  1.00  0.00     0.037 A 
BRANCH  24  38
ATOM     38  C   UNL A   1      44.051  28.460  35.805  1.00  0.00     0.058 A 
ATOM     39  C   UNL A   1      45.410  28.758  35.628  1.00  0.00     0.135 A 
ATOM     40  C   UNL A   1      43.717  27.454  36.728  1.00  0.00     0.135 A 
ATOM     41  F   UNL A   1      45.787  29.703  34.752  1.00  0.00    -0.206 F 
ATOM     42  C   UNL A   1      46.403  28.064  36.315  1.00  0.00     0.059 A 
ATOM     43  C   UNL A   1      44.691  26.764  37.445  1.00  0.00     0.059 A 
ATOM     44  F   UNL A   1      42.431  27.134  36.942  1.00  0.00    -0.206 F 
ATOM     45  C   UNL A   1      46.033  27.067  37.219  1.00  0.00     0.060 A 
BRANCH  45  46
ATOM     46  S   UNL A   1      47.332  26.168  38.094  1.00  0.00     0.124 S 
ATOM     47  O   UNL A   1      46.553  25.415  39.073  1.00  0.00    -0.237 OA
ATOM     48  O   UNL A   1      47.941  25.379  37.028  1.00  0.00    -0.237 OA
ATOM     49  O   UNL A   1      48.170  27.230  38.641  1.00  0.00    -0.744 OA
ENDBRANCH  45  46
ENDBRANCH  24  38
BRANCH  25  50
ATOM     50  C   UNL A   1      36.691  33.036  30.934  1.00  0.00     0.058 A 
ATOM     51  C   UNL A   1      35.351  32.805  31.278  1.00  0.00     0.135 A 
ATOM     52  C   UNL A   1      36.954  33.946  29.899  1.00  0.00     0.135 A 
ATOM     53  F   UNL A   1      35.049  31.933  32.252  1.00  0.00    -0.206 F 
ATOM     54  C   UNL A   1      34.308  33.446  30.617  1.00  0.00     0.059 A 
ATOM     55  C   UNL A   1      35.931  34.620  29.241  1.00  0.00     0.059 A 
ATOM     56  F   UNL A   1      38.221  34.209  29.541  1.00  0.00    -0.206 F 
ATOM     57  C   UNL A   1      34.609  34.357  29.603  1.00  0.00     0.060 A 
BRANCH  57  58
ATOM     58  S   UNL A   1      33.255  35.235  28.794  1.00  0.00     0.124 S 
ATOM     59  O   UNL A   1      32.658  34.176  27.989  1.00  0.00    -0.237 OA
ATOM     60  O   UNL A   1      32.464  35.697  29.931  1.00  0.00    -0.237 OA
ATOM     61  O   UNL A   1      33.938  36.288  28.049  1.00  0.00    -0.744 OA
ENDBRANCH  57  58
ENDBRANCH  25  50
BRANCH  37  62
ATOM     62  C   UNL A   1      39.852  34.200  37.031  1.00  0.00     0.058 A 
ATOM     63  C   UNL A   1      39.091  33.967  38.187  1.00  0.00     0.135 A 
ATOM     64  C   UNL A   1      40.465  35.456  36.895  1.00  0.00     0.135 A 
ATOM     65  F   UNL A   1      38.477  32.786  38.364  1.00  0.00    -0.206 F 
ATOM     66  C   UNL A   1      38.918  34.951  39.155  1.00  0.00     0.059 A 
ATOM     67  C   UNL A   1      40.326  36.447  37.863  1.00  0.00     0.059 A 
ATOM     68  F   UNL A   1      41.213  35.730  35.813  1.00  0.00    -0.206 F 
ATOM     69  C   UNL A   1      39.536  36.191  38.982  1.00  0.00     0.060 A 
BRANCH  69  70
ATOM     70  S   UNL A   1      39.316  37.461  40.248  1.00  0.00     0.124 S 
ATOM     71  O   UNL A   1      38.465  38.422  39.552  1.00  0.00    -0.237 OA
ATOM     72  O   UNL A   1      38.675  36.717  41.331  1.00  0.00    -0.237 OA
ATOM     73  O   UNL A   1      40.675  37.907  40.523  1.00  0.00    -0.744 OA
ENDBRANCH  69  70
ENDBRANCH  37  62
ENDBRANCH  11  12
ENDBRANCH   4   6
ENDBRANCH   1   2
BRANCH   1  74
ATOM     74  C   UNL A   1      39.101  21.762  26.045  1.00  0.00     0.042 C 
BRANCH  74  75
ATOM     75  C   UNL A   1      37.736  21.707  25.356  1.00  0.00     0.117 C 
BRANCH  75  76
ATOM     76  N   UNL A   1      36.649  22.158  26.216  1.00  0.00    -0.354 N 
ATOM     77  C   UNL A   1      35.410  22.674  25.992  1.00  0.00     0.242 C 
ATOM     78  H   UNL A   1      36.858  22.068  27.174  1.00  0.00     0.163 HD
ATOM     79  O   UNL A   1      34.802  23.042  27.012  1.00  0.00    -0.273 OA
BRANCH  77  80
ATOM     80  C   UNL A   1      34.734  22.863  24.612  1.00  0.00     0.174 C 
BRANCH  80  81
ATOM     81  C   UNL A   1      33.238  22.519  24.632  1.00  0.00     0.072 C 
BRANCH  81  82
ATOM     82  C   UNL A   1      32.727  21.471  23.704  1.00  0.00    -0.020 A 
ATOM     83  C   UNL A   1      31.944  21.656  22.580  1.00  0.00     0.087 A 
ATOM     84  C   UNL A   1      33.035  20.074  23.769  1.00  0.00     0.003 A 
ATOM     85  N   UNL A   1      31.762  20.440  21.976  1.00  0.00    -0.361 N 
ATOM     86  C   UNL A   1      32.397  19.454  22.693  1.00  0.00     0.046 A 
ATOM     87  C   UNL A   1      33.762  19.274  24.676  1.00  0.00     0.010 A 
ATOM     88  H   UNL A   1      31.251  20.294  21.147  1.00  0.00     0.166 HD
ATOM     89  C   UNL A   1      32.438  18.070  22.489  1.00  0.00     0.026 A 
ATOM     90  C   UNL A   1      33.809  17.890  24.488  1.00  0.00     0.001 A 
ATOM     91  C   UNL A   1      33.158  17.301  23.407  1.00  0.00     0.002 A 
ENDBRANCH  81  82
ENDBRANCH  80  81
BRANCH  80  92
ATOM     92  N   UNL A   1      35.072  24.132  23.929  1.00  0.00    -0.358 N 
ATOM     93  H   UNL A   1      36.011  24.390  23.776  1.00  0.00     0.162 HD
BRANCH  92  94
ATOM     94  C   UNL A   1      34.026  24.952  23.506  1.00  0.00     0.137 A 
ATOM     95  N   UNL A   1      33.694  24.759  22.219  1.00  0.00    -0.219 NA
ATOM     96  C   UNL A   1      33.356  25.886  24.322  1.00  0.00     0.043 A 
ATOM     97  C   UNL A   1      32.641  25.448  21.765  1.00  0.00     0.224 A 
ATOM     98  C   UNL A   1      32.253  26.522  23.731  1.00  0.00     0.076 A 
ATOM     99  C   UNL A   1      33.719  26.253  25.641  1.00  0.00     0.014 A 
ATOM    100  N   UNL A   1      31.888  26.306  22.464  1.00  0.00    -0.236 NA
ATOM    101  C   UNL A   1      31.514  27.427  24.486  1.00  0.00     0.029 A 
ATOM    102  C   UNL A   1      32.964  27.160  26.383  1.00  0.00     0.001 A 
ATOM    103  C   UNL A   1      31.847  27.741  25.806  1.00  0.00     0.002 A 
ENDBRANCH  92  94
ENDBRANCH  80  92
ENDBRANCH  77  80
ENDBRANCH  75  76
ENDBRANCH  74  75
ENDBRANCH   1  74
TORSDOF 17
ENDMDL
MODEL 3
REMARK VINA RESULT:     -12.8      2.909      5.007
REMARK SMILES O=C(NCCCNC(=O)[C@@H](Cc1c[nH]c2ccccc12)Nc1ncnc2ccccc12)c1ccc(-c2c3nc(c(-c4c(F)cc(S(=O)(=O)[O-])cc4F)c4ccc([nH]4)c(-c4c(F)cc(S(=O)(=O)[O-])cc4F)c4nc(c(-c5c(F)cc(S(=O)(=O)[O-])cc5F)c5ccc2[nH]5)C=C4)C=C3)cc1
REMARK SMILES IDX 4 1 3 2 1 3 2 4 32 6 33 7 97 8 34 9 96 10 35 11 36 12 37 13
REMARK SMILES IDX 90 14 38 15 95 16 89 17 91 18 39 19 94 20 88 21 87 22 40 24
REMARK SMILES IDX 74 25 53 26 73 27 54 28 57 29 72 30 92 31 55 32 56 33 71 35
REMARK SMILES IDX 93 36 58 37 41 38 42 39 51 40 43 41 44 42 50 43 52 44 45 45
REMARK SMILES IDX 46 46 47 47 48 48 49 49 75 50 76 51 85 52 77 53 78 54 84 55
REMARK SMILES IDX 86 56 79 57 80 58 81 59 82 60 83 61 59 62 60 63 69 64 61 65
REMARK SMILES IDX 62 66 68 67 70 68 63 69 64 70 65 71 66 72 67 73 5 74 6 75
REMARK SMILES IDX 7 76 8 77 9 79 10 80 11 81 12 82 13 83 20 84 14 85 15 86
REMARK SMILES IDX 19 87 16 89 18 90 17 91 21 92 22 94 23 95 31 96 24 97 26 98
REMARK SMILES IDX 30 99 25 100 27 101 29 102 28 103
REMARK H PARENT 3 5 91 23 57 34 7 78 14 88 21 93
REMARK Flexibility Score: inf
ROOT
ATOM      1  C   UNL A   1      33.953  27.991  26.125  1.00  0.00     0.118 C 
ENDROOT
BRANCH   1   2
ATOM      2  N   UNL A   1      33.651  29.280  26.725  1.00  0.00    -0.352 N 
ATOM      3  O   UNL A   1      33.713  31.031  28.094  1.00  0.00    -0.269 OA
ATOM      4  C   UNL A   1      34.335  30.083  27.607  1.00  0.00     0.251 C 
ATOM      5  H   UNL A   1      32.784  29.652  26.443  1.00  0.00     0.163 HD
BRANCH   4   6
ATOM      6  C   UNL A   1      35.753  29.871  28.019  1.00  0.00     0.039 A 
ATOM      7  C   UNL A   1      36.135  29.359  29.257  1.00  0.00     0.014 A 
ATOM      8  C   UNL A   1      36.752  30.065  27.049  1.00  0.00     0.014 A 
ATOM      9  C   UNL A   1      37.491  29.134  29.549  1.00  0.00     0.010 A 
ATOM     10  C   UNL A   1      38.100  29.769  27.319  1.00  0.00     0.010 A 
ATOM     11  C   UNL A   1      38.497  29.320  28.585  1.00  0.00    -0.014 A 
BRANCH  11  12
ATOM     12  C   UNL A   1      39.926  28.989  28.894  1.00  0.00     0.031 A 
ATOM     13  C   UNL A   1      40.837  29.976  29.592  1.00  0.00     0.074 A 
ATOM     14  C   UNL A   1      40.431  27.785  28.545  1.00  0.00     0.049 A 
ATOM     15  N   UNL A   1      42.097  29.842  29.931  1.00  0.00    -0.248 NA
ATOM     16  C   UNL A   1      40.266  31.285  29.942  1.00  0.00     0.031 C 
ATOM     17  C   UNL A   1      39.697  26.738  27.831  1.00  0.00     0.029 A 
ATOM     18  N   UNL A   1      41.673  27.231  28.752  1.00  0.00    -0.354 N 
ATOM     19  C   UNL A   1      42.478  31.054  30.501  1.00  0.00     0.074 A 
ATOM     20  C   UNL A   1      41.317  31.919  30.445  1.00  0.00     0.031 C 
ATOM     21  C   UNL A   1      40.478  25.652  27.714  1.00  0.00     0.029 A 
ATOM     22  C   UNL A   1      41.788  25.941  28.287  1.00  0.00     0.049 A 
ATOM     23  H   UNL A   1      42.410  27.712  29.192  1.00  0.00     0.167 HD
ATOM     24  C   UNL A   1      43.675  31.416  31.029  1.00  0.00     0.037 A 
ATOM     25  C   UNL A   1      42.827  25.080  28.305  1.00  0.00     0.037 A 
ATOM     26  C   UNL A   1      44.828  30.554  31.125  1.00  0.00     0.049 A 
ATOM     27  C   UNL A   1      44.138  25.500  28.910  1.00  0.00     0.074 A 
ATOM     28  C   UNL A   1      46.058  30.826  31.704  1.00  0.00     0.029 A 
ATOM     29  N   UNL A   1      44.901  29.260  30.634  1.00  0.00    -0.354 N 
ATOM     30  N   UNL A   1      44.458  26.636  29.479  1.00  0.00    -0.248 NA
ATOM     31  C   UNL A   1      45.231  24.516  28.871  1.00  0.00     0.031 C 
ATOM     32  C   UNL A   1      46.886  29.712  31.528  1.00  0.00     0.029 A 
ATOM     33  C   UNL A   1      46.158  28.728  30.881  1.00  0.00     0.049 A 
ATOM     34  H   UNL A   1      44.168  28.788  30.179  1.00  0.00     0.167 HD
ATOM     35  C   UNL A   1      45.781  26.498  29.883  1.00  0.00     0.074 A 
ATOM     36  C   UNL A   1      46.198  25.163  29.508  1.00  0.00     0.031 C 
ATOM     37  C   UNL A   1      46.575  27.399  30.511  1.00  0.00     0.037 A 
BRANCH  24  38
ATOM     38  C   UNL A   1      43.816  32.826  31.543  1.00  0.00     0.058 A 
ATOM     39  C   UNL A   1      43.521  33.163  32.872  1.00  0.00     0.135 A 
ATOM     40  C   UNL A   1      44.307  33.842  30.704  1.00  0.00     0.135 A 
ATOM     41  F   UNL A   1      43.040  32.235  33.714  1.00  0.00    -0.206 F 
ATOM     42  C   UNL A   1      43.674  34.464  33.344  1.00  0.00     0.059 A 
ATOM     43  C   UNL A   1      44.492  35.144  31.161  1.00  0.00     0.059 A 
ATOM     44  F   UNL A   1      44.614  33.573  29.425  1.00  0.00    -0.206 F 
ATOM     45  C   UNL A   1      44.157  35.448  32.480  1.00  0.00     0.060 A 
BRANCH  45  46
ATOM     46  S   UNL A   1      44.340  37.133  33.103  1.00  0.00     0.124 S 
ATOM     47  O   UNL A   1      45.666  37.074  33.711  1.00  0.00    -0.237 OA
ATOM     48  O   UNL A   1      44.237  37.931  31.886  1.00  0.00    -0.237 OA
ATOM     49  O   UNL A   1      43.227  37.272  34.037  1.00  0.00    -0.744 OA
ENDBRANCH  45  46
ENDBRANCH  24  38
BRANCH  25  50
ATOM     50  C   UNL A   1      42.663  23.714  27.738  1.00  0.00     0.058 A 
ATOM     51  C   UNL A   1      42.752  23.495  26.355  1.00  0.00     0.135 A 
ATOM     52  C   UNL A   1      42.427  22.604  28.564  1.00  0.00     0.135 A 
ATOM     53  F   UNL A   1      42.963  24.527  25.525  1.00  0.00    -0.206 F 
ATOM     54  C   UNL A   1      42.607  22.224  25.809  1.00  0.00     0.059 A 
ATOM     55  C   UNL A   1      42.305  21.320  28.044  1.00  0.00     0.059 A 
ATOM     56  F   UNL A   1      42.345  22.762  29.894  1.00  0.00    -0.206 F 
ATOM     57  C   UNL A   1      42.388  21.141  26.662  1.00  0.00     0.060 A 
BRANCH  57  58
ATOM     58  S   UNL A   1      42.266  19.485  25.953  1.00  0.00     0.124 S 
ATOM     59  O   UNL A   1      40.840  19.395  25.665  1.00  0.00    -0.237 OA
ATOM     60  O   UNL A   1      43.147  19.581  24.793  1.00  0.00    -0.237 OA
ATOM     61  O   UNL A   1      42.751  18.625  27.027  1.00  0.00    -0.744 OA
ENDBRANCH  57  58
ENDBRANCH  25  50
BRANCH  37  62
ATOM     62  C   UNL A   1      47.970  26.963  30.868  1.00  0.00     0.058 A 
ATOM     63  C   UNL A   1      49.057  27.176  30.006  1.00  0.00     0.135 A 
ATOM     64  C   UNL A   1      48.226  26.340  32.100  1.00  0.00     0.135 A 
ATOM     65  F   UNL A   1      48.867  27.761  28.812  1.00  0.00    -0.206 F 
ATOM     66  C   UNL A   1      50.343  26.759  30.337  1.00  0.00     0.059 A 
ATOM     67  C   UNL A   1      49.508  25.936  32.463  1.00  0.00     0.059 A 
ATOM     68  F   UNL A   1      47.225  26.120  32.968  1.00  0.00    -0.206 F 
ATOM     69  C   UNL A   1      50.558  26.136  31.567  1.00  0.00     0.060 A 
BRANCH  69  70
ATOM     70  S   UNL A   1      52.231  25.606  31.998  1.00  0.00     0.124 S 
ATOM     71  O   UNL A   1      52.026  24.186  32.272  1.00  0.00    -0.237 OA
ATOM     72  O   UNL A   1      52.979  25.912  30.780  1.00  0.00    -0.237 OA
ATOM     73  O   UNL A   1      52.563  26.429  33.152  1.00  0.00    -0.744 OA
ENDBRANCH  69  70
ENDBRANCH  37  62
ENDBRANCH  11  12
ENDBRANCH   4   6
ENDBRANCH   1   2
BRANCH   1  74
ATOM     74  C   UNL A   1      32.845  26.969  26.353  1.00  0.00     0.042 C 
BRANCH  74  75
ATOM     75  C   UNL A   1      33.225  25.499  26.171  1.00  0.00     0.117 C 
BRANCH  75  76
ATOM     76  N   UNL A   1      32.124  24.589  26.461  1.00  0.00    -0.354 N 
ATOM     77  C   UNL A   1      31.326  23.788  25.703  1.00  0.00     0.242 C 
ATOM     78  H   UNL A   1      31.909  24.543  27.421  1.00  0.00     0.163 HD
ATOM     79  O   UNL A   1      30.406  23.226  26.321  1.00  0.00    -0.273 OA
BRANCH  77  80
ATOM     80  C   UNL A   1      31.450  23.555  24.177  1.00  0.00     0.174 C 
BRANCH  80  81
ATOM     81  C   UNL A   1      31.760  22.095  23.824  1.00  0.00     0.072 C 
BRANCH  81  82
ATOM     82  C   UNL A   1      32.952  21.442  24.436  1.00  0.00    -0.020 A 
ATOM     83  C   UNL A   1      32.974  20.314  25.234  1.00  0.00     0.087 A 
ATOM     84  C   UNL A   1      34.315  21.829  24.228  1.00  0.00     0.003 A 
ATOM     85  N   UNL A   1      34.279  20.012  25.520  1.00  0.00    -0.361 N 
ATOM     86  C   UNL A   1      35.117  20.933  24.939  1.00  0.00     0.046 A 
ATOM     87  C   UNL A   1      34.936  22.890  23.536  1.00  0.00     0.010 A 
ATOM     88  H   UNL A   1      34.574  19.246  26.063  1.00  0.00     0.166 HD
ATOM     89  C   UNL A   1      36.510  21.058  25.004  1.00  0.00     0.026 A 
ATOM     90  C   UNL A   1      36.325  23.031  23.595  1.00  0.00     0.001 A 
ATOM     91  C   UNL A   1      37.098  22.124  24.316  1.00  0.00     0.002 A 
ENDBRANCH  81  82
ENDBRANCH  80  81
BRANCH  80  92
ATOM     92  N   UNL A   1      30.376  24.177  23.370  1.00  0.00    -0.358 N 
ATOM     93  H   UNL A   1      29.731  23.623  22.873  1.00  0.00     0.162 HD
BRANCH  92  94
ATOM     94  C   UNL A   1      30.301  25.570  23.333  1.00  0.00     0.137 A 
ATOM     95  N   UNL A   1      29.089  26.041  23.665  1.00  0.00    -0.219 NA
ATOM     96  C   UNL A   1      31.373  26.424  22.999  1.00  0.00     0.043 A 
ATOM     97  C   UNL A   1      28.965  27.371  23.736  1.00  0.00     0.224 A 
ATOM     98  C   UNL A   1      31.117  27.796  23.141  1.00  0.00     0.076 A 
ATOM     99  C   UNL A   1      32.640  26.021  22.509  1.00  0.00     0.014 A 
ATOM    100  N   UNL A   1      29.926  28.274  23.512  1.00  0.00    -0.236 NA
ATOM    101  C   UNL A   1      32.137  28.703  22.872  1.00  0.00     0.029 A 
ATOM    102  C   UNL A   1      33.651  26.944  22.248  1.00  0.00     0.001 A 
ATOM    103  C   UNL A   1      33.402  28.292  22.442  1.00  0.00     0.002 A 
ENDBRANCH  92  94
ENDBRANCH  80  92
ENDBRANCH  77  80
ENDBRANCH  75  76
ENDBRANCH  74  75
ENDBRANCH   1  74
TORSDOF 17
ENDMDL
