MODEL 1
REMARK VINA RESULT:     -11.8      0.000      0.000
REMARK SMILES O=C(C[C@@H](NC(=O)c1ccco1)c1ccc(OC2CCCC2)cc1)NCCCNC(=O)c1ccc(-c2c3nc(c(-c4c(F)cc(S(=O)(=O)[O-])cc4F)c4ccc([nH]4)c(-c4c(F)cc(S(=O)(=O)[O-])cc4F)c4nc(c(-c5c(F)cc(S(=O)(=O)[O-])cc5F)c5ccc2[nH]5)C=C4)C=C3)cc1
REMARK SMILES IDX 26 1 25 2 1 3 2 4 3 6 4 7 5 8 6 9 7 11 8 12 9 13 12 14 10 15
REMARK SMILES IDX 11 16 13 17 14 18 24 19 15 20 23 21 16 22 17 23 18 24 19 25
REMARK SMILES IDX 22 26 20 27 21 28 27 29 28 30 29 31 30 32 31 34 32 35 33 36
REMARK SMILES IDX 97 37 34 38 96 39 35 40 36 41 37 42 90 43 38 44 95 45 89 46
REMARK SMILES IDX 91 47 39 48 94 49 88 50 87 51 40 53 74 54 53 55 73 56 54 57
REMARK SMILES IDX 57 58 72 59 92 60 55 61 56 62 71 64 93 65 58 66 41 67 42 68
REMARK SMILES IDX 51 69 43 70 44 71 50 72 52 73 45 74 46 75 47 76 48 77 49 78
REMARK SMILES IDX 75 79 76 80 85 81 77 82 78 83 84 84 86 85 79 86 80 87 81 88
REMARK SMILES IDX 82 89 83 90 59 91 60 92 69 93 61 94 62 95 68 96 70 97 63 98
REMARK SMILES IDX 64 99 65 100 66 101 67 102
REMARK H PARENT 25 5 5 10 29 33 91 52 57 63
REMARK Flexibility Score: inf
ROOT
ATOM      1  C   UNL A   1      39.794  22.082  26.446  1.00  0.00     0.117 C 
ENDROOT
BRANCH   1   2
ATOM      2  N   UNL A   1      38.561  22.845  26.455  1.00  0.00    -0.356 N 
ATOM      3  O   UNL A   1      37.633  21.813  24.619  1.00  0.00    -0.275 OA
ATOM      4  C   UNL A   1      37.581  22.659  25.506  1.00  0.00     0.222 C 
ATOM      5  H   UNL A   1      38.421  23.518  27.159  1.00  0.00     0.163 HD
BRANCH   4   6
ATOM      6  C   UNL A   1      36.376  23.548  25.681  1.00  0.00     0.129 C 
BRANCH   6   7
ATOM      7  C   UNL A   1      35.454  23.433  24.452  1.00  0.00     0.122 C 
BRANCH   7   8
ATOM      8  N   UNL A   1      34.702  22.167  24.452  1.00  0.00    -0.342 N 
ATOM      9  C   UNL A   1      34.109  21.703  25.611  1.00  0.00     0.287 C 
ATOM     10  H   UNL A   1      34.620  21.649  23.619  1.00  0.00     0.164 HD
ATOM     11  O   UNL A   1      34.735  20.887  26.289  1.00  0.00    -0.266 OA
BRANCH   9  12
ATOM     12  C   UNL A   1      32.786  22.212  25.896  1.00  0.00     0.191 A 
ATOM     13  C   UNL A   1      31.546  21.911  25.361  1.00  0.00     0.056 A 
ATOM     14  O   UNL A   1      32.640  23.184  26.850  1.00  0.00    -0.459 OA
ATOM     15  C   UNL A   1      30.608  22.767  25.982  1.00  0.00     0.043 A 
ATOM     16  C   UNL A   1      31.324  23.525  26.877  1.00  0.00     0.196 A 
ENDBRANCH   9  12
ENDBRANCH   7   8
BRANCH   7  17
ATOM     17  C   UNL A   1      34.543  24.640  24.261  1.00  0.00    -0.025 A 
ATOM     18  C   UNL A   1      34.375  25.552  25.313  1.00  0.00     0.010 A 
ATOM     19  C   UNL A   1      33.900  24.915  23.047  1.00  0.00     0.010 A 
ATOM     20  C   UNL A   1      33.624  26.718  25.130  1.00  0.00     0.047 A 
ATOM     21  C   UNL A   1      33.124  26.067  22.881  1.00  0.00     0.047 A 
ATOM     22  C   UNL A   1      33.003  26.993  23.910  1.00  0.00     0.119 A 
BRANCH  22  23
ATOM     23  O   UNL A   1      32.344  28.184  23.869  1.00  0.00    -0.490 OA
BRANCH  23  24
ATOM     24  C   UNL A   1      30.931  28.297  23.966  1.00  0.00     0.173 C 
ATOM     25  C   UNL A   1      30.191  28.916  22.781  1.00  0.00     0.045 C 
ATOM     26  C   UNL A   1      30.183  27.019  24.348  1.00  0.00     0.045 C 
ATOM     27  C   UNL A   1      28.750  28.492  23.021  1.00  0.00     0.004 C 
ATOM     28  C   UNL A   1      28.845  27.089  23.614  1.00  0.00     0.004 C 
ENDBRANCH  23  24
ENDBRANCH  22  23
ENDBRANCH   7  17
ENDBRANCH   6   7
ENDBRANCH   4   6
ENDBRANCH   1   2
BRANCH   1  29
ATOM     29  C   UNL A   1      40.670  22.360  27.662  1.00  0.00     0.042 C 
BRANCH  29  30
ATOM     30  C   UNL A   1      41.911  23.203  27.378  1.00  0.00     0.118 C 
BRANCH  30  31
ATOM     31  N   UNL A   1      41.736  24.115  26.255  1.00  0.00    -0.352 N 
ATOM     32  C   UNL A   1      41.402  25.448  26.262  1.00  0.00     0.251 C 
ATOM     33  H   UNL A   1      41.880  23.720  25.365  1.00  0.00     0.163 HD
ATOM     34  O   UNL A   1      41.178  26.027  25.201  1.00  0.00    -0.269 OA
BRANCH  32  35
ATOM     35  C   UNL A   1      41.278  26.173  27.543  1.00  0.00     0.039 A 
ATOM     36  C   UNL A   1      42.293  27.058  27.917  1.00  0.00     0.014 A 
ATOM     37  C   UNL A   1      40.166  25.985  28.370  1.00  0.00     0.014 A 
ATOM     38  C   UNL A   1      42.158  27.816  29.082  1.00  0.00     0.010 A 
ATOM     39  C   UNL A   1      40.013  26.771  29.510  1.00  0.00     0.010 A 
ATOM     40  C   UNL A   1      41.000  27.704  29.868  1.00  0.00    -0.014 A 
BRANCH  40  41
ATOM     41  C   UNL A   1      40.781  28.570  31.052  1.00  0.00     0.031 A 
ATOM     42  C   UNL A   1      39.722  29.634  31.023  1.00  0.00     0.074 A 
ATOM     43  C   UNL A   1      41.599  28.457  32.116  1.00  0.00     0.049 A 
ATOM     44  N   UNL A   1      39.485  30.584  31.888  1.00  0.00    -0.248 NA
ATOM     45  C   UNL A   1      38.826  29.641  29.857  1.00  0.00     0.031 C 
ATOM     46  C   UNL A   1      42.685  27.484  32.251  1.00  0.00     0.029 A 
ATOM     47  N   UNL A   1      41.655  29.183  33.279  1.00  0.00    -0.354 N 
ATOM     48  C   UNL A   1      38.440  31.328  31.357  1.00  0.00     0.074 A 
ATOM     49  C   UNL A   1      38.089  30.718  30.091  1.00  0.00     0.031 C 
ATOM     50  C   UNL A   1      43.299  27.672  33.432  1.00  0.00     0.029 A 
ATOM     51  C   UNL A   1      42.671  28.795  34.121  1.00  0.00     0.049 A 
ATOM     52  H   UNL A   1      41.028  29.911  33.491  1.00  0.00     0.167 HD
ATOM     53  C   UNL A   1      37.828  32.418  31.878  1.00  0.00     0.037 A 
ATOM     54  C   UNL A   1      43.064  29.299  35.306  1.00  0.00     0.037 A 
ATOM     55  C   UNL A   1      38.151  33.001  33.152  1.00  0.00     0.049 A 
ATOM     56  C   UNL A   1      42.337  30.477  35.887  1.00  0.00     0.074 A 
ATOM     57  C   UNL A   1      37.562  34.086  33.778  1.00  0.00     0.029 A 
ATOM     58  N   UNL A   1      39.145  32.539  34.001  1.00  0.00    -0.354 N 
ATOM     59  N   UNL A   1      41.342  31.161  35.375  1.00  0.00    -0.248 NA
ATOM     60  C   UNL A   1      42.784  30.953  37.203  1.00  0.00     0.031 C 
ATOM     61  C   UNL A   1      38.207  34.284  35.006  1.00  0.00     0.029 A 
ATOM     62  C   UNL A   1      39.185  33.314  35.149  1.00  0.00     0.049 A 
ATOM     63  H   UNL A   1      39.735  31.773  33.816  1.00  0.00     0.167 HD
ATOM     64  C   UNL A   1      41.037  32.142  36.310  1.00  0.00     0.074 A 
ATOM     65  C   UNL A   1      41.947  31.959  37.423  1.00  0.00     0.031 C 
ATOM     66  C   UNL A   1      40.089  33.107  36.250  1.00  0.00     0.037 A 
BRANCH  53  67
ATOM     67  C   UNL A   1      36.750  33.053  31.053  1.00  0.00     0.058 A 
ATOM     68  C   UNL A   1      35.391  32.830  31.327  1.00  0.00     0.135 A 
ATOM     69  C   UNL A   1      37.078  33.895  29.979  1.00  0.00     0.135 A 
ATOM     70  F   UNL A   1      35.030  32.018  32.332  1.00  0.00    -0.206 F 
ATOM     71  C   UNL A   1      34.392  33.400  30.545  1.00  0.00     0.059 A 
ATOM     72  C   UNL A   1      36.094  34.488  29.194  1.00  0.00     0.059 A 
ATOM     73  F   UNL A   1      38.363  34.136  29.676  1.00  0.00    -0.206 F 
ATOM     74  C   UNL A   1      34.754  34.220  29.475  1.00  0.00     0.060 A 
BRANCH  74  75
ATOM     75  S   UNL A   1      33.457  34.947  28.451  1.00  0.00     0.124 S 
ATOM     76  O   UNL A   1      34.230  35.855  27.609  1.00  0.00    -0.237 OA
ATOM     77  O   UNL A   1      32.892  33.784  27.772  1.00  0.00    -0.237 OA
ATOM     78  O   UNL A   1      32.579  35.585  29.425  1.00  0.00    -0.744 OA
ENDBRANCH  74  75
ENDBRANCH  53  67
BRANCH  54  79
ATOM     79  C   UNL A   1      44.201  28.677  36.025  1.00  0.00     0.058 A 
ATOM     80  C   UNL A   1      45.505  29.163  35.855  1.00  0.00     0.135 A 
ATOM     81  C   UNL A   1      44.003  27.617  36.921  1.00  0.00     0.135 A 
ATOM     82  F   UNL A   1      45.738  30.175  35.006  1.00  0.00    -0.206 F 
ATOM     83  C   UNL A   1      46.579  28.616  36.548  1.00  0.00     0.059 A 
ATOM     84  C   UNL A   1      45.060  27.061  37.633  1.00  0.00     0.059 A 
ATOM     85  F   UNL A   1      42.769  27.130  37.124  1.00  0.00    -0.206 F 
ATOM     86  C   UNL A   1      46.346  27.564  37.436  1.00  0.00     0.060 A 
BRANCH  86  87
ATOM     87  S   UNL A   1      47.728  26.900  38.391  1.00  0.00     0.124 S 
ATOM     88  O   UNL A   1      47.463  27.455  39.713  1.00  0.00    -0.237 OA
ATOM     89  O   UNL A   1      47.543  25.459  38.255  1.00  0.00    -0.237 OA
ATOM     90  O   UNL A   1      48.895  27.440  37.699  1.00  0.00    -0.744 OA
ENDBRANCH  86  87
ENDBRANCH  54  79
BRANCH  66  91
ATOM     91  C   UNL A   1      39.968  34.025  37.428  1.00  0.00     0.058 A 
ATOM     92  C   UNL A   1      40.728  35.200  37.516  1.00  0.00     0.135 A 
ATOM     93  C   UNL A   1      39.041  33.757  38.447  1.00  0.00     0.135 A 
ATOM     94  F   UNL A   1      41.631  35.493  36.567  1.00  0.00    -0.206 F 
ATOM     95  C   UNL A   1      40.574  36.082  38.581  1.00  0.00     0.059 A 
ATOM     96  C   UNL A   1      38.865  34.631  39.515  1.00  0.00     0.059 A 
ATOM     97  F   UNL A   1      38.291  32.645  38.403  1.00  0.00    -0.206 F 
ATOM     98  C   UNL A   1      39.640  35.789  39.575  1.00  0.00     0.060 A 
BRANCH  98  99
ATOM     99  S   UNL A   1      39.404  36.961  40.930  1.00  0.00     0.124 S 
ATOM    100  O   UNL A   1      38.420  37.874  40.359  1.00  0.00    -0.237 OA
ATOM    101  O   UNL A   1      38.923  36.107  42.012  1.00  0.00    -0.237 OA
ATOM    102  O   UNL A   1      40.740  37.516  41.127  1.00  0.00    -0.744 OA
ENDBRANCH  98  99
ENDBRANCH  66  91
ENDBRANCH  40  41
ENDBRANCH  32  35
ENDBRANCH  30  31
ENDBRANCH  29  30
ENDBRANCH   1  29
TORSDOF 19
ENDMDL
MODEL 2
REMARK VINA RESULT:     -11.7      5.971      8.449
REMARK SMILES O=C(C[C@@H](NC(=O)c1ccco1)c1ccc(OC2CCCC2)cc1)NCCCNC(=O)c1ccc(-c2c3nc(c(-c4c(F)cc(S(=O)(=O)[O-])cc4F)c4ccc([nH]4)c(-c4c(F)cc(S(=O)(=O)[O-])cc4F)c4nc(c(-c5c(F)cc(S(=O)(=O)[O-])cc5F)c5ccc2[nH]5)C=C4)C=C3)cc1
REMARK SMILES IDX 26 1 25 2 1 3 2 4 3 6 4 7 5 8 6 9 7 11 8 12 9 13 12 14 10 15
REMARK SMILES IDX 11 16 13 17 14 18 24 19 15 20 23 21 16 22 17 23 18 24 19 25
REMARK SMILES IDX 22 26 20 27 21 28 27 29 28 30 29 31 30 32 31 34 32 35 33 36
REMARK SMILES IDX 97 37 34 38 96 39 35 40 36 41 37 42 90 43 38 44 95 45 89 46
REMARK SMILES IDX 91 47 39 48 94 49 88 50 87 51 40 53 74 54 53 55 73 56 54 57
REMARK SMILES IDX 57 58 72 59 92 60 55 61 56 62 71 64 93 65 58 66 41 67 42 68
REMARK SMILES IDX 51 69 43 70 44 71 50 72 52 73 45 74 46 75 47 76 48 77 49 78
REMARK SMILES IDX 75 79 76 80 85 81 77 82 78 83 84 84 86 85 79 86 80 87 81 88
REMARK SMILES IDX 82 89 83 90 59 91 60 92 69 93 61 94 62 95 68 96 70 97 63 98
REMARK SMILES IDX 64 99 65 100 66 101 67 102
REMARK H PARENT 25 5 5 10 29 33 91 52 57 63
REMARK Flexibility Score: inf
ROOT
ATOM      1  C   UNL A   1      36.547  21.427  25.569  1.00  0.00     0.117 C 
ENDROOT
BRANCH   1   2
ATOM      2  N   UNL A   1      35.729  22.128  24.598  1.00  0.00    -0.356 N 
ATOM      3  O   UNL A   1      35.604  24.101  25.775  1.00  0.00    -0.275 OA
ATOM      4  C   UNL A   1      35.299  23.419  24.802  1.00  0.00     0.222 C 
ATOM      5  H   UNL A   1      35.473  21.666  23.768  1.00  0.00     0.163 HD
BRANCH   4   6
ATOM      6  C   UNL A   1      34.458  23.975  23.682  1.00  0.00     0.129 C 
BRANCH   6   7
ATOM      7  C   UNL A   1      32.985  24.070  24.125  1.00  0.00     0.122 C 
BRANCH   7   8
ATOM      8  N   UNL A   1      32.731  23.282  25.342  1.00  0.00    -0.342 N 
ATOM      9  C   UNL A   1      31.817  22.245  25.330  1.00  0.00     0.287 C 
ATOM     10  H   UNL A   1      33.217  23.495  26.172  1.00  0.00     0.164 HD
ATOM     11  O   UNL A   1      30.670  22.486  25.708  1.00  0.00    -0.266 OA
BRANCH   9  12
ATOM     12  C   UNL A   1      32.318  20.962  24.890  1.00  0.00     0.191 A 
ATOM     13  C   UNL A   1      32.322  20.349  23.650  1.00  0.00     0.056 A 
ATOM     14  O   UNL A   1      32.902  20.127  25.806  1.00  0.00    -0.459 OA
ATOM     15  C   UNL A   1      32.891  19.067  23.823  1.00  0.00     0.043 A 
ATOM     16  C   UNL A   1      33.224  18.978  25.153  1.00  0.00     0.196 A 
ENDBRANCH   9  12
ENDBRANCH   7   8
BRANCH   7  17
ATOM     17  C   UNL A   1      32.481  25.502  24.254  1.00  0.00    -0.025 A 
ATOM     18  C   UNL A   1      32.852  26.455  23.295  1.00  0.00     0.010 A 
ATOM     19  C   UNL A   1      31.605  25.904  25.272  1.00  0.00     0.010 A 
ATOM     20  C   UNL A   1      32.324  27.750  23.336  1.00  0.00     0.047 A 
ATOM     21  C   UNL A   1      31.106  27.210  25.326  1.00  0.00     0.047 A 
ATOM     22  C   UNL A   1      31.436  28.135  24.343  1.00  0.00     0.119 A 
BRANCH  22  23
ATOM     23  O   UNL A   1      30.974  29.410  24.228  1.00  0.00    -0.490 OA
BRANCH  23  24
ATOM     24  C   UNL A   1      29.898  29.776  23.375  1.00  0.00     0.173 C 
ATOM     25  C   UNL A   1      28.840  28.714  23.080  1.00  0.00     0.045 C 
ATOM     26  C   UNL A   1      29.156  31.061  23.749  1.00  0.00     0.045 C 
ATOM     27  C   UNL A   1      27.677  29.532  22.539  1.00  0.00     0.004 C 
ATOM     28  C   UNL A   1      27.701  30.830  23.342  1.00  0.00     0.004 C 
ENDBRANCH  23  24
ENDBRANCH  22  23
ENDBRANCH   7  17
ENDBRANCH   6   7
ENDBRANCH   4   6
ENDBRANCH   1   2
BRANCH   1  29
ATOM     29  C   UNL A   1      37.884  20.970  24.997  1.00  0.00     0.042 C 
BRANCH  29  30
ATOM     30  C   UNL A   1      39.064  21.087  25.957  1.00  0.00     0.118 C 
BRANCH  30  31
ATOM     31  N   UNL A   1      39.946  19.927  25.921  1.00  0.00    -0.352 N 
ATOM     32  C   UNL A   1      41.310  19.868  26.068  1.00  0.00     0.251 C 
ATOM     33  H   UNL A   1      39.499  19.063  25.772  1.00  0.00     0.163 HD
ATOM     34  O   UNL A   1      41.900  18.806  25.883  1.00  0.00    -0.269 OA
BRANCH  32  35
ATOM     35  C   UNL A   1      42.071  21.087  26.414  1.00  0.00     0.039 A 
ATOM     36  C   UNL A   1      42.479  21.940  25.385  1.00  0.00     0.014 A 
ATOM     37  C   UNL A   1      42.377  21.389  27.744  1.00  0.00     0.014 A 
ATOM     38  C   UNL A   1      43.127  23.139  25.694  1.00  0.00     0.010 A 
ATOM     39  C   UNL A   1      42.985  22.604  28.054  1.00  0.00     0.010 A 
ATOM     40  C   UNL A   1      43.351  23.496  27.033  1.00  0.00    -0.014 A 
BRANCH  40  41
ATOM     41  C   UNL A   1      43.940  24.808  27.396  1.00  0.00     0.031 A 
ATOM     42  C   UNL A   1      43.060  25.920  27.886  1.00  0.00     0.074 A 
ATOM     43  C   UNL A   1      45.255  25.022  27.196  1.00  0.00     0.049 A 
ATOM     44  N   UNL A   1      43.359  27.174  28.100  1.00  0.00    -0.248 NA
ATOM     45  C   UNL A   1      41.652  25.581  28.147  1.00  0.00     0.031 C 
ATOM     46  C   UNL A   1      46.209  24.030  26.694  1.00  0.00     0.029 A 
ATOM     47  N   UNL A   1      46.011  26.153  27.370  1.00  0.00    -0.354 N 
ATOM     48  C   UNL A   1      42.174  27.786  28.485  1.00  0.00     0.074 A 
ATOM     49  C   UNL A   1      41.148  26.764  28.472  1.00  0.00     0.031 C 
ATOM     50  C   UNL A   1      47.424  24.597  26.605  1.00  0.00     0.029 A 
ATOM     51  C   UNL A   1      47.328  25.995  27.011  1.00  0.00     0.049 A 
ATOM     52  H   UNL A   1      45.645  26.998  27.720  1.00  0.00     0.167 HD
ATOM     53  C   UNL A   1      41.961  29.080  28.820  1.00  0.00     0.037 A 
ATOM     54  C   UNL A   1      48.342  26.882  26.994  1.00  0.00     0.037 A 
ATOM     55  C   UNL A   1      42.987  30.088  28.870  1.00  0.00     0.049 A 
ATOM     56  C   UNL A   1      48.092  28.300  27.418  1.00  0.00     0.074 A 
ATOM     57  C   UNL A   1      42.872  31.419  29.231  1.00  0.00     0.029 A 
ATOM     58  N   UNL A   1      44.320  29.870  28.559  1.00  0.00    -0.354 N 
ATOM     59  N   UNL A   1      46.965  28.859  27.790  1.00  0.00    -0.248 NA
ATOM     60  C   UNL A   1      49.246  29.209  27.420  1.00  0.00     0.031 C 
ATOM     61  C   UNL A   1      44.138  32.009  29.131  1.00  0.00     0.029 A 
ATOM     62  C   UNL A   1      45.041  31.042  28.723  1.00  0.00     0.049 A 
ATOM     63  H   UNL A   1      44.699  29.011  28.265  1.00  0.00     0.167 HD
ATOM     64  C   UNL A   1      47.277  30.181  28.080  1.00  0.00     0.074 A 
ATOM     65  C   UNL A   1      48.698  30.338  27.848  1.00  0.00     0.031 C 
ATOM     66  C   UNL A   1      46.457  31.174  28.500  1.00  0.00     0.037 A 
BRANCH  53  67
ATOM     67  C   UNL A   1      40.553  29.476  29.150  1.00  0.00     0.058 A 
ATOM     68  C   UNL A   1      40.141  29.677  30.476  1.00  0.00     0.135 A 
ATOM     69  C   UNL A   1      39.608  29.659  28.129  1.00  0.00     0.135 A 
ATOM     70  F   UNL A   1      41.005  29.497  31.486  1.00  0.00    -0.206 F 
ATOM     71  C   UNL A   1      38.828  30.021  30.782  1.00  0.00     0.059 A 
ATOM     72  C   UNL A   1      38.293  30.018  28.412  1.00  0.00     0.059 A 
ATOM     73  F   UNL A   1      39.954  29.475  26.845  1.00  0.00    -0.206 F 
ATOM     74  C   UNL A   1      37.909  30.179  29.743  1.00  0.00     0.060 A 
BRANCH  74  75
ATOM     75  S   UNL A   1      36.201  30.608  30.141  1.00  0.00     0.124 S 
ATOM     76  O   UNL A   1      35.468  29.808  29.165  1.00  0.00    -0.237 OA
ATOM     77  O   UNL A   1      36.077  30.179  31.531  1.00  0.00    -0.237 OA
ATOM     78  O   UNL A   1      36.161  32.051  29.930  1.00  0.00    -0.744 OA
ENDBRANCH  74  75
ENDBRANCH  53  67
BRANCH  54  79
ATOM     79  C   UNL A   1      49.692  26.442  26.566  1.00  0.00     0.058 A 
ATOM     80  C   UNL A   1      50.566  25.834  27.478  1.00  0.00     0.135 A 
ATOM     81  C   UNL A   1      50.117  26.586  25.238  1.00  0.00     0.135 A 
ATOM     82  F   UNL A   1      50.199  25.681  28.759  1.00  0.00    -0.206 F 
ATOM     83  C   UNL A   1      51.822  25.384  27.088  1.00  0.00     0.059 A 
ATOM     84  C   UNL A   1      51.364  26.132  24.822  1.00  0.00     0.059 A 
ATOM     85  F   UNL A   1      49.306  27.150  24.330  1.00  0.00    -0.206 F 
ATOM     86  C   UNL A   1      52.213  25.537  25.756  1.00  0.00     0.060 A 
BRANCH  86  87
ATOM     87  S   UNL A   1      53.814  24.887  25.231  1.00  0.00     0.124 S 
ATOM     88  O   UNL A   1      53.522  23.464  25.098  1.00  0.00    -0.237 OA
ATOM     89  O   UNL A   1      54.055  25.609  23.985  1.00  0.00    -0.237 OA
ATOM     90  O   UNL A   1      54.695  25.254  26.336  1.00  0.00    -0.744 OA
ENDBRANCH  86  87
ENDBRANCH  54  79
BRANCH  66  91
ATOM     91  C   UNL A   1      47.078  32.513  28.760  1.00  0.00     0.058 A 
ATOM     92  C   UNL A   1      47.611  32.837  30.015  1.00  0.00     0.135 A 
ATOM     93  C   UNL A   1      47.196  33.454  27.726  1.00  0.00     0.135 A 
ATOM     94  F   UNL A   1      47.515  31.969  31.034  1.00  0.00    -0.206 F 
ATOM     95  C   UNL A   1      48.240  34.058  30.241  1.00  0.00     0.059 A 
ATOM     96  C   UNL A   1      47.829  34.677  27.927  1.00  0.00     0.059 A 
ATOM     97  F   UNL A   1      46.702  33.186  26.508  1.00  0.00    -0.206 F 
ATOM     98  C   UNL A   1      48.344  34.971  29.190  1.00  0.00     0.060 A 
BRANCH  98  99
ATOM     99  S   UNL A   1      49.207  36.534  29.470  1.00  0.00     0.124 S 
ATOM    100  O   UNL A   1      50.441  36.078  30.099  1.00  0.00    -0.237 OA
ATOM    101  O   UNL A   1      49.345  37.069  28.119  1.00  0.00    -0.237 OA
ATOM    102  O   UNL A   1      48.291  37.270  30.336  1.00  0.00    -0.744 OA
ENDBRANCH  98  99
ENDBRANCH  66  91
ENDBRANCH  40  41
ENDBRANCH  32  35
ENDBRANCH  30  31
ENDBRANCH  29  30
ENDBRANCH   1  29
TORSDOF 19
ENDMDL
MODEL 3
REMARK VINA RESULT:     -11.7      6.347     11.514
REMARK SMILES O=C(C[C@@H](NC(=O)c1ccco1)c1ccc(OC2CCCC2)cc1)NCCCNC(=O)c1ccc(-c2c3nc(c(-c4c(F)cc(S(=O)(=O)[O-])cc4F)c4ccc([nH]4)c(-c4c(F)cc(S(=O)(=O)[O-])cc4F)c4nc(c(-c5c(F)cc(S(=O)(=O)[O-])cc5F)c5ccc2[nH]5)C=C4)C=C3)cc1
REMARK SMILES IDX 26 1 25 2 1 3 2 4 3 6 4 7 5 8 6 9 7 11 8 12 9 13 12 14 10 15
REMARK SMILES IDX 11 16 13 17 14 18 24 19 15 20 23 21 16 22 17 23 18 24 19 25
REMARK SMILES IDX 22 26 20 27 21 28 27 29 28 30 29 31 30 32 31 34 32 35 33 36
REMARK SMILES IDX 97 37 34 38 96 39 35 40 36 41 37 42 90 43 38 44 95 45 89 46
REMARK SMILES IDX 91 47 39 48 94 49 88 50 87 51 40 53 74 54 53 55 73 56 54 57
REMARK SMILES IDX 57 58 72 59 92 60 55 61 56 62 71 64 93 65 58 66 41 67 42 68
REMARK SMILES IDX 51 69 43 70 44 71 50 72 52 73 45 74 46 75 47 76 48 77 49 78
REMARK SMILES IDX 75 79 76 80 85 81 77 82 78 83 84 84 86 85 79 86 80 87 81 88
REMARK SMILES IDX 82 89 83 90 59 91 60 92 69 93 61 94 62 95 68 96 70 97 63 98
REMARK SMILES IDX 64 99 65 100 66 101 67 102
REMARK H PARENT 25 5 5 10 29 33 91 52 57 63
REMARK Flexibility Score: inf
ROOT
ATOM      1  C   UNL A   1      32.957  29.948  26.991  1.00  0.00     0.117 C 
ENDROOT
BRANCH   1   2
ATOM      2  N   UNL A   1      33.579  28.687  26.635  1.00  0.00    -0.356 N 
ATOM      3  O   UNL A   1      31.615  27.561  26.227  1.00  0.00    -0.275 OA
ATOM      4  C   UNL A   1      32.839  27.576  26.304  1.00  0.00     0.222 C 
ATOM      5  H   UNL A   1      34.562  28.624  26.632  1.00  0.00     0.163 HD
BRANCH   4   6
ATOM      6  C   UNL A   1      33.665  26.360  25.968  1.00  0.00     0.129 C 
BRANCH   6   7
ATOM      7  C   UNL A   1      32.951  25.516  24.895  1.00  0.00     0.122 C 
BRANCH   7   8
ATOM      8  N   UNL A   1      33.136  26.079  23.547  1.00  0.00    -0.342 N 
ATOM      9  C   UNL A   1      32.062  26.211  22.688  1.00  0.00     0.287 C 
ATOM     10  H   UNL A   1      34.033  26.364  23.257  1.00  0.00     0.164 HD
ATOM     11  O   UNL A   1      31.868  25.311  21.869  1.00  0.00    -0.266 OA
BRANCH   9  12
ATOM     12  C   UNL A   1      31.282  27.420  22.827  1.00  0.00     0.191 A 
ATOM     13  C   UNL A   1      31.653  28.748  22.947  1.00  0.00     0.056 A 
ATOM     14  O   UNL A   1      29.916  27.330  22.869  1.00  0.00    -0.459 OA
ATOM     15  C   UNL A   1      30.465  29.496  23.115  1.00  0.00     0.043 A 
ATOM     16  C   UNL A   1      29.436  28.587  23.064  1.00  0.00     0.196 A 
ENDBRANCH   9  12
ENDBRANCH   7   8
BRANCH   7  17
ATOM     17  C   UNL A   1      33.306  24.036  24.951  1.00  0.00    -0.025 A 
ATOM     18  C   UNL A   1      33.957  23.439  23.862  1.00  0.00     0.010 A 
ATOM     19  C   UNL A   1      33.059  23.243  26.080  1.00  0.00     0.010 A 
ATOM     20  C   UNL A   1      34.382  22.108  23.929  1.00  0.00     0.047 A 
ATOM     21  C   UNL A   1      33.457  21.903  26.127  1.00  0.00     0.047 A 
ATOM     22  C   UNL A   1      34.148  21.332  25.066  1.00  0.00     0.119 A 
BRANCH  22  23
ATOM     23  O   UNL A   1      34.656  20.070  25.001  1.00  0.00    -0.490 OA
BRANCH  23  24
ATOM     24  C   UNL A   1      33.886  18.937  24.626  1.00  0.00     0.173 C 
ATOM     25  C   UNL A   1      32.814  19.137  23.555  1.00  0.00     0.045 C 
ATOM     26  C   UNL A   1      34.679  17.686  24.243  1.00  0.00     0.045 C 
ATOM     27  C   UNL A   1      32.514  17.714  23.104  1.00  0.00     0.004 C 
ATOM     28  C   UNL A   1      33.856  16.992  23.159  1.00  0.00     0.004 C 
ENDBRANCH  23  24
ENDBRANCH  22  23
ENDBRANCH   7  17
ENDBRANCH   6   7
ENDBRANCH   4   6
ENDBRANCH   1   2
BRANCH   1  29
ATOM     29  C   UNL A   1      33.970  31.020  27.375  1.00  0.00     0.042 C 
BRANCH  29  30
ATOM     30  C   UNL A   1      35.169  30.513  28.171  1.00  0.00     0.118 C 
BRANCH  30  31
ATOM     31  N   UNL A   1      35.214  31.035  29.530  1.00  0.00    -0.352 N 
ATOM     32  C   UNL A   1      36.226  30.962  30.457  1.00  0.00     0.251 C 
ATOM     33  H   UNL A   1      34.404  31.510  29.826  1.00  0.00     0.163 HD
ATOM     34  O   UNL A   1      36.034  31.358  31.604  1.00  0.00    -0.269 OA
BRANCH  32  35
ATOM     35  C   UNL A   1      37.530  30.377  30.083  1.00  0.00     0.039 A 
ATOM     36  C   UNL A   1      37.969  30.498  28.761  1.00  0.00     0.014 A 
ATOM     37  C   UNL A   1      38.319  29.716  31.030  1.00  0.00     0.014 A 
ATOM     38  C   UNL A   1      39.234  30.026  28.405  1.00  0.00     0.010 A 
ATOM     39  C   UNL A   1      39.596  29.283  30.683  1.00  0.00     0.010 A 
ATOM     40  C   UNL A   1      40.071  29.447  29.372  1.00  0.00    -0.014 A 
BRANCH  40  41
ATOM     41  C   UNL A   1      41.458  29.033  29.048  1.00  0.00     0.031 A 
ATOM     42  C   UNL A   1      42.568  30.043  29.050  1.00  0.00     0.074 A 
ATOM     43  C   UNL A   1      41.697  27.765  28.662  1.00  0.00     0.049 A 
ATOM     44  N   UNL A   1      43.803  29.911  28.645  1.00  0.00    -0.248 NA
ATOM     45  C   UNL A   1      42.237  31.385  29.555  1.00  0.00     0.031 C 
ATOM     46  C   UNL A   1      40.696  26.698  28.587  1.00  0.00     0.029 A 
ATOM     47  N   UNL A   1      42.856  27.165  28.238  1.00  0.00    -0.354 N 
ATOM     48  C   UNL A   1      44.390  31.159  28.808  1.00  0.00     0.074 A 
ATOM     49  C   UNL A   1      43.373  32.037  29.348  1.00  0.00     0.031 C 
ATOM     50  C   UNL A   1      41.286  25.573  28.148  1.00  0.00     0.029 A 
ATOM     51  C   UNL A   1      42.695  25.847  27.881  1.00  0.00     0.049 A 
ATOM     52  H   UNL A   1      43.721  27.633  28.195  1.00  0.00     0.167 HD
ATOM     53  C   UNL A   1      45.661  31.537  28.535  1.00  0.00     0.037 A 
ATOM     54  C   UNL A   1      43.578  24.964  27.377  1.00  0.00     0.037 A 
ATOM     55  C   UNL A   1      46.683  30.656  28.035  1.00  0.00     0.049 A 
ATOM     56  C   UNL A   1      44.995  25.393  27.129  1.00  0.00     0.074 A 
ATOM     57  C   UNL A   1      48.008  30.942  27.759  1.00  0.00     0.029 A 
ATOM     58  N   UNL A   1      46.493  29.314  27.745  1.00  0.00    -0.354 N 
ATOM     59  N   UNL A   1      45.535  26.576  27.300  1.00  0.00    -0.248 NA
ATOM     60  C   UNL A   1      45.921  24.373  26.620  1.00  0.00     0.031 C 
ATOM     61  C   UNL A   1      48.620  29.770  27.296  1.00  0.00     0.029 A 
ATOM     62  C   UNL A   1      47.678  28.755  27.297  1.00  0.00     0.049 A 
ATOM     63  H   UNL A   1      45.641  28.829  27.843  1.00  0.00     0.167 HD
ATOM     64  C   UNL A   1      46.868  26.439  26.930  1.00  0.00     0.074 A 
ATOM     65  C   UNL A   1      47.054  25.058  26.533  1.00  0.00     0.031 C 
ATOM     66  C   UNL A   1      47.846  27.375  26.920  1.00  0.00     0.037 A 
BRANCH  53  67
ATOM     67  C   UNL A   1      46.009  32.977  28.766  1.00  0.00     0.058 A 
ATOM     68  C   UNL A   1      46.515  33.419  29.998  1.00  0.00     0.135 A 
ATOM     69  C   UNL A   1      45.836  33.923  27.744  1.00  0.00     0.135 A 
ATOM     70  F   UNL A   1      46.680  32.554  31.009  1.00  0.00    -0.206 F 
ATOM     71  C   UNL A   1      46.814  34.760  30.219  1.00  0.00     0.059 A 
ATOM     72  C   UNL A   1      46.143  35.267  27.939  1.00  0.00     0.059 A 
ATOM     73  F   UNL A   1      45.351  33.549  26.550  1.00  0.00    -0.206 F 
ATOM     74  C   UNL A   1      46.615  35.677  29.186  1.00  0.00     0.060 A 
BRANCH  74  75
ATOM     75  S   UNL A   1      46.987  37.420  29.478  1.00  0.00     0.124 S 
ATOM     76  O   UNL A   1      48.289  37.549  28.832  1.00  0.00    -0.237 OA
ATOM     77  O   UNL A   1      45.881  38.101  28.811  1.00  0.00    -0.237 OA
ATOM     78  O   UNL A   1      46.993  37.521  30.933  1.00  0.00    -0.744 OA
ENDBRANCH  74  75
ENDBRANCH  53  67
BRANCH  54  79
ATOM     79  C   UNL A   1      43.140  23.578  27.084  1.00  0.00     0.058 A 
ATOM     80  C   UNL A   1      42.926  23.161  25.762  1.00  0.00     0.135 A 
ATOM     81  C   UNL A   1      42.968  22.638  28.109  1.00  0.00     0.135 A 
ATOM     82  F   UNL A   1      43.078  24.031  24.752  1.00  0.00    -0.206 F 
ATOM     83  C   UNL A   1      42.551  21.857  25.465  1.00  0.00     0.059 A 
ATOM     84  C   UNL A   1      42.604  21.324  27.835  1.00  0.00     0.059 A 
ATOM     85  F   UNL A   1      43.177  22.990  29.387  1.00  0.00    -0.206 F 
ATOM     86  C   UNL A   1      42.392  20.943  26.510  1.00  0.00     0.060 A 
BRANCH  86  87
ATOM     87  S   UNL A   1      41.975  19.229  26.121  1.00  0.00     0.124 S 
ATOM     88  O   UNL A   1      42.390  18.545  27.340  1.00  0.00    -0.237 OA
ATOM     89  O   UNL A   1      40.536  19.299  25.887  1.00  0.00    -0.237 OA
ATOM     90  O   UNL A   1      42.780  18.957  24.934  1.00  0.00    -0.744 OA
ENDBRANCH  86  87
ENDBRANCH  54  79
BRANCH  66  91
ATOM     91  C   UNL A   1      49.212  26.935  26.489  1.00  0.00     0.058 A 
ATOM     92  C   UNL A   1      50.119  26.376  27.401  1.00  0.00     0.135 A 
ATOM     93  C   UNL A   1      49.593  27.017  25.141  1.00  0.00     0.135 A 
ATOM     94  F   UNL A   1      49.798  26.285  28.701  1.00  0.00    -0.206 F 
ATOM     95  C   UNL A   1      51.365  25.914  26.991  1.00  0.00     0.059 A 
ATOM     96  C   UNL A   1      50.831  26.552  24.708  1.00  0.00     0.059 A 
ATOM     97  F   UNL A   1      48.757  27.543  24.233  1.00  0.00    -0.206 F 
ATOM     98  C   UNL A   1      51.712  26.006  25.642  1.00  0.00     0.060 A 
BRANCH  98  99
ATOM     99  S   UNL A   1      53.309  25.358  25.102  1.00  0.00     0.124 S 
ATOM    100  O   UNL A   1      53.307  25.714  23.687  1.00  0.00    -0.237 OA
ATOM    101  O   UNL A   1      54.252  26.094  25.938  1.00  0.00    -0.237 OA
ATOM    102  O   UNL A   1      53.206  23.931  25.393  1.00  0.00    -0.744 OA
ENDBRANCH  98  99
ENDBRANCH  66  91
ENDBRANCH  40  41
ENDBRANCH  32  35
ENDBRANCH  30  31
ENDBRANCH  29  30
ENDBRANCH   1  29
TORSDOF 19
ENDMDL
