MODEL 1
REMARK VINA RESULT:     -10.1      0.000      0.000
REMARK SMILES C[C@@H]1C[C@@H](C)C[NH+](C(C)(C)C(=O)NCCCNC(=O)c2ccc(-c3c4nc(c(-c5c(F)cc(S(=O)(=O)[O-])cc5F)c5ccc([nH]5)c(-c5c(F)cc(S(=O)(=O)[O-])cc5F)c5nc(c(-c6c(F)cc(S(=O)(=O)[O-])cc6F)c6ccc3[nH]6)C=C5)C=C4)cc2)C1
REMARK SMILES IDX 16 1 15 2 14 3 13 4 11 5 12 6 8 8 9 9 10 10 7 11 1 12 2 13
REMARK SMILES IDX 3 14 86 15 4 16 6 17 5 18 17 20 18 21 19 23 20 24 21 25
REMARK SMILES IDX 85 26 22 27 84 28 23 29 24 30 25 31 78 32 26 33 83 34 77 35
REMARK SMILES IDX 79 36 27 37 82 38 76 39 75 40 28 42 62 43 41 44 61 45 42 46
REMARK SMILES IDX 45 47 60 48 80 49 43 50 44 51 59 53 81 54 46 55 29 56 30 57
REMARK SMILES IDX 39 58 31 59 32 60 38 61 40 62 33 63 34 64 35 65 36 66 37 67
REMARK SMILES IDX 63 68 64 69 73 70 65 71 66 72 72 73 74 74 67 75 68 76 69 77
REMARK SMILES IDX 70 78 71 79 47 80 48 81 57 82 49 83 50 84 56 85 58 86 51 87
REMARK SMILES IDX 52 88 53 89 54 90 55 91
REMARK H PARENT 13 7 7 19 17 22 79 41 45 52
REMARK Flexibility Score: inf
ROOT
ATOM      1  C   UNL A   1      34.647  32.755  28.129  1.00  0.00     0.118 C 
ENDROOT
BRANCH   1   2
ATOM      2  C   UNL A   1      33.770  33.837  28.735  1.00  0.00     0.042 C 
BRANCH   2   3
ATOM      3  C   UNL A   1      34.160  34.202  30.160  1.00  0.00     0.118 C 
BRANCH   3   4
ATOM      4  N   UNL A   1      34.429  33.022  30.963  1.00  0.00    -0.351 N 
ATOM      5  C   UNL A   1      35.462  32.694  31.794  1.00  0.00     0.280 C 
ATOM      6  O   UNL A   1      35.501  31.499  32.110  1.00  0.00    -0.268 OA
ATOM      7  H   UNL A   1      33.737  32.326  30.895  1.00  0.00     0.163 HD
BRANCH   5   8
ATOM      8  C   UNL A   1      36.521  33.760  32.268  1.00  0.00     0.171 C 
ATOM      9  C   UNL A   1      35.838  35.035  32.804  1.00  0.00     0.090 C 
ATOM     10  C   UNL A   1      37.410  34.034  31.028  1.00  0.00     0.090 C 
BRANCH   8  11
ATOM     11  N   UNL A   1      37.411  33.186  33.337  1.00  0.00    -0.322 N 
ATOM     12  C   UNL A   1      39.168  30.772  33.600  1.00  0.00     0.013 C 
ATOM     13  C   UNL A   1      39.596  32.210  33.913  1.00  0.00     0.042 C 
ATOM     14  C   UNL A   1      39.385  32.575  35.386  1.00  0.00     0.018 C 
ATOM     15  C   UNL A   1      38.848  33.206  33.019  1.00  0.00     0.266 C 
ATOM     16  C   UNL A   1      37.904  32.805  35.730  1.00  0.00     0.042 C 
ATOM     17  C   UNL A   1      37.222  33.725  34.697  1.00  0.00     0.266 C 
ATOM     18  C   UNL A   1      37.772  33.384  37.139  1.00  0.00     0.013 C 
ATOM     19  H   UNL A   1      37.085  32.219  33.342  1.00  0.00     0.349 HD
ENDBRANCH   8  11
ENDBRANCH   5   8
ENDBRANCH   3   4
ENDBRANCH   2   3
ENDBRANCH   1   2
BRANCH   1  20
ATOM     20  N   UNL A   1      33.921  31.506  27.938  1.00  0.00    -0.352 N 
ATOM     21  C   UNL A   1      34.397  30.226  27.806  1.00  0.00     0.251 C 
ATOM     22  H   UNL A   1      32.942  31.594  27.897  1.00  0.00     0.163 HD
ATOM     23  O   UNL A   1      33.657  29.342  27.389  1.00  0.00    -0.269 OA
BRANCH  21  24
ATOM     24  C   UNL A   1      35.801  29.924  28.159  1.00  0.00     0.039 A 
ATOM     25  C   UNL A   1      36.104  29.489  29.450  1.00  0.00     0.014 A 
ATOM     26  C   UNL A   1      36.818  30.086  27.216  1.00  0.00     0.014 A 
ATOM     27  C   UNL A   1      37.423  29.166  29.774  1.00  0.00     0.010 A 
ATOM     28  C   UNL A   1      38.105  29.658  27.505  1.00  0.00     0.010 A 
ATOM     29  C   UNL A   1      38.429  29.218  28.795  1.00  0.00    -0.014 A 
BRANCH  29  30
ATOM     30  C   UNL A   1      39.838  28.867  29.104  1.00  0.00     0.031 A 
ATOM     31  C   UNL A   1      40.738  29.897  29.738  1.00  0.00     0.074 A 
ATOM     32  C   UNL A   1      40.321  27.659  28.755  1.00  0.00     0.049 A 
ATOM     33  N   UNL A   1      42.015  29.824  30.003  1.00  0.00    -0.248 NA
ATOM     34  C   UNL A   1      40.127  31.191  30.087  1.00  0.00     0.031 C 
ATOM     35  C   UNL A   1      39.557  26.600  28.088  1.00  0.00     0.029 A 
ATOM     36  N   UNL A   1      41.572  27.119  28.902  1.00  0.00    -0.354 N 
ATOM     37  C   UNL A   1      42.363  31.065  30.528  1.00  0.00     0.074 A 
ATOM     38  C   UNL A   1      41.179  31.891  30.484  1.00  0.00     0.031 C 
ATOM     39  C   UNL A   1      40.350  25.532  27.909  1.00  0.00     0.029 A 
ATOM     40  C   UNL A   1      41.687  25.842  28.406  1.00  0.00     0.049 A 
ATOM     41  H   UNL A   1      42.320  27.603  29.324  1.00  0.00     0.167 HD
ATOM     42  C   UNL A   1      43.553  31.467  31.030  1.00  0.00     0.037 A 
ATOM     43  C   UNL A   1      42.752  25.019  28.352  1.00  0.00     0.037 A 
ATOM     44  C   UNL A   1      44.716  30.622  31.103  1.00  0.00     0.049 A 
ATOM     45  C   UNL A   1      44.064  25.488  28.922  1.00  0.00     0.074 A 
ATOM     46  C   UNL A   1      45.955  30.911  31.647  1.00  0.00     0.029 A 
ATOM     47  N   UNL A   1      44.783  29.324  30.620  1.00  0.00    -0.354 N 
ATOM     48  N   UNL A   1      44.358  26.642  29.473  1.00  0.00    -0.248 NA
ATOM     49  C   UNL A   1      45.186  24.541  28.874  1.00  0.00     0.031 C 
ATOM     50  C   UNL A   1      46.785  29.803  31.450  1.00  0.00     0.029 A 
ATOM     51  C   UNL A   1      46.048  28.803  30.837  1.00  0.00     0.049 A 
ATOM     52  H   UNL A   1      44.041  28.844  30.187  1.00  0.00     0.167 HD
ATOM     53  C   UNL A   1      45.689  26.546  29.868  1.00  0.00     0.074 A 
ATOM     54  C   UNL A   1      46.136  25.219  29.502  1.00  0.00     0.031 C 
ATOM     55  C   UNL A   1      46.469  27.473  30.480  1.00  0.00     0.037 A 
BRANCH  42  56
ATOM     56  C   UNL A   1      43.656  32.876  31.548  1.00  0.00     0.058 A 
ATOM     57  C   UNL A   1      44.051  33.942  30.722  1.00  0.00     0.135 A 
ATOM     58  C   UNL A   1      43.316  33.175  32.877  1.00  0.00     0.135 A 
ATOM     59  F   UNL A   1      44.405  33.713  29.446  1.00  0.00    -0.206 F 
ATOM     60  C   UNL A   1      44.129  35.244  31.200  1.00  0.00     0.059 A 
ATOM     61  C   UNL A   1      43.357  34.476  33.370  1.00  0.00     0.059 A 
ATOM     62  F   UNL A   1      42.935  32.195  33.714  1.00  0.00    -0.206 F 
ATOM     63  C   UNL A   1      43.777  35.503  32.525  1.00  0.00     0.060 A 
BRANCH  63  64
ATOM     64  S   UNL A   1      43.864  37.204  33.122  1.00  0.00     0.124 S 
ATOM     65  O   UNL A   1      45.151  37.205  33.810  1.00  0.00    -0.237 OA
ATOM     66  O   UNL A   1      43.809  37.972  31.882  1.00  0.00    -0.237 OA
ATOM     67  O   UNL A   1      42.692  37.324  33.984  1.00  0.00    -0.744 OA
ENDBRANCH  63  64
ENDBRANCH  42  56
BRANCH  43  68
ATOM     68  C   UNL A   1      42.617  23.661  27.757  1.00  0.00     0.058 A 
ATOM     69  C   UNL A   1      42.428  22.533  28.569  1.00  0.00     0.135 A 
ATOM     70  C   UNL A   1      42.673  23.465  26.368  1.00  0.00     0.135 A 
ATOM     71  F   UNL A   1      42.371  22.667  29.902  1.00  0.00    -0.206 F 
ATOM     72  C   UNL A   1      42.325  21.255  28.028  1.00  0.00     0.059 A 
ATOM     73  C   UNL A   1      42.543  22.200  25.802  1.00  0.00     0.059 A 
ATOM     74  F   UNL A   1      42.833  24.513  25.545  1.00  0.00    -0.206 F 
ATOM     75  C   UNL A   1      42.383  21.098  26.643  1.00  0.00     0.060 A 
BRANCH  75  76
ATOM     76  S   UNL A   1      42.214  19.439  25.951  1.00  0.00     0.124 S 
ATOM     77  O   UNL A   1      42.733  18.614  27.036  1.00  0.00    -0.237 OA
ATOM     78  O   UNL A   1      40.777  19.352  25.712  1.00  0.00    -0.237 OA
ATOM     79  O   UNL A   1      43.040  19.492  24.748  1.00  0.00    -0.744 OA
ENDBRANCH  75  76
ENDBRANCH  43  68
BRANCH  55  80
ATOM     80  C   UNL A   1      47.872  27.068  30.843  1.00  0.00     0.058 A 
ATOM     81  C   UNL A   1      48.169  26.432  32.057  1.00  0.00     0.135 A 
ATOM     82  C   UNL A   1      48.921  27.268  29.931  1.00  0.00     0.135 A 
ATOM     83  F   UNL A   1      47.203  26.221  32.966  1.00  0.00    -0.206 F 
ATOM     84  C   UNL A   1      49.465  26.032  32.368  1.00  0.00     0.059 A 
ATOM     85  C   UNL A   1      50.218  26.848  30.206  1.00  0.00     0.059 A 
ATOM     86  F   UNL A   1      48.688  27.859  28.749  1.00  0.00    -0.206 F 
ATOM     87  C   UNL A   1      50.482  26.242  31.434  1.00  0.00     0.060 A 
BRANCH  87  88
ATOM     88  S   UNL A   1      52.153  25.688  31.835  1.00  0.00     0.124 S 
ATOM     89  O   UNL A   1      52.473  26.532  32.982  1.00  0.00    -0.237 OA
ATOM     90  O   UNL A   1      51.950  24.272  32.126  1.00  0.00    -0.237 OA
ATOM     91  O   UNL A   1      52.907  25.971  30.618  1.00  0.00    -0.744 OA
ENDBRANCH  87  88
ENDBRANCH  55  80
ENDBRANCH  29  30
ENDBRANCH  21  24
ENDBRANCH   1  20
TORSDOF 14
ENDMDL
MODEL 2
REMARK VINA RESULT:     -10.1      2.986      5.658
REMARK SMILES C[C@@H]1C[C@@H](C)C[NH+](C(C)(C)C(=O)NCCCNC(=O)c2ccc(-c3c4nc(c(-c5c(F)cc(S(=O)(=O)[O-])cc5F)c5ccc([nH]5)c(-c5c(F)cc(S(=O)(=O)[O-])cc5F)c5nc(c(-c6c(F)cc(S(=O)(=O)[O-])cc6F)c6ccc3[nH]6)C=C5)C=C4)cc2)C1
REMARK SMILES IDX 16 1 15 2 14 3 13 4 11 5 12 6 8 8 9 9 10 10 7 11 1 12 2 13
REMARK SMILES IDX 3 14 86 15 4 16 6 17 5 18 17 20 18 21 19 23 20 24 21 25
REMARK SMILES IDX 85 26 22 27 84 28 23 29 24 30 25 31 78 32 26 33 83 34 77 35
REMARK SMILES IDX 79 36 27 37 82 38 76 39 75 40 28 42 62 43 41 44 61 45 42 46
REMARK SMILES IDX 45 47 60 48 80 49 43 50 44 51 59 53 81 54 46 55 29 56 30 57
REMARK SMILES IDX 39 58 31 59 32 60 38 61 40 62 33 63 34 64 35 65 36 66 37 67
REMARK SMILES IDX 63 68 64 69 73 70 65 71 66 72 72 73 74 74 67 75 68 76 69 77
REMARK SMILES IDX 70 78 71 79 47 80 48 81 57 82 49 83 50 84 56 85 58 86 51 87
REMARK SMILES IDX 52 88 53 89 54 90 55 91
REMARK H PARENT 13 7 7 19 17 22 79 41 45 52
REMARK Flexibility Score: inf
ROOT
ATOM      1  C   UNL A   1      33.845  27.929  26.840  1.00  0.00     0.118 C 
ENDROOT
BRANCH   1   2
ATOM      2  C   UNL A   1      34.077  27.592  25.377  1.00  0.00     0.042 C 
BRANCH   2   3
ATOM      3  C   UNL A   1      32.822  27.113  24.663  1.00  0.00     0.118 C 
BRANCH   3   4
ATOM      4  N   UNL A   1      33.028  27.001  23.229  1.00  0.00    -0.351 N 
ATOM      5  C   UNL A   1      33.104  25.923  22.394  1.00  0.00     0.280 C 
ATOM      6  O   UNL A   1      33.552  26.180  21.271  1.00  0.00    -0.268 OA
ATOM      7  H   UNL A   1      33.134  27.866  22.773  1.00  0.00     0.163 HD
BRANCH   5   8
ATOM      8  C   UNL A   1      32.682  24.478  22.859  1.00  0.00     0.171 C 
ATOM      9  C   UNL A   1      33.109  23.407  21.835  1.00  0.00     0.090 C 
ATOM     10  C   UNL A   1      31.144  24.541  23.051  1.00  0.00     0.090 C 
BRANCH   8  11
ATOM     11  N   UNL A   1      33.285  24.154  24.200  1.00  0.00    -0.322 N 
ATOM     12  C   UNL A   1      32.357  24.233  27.048  1.00  0.00     0.013 C 
ATOM     13  C   UNL A   1      33.025  23.030  26.373  1.00  0.00     0.042 C 
ATOM     14  C   UNL A   1      34.546  23.023  26.566  1.00  0.00     0.018 C 
ATOM     15  C   UNL A   1      32.691  22.990  24.878  1.00  0.00     0.266 C 
ATOM     16  C   UNL A   1      35.255  24.069  25.691  1.00  0.00     0.042 C 
ATOM     17  C   UNL A   1      34.754  24.020  24.233  1.00  0.00     0.266 C 
ATOM     18  C   UNL A   1      36.769  23.868  25.749  1.00  0.00     0.013 C 
ATOM     19  H   UNL A   1      33.042  25.000  24.715  1.00  0.00     0.349 HD
ENDBRANCH   8  11
ENDBRANCH   5   8
ENDBRANCH   3   4
ENDBRANCH   2   3
ENDBRANCH   1   2
BRANCH   1  20
ATOM     20  N   UNL A   1      33.602  29.351  27.042  1.00  0.00    -0.352 N 
ATOM     21  C   UNL A   1      34.358  30.286  27.704  1.00  0.00     0.251 C 
ATOM     22  H   UNL A   1      32.770  29.694  26.643  1.00  0.00     0.163 HD
ATOM     23  O   UNL A   1      33.866  31.371  27.995  1.00  0.00    -0.269 OA
BRANCH  21  24
ATOM     24  C   UNL A   1      35.757  29.975  28.068  1.00  0.00     0.039 A 
ATOM     25  C   UNL A   1      36.042  29.510  29.353  1.00  0.00     0.014 A 
ATOM     26  C   UNL A   1      36.787  30.157  27.143  1.00  0.00     0.014 A 
ATOM     27  C   UNL A   1      37.356  29.178  29.688  1.00  0.00     0.010 A 
ATOM     28  C   UNL A   1      38.069  29.719  27.440  1.00  0.00     0.010 A 
ATOM     29  C   UNL A   1      38.375  29.251  28.724  1.00  0.00    -0.014 A 
BRANCH  29  30
ATOM     30  C   UNL A   1      39.779  28.891  29.043  1.00  0.00     0.031 A 
ATOM     31  C   UNL A   1      40.683  29.917  29.678  1.00  0.00     0.074 A 
ATOM     32  C   UNL A   1      40.255  27.677  28.705  1.00  0.00     0.049 A 
ATOM     33  N   UNL A   1      41.958  29.836  29.952  1.00  0.00    -0.248 NA
ATOM     34  C   UNL A   1      40.080  31.218  30.016  1.00  0.00     0.031 C 
ATOM     35  C   UNL A   1      39.487  26.620  28.039  1.00  0.00     0.029 A 
ATOM     36  N   UNL A   1      41.502  27.129  28.862  1.00  0.00    -0.354 N 
ATOM     37  C   UNL A   1      42.312  31.076  30.472  1.00  0.00     0.074 A 
ATOM     38  C   UNL A   1      41.135  31.912  30.416  1.00  0.00     0.031 C 
ATOM     39  C   UNL A   1      40.274  25.545  27.870  1.00  0.00     0.029 A 
ATOM     40  C   UNL A   1      41.609  25.848  28.374  1.00  0.00     0.049 A 
ATOM     41  H   UNL A   1      42.250  27.609  29.286  1.00  0.00     0.167 HD
ATOM     42  C   UNL A   1      43.502  31.473  30.979  1.00  0.00     0.037 A 
ATOM     43  C   UNL A   1      42.668  25.016  28.331  1.00  0.00     0.037 A 
ATOM     44  C   UNL A   1      44.658  30.620  31.065  1.00  0.00     0.049 A 
ATOM     45  C   UNL A   1      43.981  25.478  28.908  1.00  0.00     0.074 A 
ATOM     46  C   UNL A   1      45.896  30.902  31.615  1.00  0.00     0.029 A 
ATOM     47  N   UNL A   1      44.718  29.318  30.589  1.00  0.00    -0.354 N 
ATOM     48  N   UNL A   1      44.280  26.633  29.454  1.00  0.00    -0.248 NA
ATOM     49  C   UNL A   1      45.096  24.523  28.872  1.00  0.00     0.031 C 
ATOM     50  C   UNL A   1      46.718  29.787  31.429  1.00  0.00     0.029 A 
ATOM     51  C   UNL A   1      45.977  28.789  30.817  1.00  0.00     0.049 A 
ATOM     52  H   UNL A   1      43.975  28.841  30.154  1.00  0.00     0.167 HD
ATOM     53  C   UNL A   1      45.607  26.530  29.858  1.00  0.00     0.074 A 
ATOM     54  C   UNL A   1      46.047  25.197  29.502  1.00  0.00     0.031 C 
ATOM     55  C   UNL A   1      46.390  27.453  30.470  1.00  0.00     0.037 A 
BRANCH  42  56
ATOM     56  C   UNL A   1      43.613  32.884  31.490  1.00  0.00     0.058 A 
ATOM     57  C   UNL A   1      44.004  33.944  30.656  1.00  0.00     0.135 A 
ATOM     58  C   UNL A   1      43.283  33.189  32.821  1.00  0.00     0.135 A 
ATOM     59  F   UNL A   1      44.349  33.709  29.380  1.00  0.00    -0.206 F 
ATOM     60  C   UNL A   1      44.089  35.249  31.128  1.00  0.00     0.059 A 
ATOM     61  C   UNL A   1      43.331  34.493  33.307  1.00  0.00     0.059 A 
ATOM     62  F   UNL A   1      42.905  32.215  33.664  1.00  0.00    -0.206 F 
ATOM     63  C   UNL A   1      43.747  35.514  32.454  1.00  0.00     0.060 A 
BRANCH  63  64
ATOM     64  S   UNL A   1      43.844  37.218  33.044  1.00  0.00     0.124 S 
ATOM     65  O   UNL A   1      43.746  37.965  31.793  1.00  0.00    -0.237 OA
ATOM     66  O   UNL A   1      42.685  37.307  33.927  1.00  0.00    -0.237 OA
ATOM     67  O   UNL A   1      45.142  37.276  33.709  1.00  0.00    -0.744 OA
ENDBRANCH  63  64
ENDBRANCH  42  56
BRANCH  43  68
ATOM     68  C   UNL A   1      42.527  23.657  27.743  1.00  0.00     0.058 A 
ATOM     69  C   UNL A   1      42.308  22.536  28.558  1.00  0.00     0.135 A 
ATOM     70  C   UNL A   1      42.606  23.449  26.357  1.00  0.00     0.135 A 
ATOM     71  F   UNL A   1      42.229  22.680  29.890  1.00  0.00    -0.206 F 
ATOM     72  C   UNL A   1      42.199  21.256  28.025  1.00  0.00     0.059 A 
ATOM     73  C   UNL A   1      42.470  22.182  25.797  1.00  0.00     0.059 A 
ATOM     74  F   UNL A   1      42.794  24.490  25.530  1.00  0.00    -0.206 F 
ATOM     75  C   UNL A   1      42.280  21.089  26.642  1.00  0.00     0.060 A 
BRANCH  75  76
ATOM     76  S   UNL A   1      42.103  19.427  25.958  1.00  0.00     0.124 S 
ATOM     77  O   UNL A   1      40.666  19.357  25.723  1.00  0.00    -0.237 OA
ATOM     78  O   UNL A   1      42.944  19.496  24.767  1.00  0.00    -0.237 OA
ATOM     79  O   UNL A   1      42.611  18.570  27.025  1.00  0.00    -0.744 OA
ENDBRANCH  75  76
ENDBRANCH  43  68
BRANCH  55  80
ATOM     80  C   UNL A   1      47.788  27.039  30.844  1.00  0.00     0.058 A 
ATOM     81  C   UNL A   1      48.092  26.513  32.108  1.00  0.00     0.135 A 
ATOM     82  C   UNL A   1      48.823  27.119  29.898  1.00  0.00     0.135 A 
ATOM     83  F   UNL A   1      47.140  26.420  33.050  1.00  0.00    -0.206 F 
ATOM     84  C   UNL A   1      49.382  26.103  32.431  1.00  0.00     0.059 A 
ATOM     85  C   UNL A   1      50.112  26.685  30.188  1.00  0.00     0.059 A 
ATOM     86  F   UNL A   1      48.583  27.602  28.669  1.00  0.00    -0.206 F 
ATOM     87  C   UNL A   1      50.385  26.190  31.463  1.00  0.00     0.060 A 
BRANCH  87  88
ATOM     88  S   UNL A   1      52.046  25.624  31.885  1.00  0.00     0.124 S 
ATOM     89  O   UNL A   1      52.317  26.388  33.097  1.00  0.00    -0.237 OA
ATOM     90  O   UNL A   1      51.848  24.189  32.070  1.00  0.00    -0.237 OA
ATOM     91  O   UNL A   1      52.839  25.996  30.717  1.00  0.00    -0.744 OA
ENDBRANCH  87  88
ENDBRANCH  55  80
ENDBRANCH  29  30
ENDBRANCH  21  24
ENDBRANCH   1  20
TORSDOF 14
ENDMDL
MODEL 3
REMARK VINA RESULT:     -10.1      3.194      5.951
REMARK SMILES C[C@@H]1C[C@@H](C)C[NH+](C(C)(C)C(=O)NCCCNC(=O)c2ccc(-c3c4nc(c(-c5c(F)cc(S(=O)(=O)[O-])cc5F)c5ccc([nH]5)c(-c5c(F)cc(S(=O)(=O)[O-])cc5F)c5nc(c(-c6c(F)cc(S(=O)(=O)[O-])cc6F)c6ccc3[nH]6)C=C5)C=C4)cc2)C1
REMARK SMILES IDX 16 1 15 2 14 3 13 4 11 5 12 6 8 8 9 9 10 10 7 11 1 12 2 13
REMARK SMILES IDX 3 14 86 15 4 16 6 17 5 18 17 20 18 21 19 23 20 24 21 25
REMARK SMILES IDX 85 26 22 27 84 28 23 29 24 30 25 31 78 32 26 33 83 34 77 35
REMARK SMILES IDX 79 36 27 37 82 38 76 39 75 40 28 42 62 43 41 44 61 45 42 46
REMARK SMILES IDX 45 47 60 48 80 49 43 50 44 51 59 53 81 54 46 55 29 56 30 57
REMARK SMILES IDX 39 58 31 59 32 60 38 61 40 62 33 63 34 64 35 65 36 66 37 67
REMARK SMILES IDX 63 68 64 69 73 70 65 71 66 72 72 73 74 74 67 75 68 76 69 77
REMARK SMILES IDX 70 78 71 79 47 80 48 81 57 82 49 83 50 84 56 85 58 86 51 87
REMARK SMILES IDX 52 88 53 89 54 90 55 91
REMARK H PARENT 13 7 7 19 17 22 79 41 45 52
REMARK Flexibility Score: inf
ROOT
ATOM      1  C   UNL A   1      33.833  28.168  26.898  1.00  0.00     0.118 C 
ENDROOT
BRANCH   1   2
ATOM      2  C   UNL A   1      33.601  27.989  25.407  1.00  0.00     0.042 C 
BRANCH   2   3
ATOM      3  C   UNL A   1      33.894  26.579  24.917  1.00  0.00     0.118 C 
BRANCH   3   4
ATOM      4  N   UNL A   1      33.619  26.434  23.498  1.00  0.00    -0.351 N 
ATOM      5  C   UNL A   1      33.633  25.350  22.666  1.00  0.00     0.280 C 
ATOM      6  O   UNL A   1      33.607  25.632  21.463  1.00  0.00    -0.268 OA
ATOM      7  H   UNL A   1      33.377  27.276  23.051  1.00  0.00     0.163 HD
BRANCH   5   8
ATOM      8  C   UNL A   1      33.712  23.877  23.219  1.00  0.00     0.171 C 
ATOM      9  C   UNL A   1      35.170  23.451  23.487  1.00  0.00     0.090 C 
ATOM     10  C   UNL A   1      33.020  22.998  22.145  1.00  0.00     0.090 C 
BRANCH   8  11
ATOM     11  N   UNL A   1      32.913  23.742  24.488  1.00  0.00    -0.322 N 
ATOM     12  C   UNL A   1      30.602  25.189  25.733  1.00  0.00     0.013 C 
ATOM     13  C   UNL A   1      30.690  23.671  25.540  1.00  0.00     0.042 C 
ATOM     14  C   UNL A   1      31.278  22.959  26.763  1.00  0.00     0.018 C 
ATOM     15  C   UNL A   1      31.514  23.327  24.294  1.00  0.00     0.266 C 
ATOM     16  C   UNL A   1      32.797  23.160  26.888  1.00  0.00     0.042 C 
ATOM     17  C   UNL A   1      33.511  22.905  25.544  1.00  0.00     0.266 C 
ATOM     18  C   UNL A   1      33.362  22.252  27.980  1.00  0.00     0.013 C 
ATOM     19  H   UNL A   1      32.931  24.709  24.815  1.00  0.00     0.349 HD
ENDBRANCH   8  11
ENDBRANCH   5   8
ENDBRANCH   3   4
ENDBRANCH   2   3
ENDBRANCH   1   2
BRANCH   1  20
ATOM     20  N   UNL A   1      33.661  29.554  27.315  1.00  0.00    -0.352 N 
ATOM     21  C   UNL A   1      34.494  30.358  28.053  1.00  0.00     0.251 C 
ATOM     22  H   UNL A   1      32.822  29.978  27.022  1.00  0.00     0.163 HD
ATOM     23  O   UNL A   1      34.065  31.405  28.527  1.00  0.00    -0.269 OA
BRANCH  21  24
ATOM     24  C   UNL A   1      35.897  29.951  28.280  1.00  0.00     0.039 A 
ATOM     25  C   UNL A   1      36.825  30.088  27.246  1.00  0.00     0.014 A 
ATOM     26  C   UNL A   1      36.290  29.421  29.510  1.00  0.00     0.014 A 
ATOM     27  C   UNL A   1      38.159  29.742  27.469  1.00  0.00     0.010 A 
ATOM     28  C   UNL A   1      37.633  29.185  29.765  1.00  0.00     0.010 A 
ATOM     29  C   UNL A   1      38.579  29.316  28.740  1.00  0.00    -0.014 A 
BRANCH  29  30
ATOM     30  C   UNL A   1      39.992  28.954  29.014  1.00  0.00     0.031 A 
ATOM     31  C   UNL A   1      40.924  29.988  29.593  1.00  0.00     0.074 A 
ATOM     32  C   UNL A   1      40.448  27.731  28.685  1.00  0.00     0.049 A 
ATOM     33  N   UNL A   1      42.209  29.905  29.820  1.00  0.00    -0.248 NA
ATOM     34  C   UNL A   1      40.342  31.300  29.925  1.00  0.00     0.031 C 
ATOM     35  C   UNL A   1      39.651  26.665  28.071  1.00  0.00     0.029 A 
ATOM     36  N   UNL A   1      41.697  27.178  28.808  1.00  0.00    -0.354 N 
ATOM     37  C   UNL A   1      42.588  31.154  30.300  1.00  0.00     0.074 A 
ATOM     38  C   UNL A   1      41.414  31.996  30.270  1.00  0.00     0.031 C 
ATOM     39  C   UNL A   1      40.424  25.581  27.897  1.00  0.00     0.029 A 
ATOM     40  C   UNL A   1      41.779  25.886  28.344  1.00  0.00     0.049 A 
ATOM     41  H   UNL A   1      42.463  27.662  29.193  1.00  0.00     0.167 HD
ATOM     42  C   UNL A   1      43.799  31.554  30.754  1.00  0.00     0.037 A 
ATOM     43  C   UNL A   1      42.831  25.047  28.279  1.00  0.00     0.037 A 
ATOM     44  C   UNL A   1      44.952  30.696  30.815  1.00  0.00     0.049 A 
ATOM     45  C   UNL A   1      44.167  25.514  28.797  1.00  0.00     0.074 A 
ATOM     46  C   UNL A   1      46.211  30.982  31.312  1.00  0.00     0.029 A 
ATOM     47  N   UNL A   1      44.987  29.384  30.365  1.00  0.00    -0.354 N 
ATOM     48  N   UNL A   1      44.493  26.678  29.306  1.00  0.00    -0.248 NA
ATOM     49  C   UNL A   1      45.275  24.550  28.740  1.00  0.00     0.031 C 
ATOM     50  C   UNL A   1      47.020  29.858  31.120  1.00  0.00     0.029 A 
ATOM     51  C   UNL A   1      46.251  28.852  30.558  1.00  0.00     0.049 A 
ATOM     52  H   UNL A   1      44.226  28.903  29.969  1.00  0.00     0.167 HD
ATOM     53  C   UNL A   1      45.834  26.575  29.663  1.00  0.00     0.074 A 
ATOM     54  C   UNL A   1      46.253  25.232  29.320  1.00  0.00     0.031 C 
ATOM     55  C   UNL A   1      46.644  27.506  30.225  1.00  0.00     0.037 A 
BRANCH  42  56
ATOM     56  C   UNL A   1      43.936  32.975  31.230  1.00  0.00     0.058 A 
ATOM     57  C   UNL A   1      44.296  34.016  30.358  1.00  0.00     0.135 A 
ATOM     58  C   UNL A   1      43.663  33.310  32.566  1.00  0.00     0.135 A 
ATOM     59  F   UNL A   1      44.585  33.752  29.073  1.00  0.00    -0.206 F 
ATOM     60  C   UNL A   1      44.406  35.330  30.798  1.00  0.00     0.059 A 
ATOM     61  C   UNL A   1      43.736  34.623  33.022  1.00  0.00     0.059 A 
ATOM     62  F   UNL A   1      43.318  32.355  33.445  1.00  0.00    -0.206 F 
ATOM     63  C   UNL A   1      44.120  35.625  32.131  1.00  0.00     0.060 A 
BRANCH  63  64
ATOM     64  S   UNL A   1      44.248  37.340  32.680  1.00  0.00     0.124 S 
ATOM     65  O   UNL A   1      43.116  37.438  33.596  1.00  0.00    -0.237 OA
ATOM     66  O   UNL A   1      45.569  37.370  33.299  1.00  0.00    -0.237 OA
ATOM     67  O   UNL A   1      44.122  38.104  31.442  1.00  0.00    -0.744 OA
ENDBRANCH  63  64
ENDBRANCH  42  56
BRANCH  43  68
ATOM     68  C   UNL A   1      42.661  23.676  27.727  1.00  0.00     0.058 A 
ATOM     69  C   UNL A   1      42.727  23.441  26.345  1.00  0.00     0.135 A 
ATOM     70  C   UNL A   1      42.432  22.575  28.566  1.00  0.00     0.135 A 
ATOM     71  F   UNL A   1      42.940  24.461  25.501  1.00  0.00    -0.206 F 
ATOM     72  C   UNL A   1      42.544  22.168  25.813  1.00  0.00     0.059 A 
ATOM     73  C   UNL A   1      42.276  21.288  28.059  1.00  0.00     0.059 A 
ATOM     74  F   UNL A   1      42.380  22.741  29.897  1.00  0.00    -0.206 F 
ATOM     75  C   UNL A   1      42.321  21.097  26.679  1.00  0.00     0.060 A 
BRANCH  75  76
ATOM     76  S   UNL A   1      42.120  19.445  25.978  1.00  0.00     0.124 S 
ATOM     77  O   UNL A   1      42.614  18.604  27.061  1.00  0.00    -0.237 OA
ATOM     78  O   UNL A   1      40.683  19.391  25.730  1.00  0.00    -0.237 OA
ATOM     79  O   UNL A   1      42.954  19.486  24.780  1.00  0.00    -0.744 OA
ENDBRANCH  75  76
ENDBRANCH  43  68
BRANCH  55  80
ATOM     80  C   UNL A   1      48.052  27.092  30.556  1.00  0.00     0.058 A 
ATOM     81  C   UNL A   1      49.113  27.294  29.661  1.00  0.00     0.135 A 
ATOM     82  C   UNL A   1      48.347  26.539  31.813  1.00  0.00     0.135 A 
ATOM     83  F   UNL A   1      48.885  27.814  28.445  1.00  0.00    -0.206 F 
ATOM     84  C   UNL A   1      50.417  26.937  29.991  1.00  0.00     0.059 A 
ATOM     85  C   UNL A   1      49.647  26.205  32.176  1.00  0.00     0.059 A 
ATOM     86  F   UNL A   1      47.370  26.338  32.711  1.00  0.00    -0.206 F 
ATOM     87  C   UNL A   1      50.674  26.395  31.253  1.00  0.00     0.060 A 
BRANCH  87  88
ATOM     88  S   UNL A   1      52.375  25.968  31.681  1.00  0.00     0.124 S 
ATOM     89  O   UNL A   1      52.672  26.952  32.716  1.00  0.00    -0.237 OA
ATOM     90  O   UNL A   1      52.243  24.587  32.137  1.00  0.00    -0.237 OA
ATOM     91  O   UNL A   1      53.096  26.140  30.423  1.00  0.00    -0.744 OA
ENDBRANCH  87  88
ENDBRANCH  55  80
ENDBRANCH  29  30
ENDBRANCH  21  24
ENDBRANCH   1  20
TORSDOF 14
ENDMDL
