MODEL 1
REMARK VINA RESULT:     -12.1      0.000      0.000
REMARK SMILES CC[C@]1(C(=O)NCCCNC(=O)c2ccc(-c3c4nc(c(-c5c(F)cc(S(=O)(=O)[O-])cc5F)c5ccc([nH]5)c(-c5c(F)cc(S(=O)(=O)[O-])cc5F)c5nc(c(-c6c(F)cc(S(=O)(=O)[O-])cc6F)c6ccc3[nH]6)C=C5)C=C4)cc2)CC[N@@H+](Cc2ccc(CC(C)C)cc2)C1
REMARK SMILES IDX 7 1 6 2 4 3 5 4 3 6 79 7 93 8 80 9 81 10 2 12 1 13 82 14
REMARK SMILES IDX 83 15 84 16 92 17 85 18 91 19 86 20 87 21 88 22 89 23 90 24
REMARK SMILES IDX 8 25 9 26 10 27 11 28 12 30 13 31 14 32 78 33 15 34 77 35
REMARK SMILES IDX 16 36 17 37 18 38 71 39 19 40 76 41 70 42 72 43 20 44 75 45
REMARK SMILES IDX 69 46 68 47 21 49 55 50 34 51 54 52 35 53 38 54 53 55 73 56
REMARK SMILES IDX 36 57 37 58 52 60 74 61 39 62 22 63 23 64 32 65 24 66 25 67
REMARK SMILES IDX 31 68 33 69 26 70 27 71 28 72 29 73 30 74 56 75 57 76 66 77
REMARK SMILES IDX 58 78 59 79 65 80 67 81 60 82 61 83 62 84 63 85 64 86 40 87
REMARK SMILES IDX 41 88 50 89 42 90 43 91 49 92 51 93 44 94 45 95 46 96 47 97
REMARK SMILES IDX 48 98
REMARK H PARENT 6 5 81 11 10 29 72 48 38 59
REMARK Flexibility Score: inf
ROOT
ATOM      1  C   UNL A   1      36.500  22.327  25.415  1.00  0.00     0.117 C 
ENDROOT
BRANCH   1   2
ATOM      2  N   UNL A   1      35.585  22.547  26.549  1.00  0.00    -0.355 N 
ATOM      3  C   UNL A   1      34.259  22.652  26.843  1.00  0.00     0.232 C 
ATOM      4  O   UNL A   1      34.080  22.871  28.054  1.00  0.00    -0.274 OA
ATOM      5  H   UNL A   1      36.111  22.656  27.375  1.00  0.00     0.163 HD
BRANCH   3   6
ATOM      6  C   UNL A   1      32.994  22.577  25.913  1.00  0.00     0.103 C 
ATOM      7  C   UNL A   1      31.662  22.855  26.683  1.00  0.00     0.084 C 
ATOM      8  C   UNL A   1      32.899  23.576  24.743  1.00  0.00     0.279 C 
ATOM      9  C   UNL A   1      30.827  23.784  25.804  1.00  0.00     0.263 C 
ATOM     10  N   UNL A   1      31.777  24.496  24.967  1.00  0.00    -0.330 N 
ATOM     11  H   UNL A   1      31.374  24.724  24.058  1.00  0.00     0.348 HD
BRANCH   6  12
ATOM     12  C   UNL A   1      32.909  21.102  25.380  1.00  0.00     0.020 C 
ATOM     13  C   UNL A   1      32.705  20.931  23.863  1.00  0.00     0.005 C 
ENDBRANCH   6  12
BRANCH  10  14
ATOM     14  C   UNL A   1      32.059  25.895  25.351  1.00  0.00     0.299 C 
BRANCH  14  15
ATOM     15  C   UNL A   1      31.378  27.014  24.584  1.00  0.00     0.006 A 
ATOM     16  C   UNL A   1      31.343  28.341  25.006  1.00  0.00     0.010 A 
ATOM     17  C   UNL A   1      30.702  26.726  23.408  1.00  0.00     0.010 A 
ATOM     18  C   UNL A   1      30.711  29.322  24.216  1.00  0.00     0.004 A 
ATOM     19  C   UNL A   1      30.094  27.668  22.600  1.00  0.00     0.004 A 
ATOM     20  C   UNL A   1      30.107  28.991  22.993  1.00  0.00    -0.048 A 
BRANCH  20  21
ATOM     21  C   UNL A   1      29.427  29.990  22.099  1.00  0.00     0.038 C 
BRANCH  21  22
ATOM     22  C   UNL A   1      27.989  30.282  22.546  1.00  0.00    -0.013 C 
ATOM     23  C   UNL A   1      27.326  29.012  23.062  1.00  0.00     0.008 C 
ATOM     24  C   UNL A   1      27.981  31.371  23.620  1.00  0.00     0.008 C 
ENDBRANCH  21  22
ENDBRANCH  20  21
ENDBRANCH  14  15
ENDBRANCH  10  14
ENDBRANCH   3   6
ENDBRANCH   1   2
BRANCH   1  25
ATOM     25  C   UNL A   1      38.019  22.316  25.723  1.00  0.00     0.042 C 
BRANCH  25  26
ATOM     26  C   UNL A   1      38.620  23.560  26.406  1.00  0.00     0.118 C 
BRANCH  26  27
ATOM     27  N   UNL A   1      40.074  23.552  26.291  1.00  0.00    -0.352 N 
ATOM     28  C   UNL A   1      40.999  24.542  26.529  1.00  0.00     0.251 C 
ATOM     29  H   UNL A   1      40.456  22.696  25.992  1.00  0.00     0.163 HD
ATOM     30  O   UNL A   1      42.087  24.459  25.957  1.00  0.00    -0.269 OA
BRANCH  28  31
ATOM     31  C   UNL A   1      40.771  25.669  27.476  1.00  0.00     0.039 A 
ATOM     32  C   UNL A   1      41.746  26.675  27.574  1.00  0.00     0.014 A 
ATOM     33  C   UNL A   1      39.730  25.659  28.404  1.00  0.00     0.014 A 
ATOM     34  C   UNL A   1      41.674  27.661  28.574  1.00  0.00     0.010 A 
ATOM     35  C   UNL A   1      39.649  26.663  29.388  1.00  0.00     0.010 A 
ATOM     36  C   UNL A   1      40.617  27.681  29.496  1.00  0.00    -0.014 A 
BRANCH  36  37
ATOM     37  C   UNL A   1      40.524  28.726  30.574  1.00  0.00     0.031 A 
ATOM     38  C   UNL A   1      41.320  28.593  31.857  1.00  0.00     0.074 A 
ATOM     39  C   UNL A   1      39.685  29.781  30.456  1.00  0.00     0.049 A 
ATOM     40  N   UNL A   1      41.275  29.325  32.946  1.00  0.00    -0.248 NA
ATOM     41  C   UNL A   1      42.287  27.488  31.928  1.00  0.00     0.031 C 
ATOM     42  C   UNL A   1      38.830  30.066  29.301  1.00  0.00     0.029 A 
ATOM     43  N   UNL A   1      39.366  30.784  31.347  1.00  0.00    -0.354 N 
ATOM     44  C   UNL A   1      42.204  28.774  33.823  1.00  0.00     0.074 A 
ATOM     45  C   UNL A   1      42.750  27.604  33.165  1.00  0.00     0.031 C 
ATOM     46  C   UNL A   1      38.042  31.118  29.579  1.00  0.00     0.029 A 
ATOM     47  C   UNL A   1      38.340  31.599  30.924  1.00  0.00     0.049 A 
ATOM     48  H   UNL A   1      39.831  30.906  32.207  1.00  0.00     0.167 HD
ATOM     49  C   UNL A   1      42.605  29.214  35.043  1.00  0.00     0.037 A 
ATOM     50  C   UNL A   1      37.691  32.607  31.541  1.00  0.00     0.037 A 
ATOM     51  C   UNL A   1      42.109  30.396  35.699  1.00  0.00     0.049 A 
ATOM     52  C   UNL A   1      38.129  33.067  32.905  1.00  0.00     0.074 A 
ATOM     53  C   UNL A   1      42.511  30.943  36.908  1.00  0.00     0.029 A 
ATOM     54  N   UNL A   1      41.110  31.221  35.206  1.00  0.00    -0.354 N 
ATOM     55  N   UNL A   1      39.054  32.564  33.685  1.00  0.00    -0.248 NA
ATOM     56  C   UNL A   1      37.458  34.255  33.458  1.00  0.00     0.031 C 
ATOM     57  C   UNL A   1      41.740  32.085  37.157  1.00  0.00     0.029 A 
ATOM     58  C   UNL A   1      40.882  32.268  36.087  1.00  0.00     0.049 A 
ATOM     59  H   UNL A   1      40.634  31.084  34.355  1.00  0.00     0.167 HD
ATOM     60  C   UNL A   1      39.108  33.401  34.795  1.00  0.00     0.074 A 
ATOM     61  C   UNL A   1      38.121  34.439  34.592  1.00  0.00     0.031 C 
ATOM     62  C   UNL A   1      39.917  33.317  35.879  1.00  0.00     0.037 A 
BRANCH  49  63
ATOM     63  C   UNL A   1      43.683  28.431  35.746  1.00  0.00     0.058 A 
ATOM     64  C   UNL A   1      43.362  27.396  36.640  1.00  0.00     0.135 A 
ATOM     65  C   UNL A   1      45.041  28.668  35.480  1.00  0.00     0.135 A 
ATOM     66  F   UNL A   1      42.079  27.131  36.934  1.00  0.00    -0.206 F 
ATOM     67  C   UNL A   1      44.349  26.645  37.268  1.00  0.00     0.059 A 
ATOM     68  C   UNL A   1      46.046  27.911  36.078  1.00  0.00     0.059 A 
ATOM     69  F   UNL A   1      45.403  29.638  34.625  1.00  0.00    -0.206 F 
ATOM     70  C   UNL A   1      45.688  26.911  36.983  1.00  0.00     0.060 A 
BRANCH  70  71
ATOM     71  S   UNL A   1      46.962  25.923  37.799  1.00  0.00     0.124 S 
ATOM     72  O   UNL A   1      47.020  24.751  36.925  1.00  0.00    -0.237 OA
ATOM     73  O   UNL A   1      48.127  26.808  37.739  1.00  0.00    -0.237 OA
ATOM     74  O   UNL A   1      46.421  25.694  39.125  1.00  0.00    -0.744 OA
ENDBRANCH  70  71
ENDBRANCH  49  63
BRANCH  50  75
ATOM     75  C   UNL A   1      36.556  33.287  30.860  1.00  0.00     0.058 A 
ATOM     76  C   UNL A   1      36.774  34.153  29.780  1.00  0.00     0.135 A 
ATOM     77  C   UNL A   1      35.234  33.096  31.292  1.00  0.00     0.135 A 
ATOM     78  F   UNL A   1      38.022  34.372  29.339  1.00  0.00    -0.206 F 
ATOM     79  C   UNL A   1      35.727  34.830  29.166  1.00  0.00     0.059 A 
ATOM     80  C   UNL A   1      34.167  33.748  30.681  1.00  0.00     0.059 A 
ATOM     81  F   UNL A   1      34.973  32.266  32.313  1.00  0.00    -0.206 F 
ATOM     82  C   UNL A   1      34.425  34.623  29.626  1.00  0.00     0.060 A 
BRANCH  82  83
ATOM     83  S   UNL A   1      33.067  35.487  28.806  1.00  0.00     0.124 S 
ATOM     84  O   UNL A   1      33.786  36.472  28.007  1.00  0.00    -0.237 OA
ATOM     85  O   UNL A   1      32.423  34.409  28.062  1.00  0.00    -0.237 OA
ATOM     86  O   UNL A   1      32.288  36.020  29.919  1.00  0.00    -0.744 OA
ENDBRANCH  82  83
ENDBRANCH  50  75
BRANCH  62  87
ATOM     87  C   UNL A   1      39.821  34.406  36.912  1.00  0.00     0.058 A 
ATOM     88  C   UNL A   1      38.950  34.313  38.008  1.00  0.00     0.135 A 
ATOM     89  C   UNL A   1      40.645  35.541  36.826  1.00  0.00     0.135 A 
ATOM     90  F   UNL A   1      38.134  33.254  38.134  1.00  0.00    -0.206 F 
ATOM     91  C   UNL A   1      38.886  35.313  38.973  1.00  0.00     0.059 A 
ATOM     92  C   UNL A   1      40.614  36.543  37.791  1.00  0.00     0.059 A 
ATOM     93  F   UNL A   1      41.501  35.677  35.800  1.00  0.00    -0.206 F 
ATOM     94  C   UNL A   1      39.723  36.425  38.857  1.00  0.00     0.060 A 
BRANCH  94  95
ATOM     95  S   UNL A   1      39.659  37.700  40.135  1.00  0.00     0.124 S 
ATOM     96  O   UNL A   1      39.364  36.911  41.325  1.00  0.00    -0.237 OA
ATOM     97  O   UNL A   1      40.999  38.276  40.072  1.00  0.00    -0.237 OA
ATOM     98  O   UNL A   1      38.585  38.580  39.683  1.00  0.00    -0.744 OA
ENDBRANCH  94  95
ENDBRANCH  62  87
ENDBRANCH  36  37
ENDBRANCH  28  31
ENDBRANCH  26  27
ENDBRANCH  25  26
ENDBRANCH   1  25
TORSDOF 18
ENDMDL
MODEL 2
REMARK VINA RESULT:     -12.1      2.937      4.681
REMARK SMILES CC[C@]1(C(=O)NCCCNC(=O)c2ccc(-c3c4nc(c(-c5c(F)cc(S(=O)(=O)[O-])cc5F)c5ccc([nH]5)c(-c5c(F)cc(S(=O)(=O)[O-])cc5F)c5nc(c(-c6c(F)cc(S(=O)(=O)[O-])cc6F)c6ccc3[nH]6)C=C5)C=C4)cc2)CC[N@@H+](Cc2ccc(CC(C)C)cc2)C1
REMARK SMILES IDX 7 1 6 2 4 3 5 4 3 6 79 7 93 8 80 9 81 10 2 12 1 13 82 14
REMARK SMILES IDX 83 15 84 16 92 17 85 18 91 19 86 20 87 21 88 22 89 23 90 24
REMARK SMILES IDX 8 25 9 26 10 27 11 28 12 30 13 31 14 32 78 33 15 34 77 35
REMARK SMILES IDX 16 36 17 37 18 38 71 39 19 40 76 41 70 42 72 43 20 44 75 45
REMARK SMILES IDX 69 46 68 47 21 49 55 50 34 51 54 52 35 53 38 54 53 55 73 56
REMARK SMILES IDX 36 57 37 58 52 60 74 61 39 62 22 63 23 64 32 65 24 66 25 67
REMARK SMILES IDX 31 68 33 69 26 70 27 71 28 72 29 73 30 74 56 75 57 76 66 77
REMARK SMILES IDX 58 78 59 79 65 80 67 81 60 82 61 83 62 84 63 85 64 86 40 87
REMARK SMILES IDX 41 88 50 89 42 90 43 91 49 92 51 93 44 94 45 95 46 96 47 97
REMARK SMILES IDX 48 98
REMARK H PARENT 6 5 81 11 10 29 72 48 38 59
REMARK Flexibility Score: inf
ROOT
ATOM      1  C   UNL A   1      34.764  25.155  25.455  1.00  0.00     0.117 C 
ENDROOT
BRANCH   1   2
ATOM      2  N   UNL A   1      33.423  25.186  26.064  1.00  0.00    -0.355 N 
ATOM      3  C   UNL A   1      32.316  25.975  26.166  1.00  0.00     0.232 C 
ATOM      4  O   UNL A   1      31.444  25.442  26.874  1.00  0.00    -0.274 OA
ATOM      5  H   UNL A   1      33.276  24.354  26.570  1.00  0.00     0.163 HD
BRANCH   3   6
ATOM      6  C   UNL A   1      32.017  27.401  25.576  1.00  0.00     0.103 C 
ATOM      7  C   UNL A   1      33.149  27.909  24.624  1.00  0.00     0.084 C 
ATOM      8  C   UNL A   1      30.762  27.570  24.697  1.00  0.00     0.279 C 
ATOM      9  C   UNL A   1      32.461  28.527  23.408  1.00  0.00     0.263 C 
ATOM     10  N   UNL A   1      31.162  27.885  23.319  1.00  0.00    -0.330 N 
ATOM     11  H   UNL A   1      30.461  28.515  22.929  1.00  0.00     0.348 HD
BRANCH   6  12
ATOM     12  C   UNL A   1      31.970  28.395  26.792  1.00  0.00     0.020 C 
ATOM     13  C   UNL A   1      33.317  28.983  27.250  1.00  0.00     0.005 C 
ENDBRANCH   6  12
BRANCH  10  14
ATOM     14  C   UNL A   1      31.020  26.849  22.275  1.00  0.00     0.299 C 
BRANCH  14  15
ATOM     15  C   UNL A   1      31.462  25.431  22.589  1.00  0.00     0.006 A 
ATOM     16  C   UNL A   1      30.661  24.488  23.229  1.00  0.00     0.010 A 
ATOM     17  C   UNL A   1      32.750  25.028  22.271  1.00  0.00     0.010 A 
ATOM     18  C   UNL A   1      31.143  23.183  23.456  1.00  0.00     0.004 A 
ATOM     19  C   UNL A   1      33.243  23.751  22.458  1.00  0.00     0.004 A 
ATOM     20  C   UNL A   1      32.429  22.803  23.045  1.00  0.00    -0.048 A 
BRANCH  20  21
ATOM     21  C   UNL A   1      32.999  21.425  23.246  1.00  0.00     0.038 C 
BRANCH  21  22
ATOM     22  C   UNL A   1      32.361  20.705  24.440  1.00  0.00    -0.013 C 
ATOM     23  C   UNL A   1      32.528  19.198  24.302  1.00  0.00     0.008 C 
ATOM     24  C   UNL A   1      32.983  21.199  25.748  1.00  0.00     0.008 C 
ENDBRANCH  21  22
ENDBRANCH  20  21
ENDBRANCH  14  15
ENDBRANCH  10  14
ENDBRANCH   3   6
ENDBRANCH   1   2
BRANCH   1  25
ATOM     25  C   UNL A   1      35.511  23.797  25.455  1.00  0.00     0.042 C 
BRANCH  25  26
ATOM     26  C   UNL A   1      36.808  23.694  24.630  1.00  0.00     0.118 C 
BRANCH  26  27
ATOM     27  N   UNL A   1      37.740  22.765  25.260  1.00  0.00    -0.352 N 
ATOM     28  C   UNL A   1      38.901  22.996  25.962  1.00  0.00     0.251 C 
ATOM     29  H   UNL A   1      37.499  21.817  25.166  1.00  0.00     0.163 HD
ATOM     30  O   UNL A   1      39.731  22.087  26.010  1.00  0.00    -0.269 OA
BRANCH  28  31
ATOM     31  C   UNL A   1      39.177  24.259  26.701  1.00  0.00     0.039 A 
ATOM     32  C   UNL A   1      40.050  25.197  26.129  1.00  0.00     0.014 A 
ATOM     33  C   UNL A   1      38.763  24.453  28.019  1.00  0.00     0.014 A 
ATOM     34  C   UNL A   1      40.490  26.318  26.857  1.00  0.00     0.010 A 
ATOM     35  C   UNL A   1      39.187  25.589  28.734  1.00  0.00     0.010 A 
ATOM     36  C   UNL A   1      40.059  26.541  28.171  1.00  0.00    -0.014 A 
BRANCH  36  37
ATOM     37  C   UNL A   1      40.520  27.733  28.967  1.00  0.00     0.031 A 
ATOM     38  C   UNL A   1      41.816  27.689  29.752  1.00  0.00     0.074 A 
ATOM     39  C   UNL A   1      39.766  28.853  29.051  1.00  0.00     0.049 A 
ATOM     40  N   UNL A   1      42.312  28.568  30.592  1.00  0.00    -0.248 NA
ATOM     41  C   UNL A   1      42.660  26.497  29.577  1.00  0.00     0.031 C 
ATOM     42  C   UNL A   1      38.483  29.071  28.377  1.00  0.00     0.029 A 
ATOM     43  N   UNL A   1      39.939  30.002  29.792  1.00  0.00    -0.354 N 
ATOM     44  C   UNL A   1      43.519  28.040  31.038  1.00  0.00     0.074 A 
ATOM     45  C   UNL A   1      43.649  26.732  30.428  1.00  0.00     0.031 C 
ATOM     46  C   UNL A   1      37.958  30.238  28.786  1.00  0.00     0.029 A 
ATOM     47  C   UNL A   1      38.867  30.866  29.739  1.00  0.00     0.049 A 
ATOM     48  H   UNL A   1      40.755  30.190  30.312  1.00  0.00     0.167 HD
ATOM     49  C   UNL A   1      44.459  28.598  31.843  1.00  0.00     0.037 A 
ATOM     50  C   UNL A   1      38.621  32.022  30.388  1.00  0.00     0.037 A 
ATOM     51  C   UNL A   1      44.373  29.912  32.427  1.00  0.00     0.049 A 
ATOM     52  C   UNL A   1      39.661  32.615  31.299  1.00  0.00     0.074 A 
ATOM     53  C   UNL A   1      45.314  30.573  33.201  1.00  0.00     0.029 A 
ATOM     54  N   UNL A   1      43.294  30.771  32.297  1.00  0.00    -0.354 N 
ATOM     55  N   UNL A   1      40.822  32.121  31.654  1.00  0.00    -0.248 NA
ATOM     56  C   UNL A   1      39.374  33.941  31.871  1.00  0.00     0.031 C 
ATOM     57  C   UNL A   1      44.794  31.822  33.561  1.00  0.00     0.029 A 
ATOM     58  C   UNL A   1      43.544  31.952  32.981  1.00  0.00     0.049 A 
ATOM     59  H   UNL A   1      42.472  30.573  31.794  1.00  0.00     0.167 HD
ATOM     60  C   UNL A   1      41.421  33.094  32.448  1.00  0.00     0.074 A 
ATOM     61  C   UNL A   1      40.494  34.203  32.528  1.00  0.00     0.031 C 
ATOM     62  C   UNL A   1      42.637  33.069  33.045  1.00  0.00     0.037 A 
BRANCH  49  63
ATOM     63  C   UNL A   1      45.708  27.800  32.112  1.00  0.00     0.058 A 
ATOM     64  C   UNL A   1      45.746  26.832  33.130  1.00  0.00     0.135 A 
ATOM     65  C   UNL A   1      46.852  27.952  31.312  1.00  0.00     0.135 A 
ATOM     66  F   UNL A   1      44.681  26.649  33.928  1.00  0.00    -0.206 F 
ATOM     67  C   UNL A   1      46.882  26.067  33.364  1.00  0.00     0.059 A 
ATOM     68  C   UNL A   1      47.992  27.178  31.513  1.00  0.00     0.059 A 
ATOM     69  F   UNL A   1      46.866  28.855  30.318  1.00  0.00    -0.206 F 
ATOM     70  C   UNL A   1      48.002  26.247  32.552  1.00  0.00     0.060 A 
BRANCH  70  71
ATOM     71  S   UNL A   1      49.469  25.241  32.861  1.00  0.00     0.124 S 
ATOM     72  O   UNL A   1      50.340  26.202  33.539  1.00  0.00    -0.237 OA
ATOM     73  O   UNL A   1      48.940  24.170  33.708  1.00  0.00    -0.237 OA
ATOM     74  O   UNL A   1      49.892  24.835  31.534  1.00  0.00    -0.744 OA
ENDBRANCH  70  71
ENDBRANCH  49  63
BRANCH  50  75
ATOM     75  C   UNL A   1      37.328  32.728  30.183  1.00  0.00     0.058 A 
ATOM     76  C   UNL A   1      36.224  32.470  31.008  1.00  0.00     0.135 A 
ATOM     77  C   UNL A   1      37.169  33.660  29.146  1.00  0.00     0.135 A 
ATOM     78  F   UNL A   1      36.327  31.580  32.006  1.00  0.00    -0.206 F 
ATOM     79  C   UNL A   1      34.996  33.088  30.797  1.00  0.00     0.059 A 
ATOM     80  C   UNL A   1      35.956  34.307  28.927  1.00  0.00     0.059 A 
ATOM     81  F   UNL A   1      38.200  33.952  28.340  1.00  0.00    -0.206 F 
ATOM     82  C   UNL A   1      34.872  34.004  29.751  1.00  0.00     0.060 A 
BRANCH  82  83
ATOM     83  S   UNL A   1      33.282  34.824  29.500  1.00  0.00     0.124 S 
ATOM     84  O   UNL A   1      32.580  33.854  28.667  1.00  0.00    -0.237 OA
ATOM     85  O   UNL A   1      32.790  34.965  30.867  1.00  0.00    -0.237 OA
ATOM     86  O   UNL A   1      33.649  36.075  28.844  1.00  0.00    -0.744 OA
ENDBRANCH  82  83
ENDBRANCH  50  75
BRANCH  62  87
ATOM     87  C   UNL A   1      43.076  34.298  33.794  1.00  0.00     0.058 A 
ATOM     88  C   UNL A   1      43.611  35.415  33.135  1.00  0.00     0.135 A 
ATOM     89  C   UNL A   1      42.917  34.374  35.187  1.00  0.00     0.135 A 
ATOM     90  F   UNL A   1      43.792  35.392  31.805  1.00  0.00    -0.206 F 
ATOM     91  C   UNL A   1      43.990  36.558  33.833  1.00  0.00     0.059 A 
ATOM     92  C   UNL A   1      43.268  35.515  35.903  1.00  0.00     0.059 A 
ATOM     93  F   UNL A   1      42.404  33.335  35.866  1.00  0.00    -0.206 F 
ATOM     94  C   UNL A   1      43.814  36.599  35.218  1.00  0.00     0.060 A 
BRANCH  94  95
ATOM     95  S   UNL A   1      44.274  38.101  36.109  1.00  0.00     0.124 S 
ATOM     96  O   UNL A   1      45.703  37.897  36.313  1.00  0.00    -0.237 OA
ATOM     97  O   UNL A   1      43.912  39.152  35.163  1.00  0.00    -0.237 OA
ATOM     98  O   UNL A   1      43.453  38.044  37.316  1.00  0.00    -0.744 OA
ENDBRANCH  94  95
ENDBRANCH  62  87
ENDBRANCH  36  37
ENDBRANCH  28  31
ENDBRANCH  26  27
ENDBRANCH  25  26
ENDBRANCH   1  25
TORSDOF 18
ENDMDL
MODEL 3
REMARK VINA RESULT:     -12.0      3.274      9.168
REMARK SMILES CC[C@]1(C(=O)NCCCNC(=O)c2ccc(-c3c4nc(c(-c5c(F)cc(S(=O)(=O)[O-])cc5F)c5ccc([nH]5)c(-c5c(F)cc(S(=O)(=O)[O-])cc5F)c5nc(c(-c6c(F)cc(S(=O)(=O)[O-])cc6F)c6ccc3[nH]6)C=C5)C=C4)cc2)CC[N@@H+](Cc2ccc(CC(C)C)cc2)C1
REMARK SMILES IDX 7 1 6 2 4 3 5 4 3 6 79 7 93 8 80 9 81 10 2 12 1 13 82 14
REMARK SMILES IDX 83 15 84 16 92 17 85 18 91 19 86 20 87 21 88 22 89 23 90 24
REMARK SMILES IDX 8 25 9 26 10 27 11 28 12 30 13 31 14 32 78 33 15 34 77 35
REMARK SMILES IDX 16 36 17 37 18 38 71 39 19 40 76 41 70 42 72 43 20 44 75 45
REMARK SMILES IDX 69 46 68 47 21 49 55 50 34 51 54 52 35 53 38 54 53 55 73 56
REMARK SMILES IDX 36 57 37 58 52 60 74 61 39 62 22 63 23 64 32 65 24 66 25 67
REMARK SMILES IDX 31 68 33 69 26 70 27 71 28 72 29 73 30 74 56 75 57 76 66 77
REMARK SMILES IDX 58 78 59 79 65 80 67 81 60 82 61 83 62 84 63 85 64 86 40 87
REMARK SMILES IDX 41 88 50 89 42 90 43 91 49 92 51 93 44 94 45 95 46 96 47 97
REMARK SMILES IDX 48 98
REMARK H PARENT 6 5 81 11 10 29 72 48 38 59
REMARK Flexibility Score: inf
ROOT
ATOM      1  C   UNL A   1      34.025  26.342  25.159  1.00  0.00     0.117 C 
ENDROOT
BRANCH   1   2
ATOM      2  N   UNL A   1      33.924  25.778  23.802  1.00  0.00    -0.355 N 
ATOM      3  C   UNL A   1      33.284  24.802  23.097  1.00  0.00     0.232 C 
ATOM      4  O   UNL A   1      33.641  24.796  21.906  1.00  0.00    -0.274 OA
ATOM      5  H   UNL A   1      34.523  26.274  23.198  1.00  0.00     0.163 HD
BRANCH   3   6
ATOM      6  C   UNL A   1      32.244  23.720  23.562  1.00  0.00     0.103 C 
ATOM      7  C   UNL A   1      32.412  23.327  25.066  1.00  0.00     0.084 C 
ATOM      8  C   UNL A   1      30.747  24.082  23.494  1.00  0.00     0.279 C 
ATOM      9  C   UNL A   1      31.010  23.267  25.668  1.00  0.00     0.263 C 
ATOM     10  N   UNL A   1      30.191  24.144  24.851  1.00  0.00    -0.330 N 
ATOM     11  H   UNL A   1      29.225  23.816  24.807  1.00  0.00     0.348 HD
BRANCH   6  12
ATOM     12  C   UNL A   1      32.531  22.424  22.721  1.00  0.00     0.020 C 
ATOM     13  C   UNL A   1      32.427  21.083  23.471  1.00  0.00     0.005 C 
ENDBRANCH   6  12
BRANCH  10  14
ATOM     14  C   UNL A   1      29.867  25.461  25.436  1.00  0.00     0.299 C 
BRANCH  14  15
ATOM     15  C   UNL A   1      29.669  26.644  24.506  1.00  0.00     0.006 A 
ATOM     16  C   UNL A   1      28.499  26.886  23.790  1.00  0.00     0.010 A 
ATOM     17  C   UNL A   1      30.711  27.536  24.299  1.00  0.00     0.010 A 
ATOM     18  C   UNL A   1      28.391  28.027  22.968  1.00  0.00     0.004 A 
ATOM     19  C   UNL A   1      30.628  28.674  23.520  1.00  0.00     0.004 A 
ATOM     20  C   UNL A   1      29.449  28.941  22.853  1.00  0.00    -0.048 A 
BRANCH  20  21
ATOM     21  C   UNL A   1      29.395  30.181  22.004  1.00  0.00     0.038 C 
BRANCH  21  22
ATOM     22  C   UNL A   1      28.013  30.843  22.036  1.00  0.00    -0.013 C 
ATOM     23  C   UNL A   1      27.790  31.542  23.370  1.00  0.00     0.008 C 
ATOM     24  C   UNL A   1      27.876  31.834  20.878  1.00  0.00     0.008 C 
ENDBRANCH  21  22
ENDBRANCH  20  21
ENDBRANCH  14  15
ENDBRANCH  10  14
ENDBRANCH   3   6
ENDBRANCH   1   2
BRANCH   1  25
ATOM     25  C   UNL A   1      34.049  27.887  25.283  1.00  0.00     0.042 C 
BRANCH  25  26
ATOM     26  C   UNL A   1      33.323  28.519  26.486  1.00  0.00     0.118 C 
BRANCH  26  27
ATOM     27  N   UNL A   1      33.578  29.955  26.538  1.00  0.00    -0.352 N 
ATOM     28  C   UNL A   1      34.433  30.687  27.330  1.00  0.00     0.251 C 
ATOM     29  H   UNL A   1      33.050  30.488  25.902  1.00  0.00     0.163 HD
ATOM     30  O   UNL A   1      34.167  31.875  27.512  1.00  0.00    -0.269 OA
BRANCH  28  31
ATOM     31  C   UNL A   1      35.678  30.130  27.928  1.00  0.00     0.039 A 
ATOM     32  C   UNL A   1      35.649  29.697  29.263  1.00  0.00     0.014 A 
ATOM     33  C   UNL A   1      36.911  30.208  27.280  1.00  0.00     0.014 A 
ATOM     34  C   UNL A   1      36.831  29.336  29.935  1.00  0.00     0.010 A 
ATOM     35  C   UNL A   1      38.088  29.821  27.949  1.00  0.00     0.010 A 
ATOM     36  C   UNL A   1      38.074  29.381  29.287  1.00  0.00    -0.014 A 
BRANCH  36  37
ATOM     37  C   UNL A   1      39.349  28.999  29.990  1.00  0.00     0.031 A 
ATOM     38  C   UNL A   1      39.863  29.810  31.163  1.00  0.00     0.074 A 
ATOM     39  C   UNL A   1      40.103  27.961  29.558  1.00  0.00     0.049 A 
ATOM     40  N   UNL A   1      40.999  29.709  31.812  1.00  0.00    -0.248 NA
ATOM     41  C   UNL A   1      38.987  30.878  31.668  1.00  0.00     0.031 C 
ATOM     42  C   UNL A   1      39.776  27.079  28.436  1.00  0.00     0.029 A 
ATOM     43  N   UNL A   1      41.335  27.508  29.977  1.00  0.00    -0.354 N 
ATOM     44  C   UNL A   1      40.972  30.692  32.797  1.00  0.00     0.074 A 
ATOM     45  C   UNL A   1      39.735  31.423  32.617  1.00  0.00     0.031 C 
ATOM     46  C   UNL A   1      40.804  26.243  28.213  1.00  0.00     0.029 A 
ATOM     47  C   UNL A   1      41.861  26.513  29.183  1.00  0.00     0.049 A 
ATOM     48  H   UNL A   1      41.797  27.862  30.772  1.00  0.00     0.167 HD
ATOM     49  C   UNL A   1      41.864  30.943  33.788  1.00  0.00     0.037 A 
ATOM     50  C   UNL A   1      43.058  25.892  29.207  1.00  0.00     0.037 A 
ATOM     51  C   UNL A   1      43.080  30.204  34.014  1.00  0.00     0.049 A 
ATOM     52  C   UNL A   1      44.049  26.201  30.296  1.00  0.00     0.074 A 
ATOM     53  C   UNL A   1      44.004  30.357  35.036  1.00  0.00     0.029 A 
ATOM     54  N   UNL A   1      43.541  29.168  33.217  1.00  0.00    -0.354 N 
ATOM     55  N   UNL A   1      43.969  27.094  31.253  1.00  0.00    -0.248 NA
ATOM     56  C   UNL A   1      45.278  25.393  30.332  1.00  0.00     0.031 C 
ATOM     57  C   UNL A   1      45.036  29.431  34.844  1.00  0.00     0.029 A 
ATOM     58  C   UNL A   1      44.737  28.678  33.722  1.00  0.00     0.049 A 
ATOM     59  H   UNL A   1      43.087  28.830  32.412  1.00  0.00     0.167 HD
ATOM     60  C   UNL A   1      45.111  26.921  32.028  1.00  0.00     0.074 A 
ATOM     61  C   UNL A   1      45.870  25.844  31.429  1.00  0.00     0.031 C 
ATOM     62  C   UNL A   1      45.485  27.591  33.145  1.00  0.00     0.037 A 
BRANCH  49  63
ATOM     63  C   UNL A   1      41.539  32.052  34.754  1.00  0.00     0.058 A 
ATOM     64  C   UNL A   1      41.933  33.377  34.499  1.00  0.00     0.135 A 
ATOM     65  C   UNL A   1      40.774  31.808  35.906  1.00  0.00     0.135 A 
ATOM     66  F   UNL A   1      42.670  33.664  33.414  1.00  0.00    -0.206 F 
ATOM     67  C   UNL A   1      41.608  34.413  35.366  1.00  0.00     0.059 A 
ATOM     68  C   UNL A   1      40.414  32.836  36.775  1.00  0.00     0.059 A 
ATOM     69  F   UNL A   1      40.361  30.564  36.192  1.00  0.00    -0.206 F 
ATOM     70  C   UNL A   1      40.850  34.133  36.503  1.00  0.00     0.060 A 
BRANCH  70  71
ATOM     71  S   UNL A   1      40.426  35.489  37.619  1.00  0.00     0.124 S 
ATOM     72  O   UNL A   1      40.218  36.585  36.672  1.00  0.00    -0.237 OA
ATOM     73  O   UNL A   1      39.215  34.988  38.273  1.00  0.00    -0.237 OA
ATOM     74  O   UNL A   1      41.592  35.608  38.473  1.00  0.00    -0.744 OA
ENDBRANCH  70  71
ENDBRANCH  49  63
BRANCH  50  75
ATOM     75  C   UNL A   1      43.391  24.879  28.169  1.00  0.00     0.058 A 
ATOM     76  C   UNL A   1      43.069  23.527  28.349  1.00  0.00     0.135 A 
ATOM     77  C   UNL A   1      44.056  25.244  26.988  1.00  0.00     0.135 A 
ATOM     78  F   UNL A   1      42.441  23.131  29.467  1.00  0.00    -0.206 F 
ATOM     79  C   UNL A   1      43.417  22.564  27.409  1.00  0.00     0.059 A 
ATOM     80  C   UNL A   1      44.398  24.302  26.023  1.00  0.00     0.059 A 
ATOM     81  F   UNL A   1      44.373  26.529  26.764  1.00  0.00    -0.206 F 
ATOM     82  C   UNL A   1      44.085  22.961  26.250  1.00  0.00     0.060 A 
BRANCH  82  83
ATOM     83  S   UNL A   1      44.509  21.707  25.020  1.00  0.00     0.124 S 
ATOM     84  O   UNL A   1      45.889  21.401  25.378  1.00  0.00    -0.237 OA
ATOM     85  O   UNL A   1      43.531  20.661  25.298  1.00  0.00    -0.237 OA
ATOM     86  O   UNL A   1      44.324  22.405  23.752  1.00  0.00    -0.744 OA
ENDBRANCH  82  83
ENDBRANCH  50  75
BRANCH  62  87
ATOM     87  C   UNL A   1      46.744  27.149  33.839  1.00  0.00     0.058 A 
ATOM     88  C   UNL A   1      47.993  27.713  33.538  1.00  0.00     0.135 A 
ATOM     89  C   UNL A   1      46.692  26.177  34.852  1.00  0.00     0.135 A 
ATOM     90  F   UNL A   1      48.100  28.640  32.572  1.00  0.00    -0.206 F 
ATOM     91  C   UNL A   1      49.149  27.317  34.204  1.00  0.00     0.059 A 
ATOM     92  C   UNL A   1      47.832  25.782  35.546  1.00  0.00     0.059 A 
ATOM     93  F   UNL A   1      45.521  25.610  35.184  1.00  0.00    -0.206 F 
ATOM     94  C   UNL A   1      49.059  26.351  35.208  1.00  0.00     0.060 A 
BRANCH  94  95
ATOM     95  S   UNL A   1      50.559  25.871  36.092  1.00  0.00     0.124 S 
ATOM     96  O   UNL A   1      50.630  24.444  35.799  1.00  0.00    -0.237 OA
ATOM     97  O   UNL A   1      51.577  26.701  35.457  1.00  0.00    -0.237 OA
ATOM     98  O   UNL A   1      50.259  26.212  37.480  1.00  0.00    -0.744 OA
ENDBRANCH  94  95
ENDBRANCH  62  87
ENDBRANCH  36  37
ENDBRANCH  28  31
ENDBRANCH  26  27
ENDBRANCH  25  26
ENDBRANCH   1  25
TORSDOF 18
ENDMDL
