MODEL 1
REMARK VINA RESULT:     -12.4      0.000      0.000
REMARK SMILES COc1ccc(C(F)(F)F)cc1-c1cccnc1C(=O)NCCCNC(=O)c1ccc(-c2c3nc(c(-c4c(F)cc(S(=O)(=O)[O-])cc4F)c4ccc([nH]4)c(-c4c(F)cc(S(=O)(=O)[O-])cc4F)c4nc(c(-c5c(F)cc(S(=O)(=O)[O-])cc5F)c5ccc2[nH]5)C=C4)C=C3)cc1
REMARK SMILES IDX 23 1 22 2 21 3 19 4 20 5 18 7 13 8 14 9 15 10 17 11 16 12
REMARK SMILES IDX 12 13 3 14 4 15 5 16 11 17 6 18 2 19 1 20 7 21 8 22 9 23
REMARK SMILES IDX 10 24 24 25 25 26 26 27 27 29 28 30 29 31 93 32 30 33 92 34
REMARK SMILES IDX 31 35 32 36 33 37 86 38 34 39 91 40 85 41 87 42 35 43 90 44
REMARK SMILES IDX 84 45 83 46 36 48 70 49 49 50 69 51 50 52 53 53 68 54 88 55
REMARK SMILES IDX 51 56 52 57 67 59 89 60 54 61 37 62 38 63 47 64 39 65 40 66
REMARK SMILES IDX 46 67 48 68 41 69 42 70 43 71 44 72 45 73 71 74 72 75 81 76
REMARK SMILES IDX 73 77 74 78 80 79 82 80 75 81 76 82 77 83 78 84 79 85 55 86
REMARK SMILES IDX 56 87 65 88 57 89 58 90 64 91 66 92 59 93 60 94 61 95 62 96
REMARK SMILES IDX 63 97
REMARK H PARENT 21 6 25 28 87 47 53 58
REMARK Flexibility Score: inf
ROOT
ATOM      1  C   UNL A   1      35.043  29.317  27.271  1.00  0.00     0.042 C 
ENDROOT
BRANCH   1   2
ATOM      2  C   UNL A   1      33.805  29.044  26.444  1.00  0.00     0.118 C 
BRANCH   2   3
ATOM      3  N   UNL A   1      32.612  28.607  27.117  1.00  0.00    -0.351 N 
ATOM      4  C   UNL A   1      31.705  27.638  26.719  1.00  0.00     0.270 C 
ATOM      5  O   UNL A   1      30.869  27.297  27.563  1.00  0.00    -0.267 OA
ATOM      6  H   UNL A   1      32.414  29.054  27.970  1.00  0.00     0.163 HD
BRANCH   4   7
ATOM      7  C   UNL A   1      31.622  27.033  25.326  1.00  0.00     0.136 A 
ATOM      8  C   UNL A   1      32.107  25.776  24.906  1.00  0.00     0.017 A 
ATOM      9  C   UNL A   1      31.802  25.392  23.582  1.00  0.00     0.013 A 
ATOM     10  C   UNL A   1      31.074  26.219  22.737  1.00  0.00     0.021 A 
ATOM     11  N   UNL A   1      30.901  27.847  24.490  1.00  0.00    -0.250 NA
ATOM     12  C   UNL A   1      30.650  27.430  23.234  1.00  0.00     0.112 A 
BRANCH   8  13
ATOM     13  C   UNL A   1      32.925  24.854  25.708  1.00  0.00     0.027 A 
ATOM     14  C   UNL A   1      32.345  23.979  26.660  1.00  0.00     0.126 A 
ATOM     15  C   UNL A   1      33.115  23.009  27.306  1.00  0.00     0.048 A 
ATOM     16  C   UNL A   1      34.473  22.882  27.009  1.00  0.00     0.017 A 
ATOM     17  C   UNL A   1      34.314  24.764  25.488  1.00  0.00     0.025 A 
ATOM     18  C   UNL A   1      35.090  23.767  26.111  1.00  0.00     0.056 A 
BRANCH  14  19
ATOM     19  O   UNL A   1      31.033  24.087  27.053  1.00  0.00    -0.496 OA
ATOM     20  C   UNL A   1      30.231  22.961  26.690  1.00  0.00     0.278 C 
ENDBRANCH  14  19
BRANCH  18  21
ATOM     21  C   UNL A   1      36.532  23.572  25.703  1.00  0.00     0.416 C 
ATOM     22  F   UNL A   1      37.395  24.431  26.306  1.00  0.00    -0.166 F 
ATOM     23  F   UNL A   1      36.964  22.311  25.984  1.00  0.00    -0.166 F 
ATOM     24  F   UNL A   1      36.724  23.734  24.363  1.00  0.00    -0.166 F 
ENDBRANCH  18  21
ENDBRANCH   8  13
ENDBRANCH   4   7
ENDBRANCH   2   3
ENDBRANCH   1   2
BRANCH   1  25
ATOM     25  C   UNL A   1      35.224  30.770  27.701  1.00  0.00     0.118 C 
BRANCH  25  26
ATOM     26  N   UNL A   1      35.363  30.980  29.143  1.00  0.00    -0.352 N 
ATOM     27  C   UNL A   1      36.327  30.662  30.078  1.00  0.00     0.251 C 
ATOM     28  H   UNL A   1      34.595  31.457  29.534  1.00  0.00     0.163 HD
ATOM     29  O   UNL A   1      36.078  30.876  31.259  1.00  0.00    -0.269 OA
BRANCH  27  30
ATOM     30  C   UNL A   1      37.618  30.023  29.716  1.00  0.00     0.039 A 
ATOM     31  C   UNL A   1      38.070  30.110  28.389  1.00  0.00     0.014 A 
ATOM     32  C   UNL A   1      38.387  29.317  30.633  1.00  0.00     0.014 A 
ATOM     33  C   UNL A   1      39.328  29.605  28.034  1.00  0.00     0.010 A 
ATOM     34  C   UNL A   1      39.691  28.948  30.319  1.00  0.00     0.010 A 
ATOM     35  C   UNL A   1      40.183  29.086  29.015  1.00  0.00    -0.014 A 
BRANCH  35  36
ATOM     36  C   UNL A   1      41.586  28.673  28.729  1.00  0.00     0.031 A 
ATOM     37  C   UNL A   1      42.684  29.709  28.705  1.00  0.00     0.074 A 
ATOM     38  C   UNL A   1      41.853  27.403  28.361  1.00  0.00     0.049 A 
ATOM     39  N   UNL A   1      43.913  29.606  28.269  1.00  0.00    -0.248 NA
ATOM     40  C   UNL A   1      42.336  31.057  29.185  1.00  0.00     0.031 C 
ATOM     41  C   UNL A   1      40.872  26.317  28.279  1.00  0.00     0.029 A 
ATOM     42  N   UNL A   1      43.027  26.812  27.965  1.00  0.00    -0.354 N 
ATOM     43  C   UNL A   1      44.462  30.880  28.370  1.00  0.00     0.074 A 
ATOM     44  C   UNL A   1      43.415  31.751  28.858  1.00  0.00     0.031 C 
ATOM     45  C   UNL A   1      41.489  25.191  27.888  1.00  0.00     0.029 A 
ATOM     46  C   UNL A   1      42.895  25.481  27.639  1.00  0.00     0.049 A 
ATOM     47  H   UNL A   1      43.884  27.295  27.917  1.00  0.00     0.167 HD
ATOM     48  C   UNL A   1      45.728  31.284  28.110  1.00  0.00     0.037 A 
ATOM     49  C   UNL A   1      43.802  24.597  27.178  1.00  0.00     0.037 A 
ATOM     50  C   UNL A   1      46.782  30.395  27.698  1.00  0.00     0.049 A 
ATOM     51  C   UNL A   1      45.217  25.055  26.951  1.00  0.00     0.074 A 
ATOM     52  C   UNL A   1      48.120  30.682  27.492  1.00  0.00     0.029 A 
ATOM     53  N   UNL A   1      46.620  29.040  27.449  1.00  0.00    -0.354 N 
ATOM     54  N   UNL A   1      45.727  26.254  27.098  1.00  0.00    -0.248 NA
ATOM     55  C   UNL A   1      46.180  24.039  26.504  1.00  0.00     0.031 C 
ATOM     56  C   UNL A   1      48.762  29.507  27.090  1.00  0.00     0.029 A 
ATOM     57  C   UNL A   1      47.832  28.479  27.086  1.00  0.00     0.049 A 
ATOM     58  H   UNL A   1      45.770  28.550  27.521  1.00  0.00     0.167 HD
ATOM     59  C   UNL A   1      47.076  26.133  26.786  1.00  0.00     0.074 A 
ATOM     60  C   UNL A   1      47.304  24.741  26.454  1.00  0.00     0.031 C 
ATOM     61  C   UNL A   1      48.039  27.086  26.774  1.00  0.00     0.037 A 
BRANCH  48  62
ATOM     62  C   UNL A   1      46.046  32.746  28.282  1.00  0.00     0.058 A 
ATOM     63  C   UNL A   1      46.500  33.264  29.506  1.00  0.00     0.135 A 
ATOM     64  C   UNL A   1      45.916  33.638  27.204  1.00  0.00     0.135 A 
ATOM     65  F   UNL A   1      46.630  32.460  30.573  1.00  0.00    -0.206 F 
ATOM     66  C   UNL A   1      46.776  34.618  29.667  1.00  0.00     0.059 A 
ATOM     67  C   UNL A   1      46.216  34.992  27.335  1.00  0.00     0.059 A 
ATOM     68  F   UNL A   1      45.489  33.199  26.010  1.00  0.00    -0.206 F 
ATOM     69  C   UNL A   1      46.628  35.474  28.576  1.00  0.00     0.060 A 
BRANCH  69  70
ATOM     70  S   UNL A   1      46.986  37.229  28.803  1.00  0.00     0.124 S 
ATOM     71  O   UNL A   1      47.645  37.556  27.541  1.00  0.00    -0.237 OA
ATOM     72  O   UNL A   1      45.655  37.800  28.987  1.00  0.00    -0.237 OA
ATOM     73  O   UNL A   1      47.844  37.251  29.983  1.00  0.00    -0.744 OA
ENDBRANCH  69  70
ENDBRANCH  48  62
BRANCH  49  74
ATOM     74  C   UNL A   1      43.405  23.184  26.931  1.00  0.00     0.058 A 
ATOM     75  C   UNL A   1      43.302  22.690  25.622  1.00  0.00     0.135 A 
ATOM     76  C   UNL A   1      43.145  22.297  27.987  1.00  0.00     0.135 A 
ATOM     77  F   UNL A   1      43.537  23.501  24.579  1.00  0.00    -0.206 F 
ATOM     78  C   UNL A   1      42.938  21.372  25.365  1.00  0.00     0.059 A 
ATOM     79  C   UNL A   1      42.804  20.967  27.756  1.00  0.00     0.059 A 
ATOM     80  F   UNL A   1      43.251  22.714  29.258  1.00  0.00    -0.206 F 
ATOM     81  C   UNL A   1      42.694  20.517  26.441  1.00  0.00     0.060 A 
BRANCH  81  82
ATOM     82  S   UNL A   1      42.276  18.793  26.099  1.00  0.00     0.124 S 
ATOM     83  O   UNL A   1      40.872  18.901  25.721  1.00  0.00    -0.237 OA
ATOM     84  O   UNL A   1      43.204  18.459  25.023  1.00  0.00    -0.237 OA
ATOM     85  O   UNL A   1      42.538  18.126  27.371  1.00  0.00    -0.744 OA
ENDBRANCH  81  82
ENDBRANCH  49  74
BRANCH  61  86
ATOM     86  C   UNL A   1      49.435  26.653  26.430  1.00  0.00     0.058 A 
ATOM     87  C   UNL A   1      50.284  26.074  27.385  1.00  0.00     0.135 A 
ATOM     88  C   UNL A   1      49.909  26.770  25.112  1.00  0.00     0.135 A 
ATOM     89  F   UNL A   1      49.880  25.946  28.659  1.00  0.00    -0.206 F 
ATOM     90  C   UNL A   1      51.562  25.641  27.051  1.00  0.00     0.059 A 
ATOM     91  C   UNL A   1      51.174  26.321  24.751  1.00  0.00     0.059 A 
ATOM     92  F   UNL A   1      49.132  27.309  24.160  1.00  0.00    -0.206 F 
ATOM     93  C   UNL A   1      51.998  25.768  25.730  1.00  0.00     0.060 A 
BRANCH  93  94
ATOM     94  S   UNL A   1      53.646  25.168  25.300  1.00  0.00     0.124 S 
ATOM     95  O   UNL A   1      53.814  25.711  23.956  1.00  0.00    -0.237 OA
ATOM     96  O   UNL A   1      54.479  25.770  26.337  1.00  0.00    -0.237 OA
ATOM     97  O   UNL A   1      53.509  23.717  25.379  1.00  0.00    -0.744 OA
ENDBRANCH  93  94
ENDBRANCH  61  86
ENDBRANCH  35  36
ENDBRANCH  27  30
ENDBRANCH  25  26
ENDBRANCH   1  25
TORSDOF 16
ENDMDL
MODEL 2
REMARK VINA RESULT:     -12.0      6.518     11.822
REMARK SMILES COc1ccc(C(F)(F)F)cc1-c1cccnc1C(=O)NCCCNC(=O)c1ccc(-c2c3nc(c(-c4c(F)cc(S(=O)(=O)[O-])cc4F)c4ccc([nH]4)c(-c4c(F)cc(S(=O)(=O)[O-])cc4F)c4nc(c(-c5c(F)cc(S(=O)(=O)[O-])cc5F)c5ccc2[nH]5)C=C4)C=C3)cc1
REMARK SMILES IDX 23 1 22 2 21 3 19 4 20 5 18 7 13 8 14 9 15 10 17 11 16 12
REMARK SMILES IDX 12 13 3 14 4 15 5 16 11 17 6 18 2 19 1 20 7 21 8 22 9 23
REMARK SMILES IDX 10 24 24 25 25 26 26 27 27 29 28 30 29 31 93 32 30 33 92 34
REMARK SMILES IDX 31 35 32 36 33 37 86 38 34 39 91 40 85 41 87 42 35 43 90 44
REMARK SMILES IDX 84 45 83 46 36 48 70 49 49 50 69 51 50 52 53 53 68 54 88 55
REMARK SMILES IDX 51 56 52 57 67 59 89 60 54 61 37 62 38 63 47 64 39 65 40 66
REMARK SMILES IDX 46 67 48 68 41 69 42 70 43 71 44 72 45 73 71 74 72 75 81 76
REMARK SMILES IDX 73 77 74 78 80 79 82 80 75 81 76 82 77 83 78 84 79 85 55 86
REMARK SMILES IDX 56 87 65 88 57 89 58 90 64 91 66 92 59 93 60 94 61 95 62 96
REMARK SMILES IDX 63 97
REMARK H PARENT 21 6 25 28 87 47 53 58
REMARK Flexibility Score: inf
ROOT
ATOM      1  C   UNL A   1      38.745  22.154  26.026  1.00  0.00     0.042 C 
ENDROOT
BRANCH   1   2
ATOM      2  C   UNL A   1      37.517  22.921  25.585  1.00  0.00     0.118 C 
BRANCH   2   3
ATOM      3  N   UNL A   1      37.206  22.972  24.182  1.00  0.00    -0.351 N 
ATOM      4  C   UNL A   1      35.962  23.066  23.578  1.00  0.00     0.270 C 
ATOM      5  O   UNL A   1      35.963  23.298  22.365  1.00  0.00    -0.267 OA
ATOM      6  H   UNL A   1      37.976  22.934  23.571  1.00  0.00     0.163 HD
BRANCH   4   7
ATOM      7  C   UNL A   1      34.630  22.834  24.276  1.00  0.00     0.136 A 
ATOM      8  C   UNL A   1      33.620  23.786  24.532  1.00  0.00     0.017 A 
ATOM      9  C   UNL A   1      32.419  23.296  25.091  1.00  0.00     0.013 A 
ATOM     10  C   UNL A   1      32.253  21.950  25.385  1.00  0.00     0.021 A 
ATOM     11  N   UNL A   1      34.462  21.504  24.564  1.00  0.00    -0.250 NA
ATOM     12  C   UNL A   1      33.297  21.099  25.106  1.00  0.00     0.112 A 
BRANCH   8  13
ATOM     13  C   UNL A   1      33.719  25.235  24.303  1.00  0.00     0.027 A 
ATOM     14  C   UNL A   1      33.494  25.804  23.024  1.00  0.00     0.126 A 
ATOM     15  C   UNL A   1      33.448  27.190  22.854  1.00  0.00     0.048 A 
ATOM     16  C   UNL A   1      33.611  28.035  23.952  1.00  0.00     0.017 A 
ATOM     17  C   UNL A   1      33.965  26.108  25.380  1.00  0.00     0.025 A 
ATOM     18  C   UNL A   1      33.887  27.506  25.222  1.00  0.00     0.056 A 
BRANCH  14  19
ATOM     19  O   UNL A   1      33.393  25.039  21.887  1.00  0.00    -0.496 OA
ATOM     20  C   UNL A   1      32.522  25.593  20.899  1.00  0.00     0.278 C 
ENDBRANCH  14  19
BRANCH  18  21
ATOM     21  C   UNL A   1      33.959  28.405  26.435  1.00  0.00     0.416 C 
ATOM     22  F   UNL A   1      33.120  28.040  27.439  1.00  0.00    -0.166 F 
ATOM     23  F   UNL A   1      35.217  28.438  26.958  1.00  0.00    -0.166 F 
ATOM     24  F   UNL A   1      33.649  29.701  26.145  1.00  0.00    -0.166 F 
ENDBRANCH  18  21
ENDBRANCH   8  13
ENDBRANCH   4   7
ENDBRANCH   2   3
ENDBRANCH   1   2
BRANCH   1  25
ATOM     25  C   UNL A   1      39.717  22.940  26.899  1.00  0.00     0.118 C 
BRANCH  25  26
ATOM     26  N   UNL A   1      40.938  23.388  26.225  1.00  0.00    -0.352 N 
ATOM     27  C   UNL A   1      41.701  24.537  26.268  1.00  0.00     0.251 C 
ATOM     28  H   UNL A   1      41.295  22.716  25.599  1.00  0.00     0.163 HD
ATOM     29  O   UNL A   1      42.620  24.649  25.466  1.00  0.00    -0.269 OA
BRANCH  27  30
ATOM     30  C   UNL A   1      41.416  25.656  27.204  1.00  0.00     0.039 A 
ATOM     31  C   UNL A   1      40.476  25.462  28.227  1.00  0.00     0.014 A 
ATOM     32  C   UNL A   1      42.025  26.899  27.090  1.00  0.00     0.014 A 
ATOM     33  C   UNL A   1      40.254  26.460  29.186  1.00  0.00     0.010 A 
ATOM     34  C   UNL A   1      41.918  27.830  28.118  1.00  0.00     0.010 A 
ATOM     35  C   UNL A   1      41.031  27.626  29.183  1.00  0.00    -0.014 A 
BRANCH  35  36
ATOM     36  C   UNL A   1      40.951  28.654  30.258  1.00  0.00     0.031 A 
ATOM     37  C   UNL A   1      41.871  28.567  31.452  1.00  0.00     0.074 A 
ATOM     38  C   UNL A   1      39.971  29.582  30.231  1.00  0.00     0.049 A 
ATOM     39  N   UNL A   1      41.822  29.216  32.587  1.00  0.00    -0.248 NA
ATOM     40  C   UNL A   1      42.959  27.577  31.380  1.00  0.00     0.031 C 
ATOM     41  C   UNL A   1      38.974  29.736  29.169  1.00  0.00     0.029 A 
ATOM     42  N   UNL A   1      39.637  30.559  31.136  1.00  0.00    -0.354 N 
ATOM     43  C   UNL A   1      42.831  28.677  33.378  1.00  0.00     0.074 A 
ATOM     44  C   UNL A   1      43.440  27.610  32.613  1.00  0.00     0.031 C 
ATOM     45  C   UNL A   1      38.162  30.761  29.468  1.00  0.00     0.029 A 
ATOM     46  C   UNL A   1      38.541  31.306  30.765  1.00  0.00     0.049 A 
ATOM     47  H   UNL A   1      40.134  30.711  31.972  1.00  0.00     0.167 HD
ATOM     48  C   UNL A   1      43.234  29.052  34.615  1.00  0.00     0.037 A 
ATOM     49  C   UNL A   1      37.906  32.307  31.405  1.00  0.00     0.037 A 
ATOM     50  C   UNL A   1      42.672  30.164  35.336  1.00  0.00     0.049 A 
ATOM     51  C   UNL A   1      38.408  32.746  32.753  1.00  0.00     0.074 A 
ATOM     52  C   UNL A   1      43.063  30.685  36.557  1.00  0.00     0.029 A 
ATOM     53  N   UNL A   1      41.611  30.938  34.891  1.00  0.00    -0.354 N 
ATOM     54  N   UNL A   1      39.393  32.253  33.465  1.00  0.00    -0.248 NA
ATOM     55  C   UNL A   1      37.717  33.880  33.382  1.00  0.00     0.031 C 
ATOM     56  C   UNL A   1      42.219  31.757  36.864  1.00  0.00     0.029 A 
ATOM     57  C   UNL A   1      41.330  31.929  35.816  1.00  0.00     0.049 A 
ATOM     58  H   UNL A   1      41.129  30.803  34.044  1.00  0.00     0.167 HD
ATOM     59  C   UNL A   1      39.458  33.032  34.613  1.00  0.00     0.074 A 
ATOM     60  C   UNL A   1      38.420  34.036  34.496  1.00  0.00     0.031 C 
ATOM     61  C   UNL A   1      40.300  32.928  35.671  1.00  0.00     0.037 A 
BRANCH  48  62
ATOM     62  C   UNL A   1      44.347  28.267  35.257  1.00  0.00     0.058 A 
ATOM     63  C   UNL A   1      45.697  28.605  35.064  1.00  0.00     0.135 A 
ATOM     64  C   UNL A   1      44.062  27.175  36.095  1.00  0.00     0.135 A 
ATOM     65  F   UNL A   1      46.028  29.630  34.264  1.00  0.00    -0.206 F 
ATOM     66  C   UNL A   1      46.723  27.866  35.643  1.00  0.00     0.059 A 
ATOM     67  C   UNL A   1      45.073  26.441  36.710  1.00  0.00     0.059 A 
ATOM     68  F   UNL A   1      42.791  26.808  36.318  1.00  0.00    -0.206 F 
ATOM     69  C   UNL A   1      46.401  26.784  36.463  1.00  0.00     0.060 A 
BRANCH  69  70
ATOM     70  S   UNL A   1      47.746  25.835  37.205  1.00  0.00     0.124 S 
ATOM     71  O   UNL A   1      47.872  26.481  38.509  1.00  0.00    -0.237 OA
ATOM     72  O   UNL A   1      47.201  24.481  37.222  1.00  0.00    -0.237 OA
ATOM     73  O   UNL A   1      48.860  26.048  36.288  1.00  0.00    -0.744 OA
ENDBRANCH  69  70
ENDBRANCH  48  62
BRANCH  49  74
ATOM     74  C   UNL A   1      36.746  32.983  30.762  1.00  0.00     0.058 A 
ATOM     75  C   UNL A   1      35.447  32.794  31.256  1.00  0.00     0.135 A 
ATOM     76  C   UNL A   1      36.910  33.843  29.665  1.00  0.00     0.135 A 
ATOM     77  F   UNL A   1      35.239  31.978  32.300  1.00  0.00    -0.206 F 
ATOM     78  C   UNL A   1      34.347  33.419  30.676  1.00  0.00     0.059 A 
ATOM     79  C   UNL A   1      35.828  34.499  29.084  1.00  0.00     0.059 A 
ATOM     80  F   UNL A   1      38.135  34.074  29.168  1.00  0.00    -0.206 F 
ATOM     81  C   UNL A   1      34.549  34.272  29.590  1.00  0.00     0.060 A 
BRANCH  81  82
ATOM     82  S   UNL A   1      33.123  35.122  28.879  1.00  0.00     0.124 S 
ATOM     83  O   UNL A   1      32.263  35.279  30.047  1.00  0.00    -0.237 OA
ATOM     84  O   UNL A   1      33.721  36.346  28.358  1.00  0.00    -0.237 OA
ATOM     85  O   UNL A   1      32.647  34.185  27.866  1.00  0.00    -0.744 OA
ENDBRANCH  81  82
ENDBRANCH  49  74
BRANCH  61  86
ATOM     86  C   UNL A   1      40.162  33.945  36.767  1.00  0.00     0.058 A 
ATOM     87  C   UNL A   1      40.883  35.148  36.750  1.00  0.00     0.135 A 
ATOM     88  C   UNL A   1      39.254  33.735  37.818  1.00  0.00     0.135 A 
ATOM     89  F   UNL A   1      41.768  35.393  35.771  1.00  0.00    -0.206 F 
ATOM     90  C   UNL A   1      40.723  36.103  37.749  1.00  0.00     0.059 A 
ATOM     91  C   UNL A   1      39.060  34.687  38.813  1.00  0.00     0.059 A 
ATOM     92  F   UNL A   1      38.533  32.604  37.873  1.00  0.00    -0.206 F 
ATOM     93  C   UNL A   1      39.807  35.863  38.777  1.00  0.00     0.060 A 
BRANCH  93  94
ATOM     94  S   UNL A   1      39.581  37.126  40.046  1.00  0.00     0.124 S 
ATOM     95  O   UNL A   1      38.587  37.994  39.422  1.00  0.00    -0.237 OA
ATOM     96  O   UNL A   1      39.111  36.343  41.186  1.00  0.00    -0.237 OA
ATOM     97  O   UNL A   1      40.914  37.700  40.194  1.00  0.00    -0.744 OA
ENDBRANCH  93  94
ENDBRANCH  61  86
ENDBRANCH  35  36
ENDBRANCH  27  30
ENDBRANCH  25  26
ENDBRANCH   1  25
TORSDOF 16
ENDMDL
MODEL 3
REMARK VINA RESULT:     -12.0      6.770     11.456
REMARK SMILES COc1ccc(C(F)(F)F)cc1-c1cccnc1C(=O)NCCCNC(=O)c1ccc(-c2c3nc(c(-c4c(F)cc(S(=O)(=O)[O-])cc4F)c4ccc([nH]4)c(-c4c(F)cc(S(=O)(=O)[O-])cc4F)c4nc(c(-c5c(F)cc(S(=O)(=O)[O-])cc5F)c5ccc2[nH]5)C=C4)C=C3)cc1
REMARK SMILES IDX 23 1 22 2 21 3 19 4 20 5 18 7 13 8 14 9 15 10 17 11 16 12
REMARK SMILES IDX 12 13 3 14 4 15 5 16 11 17 6 18 2 19 1 20 7 21 8 22 9 23
REMARK SMILES IDX 10 24 24 25 25 26 26 27 27 29 28 30 29 31 93 32 30 33 92 34
REMARK SMILES IDX 31 35 32 36 33 37 86 38 34 39 91 40 85 41 87 42 35 43 90 44
REMARK SMILES IDX 84 45 83 46 36 48 70 49 49 50 69 51 50 52 53 53 68 54 88 55
REMARK SMILES IDX 51 56 52 57 67 59 89 60 54 61 37 62 38 63 47 64 39 65 40 66
REMARK SMILES IDX 46 67 48 68 41 69 42 70 43 71 44 72 45 73 71 74 72 75 81 76
REMARK SMILES IDX 73 77 74 78 80 79 82 80 75 81 76 82 77 83 78 84 79 85 55 86
REMARK SMILES IDX 56 87 65 88 57 89 58 90 64 91 66 92 59 93 60 94 61 95 62 96
REMARK SMILES IDX 63 97
REMARK H PARENT 21 6 25 28 87 47 53 58
REMARK Flexibility Score: inf
ROOT
ATOM      1  C   UNL A   1      38.943  22.476  26.392  1.00  0.00     0.042 C 
ENDROOT
BRANCH   1   2
ATOM      2  C   UNL A   1      37.822  23.322  25.827  1.00  0.00     0.118 C 
BRANCH   2   3
ATOM      3  N   UNL A   1      37.538  23.237  24.421  1.00  0.00    -0.351 N 
ATOM      4  C   UNL A   1      36.305  23.143  23.795  1.00  0.00     0.270 C 
ATOM      5  O   UNL A   1      36.306  23.287  22.568  1.00  0.00    -0.267 OA
ATOM      6  H   UNL A   1      38.321  23.245  23.825  1.00  0.00     0.163 HD
BRANCH   4   7
ATOM      7  C   UNL A   1      34.993  22.810  24.489  1.00  0.00     0.136 A 
ATOM      8  C   UNL A   1      33.900  23.672  24.715  1.00  0.00     0.017 A 
ATOM      9  C   UNL A   1      32.743  23.090  25.278  1.00  0.00     0.013 A 
ATOM     10  C   UNL A   1      32.695  21.741  25.604  1.00  0.00     0.021 A 
ATOM     11  N   UNL A   1      34.943  21.477  24.808  1.00  0.00    -0.250 NA
ATOM     12  C   UNL A   1      33.814  20.982  25.352  1.00  0.00     0.112 A 
BRANCH   8  13
ATOM     13  C   UNL A   1      33.871  25.119  24.452  1.00  0.00     0.027 A 
ATOM     14  C   UNL A   1      33.553  25.636  23.171  1.00  0.00     0.126 A 
ATOM     15  C   UNL A   1      33.386  27.009  22.973  1.00  0.00     0.048 A 
ATOM     16  C   UNL A   1      33.519  27.892  24.047  1.00  0.00     0.017 A 
ATOM     17  C   UNL A   1      34.084  26.035  25.500  1.00  0.00     0.025 A 
ATOM     18  C   UNL A   1      33.885  27.418  25.316  1.00  0.00     0.056 A 
BRANCH  14  19
ATOM     19  O   UNL A   1      33.474  24.838  22.055  1.00  0.00    -0.496 OA
ATOM     20  C   UNL A   1      32.782  25.448  20.963  1.00  0.00     0.278 C 
ENDBRANCH  14  19
BRANCH  18  21
ATOM     21  C   UNL A   1      33.926  28.349  26.506  1.00  0.00     0.416 C 
ATOM     22  F   UNL A   1      35.170  28.520  27.025  1.00  0.00    -0.166 F 
ATOM     23  F   UNL A   1      33.453  29.586  26.188  1.00  0.00    -0.166 F 
ATOM     24  F   UNL A   1      33.150  27.914  27.538  1.00  0.00    -0.166 F 
ENDBRANCH  18  21
ENDBRANCH   8  13
ENDBRANCH   4   7
ENDBRANCH   2   3
ENDBRANCH   1   2
BRANCH   1  25
ATOM     25  C   UNL A   1      40.096  23.262  27.009  1.00  0.00     0.118 C 
BRANCH  25  26
ATOM     26  N   UNL A   1      40.818  24.138  26.085  1.00  0.00    -0.352 N 
ATOM     27  C   UNL A   1      41.138  25.480  26.075  1.00  0.00     0.251 C 
ATOM     28  H   UNL A   1      41.152  23.661  25.291  1.00  0.00     0.163 HD
ATOM     29  O   UNL A   1      41.660  25.941  25.067  1.00  0.00    -0.269 OA
BRANCH  27  30
ATOM     30  C   UNL A   1      40.822  26.391  27.206  1.00  0.00     0.039 A 
ATOM     31  C   UNL A   1      39.895  25.973  28.174  1.00  0.00     0.014 A 
ATOM     32  C   UNL A   1      41.388  27.653  27.332  1.00  0.00     0.014 A 
ATOM     33  C   UNL A   1      39.647  26.762  29.306  1.00  0.00     0.010 A 
ATOM     34  C   UNL A   1      41.257  28.366  28.518  1.00  0.00     0.010 A 
ATOM     35  C   UNL A   1      40.385  27.933  29.525  1.00  0.00    -0.014 A 
BRANCH  35  36
ATOM     36  C   UNL A   1      40.277  28.734  30.777  1.00  0.00     0.031 A 
ATOM     37  C   UNL A   1      39.251  29.837  30.879  1.00  0.00     0.074 A 
ATOM     38  C   UNL A   1      41.182  28.565  31.764  1.00  0.00     0.049 A 
ATOM     39  N   UNL A   1      39.136  30.783  31.774  1.00  0.00    -0.248 NA
ATOM     40  C   UNL A   1      38.254  29.917  29.797  1.00  0.00     0.031 C 
ATOM     41  C   UNL A   1      42.267  27.579  31.765  1.00  0.00     0.029 A 
ATOM     42  N   UNL A   1      41.348  29.233  32.952  1.00  0.00    -0.354 N 
ATOM     43  C   UNL A   1      38.096  31.597  31.336  1.00  0.00     0.074 A 
ATOM     44  C   UNL A   1      37.651  31.064  30.067  1.00  0.00     0.031 C 
ATOM     45  C   UNL A   1      42.964  27.688  32.906  1.00  0.00     0.029 A 
ATOM     46  C   UNL A   1      42.415  28.783  33.696  1.00  0.00     0.049 A 
ATOM     47  H   UNL A   1      40.759  29.966  33.244  1.00  0.00     0.167 HD
ATOM     48  C   UNL A   1      37.543  32.672  31.946  1.00  0.00     0.037 A 
ATOM     49  C   UNL A   1      42.904  29.213  34.876  1.00  0.00     0.037 A 
ATOM     50  C   UNL A   1      37.943  33.148  33.244  1.00  0.00     0.049 A 
ATOM     51  C   UNL A   1      42.237  30.372  35.564  1.00  0.00     0.074 A 
ATOM     52  C   UNL A   1      37.393  34.174  33.993  1.00  0.00     0.029 A 
ATOM     53  N   UNL A   1      38.982  32.618  33.994  1.00  0.00    -0.354 N 
ATOM     54  N   UNL A   1      41.226  31.100  35.154  1.00  0.00    -0.248 NA
ATOM     55  C   UNL A   1      42.773  30.765  36.874  1.00  0.00     0.031 C 
ATOM     56  C   UNL A   1      38.117  34.282  35.184  1.00  0.00     0.029 A 
ATOM     57  C   UNL A   1      39.092  33.298  35.195  1.00  0.00     0.049 A 
ATOM     58  H   UNL A   1      39.556  31.868  33.715  1.00  0.00     0.167 HD
ATOM     59  C   UNL A   1      40.986  32.020  36.168  1.00  0.00     0.074 A 
ATOM     60  C   UNL A   1      41.952  31.749  37.214  1.00  0.00     0.031 C 
ATOM     61  C   UNL A   1      40.053  33.001  36.229  1.00  0.00     0.037 A 
BRANCH  48  62
ATOM     62  C   UNL A   1      36.434  33.392  31.226  1.00  0.00     0.058 A 
ATOM     63  C   UNL A   1      35.104  33.338  31.674  1.00  0.00     0.135 A 
ATOM     64  C   UNL A   1      36.706  34.165  30.085  1.00  0.00     0.135 A 
ATOM     65  F   UNL A   1      34.784  32.604  32.752  1.00  0.00    -0.206 F 
ATOM     66  C   UNL A   1      34.079  33.988  30.996  1.00  0.00     0.059 A 
ATOM     67  C   UNL A   1      35.700  34.850  29.408  1.00  0.00     0.059 A 
ATOM     68  F   UNL A   1      37.959  34.256  29.612  1.00  0.00    -0.206 F 
ATOM     69  C   UNL A   1      34.386  34.740  29.862  1.00  0.00     0.060 A 
BRANCH  69  70
ATOM     70  S   UNL A   1      33.043  35.577  28.992  1.00  0.00     0.124 S 
ATOM     71  O   UNL A   1      32.482  34.482  28.205  1.00  0.00    -0.237 OA
ATOM     72  O   UNL A   1      32.210  36.057  30.091  1.00  0.00    -0.237 OA
ATOM     73  O   UNL A   1      33.727  36.614  28.228  1.00  0.00    -0.744 OA
ENDBRANCH  69  70
ENDBRANCH  48  62
BRANCH  49  74
ATOM     74  C   UNL A   1      44.069  28.522  35.494  1.00  0.00     0.058 A 
ATOM     75  C   UNL A   1      43.875  27.466  36.397  1.00  0.00     0.135 A 
ATOM     76  C   UNL A   1      45.389  28.881  35.183  1.00  0.00     0.135 A 
ATOM     77  F   UNL A   1      42.631  27.088  36.730  1.00  0.00    -0.206 F 
ATOM     78  C   UNL A   1      44.946  26.801  36.984  1.00  0.00     0.059 A 
ATOM     79  C   UNL A   1      46.478  28.215  35.738  1.00  0.00     0.059 A 
ATOM     80  F   UNL A   1      45.629  29.870  34.308  1.00  0.00    -0.206 F 
ATOM     81  C   UNL A   1      46.246  27.182  36.645  1.00  0.00     0.060 A 
BRANCH  81  82
ATOM     82  S   UNL A   1      47.630  26.276  37.370  1.00  0.00     0.124 S 
ATOM     83  O   UNL A   1      47.669  25.082  36.534  1.00  0.00    -0.237 OA
ATOM     84  O   UNL A   1      48.736  27.213  37.197  1.00  0.00    -0.237 OA
ATOM     85  O   UNL A   1      47.206  26.067  38.751  1.00  0.00    -0.744 OA
ENDBRANCH  81  82
ENDBRANCH  49  74
BRANCH  61  86
ATOM     86  C   UNL A   1      40.002  33.829  37.481  1.00  0.00     0.058 A 
ATOM     87  C   UNL A   1      40.739  35.015  37.611  1.00  0.00     0.135 A 
ATOM     88  C   UNL A   1      39.160  33.456  38.542  1.00  0.00     0.135 A 
ATOM     89  F   UNL A   1      41.563  35.410  36.628  1.00  0.00    -0.206 F 
ATOM     90  C   UNL A   1      40.659  35.796  38.759  1.00  0.00     0.059 A 
ATOM     91  C   UNL A   1      39.045  34.235  39.689  1.00  0.00     0.059 A 
ATOM     92  F   UNL A   1      38.427  32.335  38.462  1.00  0.00    -0.206 F 
ATOM     93  C   UNL A   1      39.807  35.398  39.793  1.00  0.00     0.060 A 
BRANCH  93  94
ATOM     94  S   UNL A   1      39.683  36.439  41.261  1.00  0.00     0.124 S 
ATOM     95  O   UNL A   1      39.651  37.774  40.672  1.00  0.00    -0.237 OA
ATOM     96  O   UNL A   1      38.434  35.983  41.864  1.00  0.00    -0.237 OA
ATOM     97  O   UNL A   1      40.891  36.112  42.012  1.00  0.00    -0.744 OA
ENDBRANCH  93  94
ENDBRANCH  61  86
ENDBRANCH  35  36
ENDBRANCH  27  30
ENDBRANCH  25  26
ENDBRANCH   1  25
TORSDOF 16
ENDMDL
