MODEL 1
REMARK VINA RESULT:     -12.3      0.000      0.000
REMARK SMILES COc1cccc([C@@H]2CC(c3cccc(C)c3)=NN2C(=O)CCC(=O)NCCCNC(=O)c2ccc(-c3c4nc(c(-c5c(F)cc(S(=O)(=O)[O-])cc5F)c5ccc([nH]5)c(-c5c(F)cc(S(=O)(=O)[O-])cc5F)c5nc(c(-c6c(F)cc(S(=O)(=O)[O-])cc6F)c6ccc3[nH]6)C=C5)C=C4)cc2)c1
REMARK SMILES IDX 27 1 26 2 24 3 25 4 23 6 22 7 20 8 21 9 19 10 8 11 9 12
REMARK SMILES IDX 10 13 18 14 7 15 3 16 4 17 99 18 5 19 6 20 2 21 1 22 11 23
REMARK SMILES IDX 12 24 17 25 13 26 15 27 14 28 16 29 28 30 29 31 30 32 31 33
REMARK SMILES IDX 32 35 33 36 34 37 98 38 35 39 97 40 36 41 37 42 38 43 91 44
REMARK SMILES IDX 39 45 96 46 90 47 92 48 40 49 95 50 89 51 88 52 41 54 75 55
REMARK SMILES IDX 54 56 74 57 55 58 58 59 73 60 93 61 56 62 57 63 72 65 94 66
REMARK SMILES IDX 59 67 42 68 43 69 52 70 44 71 45 72 51 73 53 74 46 75 47 76
REMARK SMILES IDX 48 77 49 78 50 79 76 80 77 81 86 82 78 83 79 84 85 85 87 86
REMARK SMILES IDX 80 87 81 88 82 89 83 90 84 91 60 92 61 93 70 94 62 95 63 96
REMARK SMILES IDX 69 97 71 98 64 99 65 100 66 101 67 102 68 103
REMARK H PARENT 26 5 30 34 92 53 58 64
REMARK Flexibility Score: inf
ROOT
ATOM      1  C   UNL A   1      31.380  30.343  25.423  1.00  0.00     0.117 C 
ENDROOT
BRANCH   1   2
ATOM      2  N   UNL A   1      31.220  29.116  24.651  1.00  0.00    -0.356 N 
ATOM      3  C   UNL A   1      30.803  27.865  25.017  1.00  0.00     0.220 C 
ATOM      4  O   UNL A   1      30.429  27.078  24.143  1.00  0.00    -0.275 OA
ATOM      5  H   UNL A   1      31.452  29.203  23.698  1.00  0.00     0.163 HD
BRANCH   3   6
ATOM      6  C   UNL A   1      30.922  27.387  26.450  1.00  0.00     0.110 C 
BRANCH   6   7
ATOM      7  C   UNL A   1      32.212  26.611  26.723  1.00  0.00     0.112 C 
BRANCH   7   8
ATOM      8  C   UNL A   1      32.105  25.135  26.423  1.00  0.00     0.243 C 
ATOM      9  O   UNL A   1      31.033  24.564  26.641  1.00  0.00    -0.273 OA
BRANCH   8  10
ATOM     10  N   UNL A   1      33.255  24.483  26.008  1.00  0.00    -0.225 N 
ATOM     11  C   UNL A   1      34.433  25.022  25.345  1.00  0.00     0.147 C 
ATOM     12  C   UNL A   1      35.312  23.809  25.004  1.00  0.00     0.091 C 
ATOM     13  C   UNL A   1      34.400  22.753  25.500  1.00  0.00     0.071 C 
ATOM     14  N   UNL A   1      33.273  23.147  25.992  1.00  0.00    -0.174 NA
BRANCH  11  15
ATOM     15  C   UNL A   1      33.936  25.793  24.153  1.00  0.00    -0.019 A 
ATOM     16  C   UNL A   1      33.285  25.628  21.832  1.00  0.00     0.119 A 
ATOM     17  C   UNL A   1      33.406  27.012  21.705  1.00  0.00     0.046 A 
ATOM     18  C   UNL A   1      33.572  25.034  23.050  1.00  0.00     0.052 A 
ATOM     19  C   UNL A   1      33.781  27.793  22.804  1.00  0.00     0.004 A 
ATOM     20  C   UNL A   1      34.036  27.187  24.032  1.00  0.00     0.006 A 
BRANCH  16  21
ATOM     21  O   UNL A   1      32.922  24.905  20.727  1.00  0.00    -0.497 OA
ATOM     22  C   UNL A   1      32.410  25.704  19.657  1.00  0.00     0.278 C 
ENDBRANCH  16  21
ENDBRANCH  11  15
BRANCH  13  23
ATOM     23  C   UNL A   1      34.558  21.334  25.264  1.00  0.00    -0.002 A 
ATOM     24  C   UNL A   1      36.273  20.993  25.311  1.00  0.00     0.010 A 
ATOM     25  C   UNL A   1      33.307  20.134  24.862  1.00  0.00     0.013 A 
ATOM     26  C   UNL A   1      36.805  19.367  24.913  1.00  0.00     0.001 A 
ATOM     27  C   UNL A   1      33.699  18.440  24.466  1.00  0.00    -0.050 A 
ATOM     28  C   UNL A   1      35.442  17.941  24.503  1.00  0.00     0.003 A 
ATOM     29  C   UNL A   1      32.688  17.575  23.770  1.00  0.00     0.044 C 
ENDBRANCH  13  23
ENDBRANCH   8  10
ENDBRANCH   7   8
ENDBRANCH   6   7
ENDBRANCH   3   6
ENDBRANCH   1   2
BRANCH   1  30
ATOM     30  C   UNL A   1      31.937  30.360  26.865  1.00  0.00     0.042 C 
BRANCH  30  31
ATOM     31  C   UNL A   1      33.388  30.717  27.230  1.00  0.00     0.118 C 
BRANCH  31  32
ATOM     32  N   UNL A   1      33.572  31.941  27.975  1.00  0.00    -0.352 N 
ATOM     33  C   UNL A   1      34.453  32.272  28.983  1.00  0.00     0.251 C 
ATOM     34  H   UNL A   1      32.959  32.667  27.719  1.00  0.00     0.163 HD
ATOM     35  O   UNL A   1      34.191  33.305  29.605  1.00  0.00    -0.269 OA
BRANCH  33  36
ATOM     36  C   UNL A   1      35.639  31.344  29.425  1.00  0.00     0.039 A 
ATOM     37  C   UNL A   1      36.592  31.160  27.900  1.00  0.00     0.014 A 
ATOM     38  C   UNL A   1      36.211  30.209  31.002  1.00  0.00     0.014 A 
ATOM     39  C   UNL A   1      37.979  30.068  27.887  1.00  0.00     0.010 A 
ATOM     40  C   UNL A   1      37.672  29.183  30.854  1.00  0.00     0.010 A 
ATOM     41  C   UNL A   1      38.548  29.169  29.315  1.00  0.00    -0.014 A 
BRANCH  41  42
ATOM     42  C   UNL A   1      40.018  28.799  29.396  1.00  0.00     0.031 A 
ATOM     43  C   UNL A   1      41.002  29.855  29.828  1.00  0.00     0.074 A 
ATOM     44  C   UNL A   1      40.501  27.632  28.886  1.00  0.00     0.049 A 
ATOM     45  N   UNL A   1      42.309  29.824  29.823  1.00  0.00    -0.248 NA
ATOM     46  C   UNL A   1      40.442  31.153  30.238  1.00  0.00     0.031 C 
ATOM     47  C   UNL A   1      39.730  26.549  28.262  1.00  0.00     0.029 A 
ATOM     48  N   UNL A   1      41.798  27.155  28.789  1.00  0.00    -0.354 N 
ATOM     49  C   UNL A   1      42.705  31.101  30.200  1.00  0.00     0.074 A 
ATOM     50  C   UNL A   1      41.519  31.920  30.227  1.00  0.00     0.031 C 
ATOM     51  C   UNL A   1      40.538  25.538  27.909  1.00  0.00     0.029 A 
ATOM     52  C   UNL A   1      41.903  25.883  28.254  1.00  0.00     0.049 A 
ATOM     53  H   UNL A   1      42.581  27.678  29.075  1.00  0.00     0.167 HD
ATOM     54  C   UNL A   1      43.922  31.537  30.599  1.00  0.00     0.037 A 
ATOM     55  C   UNL A   1      42.962  25.061  28.083  1.00  0.00     0.037 A 
ATOM     56  C   UNL A   1      45.088  30.702  30.619  1.00  0.00     0.049 A 
ATOM     57  C   UNL A   1      44.314  25.546  28.530  1.00  0.00     0.074 A 
ATOM     58  C   UNL A   1      46.354  31.000  31.086  1.00  0.00     0.029 A 
ATOM     59  N   UNL A   1      45.128  29.401  30.139  1.00  0.00    -0.354 N 
ATOM     60  N   UNL A   1      44.643  26.708  29.041  1.00  0.00    -0.248 NA
ATOM     61  C   UNL A   1      45.437  24.609  28.395  1.00  0.00     0.031 C 
ATOM     62  C   UNL A   1      47.181  29.908  30.807  1.00  0.00     0.029 A 
ATOM     63  C   UNL A   1      46.409  28.896  30.256  1.00  0.00     0.049 A 
ATOM     64  H   UNL A   1      44.358  28.911  29.771  1.00  0.00     0.167 HD
ATOM     65  C   UNL A   1      46.000  26.628  29.329  1.00  0.00     0.074 A 
ATOM     66  C   UNL A   1      46.429  25.299  28.942  1.00  0.00     0.031 C 
ATOM     67  C   UNL A   1      46.815  27.567  29.871  1.00  0.00     0.037 A 
BRANCH  54  68
ATOM     68  C   UNL A   1      44.015  32.965  31.068  1.00  0.00     0.058 A 
ATOM     69  C   UNL A   1      44.355  34.012  30.190  1.00  0.00     0.135 A 
ATOM     70  C   UNL A   1      43.812  33.288  32.417  1.00  0.00     0.135 A 
ATOM     71  F   UNL A   1      44.574  33.765  28.887  1.00  0.00    -0.206 F 
ATOM     72  C   UNL A   1      44.572  35.306  30.648  1.00  0.00     0.059 A 
ATOM     73  C   UNL A   1      43.971  34.588  32.888  1.00  0.00     0.059 A 
ATOM     74  F   UNL A   1      43.480  32.334  33.301  1.00  0.00    -0.206 F 
ATOM     75  C   UNL A   1      44.378  35.584  32.000  1.00  0.00     0.060 A 
BRANCH  75  76
ATOM     76  S   UNL A   1      44.674  37.265  32.578  1.00  0.00     0.124 S 
ATOM     77  O   UNL A   1      44.960  37.958  31.326  1.00  0.00    -0.237 OA
ATOM     78  O   UNL A   1      43.402  37.601  33.211  1.00  0.00    -0.237 OA
ATOM     79  O   UNL A   1      45.806  37.119  33.487  1.00  0.00    -0.744 OA
ENDBRANCH  75  76
ENDBRANCH  54  68
BRANCH  55  80
ATOM     80  C   UNL A   1      42.785  23.665  27.565  1.00  0.00     0.058 A 
ATOM     81  C   UNL A   1      42.692  22.574  28.448  1.00  0.00     0.135 A 
ATOM     82  C   UNL A   1      42.701  23.381  26.192  1.00  0.00     0.135 A 
ATOM     83  F   UNL A   1      42.781  22.777  29.772  1.00  0.00    -0.206 F 
ATOM     84  C   UNL A   1      42.534  21.265  27.996  1.00  0.00     0.059 A 
ATOM     85  C   UNL A   1      42.513  22.081  25.715  1.00  0.00     0.059 A 
ATOM     86  F   UNL A   1      42.775  24.377  25.295  1.00  0.00    -0.206 F 
ATOM     87  C   UNL A   1      42.433  21.029  26.625  1.00  0.00     0.060 A 
BRANCH  87  88
ATOM     88  S   UNL A   1      42.140  19.335  26.060  1.00  0.00     0.124 S 
ATOM     89  O   UNL A   1      40.708  19.353  25.785  1.00  0.00    -0.237 OA
ATOM     90  O   UNL A   1      43.012  19.252  24.891  1.00  0.00    -0.237 OA
ATOM     91  O   UNL A   1      42.552  18.521  27.200  1.00  0.00    -0.744 OA
ENDBRANCH  87  88
ENDBRANCH  55  80
BRANCH  67  92
ATOM     92  C   UNL A   1      48.246  27.187  30.128  1.00  0.00     0.058 A 
ATOM     93  C   UNL A   1      49.238  27.314  29.143  1.00  0.00     0.135 A 
ATOM     94  C   UNL A   1      48.642  26.774  31.410  1.00  0.00     0.135 A 
ATOM     95  F   UNL A   1      48.914  27.704  27.901  1.00  0.00    -0.206 F 
ATOM     96  C   UNL A   1      50.569  27.020  29.417  1.00  0.00     0.059 A 
ATOM     97  C   UNL A   1      49.972  26.520  31.718  1.00  0.00     0.059 A 
ATOM     98  F   UNL A   1      47.734  26.649  32.393  1.00  0.00    -0.206 F 
ATOM     99  C   UNL A   1      50.927  26.635  30.711  1.00  0.00     0.060 A 
BRANCH  99 100
ATOM    100  S   UNL A   1      52.665  26.307  31.062  1.00  0.00     0.124 S 
ATOM    101  O   UNL A   1      52.588  25.023  31.752  1.00  0.00    -0.237 OA
ATOM    102  O   UNL A   1      53.248  26.275  29.724  1.00  0.00    -0.237 OA
ATOM    103  O   UNL A   1      53.065  27.441  31.889  1.00  0.00    -0.744 OA
ENDBRANCH  99 100
ENDBRANCH  67  92
ENDBRANCH  41  42
ENDBRANCH  33  36
ENDBRANCH  31  32
ENDBRANCH  30  31
ENDBRANCH   1  30
TORSDOF 19
ENDMDL
MODEL 2
REMARK VINA RESULT:     -12.0      1.193      2.111
REMARK SMILES COc1cccc([C@@H]2CC(c3cccc(C)c3)=NN2C(=O)CCC(=O)NCCCNC(=O)c2ccc(-c3c4nc(c(-c5c(F)cc(S(=O)(=O)[O-])cc5F)c5ccc([nH]5)c(-c5c(F)cc(S(=O)(=O)[O-])cc5F)c5nc(c(-c6c(F)cc(S(=O)(=O)[O-])cc6F)c6ccc3[nH]6)C=C5)C=C4)cc2)c1
REMARK SMILES IDX 27 1 26 2 24 3 25 4 23 6 22 7 20 8 21 9 19 10 8 11 9 12
REMARK SMILES IDX 10 13 18 14 7 15 3 16 4 17 99 18 5 19 6 20 2 21 1 22 11 23
REMARK SMILES IDX 12 24 17 25 13 26 15 27 14 28 16 29 28 30 29 31 30 32 31 33
REMARK SMILES IDX 32 35 33 36 34 37 98 38 35 39 97 40 36 41 37 42 38 43 91 44
REMARK SMILES IDX 39 45 96 46 90 47 92 48 40 49 95 50 89 51 88 52 41 54 75 55
REMARK SMILES IDX 54 56 74 57 55 58 58 59 73 60 93 61 56 62 57 63 72 65 94 66
REMARK SMILES IDX 59 67 42 68 43 69 52 70 44 71 45 72 51 73 53 74 46 75 47 76
REMARK SMILES IDX 48 77 49 78 50 79 76 80 77 81 86 82 78 83 79 84 85 85 87 86
REMARK SMILES IDX 80 87 81 88 82 89 83 90 84 91 60 92 61 93 70 94 62 95 63 96
REMARK SMILES IDX 69 97 71 98 64 99 65 100 66 101 67 102 68 103
REMARK H PARENT 26 5 30 34 92 53 58 64
REMARK Flexibility Score: inf
ROOT
ATOM      1  C   UNL A   1      31.528  29.588  25.764  1.00  0.00     0.117 C 
ENDROOT
BRANCH   1   2
ATOM      2  N   UNL A   1      31.167  28.587  24.768  1.00  0.00    -0.356 N 
ATOM      3  C   UNL A   1      30.659  27.323  24.900  1.00  0.00     0.220 C 
ATOM      4  O   UNL A   1      30.120  26.789  23.925  1.00  0.00    -0.275 OA
ATOM      5  H   UNL A   1      31.312  28.870  23.837  1.00  0.00     0.163 HD
BRANCH   3   6
ATOM      6  C   UNL A   1      30.866  26.522  26.169  1.00  0.00     0.110 C 
BRANCH   6   7
ATOM      7  C   UNL A   1      32.079  25.591  26.105  1.00  0.00     0.112 C 
BRANCH   7   8
ATOM      8  C   UNL A   1      31.788  24.265  25.445  1.00  0.00     0.243 C 
ATOM      9  O   UNL A   1      30.621  23.868  25.404  1.00  0.00    -0.273 OA
BRANCH   8  10
ATOM     10  N   UNL A   1      32.871  23.520  25.005  1.00  0.00    -0.225 N 
ATOM     11  C   UNL A   1      34.090  23.965  24.346  1.00  0.00     0.147 C 
ATOM     12  C   UNL A   1      34.852  22.685  23.969  1.00  0.00     0.091 C 
ATOM     13  C   UNL A   1      33.849  21.705  24.447  1.00  0.00     0.071 C 
ATOM     14  N   UNL A   1      32.766  22.189  24.957  1.00  0.00    -0.174 NA
BRANCH  11  15
ATOM     15  C   UNL A   1      33.660  24.808  23.177  1.00  0.00    -0.019 A 
ATOM     16  C   UNL A   1      33.214  27.063  22.433  1.00  0.00     0.119 A 
ATOM     17  C   UNL A   1      32.523  26.557  21.332  1.00  0.00     0.046 A 
ATOM     18  C   UNL A   1      33.757  26.181  23.353  1.00  0.00     0.052 A 
ATOM     19  C   UNL A   1      32.407  25.175  21.142  1.00  0.00     0.004 A 
ATOM     20  C   UNL A   1      32.986  24.298  22.058  1.00  0.00     0.006 A 
BRANCH  16  21
ATOM     21  O   UNL A   1      33.295  28.422  22.579  1.00  0.00    -0.497 OA
ATOM     22  C   UNL A   1      34.380  28.850  23.407  1.00  0.00     0.278 C 
ENDBRANCH  16  21
ENDBRANCH  11  15
BRANCH  13  23
ATOM     23  C   UNL A   1      33.875  20.284  24.175  1.00  0.00    -0.002 A 
ATOM     24  C   UNL A   1      32.526  19.939  23.115  1.00  0.00     0.010 A 
ATOM     25  C   UNL A   1      34.956  19.048  24.860  1.00  0.00     0.013 A 
ATOM     26  C   UNL A   1      32.197  18.261  22.714  1.00  0.00     0.001 A 
ATOM     27  C   UNL A   1      34.758  17.308  24.514  1.00  0.00    -0.050 A 
ATOM     28  C   UNL A   1      33.413  16.810  23.407  1.00  0.00     0.003 A 
ATOM     29  C   UNL A   1      35.423  16.287  25.392  1.00  0.00     0.044 C 
ENDBRANCH  13  23
ENDBRANCH   8  10
ENDBRANCH   7   8
ENDBRANCH   6   7
ENDBRANCH   3   6
ENDBRANCH   1   2
BRANCH   1  30
ATOM     30  C   UNL A   1      32.360  29.255  27.024  1.00  0.00     0.042 C 
BRANCH  30  31
ATOM     31  C   UNL A   1      33.821  29.686  27.238  1.00  0.00     0.118 C 
BRANCH  31  32
ATOM     32  N   UNL A   1      34.020  30.933  27.939  1.00  0.00    -0.352 N 
ATOM     33  C   UNL A   1      34.967  31.321  28.862  1.00  0.00     0.251 C 
ATOM     34  H   UNL A   1      33.360  31.631  27.720  1.00  0.00     0.163 HD
ATOM     35  O   UNL A   1      34.719  32.359  29.482  1.00  0.00    -0.269 OA
BRANCH  33  36
ATOM     36  C   UNL A   1      36.221  30.447  29.224  1.00  0.00     0.039 A 
ATOM     37  C   UNL A   1      37.134  30.394  27.665  1.00  0.00     0.014 A 
ATOM     38  C   UNL A   1      36.910  29.276  30.725  1.00  0.00     0.014 A 
ATOM     39  C   UNL A   1      38.583  29.391  27.557  1.00  0.00     0.010 A 
ATOM     40  C   UNL A   1      38.424  28.350  30.484  1.00  0.00     0.010 A 
ATOM     41  C   UNL A   1      39.250  28.462  28.922  1.00  0.00    -0.014 A 
BRANCH  41  42
ATOM     42  C   UNL A   1      40.741  28.180  28.942  1.00  0.00     0.031 A 
ATOM     43  C   UNL A   1      41.677  29.289  29.348  1.00  0.00     0.074 A 
ATOM     44  C   UNL A   1      41.272  27.049  28.400  1.00  0.00     0.049 A 
ATOM     45  N   UNL A   1      42.983  29.336  29.293  1.00  0.00    -0.248 NA
ATOM     46  C   UNL A   1      41.058  30.548  29.794  1.00  0.00     0.031 C 
ATOM     47  C   UNL A   1      40.542  25.927  27.794  1.00  0.00     0.029 A 
ATOM     48  N   UNL A   1      42.590  26.650  28.248  1.00  0.00    -0.354 N 
ATOM     49  C   UNL A   1      43.316  30.631  29.668  1.00  0.00     0.074 A 
ATOM     50  C   UNL A   1      42.086  31.377  29.750  1.00  0.00     0.031 C 
ATOM     51  C   UNL A   1      41.394  24.969  27.399  1.00  0.00     0.029 A 
ATOM     52  C   UNL A   1      42.749  25.392  27.696  1.00  0.00     0.049 A 
ATOM     53  H   UNL A   1      43.351  27.217  28.509  1.00  0.00     0.167 HD
ATOM     54  C   UNL A   1      44.520  31.134  30.024  1.00  0.00     0.037 A 
ATOM     55  C   UNL A   1      43.847  24.637  27.474  1.00  0.00     0.037 A 
ATOM     56  C   UNL A   1      45.734  30.370  29.991  1.00  0.00     0.049 A 
ATOM     57  C   UNL A   1      45.185  25.197  27.874  1.00  0.00     0.074 A 
ATOM     58  C   UNL A   1      46.997  30.739  30.411  1.00  0.00     0.029 A 
ATOM     59  N   UNL A   1      45.831  29.078  29.495  1.00  0.00    -0.354 N 
ATOM     60  N   UNL A   1      45.464  26.372  28.385  1.00  0.00    -0.248 NA
ATOM     61  C   UNL A   1      46.355  24.329  27.686  1.00  0.00     0.031 C 
ATOM     62  C   UNL A   1      47.875  29.701  30.088  1.00  0.00     0.029 A 
ATOM     63  C   UNL A   1      47.144  28.649  29.556  1.00  0.00     0.049 A 
ATOM     64  H   UNL A   1      45.078  28.547  29.150  1.00  0.00     0.167 HD
ATOM     65  C   UNL A   1      46.834  26.370  28.620  1.00  0.00     0.074 A 
ATOM     66  C   UNL A   1      47.325  25.072  28.202  1.00  0.00     0.031 C 
ATOM     67  C   UNL A   1      47.613  27.350  29.141  1.00  0.00     0.037 A 
BRANCH  54  68
ATOM     68  C   UNL A   1      44.547  32.561  30.506  1.00  0.00     0.058 A 
ATOM     69  C   UNL A   1      44.173  32.907  31.819  1.00  0.00     0.135 A 
ATOM     70  C   UNL A   1      44.901  33.602  29.636  1.00  0.00     0.135 A 
ATOM     71  F   UNL A   1      43.811  31.956  32.697  1.00  0.00    -0.206 F 
ATOM     72  C   UNL A   1      44.069  34.232  32.223  1.00  0.00     0.059 A 
ATOM     73  C   UNL A   1      44.857  34.934  30.036  1.00  0.00     0.059 A 
ATOM     74  F   UNL A   1      45.273  33.335  28.374  1.00  0.00    -0.206 F 
ATOM     75  C   UNL A   1      44.412  35.240  31.322  1.00  0.00     0.060 A 
BRANCH  75  76
ATOM     76  S   UNL A   1      44.261  36.953  31.860  1.00  0.00     0.124 S 
ATOM     77  O   UNL A   1      43.467  36.809  33.076  1.00  0.00    -0.237 OA
ATOM     78  O   UNL A   1      45.656  37.338  32.057  1.00  0.00    -0.237 OA
ATOM     79  O   UNL A   1      43.585  37.603  30.742  1.00  0.00    -0.744 OA
ENDBRANCH  75  76
ENDBRANCH  54  68
BRANCH  55  80
ATOM     80  C   UNL A   1      43.733  23.237  26.947  1.00  0.00     0.058 A 
ATOM     81  C   UNL A   1      44.250  22.898  25.684  1.00  0.00     0.135 A 
ATOM     82  C   UNL A   1      43.116  22.209  27.679  1.00  0.00     0.135 A 
ATOM     83  F   UNL A   1      44.838  23.838  24.928  1.00  0.00    -0.206 F 
ATOM     84  C   UNL A   1      44.154  21.608  25.165  1.00  0.00     0.059 A 
ATOM     85  C   UNL A   1      43.032  20.902  27.193  1.00  0.00     0.059 A 
ATOM     86  F   UNL A   1      42.608  22.464  28.895  1.00  0.00    -0.206 F 
ATOM     87  C   UNL A   1      43.553  20.611  25.933  1.00  0.00     0.060 A 
BRANCH  87  88
ATOM     88  S   UNL A   1      43.513  18.923  25.281  1.00  0.00     0.124 S 
ATOM     89  O   UNL A   1      42.196  18.466  25.710  1.00  0.00    -0.237 OA
ATOM     90  O   UNL A   1      43.674  19.150  23.848  1.00  0.00    -0.237 OA
ATOM     91  O   UNL A   1      44.647  18.280  25.938  1.00  0.00    -0.744 OA
ENDBRANCH  87  88
ENDBRANCH  55  80
BRANCH  67  92
ATOM     92  C   UNL A   1      49.073  27.054  29.338  1.00  0.00     0.058 A 
ATOM     93  C   UNL A   1      50.037  27.390  28.375  1.00  0.00     0.135 A 
ATOM     94  C   UNL A   1      49.518  26.506  30.552  1.00  0.00     0.135 A 
ATOM     95  F   UNL A   1      49.665  27.916  27.198  1.00  0.00    -0.206 F 
ATOM     96  C   UNL A   1      51.390  27.169  28.601  1.00  0.00     0.059 A 
ATOM     97  C   UNL A   1      50.868  26.319  30.816  1.00  0.00     0.059 A 
ATOM     98  F   UNL A   1      48.637  26.179  31.512  1.00  0.00    -0.206 F 
ATOM     99  C   UNL A   1      51.797  26.643  29.829  1.00  0.00     0.060 A 
BRANCH  99 100
ATOM    100  S   UNL A   1      53.560  26.410  30.126  1.00  0.00     0.124 S 
ATOM    101  O   UNL A   1      53.983  27.766  30.458  1.00  0.00    -0.237 OA
ATOM    102  O   UNL A   1      53.562  25.456  31.231  1.00  0.00    -0.237 OA
ATOM    103  O   UNL A   1      54.054  25.892  28.855  1.00  0.00    -0.744 OA
ENDBRANCH  99 100
ENDBRANCH  67  92
ENDBRANCH  41  42
ENDBRANCH  33  36
ENDBRANCH  31  32
ENDBRANCH  30  31
ENDBRANCH   1  30
TORSDOF 19
ENDMDL
MODEL 3
REMARK VINA RESULT:     -11.7      1.382      8.145
REMARK SMILES COc1cccc([C@@H]2CC(c3cccc(C)c3)=NN2C(=O)CCC(=O)NCCCNC(=O)c2ccc(-c3c4nc(c(-c5c(F)cc(S(=O)(=O)[O-])cc5F)c5ccc([nH]5)c(-c5c(F)cc(S(=O)(=O)[O-])cc5F)c5nc(c(-c6c(F)cc(S(=O)(=O)[O-])cc6F)c6ccc3[nH]6)C=C5)C=C4)cc2)c1
REMARK SMILES IDX 27 1 26 2 24 3 25 4 23 6 22 7 20 8 21 9 19 10 8 11 9 12
REMARK SMILES IDX 10 13 18 14 7 15 3 16 4 17 99 18 5 19 6 20 2 21 1 22 11 23
REMARK SMILES IDX 12 24 17 25 13 26 15 27 14 28 16 29 28 30 29 31 30 32 31 33
REMARK SMILES IDX 32 35 33 36 34 37 98 38 35 39 97 40 36 41 37 42 38 43 91 44
REMARK SMILES IDX 39 45 96 46 90 47 92 48 40 49 95 50 89 51 88 52 41 54 75 55
REMARK SMILES IDX 54 56 74 57 55 58 58 59 73 60 93 61 56 62 57 63 72 65 94 66
REMARK SMILES IDX 59 67 42 68 43 69 52 70 44 71 45 72 51 73 53 74 46 75 47 76
REMARK SMILES IDX 48 77 49 78 50 79 76 80 77 81 86 82 78 83 79 84 85 85 87 86
REMARK SMILES IDX 80 87 81 88 82 89 83 90 84 91 60 92 61 93 70 94 62 95 63 96
REMARK SMILES IDX 69 97 71 98 64 99 65 100 66 101 67 102 68 103
REMARK H PARENT 26 5 30 34 92 53 58 64
REMARK Flexibility Score: inf
ROOT
ATOM      1  C   UNL A   1      32.337  30.564  26.773  1.00  0.00     0.117 C 
ENDROOT
BRANCH   1   2
ATOM      2  N   UNL A   1      31.918  29.700  25.676  1.00  0.00    -0.356 N 
ATOM      3  C   UNL A   1      31.168  28.556  25.663  1.00  0.00     0.220 C 
ATOM      4  O   UNL A   1      30.662  28.182  24.599  1.00  0.00    -0.275 OA
ATOM      5  H   UNL A   1      32.229  29.991  24.788  1.00  0.00     0.163 HD
BRANCH   3   6
ATOM      6  C   UNL A   1      31.062  27.672  26.889  1.00  0.00     0.110 C 
BRANCH   6   7
ATOM      7  C   UNL A   1      32.260  26.738  27.067  1.00  0.00     0.112 C 
BRANCH   7   8
ATOM      8  C   UNL A   1      32.043  25.360  26.489  1.00  0.00     0.243 C 
ATOM      9  O   UNL A   1      30.904  24.887  26.501  1.00  0.00    -0.273 OA
BRANCH   8  10
ATOM     10  N   UNL A   1      33.163  24.662  26.064  1.00  0.00    -0.225 N 
ATOM     11  C   UNL A   1      34.396  25.167  25.477  1.00  0.00     0.147 C 
ATOM     12  C   UNL A   1      35.206  23.924  25.077  1.00  0.00     0.091 C 
ATOM     13  C   UNL A   1      34.211  22.900  25.469  1.00  0.00     0.071 C 
ATOM     14  N   UNL A   1      33.095  23.333  25.953  1.00  0.00    -0.174 NA
BRANCH  11  15
ATOM     15  C   UNL A   1      33.992  26.050  24.329  1.00  0.00    -0.019 A 
ATOM     16  C   UNL A   1      33.504  26.106  21.963  1.00  0.00     0.119 A 
ATOM     17  C   UNL A   1      33.647  27.493  21.972  1.00  0.00     0.046 A 
ATOM     18  C   UNL A   1      33.698  25.399  23.139  1.00  0.00     0.052 A 
ATOM     19  C   UNL A   1      33.952  28.166  23.160  1.00  0.00     0.004 A 
ATOM     20  C   UNL A   1      34.114  27.448  24.343  1.00  0.00     0.006 A 
BRANCH  16  21
ATOM     21  O   UNL A   1      33.211  25.491  20.775  1.00  0.00    -0.497 OA
ATOM     22  C   UNL A   1      31.884  25.745  20.305  1.00  0.00     0.278 C 
ENDBRANCH  16  21
ENDBRANCH  11  15
BRANCH  13  23
ATOM     23  C   UNL A   1      34.285  21.493  25.136  1.00  0.00    -0.002 A 
ATOM     24  C   UNL A   1      35.937  20.987  25.412  1.00  0.00     0.010 A 
ATOM     25  C   UNL A   1      33.017  20.452  24.447  1.00  0.00     0.013 A 
ATOM     26  C   UNL A   1      36.388  19.350  24.959  1.00  0.00     0.001 A 
ATOM     27  C   UNL A   1      33.325  18.761  23.969  1.00  0.00    -0.050 A 
ATOM     28  C   UNL A   1      34.991  18.095  24.225  1.00  0.00     0.003 A 
ATOM     29  C   UNL A   1      32.368  18.051  23.055  1.00  0.00     0.044 C 
ENDBRANCH  13  23
ENDBRANCH   8  10
ENDBRANCH   7   8
ENDBRANCH   6   7
ENDBRANCH   3   6
ENDBRANCH   1   2
BRANCH   1  30
ATOM     30  C   UNL A   1      33.736  30.474  27.424  1.00  0.00     0.042 C 
BRANCH  30  31
ATOM     31  C   UNL A   1      34.577  31.691  27.846  1.00  0.00     0.118 C 
BRANCH  31  32
ATOM     32  N   UNL A   1      34.382  32.160  29.198  1.00  0.00    -0.352 N 
ATOM     33  C   UNL A   1      35.038  31.858  30.372  1.00  0.00     0.251 C 
ATOM     34  H   UNL A   1      33.649  32.810  29.300  1.00  0.00     0.163 HD
ATOM     35  O   UNL A   1      34.471  32.214  31.410  1.00  0.00    -0.269 OA
BRANCH  33  36
ATOM     36  C   UNL A   1      36.349  30.997  30.426  1.00  0.00     0.039 A 
ATOM     37  C   UNL A   1      37.101  31.314  28.812  1.00  0.00     0.014 A 
ATOM     38  C   UNL A   1      37.226  29.581  31.578  1.00  0.00     0.014 A 
ATOM     39  C   UNL A   1      38.564  30.433  28.364  1.00  0.00     0.010 A 
ATOM     40  C   UNL A   1      38.737  28.807  31.010  1.00  0.00     0.010 A 
ATOM     41  C   UNL A   1      39.396  29.281  29.436  1.00  0.00    -0.014 A 
BRANCH  41  42
ATOM     42  C   UNL A   1      40.890  29.080  29.259  1.00  0.00     0.031 A 
ATOM     43  C   UNL A   1      41.384  27.731  28.803  1.00  0.00     0.074 A 
ATOM     44  C   UNL A   1      41.802  29.988  29.705  1.00  0.00     0.049 A 
ATOM     45  N   UNL A   1      42.608  27.276  28.731  1.00  0.00    -0.248 NA
ATOM     46  C   UNL A   1      40.360  26.730  28.465  1.00  0.00     0.031 C 
ATOM     47  C   UNL A   1      41.527  31.284  30.339  1.00  0.00     0.029 A 
ATOM     48  N   UNL A   1      43.186  29.952  29.712  1.00  0.00    -0.354 N 
ATOM     49  C   UNL A   1      42.479  25.941  28.371  1.00  0.00     0.074 A 
ATOM     50  C   UNL A   1      41.075  25.619  28.437  1.00  0.00     0.031 C 
ATOM     51  C   UNL A   1      42.672  31.926  30.614  1.00  0.00     0.029 A 
ATOM     52  C   UNL A   1      43.788  31.098  30.201  1.00  0.00     0.049 A 
ATOM     53  H   UNL A   1      43.700  29.173  29.397  1.00  0.00     0.167 HD
ATOM     54  C   UNL A   1      43.421  25.083  27.916  1.00  0.00     0.037 A 
ATOM     55  C   UNL A   1      45.084  31.470  30.285  1.00  0.00     0.037 A 
ATOM     56  C   UNL A   1      44.809  25.426  27.802  1.00  0.00     0.049 A 
ATOM     57  C   UNL A   1      46.130  30.516  29.776  1.00  0.00     0.074 A 
ATOM     58  C   UNL A   1      45.842  24.678  27.272  1.00  0.00     0.029 A 
ATOM     59  N   UNL A   1      45.357  26.624  28.239  1.00  0.00    -0.354 N 
ATOM     60  N   UNL A   1      45.973  29.311  29.282  1.00  0.00    -0.248 NA
ATOM     61  C   UNL A   1      47.526  30.972  29.817  1.00  0.00     0.031 C 
ATOM     62  C   UNL A   1      47.030  25.388  27.470  1.00  0.00     0.029 A 
ATOM     63  C   UNL A   1      46.724  26.617  28.033  1.00  0.00     0.049 A 
ATOM     64  H   UNL A   1      44.848  27.366  28.637  1.00  0.00     0.167 HD
ATOM     65  C   UNL A   1      47.241  28.882  28.914  1.00  0.00     0.074 A 
ATOM     66  C   UNL A   1      48.155  29.960  29.235  1.00  0.00     0.031 C 
ATOM     67  C   UNL A   1      47.616  27.704  28.354  1.00  0.00     0.037 A 
BRANCH  54  68
ATOM     68  C   UNL A   1      42.950  23.719  27.485  1.00  0.00     0.058 A 
ATOM     69  C   UNL A   1      42.823  22.656  28.400  1.00  0.00     0.135 A 
ATOM     70  C   UNL A   1      42.669  23.452  26.138  1.00  0.00     0.135 A 
ATOM     71  F   UNL A   1      43.089  22.844  29.704  1.00  0.00    -0.206 F 
ATOM     72  C   UNL A   1      42.518  21.366  27.983  1.00  0.00     0.059 A 
ATOM     73  C   UNL A   1      42.309  22.179  25.705  1.00  0.00     0.059 A 
ATOM     74  F   UNL A   1      42.766  24.426  25.219  1.00  0.00    -0.206 F 
ATOM     75  C   UNL A   1      42.264  21.138  26.631  1.00  0.00     0.060 A 
BRANCH  75  76
ATOM     76  S   UNL A   1      41.880  19.457  26.107  1.00  0.00     0.124 S 
ATOM     77  O   UNL A   1      42.726  19.319  24.925  1.00  0.00    -0.237 OA
ATOM     78  O   UNL A   1      42.286  18.672  27.269  1.00  0.00    -0.237 OA
ATOM     79  O   UNL A   1      40.445  19.499  25.850  1.00  0.00    -0.744 OA
ENDBRANCH  75  76
ENDBRANCH  54  68
BRANCH  55  80
ATOM     80  C   UNL A   1      45.469  32.836  30.771  1.00  0.00     0.058 A 
ATOM     81  C   UNL A   1      45.551  33.921  29.880  1.00  0.00     0.135 A 
ATOM     82  C   UNL A   1      45.760  33.097  32.120  1.00  0.00     0.135 A 
ATOM     83  F   UNL A   1      45.300  33.735  28.575  1.00  0.00    -0.206 F 
ATOM     84  C   UNL A   1      45.912  35.200  30.300  1.00  0.00     0.059 A 
ATOM     85  C   UNL A   1      46.096  34.376  32.571  1.00  0.00     0.059 A 
ATOM     86  F   UNL A   1      45.693  32.107  33.024  1.00  0.00    -0.206 F 
ATOM     87  C   UNL A   1      46.171  35.422  31.652  1.00  0.00     0.060 A 
BRANCH  87  88
ATOM     88  S   UNL A   1      46.553  37.106  32.195  1.00  0.00     0.124 S 
ATOM     89  O   UNL A   1      47.892  36.946  32.750  1.00  0.00    -0.237 OA
ATOM     90  O   UNL A   1      46.466  37.853  30.943  1.00  0.00    -0.237 OA
ATOM     91  O   UNL A   1      45.500  37.396  33.164  1.00  0.00    -0.744 OA
ENDBRANCH  87  88
ENDBRANCH  55  80
BRANCH  67  92
ATOM     92  C   UNL A   1      49.066  27.526  28.004  1.00  0.00     0.058 A 
ATOM     93  C   UNL A   1      49.986  26.969  28.905  1.00  0.00     0.135 A 
ATOM     94  C   UNL A   1      49.517  27.836  26.710  1.00  0.00     0.135 A 
ATOM     95  F   UNL A   1      49.608  26.655  30.153  1.00  0.00    -0.206 F 
ATOM     96  C   UNL A   1      51.310  26.750  28.542  1.00  0.00     0.059 A 
ATOM     97  C   UNL A   1      50.823  27.583  26.312  1.00  0.00     0.059 A 
ATOM     98  F   UNL A   1      48.673  28.359  25.805  1.00  0.00    -0.206 F 
ATOM     99  C   UNL A   1      51.716  27.050  27.240  1.00  0.00     0.060 A 
BRANCH  99 100
ATOM    100  S   UNL A   1      53.423  26.712  26.770  1.00  0.00     0.124 S 
ATOM    101  O   UNL A   1      53.874  25.881  27.881  1.00  0.00    -0.237 OA
ATOM    102  O   UNL A   1      53.260  26.028  25.490  1.00  0.00    -0.237 OA
ATOM    103  O   UNL A   1      54.025  28.040  26.693  1.00  0.00    -0.744 OA
ENDBRANCH  99 100
ENDBRANCH  67  92
ENDBRANCH  41  42
ENDBRANCH  33  36
ENDBRANCH  31  32
ENDBRANCH  30  31
ENDBRANCH   1  30
TORSDOF 19
ENDMDL
