MODEL 1
REMARK VINA RESULT:     -11.5      0.000      0.000
REMARK SMILES O=C(NCCCNC(=O)c1cc(NC(=O)c2ccccc2Cl)ccc1N1CCC[C@H](C[NH+]2CCCC2)C1)c1ccc(-c2c3nc(c(-c4c(F)cc(S(=O)(=O)[O-])cc4F)c4ccc([nH]4)c(-c4c(F)cc(S(=O)(=O)[O-])cc4F)c4nc(c(-c5c(F)cc(S(=O)(=O)[O-])cc5F)c5ccc2[nH]5)C=C4)C=C3)cc1
REMARK SMILES IDX 5 1 4 2 3 3 1 4 2 5 38 7 39 8 103 9 40 10 102 11 41 12 42 13
REMARK SMILES IDX 43 14 96 15 44 16 101 17 95 18 97 19 45 20 100 21 94 22
REMARK SMILES IDX 93 23 46 25 80 26 59 27 79 28 60 29 63 30 78 31 98 32 61 33
REMARK SMILES IDX 62 34 77 36 99 37 64 38 47 39 48 40 57 41 49 42 50 43 56 44
REMARK SMILES IDX 58 45 51 46 52 47 53 48 54 49 55 50 81 51 82 52 91 53 83 54
REMARK SMILES IDX 84 55 90 56 92 57 85 58 86 59 87 60 88 61 89 62 65 63 66 64
REMARK SMILES IDX 75 65 67 66 68 67 74 68 76 69 69 70 70 71 71 72 72 73 73 74
REMARK SMILES IDX 6 75 7 76 8 77 9 79 10 80 11 81 25 82 12 83 24 84 23 85
REMARK SMILES IDX 26 86 27 87 37 88 28 89 30 90 29 91 31 92 32 93 33 94 36 95
REMARK SMILES IDX 34 97 35 98 13 99 14 100 15 102 16 103 17 104 21 105 18 106
REMARK SMILES IDX 20 107 22 108 19 109
REMARK H PARENT 3 6 97 24 63 35 7 78 32 96 13 101
REMARK Flexibility Score: inf
ROOT
ATOM      1  C   UNL A   1      47.766  38.427  25.334  1.00  0.00     0.042 C 
ENDROOT
BRANCH   1   2
ATOM      2  C   UNL A   1      47.176  37.869  26.621  1.00  0.00     0.118 C 
BRANCH   2   3
ATOM      3  N   UNL A   1      48.135  37.726  27.713  1.00  0.00    -0.352 N 
ATOM      4  O   UNL A   1      49.192  36.869  29.502  1.00  0.00    -0.269 OA
ATOM      5  C   UNL A   1      48.383  36.698  28.599  1.00  0.00     0.251 C 
ATOM      6  H   UNL A   1      48.713  38.513  27.843  1.00  0.00     0.163 HD
BRANCH   5   7
ATOM      7  C   UNL A   1      47.644  35.416  28.499  1.00  0.00     0.039 A 
ATOM      8  C   UNL A   1      47.328  34.682  29.634  1.00  0.00     0.014 A 
ATOM      9  C   UNL A   1      47.270  34.927  27.242  1.00  0.00     0.014 A 
ATOM     10  C   UNL A   1      46.910  33.365  29.510  1.00  0.00     0.010 A 
ATOM     11  C   UNL A   1      46.696  33.653  27.127  1.00  0.00     0.010 A 
ATOM     12  C   UNL A   1      46.576  32.830  28.256  1.00  0.00    -0.014 A 
BRANCH  12  13
ATOM     13  C   UNL A   1      46.094  31.421  28.187  1.00  0.00     0.031 A 
ATOM     14  C   UNL A   1      44.644  31.075  28.412  1.00  0.00     0.074 A 
ATOM     15  C   UNL A   1      46.967  30.457  27.826  1.00  0.00     0.049 A 
ATOM     16  N   UNL A   1      44.054  29.909  28.312  1.00  0.00    -0.248 NA
ATOM     17  C   UNL A   1      43.740  32.164  28.811  1.00  0.00     0.031 C 
ATOM     18  C   UNL A   1      48.401  30.662  27.595  1.00  0.00     0.029 A 
ATOM     19  N   UNL A   1      46.778  29.130  27.538  1.00  0.00    -0.354 N 
ATOM     20  C   UNL A   1      42.728  30.115  28.677  1.00  0.00     0.074 A 
ATOM     21  C   UNL A   1      42.600  31.517  29.013  1.00  0.00     0.031 C 
ATOM     22  C   UNL A   1      48.936  29.536  27.104  1.00  0.00     0.029 A 
ATOM     23  C   UNL A   1      47.909  28.503  27.069  1.00  0.00     0.049 A 
ATOM     24  H   UNL A   1      45.916  28.669  27.656  1.00  0.00     0.167 HD
ATOM     25  C   UNL A   1      41.710  29.221  28.724  1.00  0.00     0.037 A 
ATOM     26  C   UNL A   1      48.109  27.236  26.661  1.00  0.00     0.037 A 
ATOM     27  C   UNL A   1      41.832  27.837  28.343  1.00  0.00     0.049 A 
ATOM     28  C   UNL A   1      46.960  26.273  26.701  1.00  0.00     0.074 A 
ATOM     29  C   UNL A   1      40.848  26.862  28.316  1.00  0.00     0.029 A 
ATOM     30  N   UNL A   1      43.004  27.231  27.916  1.00  0.00    -0.354 N 
ATOM     31  N   UNL A   1      45.714  26.493  27.045  1.00  0.00    -0.248 NA
ATOM     32  C   UNL A   1      47.247  24.886  26.314  1.00  0.00     0.031 C 
ATOM     33  C   UNL A   1      41.436  25.659  27.906  1.00  0.00     0.029 A 
ATOM     34  C   UNL A   1      42.775  25.893  27.639  1.00  0.00     0.049 A 
ATOM     35  H   UNL A   1      43.873  27.687  27.823  1.00  0.00     0.167 HD
ATOM     36  C   UNL A   1      45.065  25.273  26.911  1.00  0.00     0.074 A 
ATOM     37  C   UNL A   1      46.052  24.325  26.431  1.00  0.00     0.031 C 
ATOM     38  C   UNL A   1      43.770  24.964  27.167  1.00  0.00     0.037 A 
BRANCH  25  39
ATOM     39  C   UNL A   1      40.378  29.703  29.235  1.00  0.00     0.058 A 
ATOM     40  C   UNL A   1      39.280  29.899  28.385  1.00  0.00     0.135 A 
ATOM     41  C   UNL A   1      40.193  29.943  30.607  1.00  0.00     0.135 A 
ATOM     42  F   UNL A   1      39.404  29.699  27.063  1.00  0.00    -0.206 F 
ATOM     43  C   UNL A   1      38.054  30.346  28.870  1.00  0.00     0.059 A 
ATOM     44  C   UNL A   1      38.969  30.367  31.118  1.00  0.00     0.059 A 
ATOM     45  F   UNL A   1      41.209  29.769  31.466  1.00  0.00    -0.206 F 
ATOM     46  C   UNL A   1      37.910  30.583  30.238  1.00  0.00     0.060 A 
BRANCH  46  47
ATOM     47  S   UNL A   1      36.319  31.176  30.855  1.00  0.00     0.124 S 
ATOM     48  O   UNL A   1      35.557  31.299  29.617  1.00  0.00    -0.237 OA
ATOM     49  O   UNL A   1      35.906  30.097  31.747  1.00  0.00    -0.237 OA
ATOM     50  O   UNL A   1      36.657  32.434  31.513  1.00  0.00    -0.744 OA
ENDBRANCH  46  47
ENDBRANCH  25  39
BRANCH  26  51
ATOM     51  C   UNL A   1      49.452  26.818  26.182  1.00  0.00     0.058 A 
ATOM     52  C   UNL A   1      50.351  26.162  27.035  1.00  0.00     0.135 A 
ATOM     53  C   UNL A   1      49.846  27.027  24.852  1.00  0.00     0.135 A 
ATOM     54  F   UNL A   1      50.020  25.944  28.318  1.00  0.00    -0.206 F 
ATOM     55  C   UNL A   1      51.594  25.730  26.588  1.00  0.00     0.059 A 
ATOM     56  C   UNL A   1      51.071  26.580  24.373  1.00  0.00     0.059 A 
ATOM     57  F   UNL A   1      49.013  27.634  23.991  1.00  0.00    -0.206 F 
ATOM     58  C   UNL A   1      51.943  25.939  25.252  1.00  0.00     0.060 A 
BRANCH  58  59
ATOM     59  S   UNL A   1      53.528  25.311  24.657  1.00  0.00     0.124 S 
ATOM     60  O   UNL A   1      53.452  23.908  25.049  1.00  0.00    -0.237 OA
ATOM     61  O   UNL A   1      53.449  25.579  23.224  1.00  0.00    -0.237 OA
ATOM     62  O   UNL A   1      54.502  26.120  25.384  1.00  0.00    -0.744 OA
ENDBRANCH  58  59
ENDBRANCH  26  51
BRANCH  38  63
ATOM     63  C   UNL A   1      43.348  23.546  26.912  1.00  0.00     0.058 A 
ATOM     64  C   UNL A   1      43.182  23.052  25.610  1.00  0.00     0.135 A 
ATOM     65  C   UNL A   1      43.122  22.668  27.985  1.00  0.00     0.135 A 
ATOM     66  F   UNL A   1      43.378  23.855  24.553  1.00  0.00    -0.206 F 
ATOM     67  C   UNL A   1      42.775  21.743  25.378  1.00  0.00     0.059 A 
ATOM     68  C   UNL A   1      42.737  21.348  27.775  1.00  0.00     0.059 A 
ATOM     69  F   UNL A   1      43.275  23.092  29.249  1.00  0.00    -0.206 F 
ATOM     70  C   UNL A   1      42.551  20.900  26.467  1.00  0.00     0.060 A 
BRANCH  70  71
ATOM     71  S   UNL A   1      42.032  19.199  26.158  1.00  0.00     0.124 S 
ATOM     72  O   UNL A   1      40.605  19.370  25.902  1.00  0.00    -0.237 OA
ATOM     73  O   UNL A   1      42.843  18.827  25.002  1.00  0.00    -0.237 OA
ATOM     74  O   UNL A   1      42.371  18.511  27.400  1.00  0.00    -0.744 OA
ENDBRANCH  70  71
ENDBRANCH  38  63
ENDBRANCH  12  13
ENDBRANCH   5   7
ENDBRANCH   2   3
ENDBRANCH   1   2
BRANCH   1  75
ATOM     75  C   UNL A   1      46.980  39.585  24.752  1.00  0.00     0.118 C 
BRANCH  75  76
ATOM     76  N   UNL A   1      47.151  40.845  25.449  1.00  0.00    -0.352 N 
ATOM     77  C   UNL A   1      46.176  41.665  25.960  1.00  0.00     0.253 C 
ATOM     78  H   UNL A   1      48.079  41.148  25.570  1.00  0.00     0.163 HD
ATOM     79  O   UNL A   1      46.500  42.621  26.661  1.00  0.00    -0.269 OA
BRANCH  77  80
ATOM     80  C   UNL A   1      44.754  41.478  25.585  1.00  0.00     0.065 A 
ATOM     81  C   UNL A   1      44.159  40.388  26.244  1.00  0.00     0.042 A 
ATOM     82  C   UNL A   1      44.013  42.294  24.706  1.00  0.00     0.050 A 
ATOM     83  C   UNL A   1      42.796  40.145  26.168  1.00  0.00     0.042 A 
ATOM     84  C   UNL A   1      42.640  41.999  24.606  1.00  0.00     0.029 A 
ATOM     85  C   UNL A   1      42.039  40.953  25.323  1.00  0.00     0.028 A 
BRANCH  82  86
ATOM     86  N   UNL A   1      44.541  43.286  23.884  1.00  0.00    -0.370 N 
ATOM     87  C   UNL A   1      44.564  44.680  24.354  1.00  0.00     0.116 C 
ATOM     88  C   UNL A   1      45.430  42.895  22.788  1.00  0.00     0.126 C 
ATOM     89  C   UNL A   1      44.580  45.675  23.195  1.00  0.00     0.022 C 
ATOM     90  C   UNL A   1      45.260  43.836  21.591  1.00  0.00     0.064 C 
ATOM     91  C   UNL A   1      45.541  45.262  22.085  1.00  0.00     0.013 C 
BRANCH  90  92
ATOM     92  C   UNL A   1      43.867  43.594  20.950  1.00  0.00     0.267 C 
BRANCH  92  93
ATOM     93  N   UNL A   1      43.453  44.387  19.788  1.00  0.00    -0.335 N 
ATOM     94  C   UNL A   1      42.055  44.220  19.401  1.00  0.00     0.262 C 
ATOM     95  C   UNL A   1      44.270  44.249  18.588  1.00  0.00     0.262 C 
ATOM     96  H   UNL A   1      43.597  45.326  20.159  1.00  0.00     0.348 HD
ATOM     97  C   UNL A   1      42.075  43.291  18.206  1.00  0.00     0.067 C 
ATOM     98  C   UNL A   1      43.400  43.583  17.527  1.00  0.00     0.067 C 
ENDBRANCH  92  93
ENDBRANCH  90  92
ENDBRANCH  82  86
BRANCH  83  99
ATOM     99  N   UNL A   1      42.128  39.129  26.881  1.00  0.00    -0.322 N 
ATOM    100  C   UNL A   1      42.022  38.870  28.233  1.00  0.00     0.257 C 
ATOM    101  H   UNL A   1      41.648  38.487  26.310  1.00  0.00     0.170 HD
ATOM    102  O   UNL A   1      41.529  37.814  28.625  1.00  0.00    -0.269 OA
BRANCH 100 103
ATOM    103  C   UNL A   1      42.488  39.839  29.241  1.00  0.00     0.058 A 
ATOM    104  C   UNL A   1      41.591  40.851  29.618  1.00  0.00     0.015 A 
ATOM    105  C   UNL A   1      43.739  39.737  29.864  1.00  0.00     0.053 A 
ATOM    106  C   UNL A   1      41.913  41.705  30.672  1.00  0.00     0.001 A 
ATOM    107  C   UNL A   1      44.049  40.593  30.925  1.00  0.00     0.021 A 
ATOM    108  Cl  UNL A   1      44.919  38.566  29.398  1.00  0.00    -0.083 Cl
ATOM    109  C   UNL A   1      43.132  41.564  31.337  1.00  0.00     0.002 A 
ENDBRANCH 100 103
ENDBRANCH  83  99
ENDBRANCH  77  80
ENDBRANCH  75  76
ENDBRANCH   1  75
TORSDOF 18
ENDMDL
MODEL 2
REMARK VINA RESULT:     -11.4      5.913     13.504
REMARK SMILES O=C(NCCCNC(=O)c1cc(NC(=O)c2ccccc2Cl)ccc1N1CCC[C@H](C[NH+]2CCCC2)C1)c1ccc(-c2c3nc(c(-c4c(F)cc(S(=O)(=O)[O-])cc4F)c4ccc([nH]4)c(-c4c(F)cc(S(=O)(=O)[O-])cc4F)c4nc(c(-c5c(F)cc(S(=O)(=O)[O-])cc5F)c5ccc2[nH]5)C=C4)C=C3)cc1
REMARK SMILES IDX 5 1 4 2 3 3 1 4 2 5 38 7 39 8 103 9 40 10 102 11 41 12 42 13
REMARK SMILES IDX 43 14 96 15 44 16 101 17 95 18 97 19 45 20 100 21 94 22
REMARK SMILES IDX 93 23 46 25 80 26 59 27 79 28 60 29 63 30 78 31 98 32 61 33
REMARK SMILES IDX 62 34 77 36 99 37 64 38 47 39 48 40 57 41 49 42 50 43 56 44
REMARK SMILES IDX 58 45 51 46 52 47 53 48 54 49 55 50 81 51 82 52 91 53 83 54
REMARK SMILES IDX 84 55 90 56 92 57 85 58 86 59 87 60 88 61 89 62 65 63 66 64
REMARK SMILES IDX 75 65 67 66 68 67 74 68 76 69 69 70 70 71 71 72 72 73 73 74
REMARK SMILES IDX 6 75 7 76 8 77 9 79 10 80 11 81 25 82 12 83 24 84 23 85
REMARK SMILES IDX 26 86 27 87 37 88 28 89 30 90 29 91 31 92 32 93 33 94 36 95
REMARK SMILES IDX 34 97 35 98 13 99 14 100 15 102 16 103 17 104 21 105 18 106
REMARK SMILES IDX 20 107 22 108 19 109
REMARK H PARENT 3 6 97 24 63 35 7 78 32 96 13 101
REMARK Flexibility Score: inf
ROOT
ATOM      1  C   UNL A   1      46.737  24.398  25.770  1.00  0.00     0.042 C 
ENDROOT
BRANCH   1   2
ATOM      2  C   UNL A   1      48.015  25.200  25.575  1.00  0.00     0.118 C 
BRANCH   2   3
ATOM      3  N   UNL A   1      48.010  26.069  24.401  1.00  0.00    -0.352 N 
ATOM      4  O   UNL A   1      47.579  27.835  23.077  1.00  0.00    -0.269 OA
ATOM      5  C   UNL A   1      47.556  27.357  24.205  1.00  0.00     0.251 C 
ATOM      6  H   UNL A   1      48.403  25.658  23.597  1.00  0.00     0.163 HD
BRANCH   5   7
ATOM      7  C   UNL A   1      46.994  28.143  25.330  1.00  0.00     0.039 A 
ATOM      8  C   UNL A   1      47.823  28.793  26.234  1.00  0.00     0.014 A 
ATOM      9  C   UNL A   1      45.606  28.222  25.496  1.00  0.00     0.014 A 
ATOM     10  C   UNL A   1      47.304  29.266  27.430  1.00  0.00     0.010 A 
ATOM     11  C   UNL A   1      45.070  28.845  26.632  1.00  0.00     0.010 A 
ATOM     12  C   UNL A   1      45.918  29.311  27.647  1.00  0.00    -0.014 A 
BRANCH  12  13
ATOM     13  C   UNL A   1      45.414  29.866  28.935  1.00  0.00     0.031 A 
ATOM     14  C   UNL A   1      44.787  31.235  29.009  1.00  0.00     0.074 A 
ATOM     15  C   UNL A   1      45.445  29.081  30.033  1.00  0.00     0.049 A 
ATOM     16  N   UNL A   1      44.234  31.830  30.037  1.00  0.00    -0.248 NA
ATOM     17  C   UNL A   1      44.789  32.050  27.784  1.00  0.00     0.031 C 
ATOM     18  C   UNL A   1      46.040  27.742  30.095  1.00  0.00     0.029 A 
ATOM     19  N   UNL A   1      44.925  29.265  31.288  1.00  0.00    -0.354 N 
ATOM     20  C   UNL A   1      43.864  33.097  29.597  1.00  0.00     0.074 A 
ATOM     21  C   UNL A   1      44.267  33.192  28.210  1.00  0.00     0.031 C 
ATOM     22  C   UNL A   1      45.760  27.188  31.282  1.00  0.00     0.029 A 
ATOM     23  C   UNL A   1      45.048  28.161  32.100  1.00  0.00     0.049 A 
ATOM     24  H   UNL A   1      44.505  30.105  31.581  1.00  0.00     0.167 HD
ATOM     25  C   UNL A   1      43.244  34.088  30.283  1.00  0.00     0.037 A 
ATOM     26  C   UNL A   1      44.641  27.949  33.365  1.00  0.00     0.037 A 
ATOM     27  C   UNL A   1      42.802  33.971  31.650  1.00  0.00     0.049 A 
ATOM     28  C   UNL A   1      43.935  29.053  34.094  1.00  0.00     0.074 A 
ATOM     29  C   UNL A   1      42.127  34.904  32.419  1.00  0.00     0.029 A 
ATOM     30  N   UNL A   1      42.985  32.853  32.450  1.00  0.00    -0.354 N 
ATOM     31  N   UNL A   1      43.593  30.240  33.655  1.00  0.00    -0.248 NA
ATOM     32  C   UNL A   1      43.577  28.797  35.494  1.00  0.00     0.031 C 
ATOM     33  C   UNL A   1      41.933  34.362  33.695  1.00  0.00     0.029 A 
ATOM     34  C   UNL A   1      42.451  33.077  33.708  1.00  0.00     0.049 A 
ATOM     35  H   UNL A   1      43.429  32.021  32.164  1.00  0.00     0.167 HD
ATOM     36  C   UNL A   1      42.972  30.873  34.724  1.00  0.00     0.074 A 
ATOM     37  C   UNL A   1      42.965  29.927  35.823  1.00  0.00     0.031 C 
ATOM     38  C   UNL A   1      42.458  32.125  34.791  1.00  0.00     0.037 A 
BRANCH  25  39
ATOM     39  C   UNL A   1      43.030  35.400  29.577  1.00  0.00     0.058 A 
ATOM     40  C   UNL A   1      44.001  36.413  29.573  1.00  0.00     0.135 A 
ATOM     41  C   UNL A   1      41.840  35.634  28.865  1.00  0.00     0.135 A 
ATOM     42  F   UNL A   1      45.149  36.249  30.249  1.00  0.00    -0.206 F 
ATOM     43  C   UNL A   1      43.790  37.622  28.917  1.00  0.00     0.059 A 
ATOM     44  C   UNL A   1      41.618  36.826  28.182  1.00  0.00     0.059 A 
ATOM     45  F   UNL A   1      40.878  34.699  28.833  1.00  0.00    -0.206 F 
ATOM     46  C   UNL A   1      42.592  37.822  28.229  1.00  0.00     0.060 A 
BRANCH  46  47
ATOM     47  S   UNL A   1      42.323  39.400  27.393  1.00  0.00     0.124 S 
ATOM     48  O   UNL A   1      41.814  40.223  28.485  1.00  0.00    -0.237 OA
ATOM     49  O   UNL A   1      43.661  39.737  26.918  1.00  0.00    -0.237 OA
ATOM     50  O   UNL A   1      41.356  39.072  26.350  1.00  0.00    -0.744 OA
ENDBRANCH  46  47
ENDBRANCH  25  39
BRANCH  26  51
ATOM     51  C   UNL A   1      44.896  26.636  34.012  1.00  0.00     0.058 A 
ATOM     52  C   UNL A   1      43.892  25.661  34.087  1.00  0.00     0.135 A 
ATOM     53  C   UNL A   1      46.161  26.314  34.528  1.00  0.00     0.135 A 
ATOM     54  F   UNL A   1      42.664  25.924  33.611  1.00  0.00    -0.206 F 
ATOM     55  C   UNL A   1      44.130  24.413  34.653  1.00  0.00     0.059 A 
ATOM     56  C   UNL A   1      46.432  25.065  35.073  1.00  0.00     0.059 A 
ATOM     57  F   UNL A   1      47.161  27.207  34.463  1.00  0.00    -0.206 F 
ATOM     58  C   UNL A   1      45.406  24.123  35.139  1.00  0.00     0.060 A 
BRANCH  58  59
ATOM     59  S   UNL A   1      45.732  22.476  35.806  1.00  0.00     0.124 S 
ATOM     60  O   UNL A   1      47.107  22.254  35.375  1.00  0.00    -0.237 OA
ATOM     61  O   UNL A   1      45.535  22.678  37.238  1.00  0.00    -0.237 OA
ATOM     62  O   UNL A   1      44.722  21.647  35.154  1.00  0.00    -0.744 OA
ENDBRANCH  58  59
ENDBRANCH  26  51
BRANCH  38  63
ATOM     63  C   UNL A   1      41.830  32.531  36.093  1.00  0.00     0.058 A 
ATOM     64  C   UNL A   1      42.571  33.176  37.096  1.00  0.00     0.135 A 
ATOM     65  C   UNL A   1      40.469  32.285  36.333  1.00  0.00     0.135 A 
ATOM     66  F   UNL A   1      43.877  33.425  36.915  1.00  0.00    -0.206 F 
ATOM     67  C   UNL A   1      41.991  33.535  38.307  1.00  0.00     0.059 A 
ATOM     68  C   UNL A   1      39.863  32.657  37.529  1.00  0.00     0.059 A 
ATOM     69  F   UNL A   1      39.717  31.677  35.402  1.00  0.00    -0.206 F 
ATOM     70  C   UNL A   1      40.637  33.268  38.515  1.00  0.00     0.060 A 
BRANCH  70  71
ATOM     71  S   UNL A   1      39.889  33.747  40.087  1.00  0.00     0.124 S 
ATOM     72  O   UNL A   1      38.774  34.576  39.640  1.00  0.00    -0.237 OA
ATOM     73  O   UNL A   1      39.527  32.458  40.670  1.00  0.00    -0.237 OA
ATOM     74  O   UNL A   1      40.965  34.456  40.771  1.00  0.00    -0.744 OA
ENDBRANCH  70  71
ENDBRANCH  38  63
ENDBRANCH  12  13
ENDBRANCH   5   7
ENDBRANCH   2   3
ENDBRANCH   1   2
BRANCH   1  75
ATOM     75  C   UNL A   1      45.693  25.104  26.612  1.00  0.00     0.118 C 
BRANCH  75  76
ATOM     76  N   UNL A   1      45.581  24.617  27.973  1.00  0.00    -0.352 N 
ATOM     77  C   UNL A   1      44.444  24.490  28.732  1.00  0.00     0.253 C 
ATOM     78  H   UNL A   1      46.422  24.345  28.404  1.00  0.00     0.163 HD
ATOM     79  O   UNL A   1      44.506  23.912  29.816  1.00  0.00    -0.269 OA
BRANCH  77  80
ATOM     80  C   UNL A   1      43.177  25.139  28.317  1.00  0.00     0.065 A 
ATOM     81  C   UNL A   1      43.117  26.493  28.691  1.00  0.00     0.042 A 
ATOM     82  C   UNL A   1      42.134  24.533  27.591  1.00  0.00     0.050 A 
ATOM     83  C   UNL A   1      42.098  27.325  28.250  1.00  0.00     0.042 A 
ATOM     84  C   UNL A   1      41.086  25.385  27.195  1.00  0.00     0.029 A 
ATOM     85  C   UNL A   1      41.066  26.753  27.510  1.00  0.00     0.028 A 
BRANCH  82  86
ATOM     86  N   UNL A   1      42.021  23.172  27.318  1.00  0.00    -0.370 N 
ATOM     87  C   UNL A   1      43.149  22.460  26.699  1.00  0.00     0.116 C 
ATOM     88  C   UNL A   1      40.993  22.396  28.017  1.00  0.00     0.126 C 
ATOM     89  C   UNL A   1      42.695  21.220  25.932  1.00  0.00     0.022 C 
ATOM     90  C   UNL A   1      40.456  21.278  27.118  1.00  0.00     0.064 C 
ATOM     91  C   UNL A   1      41.652  20.411  26.698  1.00  0.00     0.013 C 
BRANCH  90  92
ATOM     92  C   UNL A   1      39.627  21.906  25.966  1.00  0.00     0.267 C 
BRANCH  92  93
ATOM     93  N   UNL A   1      38.182  22.092  26.126  1.00  0.00    -0.335 N 
ATOM     94  C   UNL A   1      37.360  21.311  25.207  1.00  0.00     0.262 C 
ATOM     95  C   UNL A   1      37.702  23.469  26.099  1.00  0.00     0.262 C 
ATOM     96  H   UNL A   1      38.066  21.739  27.076  1.00  0.00     0.348 HD
ATOM     97  C   UNL A   1      36.920  22.284  24.132  1.00  0.00     0.067 C 
ATOM     98  C   UNL A   1      36.846  23.621  24.846  1.00  0.00     0.067 C 
ENDBRANCH  92  93
ENDBRANCH  90  92
ENDBRANCH  82  86
BRANCH  83  99
ATOM     99  N   UNL A   1      42.034  28.710  28.510  1.00  0.00    -0.322 N 
ATOM    100  C   UNL A   1      41.284  29.445  29.406  1.00  0.00     0.257 C 
ATOM    101  H   UNL A   1      42.635  29.251  27.949  1.00  0.00     0.170 HD
ATOM    102  O   UNL A   1      41.261  30.672  29.334  1.00  0.00    -0.269 OA
BRANCH 100 103
ATOM    103  C   UNL A   1      40.497  28.793  30.468  1.00  0.00     0.058 A 
ATOM    104  C   UNL A   1      41.133  28.591  31.703  1.00  0.00     0.015 A 
ATOM    105  C   UNL A   1      39.150  28.445  30.302  1.00  0.00     0.053 A 
ATOM    106  C   UNL A   1      40.399  28.120  32.791  1.00  0.00     0.001 A 
ATOM    107  C   UNL A   1      38.422  27.980  31.401  1.00  0.00     0.021 A 
ATOM    108  Cl  UNL A   1      38.327  28.594  28.792  1.00  0.00    -0.083 Cl
ATOM    109  C   UNL A   1      39.041  27.833  32.645  1.00  0.00     0.002 A 
ENDBRANCH 100 103
ENDBRANCH  83  99
ENDBRANCH  77  80
ENDBRANCH  75  76
ENDBRANCH   1  75
TORSDOF 18
ENDMDL
MODEL 3
REMARK VINA RESULT:     -11.3      1.664      4.849
REMARK SMILES O=C(NCCCNC(=O)c1cc(NC(=O)c2ccccc2Cl)ccc1N1CCC[C@H](C[NH+]2CCCC2)C1)c1ccc(-c2c3nc(c(-c4c(F)cc(S(=O)(=O)[O-])cc4F)c4ccc([nH]4)c(-c4c(F)cc(S(=O)(=O)[O-])cc4F)c4nc(c(-c5c(F)cc(S(=O)(=O)[O-])cc5F)c5ccc2[nH]5)C=C4)C=C3)cc1
REMARK SMILES IDX 5 1 4 2 3 3 1 4 2 5 38 7 39 8 103 9 40 10 102 11 41 12 42 13
REMARK SMILES IDX 43 14 96 15 44 16 101 17 95 18 97 19 45 20 100 21 94 22
REMARK SMILES IDX 93 23 46 25 80 26 59 27 79 28 60 29 63 30 78 31 98 32 61 33
REMARK SMILES IDX 62 34 77 36 99 37 64 38 47 39 48 40 57 41 49 42 50 43 56 44
REMARK SMILES IDX 58 45 51 46 52 47 53 48 54 49 55 50 81 51 82 52 91 53 83 54
REMARK SMILES IDX 84 55 90 56 92 57 85 58 86 59 87 60 88 61 89 62 65 63 66 64
REMARK SMILES IDX 75 65 67 66 68 67 74 68 76 69 69 70 70 71 71 72 72 73 73 74
REMARK SMILES IDX 6 75 7 76 8 77 9 79 10 80 11 81 25 82 12 83 24 84 23 85
REMARK SMILES IDX 26 86 27 87 37 88 28 89 30 90 29 91 31 92 32 93 33 94 36 95
REMARK SMILES IDX 34 97 35 98 13 99 14 100 15 102 16 103 17 104 21 105 18 106
REMARK SMILES IDX 20 107 22 108 19 109
REMARK H PARENT 3 6 97 24 63 35 7 78 32 96 13 101
REMARK Flexibility Score: inf
ROOT
ATOM      1  C   UNL A   1      47.265  38.734  25.564  1.00  0.00     0.042 C 
ENDROOT
BRANCH   1   2
ATOM      2  C   UNL A   1      46.962  37.951  26.834  1.00  0.00     0.118 C 
BRANCH   2   3
ATOM      3  N   UNL A   1      48.124  37.712  27.687  1.00  0.00    -0.352 N 
ATOM      4  O   UNL A   1      49.522  36.689  29.119  1.00  0.00    -0.269 OA
ATOM      5  C   UNL A   1      48.547  36.599  28.384  1.00  0.00     0.251 C 
ATOM      6  H   UNL A   1      48.716  38.493  27.785  1.00  0.00     0.163 HD
BRANCH   5   7
ATOM      7  C   UNL A   1      47.804  35.319  28.292  1.00  0.00     0.039 A 
ATOM      8  C   UNL A   1      47.414  34.634  29.435  1.00  0.00     0.014 A 
ATOM      9  C   UNL A   1      47.501  34.781  27.036  1.00  0.00     0.014 A 
ATOM     10  C   UNL A   1      46.994  33.315  29.339  1.00  0.00     0.010 A 
ATOM     11  C   UNL A   1      46.924  33.508  26.938  1.00  0.00     0.010 A 
ATOM     12  C   UNL A   1      46.730  32.731  28.090  1.00  0.00    -0.014 A 
BRANCH  12  13
ATOM     13  C   UNL A   1      46.241  31.324  28.049  1.00  0.00     0.031 A 
ATOM     14  C   UNL A   1      44.787  30.991  28.271  1.00  0.00     0.074 A 
ATOM     15  C   UNL A   1      47.111  30.347  27.717  1.00  0.00     0.049 A 
ATOM     16  N   UNL A   1      44.192  29.827  28.194  1.00  0.00    -0.248 NA
ATOM     17  C   UNL A   1      43.886  32.094  28.639  1.00  0.00     0.031 C 
ATOM     18  C   UNL A   1      48.548  30.540  27.492  1.00  0.00     0.029 A 
ATOM     19  N   UNL A   1      46.917  29.015  27.458  1.00  0.00    -0.354 N 
ATOM     20  C   UNL A   1      42.864  30.048  28.544  1.00  0.00     0.074 A 
ATOM     21  C   UNL A   1      42.742  31.457  28.847  1.00  0.00     0.031 C 
ATOM     22  C   UNL A   1      49.080  29.400  27.031  1.00  0.00     0.029 A 
ATOM     23  C   UNL A   1      48.048  28.372  27.012  1.00  0.00     0.049 A 
ATOM     24  H   UNL A   1      46.051  28.562  27.580  1.00  0.00     0.167 HD
ATOM     25  C   UNL A   1      41.841  29.160  28.604  1.00  0.00     0.037 A 
ATOM     26  C   UNL A   1      48.243  27.095  26.634  1.00  0.00     0.037 A 
ATOM     27  C   UNL A   1      41.957  27.767  28.255  1.00  0.00     0.049 A 
ATOM     28  C   UNL A   1      47.089  26.139  26.687  1.00  0.00     0.074 A 
ATOM     29  C   UNL A   1      40.969  26.797  28.243  1.00  0.00     0.029 A 
ATOM     30  N   UNL A   1      43.130  27.146  27.851  1.00  0.00    -0.354 N 
ATOM     31  N   UNL A   1      45.842  26.374  27.017  1.00  0.00    -0.248 NA
ATOM     32  C   UNL A   1      47.371  24.742  26.334  1.00  0.00     0.031 C 
ATOM     33  C   UNL A   1      41.553  25.582  27.864  1.00  0.00     0.029 A 
ATOM     34  C   UNL A   1      42.895  25.804  27.602  1.00  0.00     0.049 A 
ATOM     35  H   UNL A   1      44.001  27.595  27.754  1.00  0.00     0.167 HD
ATOM     36  C   UNL A   1      45.187  25.154  26.906  1.00  0.00     0.074 A 
ATOM     37  C   UNL A   1      46.172  24.190  26.455  1.00  0.00     0.031 C 
ATOM     38  C   UNL A   1      43.889  24.858  27.159  1.00  0.00     0.037 A 
BRANCH  25  39
ATOM     39  C   UNL A   1      40.508  29.661  29.093  1.00  0.00     0.058 A 
ATOM     40  C   UNL A   1      40.278  29.976  30.441  1.00  0.00     0.135 A 
ATOM     41  C   UNL A   1      39.451  29.856  28.187  1.00  0.00     0.135 A 
ATOM     42  F   UNL A   1      41.247  29.795  31.352  1.00  0.00    -0.206 F 
ATOM     43  C   UNL A   1      39.041  30.438  30.880  1.00  0.00     0.059 A 
ATOM     44  C   UNL A   1      38.212  30.339  28.600  1.00  0.00     0.059 A 
ATOM     45  F   UNL A   1      39.616  29.574  26.886  1.00  0.00    -0.206 F 
ATOM     46  C   UNL A   1      38.011  30.610  29.953  1.00  0.00     0.060 A 
BRANCH  46  47
ATOM     47  S   UNL A   1      36.405  31.196  30.536  1.00  0.00     0.124 S 
ATOM     48  O   UNL A   1      35.619  31.157  29.306  1.00  0.00    -0.237 OA
ATOM     49  O   UNL A   1      36.053  30.199  31.542  1.00  0.00    -0.237 OA
ATOM     50  O   UNL A   1      36.696  32.529  31.053  1.00  0.00    -0.744 OA
ENDBRANCH  46  47
ENDBRANCH  25  39
BRANCH  26  51
ATOM     51  C   UNL A   1      49.588  26.659  26.175  1.00  0.00     0.058 A 
ATOM     52  C   UNL A   1      49.940  26.712  24.820  1.00  0.00     0.135 A 
ATOM     53  C   UNL A   1      50.560  26.222  27.088  1.00  0.00     0.135 A 
ATOM     54  F   UNL A   1      49.042  27.119  23.908  1.00  0.00    -0.206 F 
ATOM     55  C   UNL A   1      51.209  26.346  24.383  1.00  0.00     0.059 A 
ATOM     56  C   UNL A   1      51.843  25.877  26.681  1.00  0.00     0.059 A 
ATOM     57  F   UNL A   1      50.277  26.171  28.400  1.00  0.00    -0.206 F 
ATOM     58  C   UNL A   1      52.156  25.934  25.323  1.00  0.00     0.060 A 
BRANCH  58  59
ATOM     59  S   UNL A   1      53.824  25.530  24.761  1.00  0.00     0.124 S 
ATOM     60  O   UNL A   1      54.632  26.020  25.871  1.00  0.00    -0.237 OA
ATOM     61  O   UNL A   1      53.756  24.079  24.611  1.00  0.00    -0.237 OA
ATOM     62  O   UNL A   1      53.944  26.275  23.511  1.00  0.00    -0.744 OA
ENDBRANCH  58  59
ENDBRANCH  26  51
BRANCH  38  63
ATOM     63  C   UNL A   1      43.461  23.437  26.933  1.00  0.00     0.058 A 
ATOM     64  C   UNL A   1      43.284  22.919  25.641  1.00  0.00     0.135 A 
ATOM     65  C   UNL A   1      43.239  22.580  28.023  1.00  0.00     0.135 A 
ATOM     66  F   UNL A   1      43.477  23.703  24.568  1.00  0.00    -0.206 F 
ATOM     67  C   UNL A   1      42.872  21.608  25.436  1.00  0.00     0.059 A 
ATOM     68  C   UNL A   1      42.848  21.258  27.840  1.00  0.00     0.059 A 
ATOM     69  F   UNL A   1      43.402  23.026  29.279  1.00  0.00    -0.206 F 
ATOM     70  C   UNL A   1      42.653  20.786  26.543  1.00  0.00     0.060 A 
BRANCH  70  71
ATOM     71  S   UNL A   1      42.126  19.081  26.268  1.00  0.00     0.124 S 
ATOM     72  O   UNL A   1      43.016  18.670  25.187  1.00  0.00    -0.237 OA
ATOM     73  O   UNL A   1      42.376  18.461  27.566  1.00  0.00    -0.237 OA
ATOM     74  O   UNL A   1      40.718  19.216  25.908  1.00  0.00    -0.744 OA
ENDBRANCH  70  71
ENDBRANCH  38  63
ENDBRANCH  12  13
ENDBRANCH   5   7
ENDBRANCH   2   3
ENDBRANCH   1   2
BRANCH   1  75
ATOM     75  C   UNL A   1      46.244  39.808  25.248  1.00  0.00     0.118 C 
BRANCH  75  76
ATOM     76  N   UNL A   1      46.572  41.125  25.758  1.00  0.00    -0.352 N 
ATOM     77  C   UNL A   1      45.753  42.223  25.847  1.00  0.00     0.253 C 
ATOM     78  H   UNL A   1      47.495  41.246  26.078  1.00  0.00     0.163 HD
ATOM     79  O   UNL A   1      46.146  43.221  26.450  1.00  0.00    -0.269 OA
BRANCH  77  80
ATOM     80  C   UNL A   1      44.455  42.262  25.132  1.00  0.00     0.065 A 
ATOM     81  C   UNL A   1      44.500  43.058  23.974  1.00  0.00     0.042 A 
ATOM     82  C   UNL A   1      43.284  41.569  25.498  1.00  0.00     0.050 A 
ATOM     83  C   UNL A   1      43.448  43.091  23.071  1.00  0.00     0.042 A 
ATOM     84  C   UNL A   1      42.211  41.655  24.591  1.00  0.00     0.029 A 
ATOM     85  C   UNL A   1      42.288  42.393  23.400  1.00  0.00     0.028 A 
BRANCH  82  86
ATOM     86  N   UNL A   1      43.085  40.895  26.700  1.00  0.00    -0.370 N 
ATOM     87  C   UNL A   1      43.716  41.399  27.928  1.00  0.00     0.116 C 
ATOM     88  C   UNL A   1      41.944  39.981  26.815  1.00  0.00     0.126 C 
ATOM     89  C   UNL A   1      43.920  40.295  28.964  1.00  0.00     0.022 C 
ATOM     90  C   UNL A   1      42.287  38.802  27.730  1.00  0.00     0.064 C 
ATOM     91  C   UNL A   1      42.705  39.382  29.089  1.00  0.00     0.013 C 
BRANCH  90  92
ATOM     92  C   UNL A   1      43.328  37.895  27.022  1.00  0.00     0.267 C 
BRANCH  92  93
ATOM     93  N   UNL A   1      43.346  36.455  27.296  1.00  0.00    -0.335 N 
ATOM     94  C   UNL A   1      42.030  35.854  27.493  1.00  0.00     0.262 C 
ATOM     95  C   UNL A   1      44.206  36.017  28.389  1.00  0.00     0.262 C 
ATOM     96  H   UNL A   1      43.751  36.118  26.423  1.00  0.00     0.348 HD
ATOM     97  C   UNL A   1      41.879  35.690  28.991  1.00  0.00     0.067 C 
ATOM     98  C   UNL A   1      43.297  35.475  29.487  1.00  0.00     0.067 C 
ENDBRANCH  92  93
ENDBRANCH  90  92
ENDBRANCH  82  86
BRANCH  83  99
ATOM     99  N   UNL A   1      43.472  43.790  21.847  1.00  0.00    -0.322 N 
ATOM    100  C   UNL A   1      44.512  44.164  21.020  1.00  0.00     0.257 C 
ATOM    101  H   UNL A   1      42.583  44.061  21.522  1.00  0.00     0.170 HD
ATOM    102  O   UNL A   1      44.311  44.932  20.081  1.00  0.00    -0.269 OA
BRANCH 100 103
ATOM    103  C   UNL A   1      45.881  43.661  21.230  1.00  0.00     0.058 A 
ATOM    104  C   UNL A   1      46.175  42.381  20.736  1.00  0.00     0.015 A 
ATOM    105  C   UNL A   1      46.884  44.433  21.831  1.00  0.00     0.053 A 
ATOM    106  C   UNL A   1      47.487  41.910  20.767  1.00  0.00     0.001 A 
ATOM    107  C   UNL A   1      48.198  43.956  21.850  1.00  0.00     0.021 A 
ATOM    108  Cl  UNL A   1      46.577  45.982  22.528  1.00  0.00    -0.083 Cl
ATOM    109  C   UNL A   1      48.500  42.704  21.307  1.00  0.00     0.002 A 
ENDBRANCH 100 103
ENDBRANCH  83  99
ENDBRANCH  77  80
ENDBRANCH  75  76
ENDBRANCH   1  75
TORSDOF 18
ENDMDL
