MODEL 1
REMARK VINA RESULT:     -10.2      0.000      0.000
REMARK SMILES C#CC[N@@H+](CC(=O)NCCCNC(=O)c1ccc(-c2c3nc(c(-c4c(F)cc(S(=O)(=O)[O-])cc4F)c4ccc([nH]4)c(-c4c(F)cc(S(=O)(=O)[O-])cc4F)c4nc(c(-c5c(F)cc(S(=O)(=O)[O-])cc5F)c5ccc2[nH]5)C=C4)C=C3)cc1)CC(=O)NC(=O)NC
REMARK SMILES IDX 10 1 9 2 8 3 6 4 7 5 5 7 4 8 3 10 2 11 1 12 81 13 82 14
REMARK SMILES IDX 83 15 84 16 85 17 86 19 87 20 88 21 11 23 12 24 13 25 14 27
REMARK SMILES IDX 15 28 16 29 80 30 17 31 79 32 18 33 19 34 20 35 73 36 21 37
REMARK SMILES IDX 78 38 72 39 74 40 22 41 77 42 71 43 70 44 23 46 57 47 36 48
REMARK SMILES IDX 56 49 37 50 40 51 55 52 75 53 38 54 39 55 54 57 76 58 41 59
REMARK SMILES IDX 24 60 25 61 34 62 26 63 27 64 33 65 35 66 28 67 29 68 30 69
REMARK SMILES IDX 31 70 32 71 58 72 59 73 68 74 60 75 61 76 67 77 69 78 62 79
REMARK SMILES IDX 63 80 64 81 65 82 66 83 42 84 43 85 52 86 44 87 45 88 51 89
REMARK SMILES IDX 53 90 46 91 47 92 48 93 49 94 50 95
REMARK H PARENT 8 6 4 9 84 18 87 22 12 26 74 45 40 56
REMARK Flexibility Score: inf
ROOT
ATOM      1  C   UNL A   1      33.940  27.945  25.859  1.00  0.00     0.042 C 
ENDROOT
BRANCH   1   2
ATOM      2  C   UNL A   1      32.967  27.121  24.998  1.00  0.00     0.118 C 
BRANCH   2   3
ATOM      3  N   UNL A   1      33.593  26.217  24.039  1.00  0.00    -0.351 N 
ATOM      4  C   UNL A   1      34.301  25.058  24.136  1.00  0.00     0.275 C 
ATOM      5  O   UNL A   1      34.448  24.432  23.081  1.00  0.00    -0.269 OA
ATOM      6  H   UNL A   1      33.477  26.514  23.107  1.00  0.00     0.163 HD
BRANCH   4   7
ATOM      7  C   UNL A   1      34.872  24.483  25.452  1.00  0.00     0.364 C 
BRANCH   7   8
ATOM      8  N   UNL A   1      35.573  23.166  25.380  1.00  0.00    -0.309 N 
ATOM      9  H   UNL A   1      35.506  22.765  26.314  1.00  0.00     0.349 HD
BRANCH   8  10
ATOM     10  C   UNL A   1      36.935  23.419  24.988  1.00  0.00     0.354 C 
BRANCH  10  11
ATOM     11  C   UNL A   1      38.118  22.925  25.806  1.00  0.00    -0.047 C 
ATOM     12  C   UNL A   1      39.132  22.501  26.507  1.00  0.00     0.010 C 
ENDBRANCH  10  11
ENDBRANCH   8  10
BRANCH   8  13
ATOM     13  C   UNL A   1      34.949  22.086  24.591  1.00  0.00     0.365 C 
BRANCH  13  14
ATOM     14  C   UNL A   1      35.104  20.657  25.066  1.00  0.00     0.283 C 
ATOM     15  O   UNL A   1      36.157  20.039  24.870  1.00  0.00    -0.268 OA
ATOM     16  N   UNL A   1      34.092  20.048  25.789  1.00  0.00    -0.273 N 
ATOM     17  C   UNL A   1      32.783  19.829  25.485  1.00  0.00     0.321 C 
ATOM     18  H   UNL A   1      34.365  19.718  26.675  1.00  0.00     0.175 HD
ATOM     19  O   UNL A   1      32.354  18.674  25.446  1.00  0.00    -0.248 OA
ATOM     20  N   UNL A   1      31.905  20.823  25.263  1.00  0.00    -0.341 N 
ATOM     21  C   UNL A   1      31.909  22.207  25.663  1.00  0.00     0.144 C 
ATOM     22  H   UNL A   1      31.120  20.558  24.733  1.00  0.00     0.165 HD
ENDBRANCH  13  14
ENDBRANCH   8  13
ENDBRANCH   7   8
ENDBRANCH   4   7
ENDBRANCH   2   3
ENDBRANCH   1   2
BRANCH   1  23
ATOM     23  C   UNL A   1      33.435  28.334  27.247  1.00  0.00     0.118 C 
BRANCH  23  24
ATOM     24  N   UNL A   1      33.442  29.777  27.410  1.00  0.00    -0.352 N 
ATOM     25  C   UNL A   1      34.378  30.557  28.047  1.00  0.00     0.251 C 
ATOM     26  H   UNL A   1      32.681  30.258  27.013  1.00  0.00     0.163 HD
ATOM     27  O   UNL A   1      34.062  31.679  28.432  1.00  0.00    -0.269 OA
BRANCH  25  28
ATOM     28  C   UNL A   1      35.760  30.060  28.264  1.00  0.00     0.039 A 
ATOM     29  C   UNL A   1      36.120  29.583  29.528  1.00  0.00     0.014 A 
ATOM     30  C   UNL A   1      36.727  30.159  27.258  1.00  0.00     0.014 A 
ATOM     31  C   UNL A   1      37.443  29.199  29.781  1.00  0.00     0.010 A 
ATOM     32  C   UNL A   1      38.032  29.721  27.495  1.00  0.00     0.010 A 
ATOM     33  C   UNL A   1      38.411  29.266  28.768  1.00  0.00    -0.014 A 
BRANCH  33  34
ATOM     34  C   UNL A   1      39.837  28.940  29.039  1.00  0.00     0.031 A 
ATOM     35  C   UNL A   1      40.735  29.974  29.671  1.00  0.00     0.074 A 
ATOM     36  C   UNL A   1      40.340  27.740  28.687  1.00  0.00     0.049 A 
ATOM     37  N   UNL A   1      42.017  29.914  29.927  1.00  0.00    -0.248 NA
ATOM     38  C   UNL A   1      40.112  31.256  30.036  1.00  0.00     0.031 C 
ATOM     39  C   UNL A   1      39.588  26.667  28.034  1.00  0.00     0.029 A 
ATOM     40  N   UNL A   1      41.606  27.226  28.819  1.00  0.00    -0.354 N 
ATOM     41  C   UNL A   1      42.358  31.154  30.457  1.00  0.00     0.074 A 
ATOM     42  C   UNL A   1      41.157  31.961  30.445  1.00  0.00     0.031 C 
ATOM     43  C   UNL A   1      40.402  25.618  27.836  1.00  0.00     0.029 A 
ATOM     44  C   UNL A   1      41.740  25.952  28.322  1.00  0.00     0.049 A 
ATOM     45  H   UNL A   1      42.348  27.724  29.231  1.00  0.00     0.167 HD
ATOM     46  C   UNL A   1      43.556  31.577  30.928  1.00  0.00     0.037 A 
ATOM     47  C   UNL A   1      42.817  25.144  28.262  1.00  0.00     0.037 A 
ATOM     48  C   UNL A   1      44.738  30.759  30.980  1.00  0.00     0.049 A 
ATOM     49  C   UNL A   1      44.128  25.621  28.823  1.00  0.00     0.074 A 
ATOM     50  C   UNL A   1      45.982  31.073  31.499  1.00  0.00     0.029 A 
ATOM     51  N   UNL A   1      44.821  29.459  30.502  1.00  0.00    -0.354 N 
ATOM     52  N   UNL A   1      44.419  26.779  29.367  1.00  0.00    -0.248 NA
ATOM     53  C   UNL A   1      45.257  24.680  28.773  1.00  0.00     0.031 C 
ATOM     54  C   UNL A   1      46.825  29.972  31.310  1.00  0.00     0.029 A 
ATOM     55  C   UNL A   1      46.096  28.960  30.704  1.00  0.00     0.049 A 
ATOM     56  H   UNL A   1      44.082  28.965  30.080  1.00  0.00     0.167 HD
ATOM     57  C   UNL A   1      45.756  26.699  29.741  1.00  0.00     0.074 A 
ATOM     58  C   UNL A   1      46.214  25.375  29.373  1.00  0.00     0.031 C 
ATOM     59  C   UNL A   1      46.534  27.636  30.337  1.00  0.00     0.037 A 
BRANCH  46  60
ATOM     60  C   UNL A   1      43.641  32.993  31.433  1.00  0.00     0.058 A 
ATOM     61  C   UNL A   1      43.960  34.061  30.579  1.00  0.00     0.135 A 
ATOM     62  C   UNL A   1      43.390  33.287  32.782  1.00  0.00     0.135 A 
ATOM     63  F   UNL A   1      44.223  33.834  29.282  1.00  0.00    -0.206 F 
ATOM     64  C   UNL A   1      44.063  35.365  31.051  1.00  0.00     0.059 A 
ATOM     65  C   UNL A   1      43.462  34.588  33.273  1.00  0.00     0.059 A 
ATOM     66  F   UNL A   1      43.078  32.304  33.643  1.00  0.00    -0.206 F 
ATOM     67  C   UNL A   1      43.818  35.618  32.402  1.00  0.00     0.060 A 
BRANCH  67  68
ATOM     68  S   UNL A   1      43.967  37.313  33.006  1.00  0.00     0.124 S 
ATOM     69  O   UNL A   1      43.897  38.072  31.760  1.00  0.00    -0.237 OA
ATOM     70  O   UNL A   1      42.812  37.438  33.888  1.00  0.00    -0.237 OA
ATOM     71  O   UNL A   1      45.266  37.322  33.674  1.00  0.00    -0.744 OA
ENDBRANCH  67  68
ENDBRANCH  46  60
BRANCH  47  72
ATOM     72  C   UNL A   1      42.689  23.786  27.672  1.00  0.00     0.058 A 
ATOM     73  C   UNL A   1      42.856  23.582  26.295  1.00  0.00     0.135 A 
ATOM     74  C   UNL A   1      42.429  22.664  28.473  1.00  0.00     0.135 A 
ATOM     75  F   UNL A   1      43.098  24.626  25.488  1.00  0.00    -0.206 F 
ATOM     76  C   UNL A   1      42.763  22.314  25.729  1.00  0.00     0.059 A 
ATOM     77  C   UNL A   1      42.351  21.384  27.935  1.00  0.00     0.059 A 
ATOM     78  F   UNL A   1      42.277  22.806  29.799  1.00  0.00    -0.206 F 
ATOM     79  C   UNL A   1      42.514  21.220  26.559  1.00  0.00     0.060 A 
BRANCH  79  80
ATOM     80  S   UNL A   1      42.466  19.569  25.827  1.00  0.00     0.124 S 
ATOM     81  O   UNL A   1      41.063  19.459  25.443  1.00  0.00    -0.237 OA
ATOM     82  O   UNL A   1      43.420  19.689  24.731  1.00  0.00    -0.237 OA
ATOM     83  O   UNL A   1      42.891  18.706  26.926  1.00  0.00    -0.744 OA
ENDBRANCH  79  80
ENDBRANCH  47  72
BRANCH  59  84
ATOM     84  C   UNL A   1      47.952  27.258  30.653  1.00  0.00     0.058 A 
ATOM     85  C   UNL A   1      48.280  26.544  31.815  1.00  0.00     0.135 A 
ATOM     86  C   UNL A   1      48.986  27.565  29.754  1.00  0.00     0.135 A 
ATOM     87  F   UNL A   1      47.328  26.231  32.707  1.00  0.00    -0.206 F 
ATOM     88  C   UNL A   1      49.590  26.164  32.086  1.00  0.00     0.059 A 
ATOM     89  C   UNL A   1      50.300  27.176  29.996  1.00  0.00     0.059 A 
ATOM     90  F   UNL A   1      48.722  28.238  28.623  1.00  0.00    -0.206 F 
ATOM     91  C   UNL A   1      50.594  26.484  31.170  1.00  0.00     0.060 A 
BRANCH  91  92
ATOM     92  S   UNL A   1      52.285  25.955  31.514  1.00  0.00     0.124 S 
ATOM     93  O   UNL A   1      52.701  26.933  32.514  1.00  0.00    -0.237 OA
ATOM     94  O   UNL A   1      52.098  24.592  32.000  1.00  0.00    -0.237 OA
ATOM     95  O   UNL A   1      52.945  26.064  30.215  1.00  0.00    -0.744 OA
ENDBRANCH  91  92
ENDBRANCH  59  84
ENDBRANCH  33  34
ENDBRANCH  25  28
ENDBRANCH  23  24
ENDBRANCH   1  23
TORSDOF 18
ENDMDL
MODEL 2
REMARK VINA RESULT:     -10.1      2.986      9.586
REMARK SMILES C#CC[N@@H+](CC(=O)NCCCNC(=O)c1ccc(-c2c3nc(c(-c4c(F)cc(S(=O)(=O)[O-])cc4F)c4ccc([nH]4)c(-c4c(F)cc(S(=O)(=O)[O-])cc4F)c4nc(c(-c5c(F)cc(S(=O)(=O)[O-])cc5F)c5ccc2[nH]5)C=C4)C=C3)cc1)CC(=O)NC(=O)NC
REMARK SMILES IDX 10 1 9 2 8 3 6 4 7 5 5 7 4 8 3 10 2 11 1 12 81 13 82 14
REMARK SMILES IDX 83 15 84 16 85 17 86 19 87 20 88 21 11 23 12 24 13 25 14 27
REMARK SMILES IDX 15 28 16 29 80 30 17 31 79 32 18 33 19 34 20 35 73 36 21 37
REMARK SMILES IDX 78 38 72 39 74 40 22 41 77 42 71 43 70 44 23 46 57 47 36 48
REMARK SMILES IDX 56 49 37 50 40 51 55 52 75 53 38 54 39 55 54 57 76 58 41 59
REMARK SMILES IDX 24 60 25 61 34 62 26 63 27 64 33 65 35 66 28 67 29 68 30 69
REMARK SMILES IDX 31 70 32 71 58 72 59 73 68 74 60 75 61 76 67 77 69 78 62 79
REMARK SMILES IDX 63 80 64 81 65 82 66 83 42 84 43 85 52 86 44 87 45 88 51 89
REMARK SMILES IDX 53 90 46 91 47 92 48 93 49 94 50 95
REMARK H PARENT 8 6 4 9 84 18 87 22 12 26 74 45 40 56
REMARK Flexibility Score: inf
ROOT
ATOM      1  C   UNL A   1      35.638  23.483  25.617  1.00  0.00     0.042 C 
ENDROOT
BRANCH   1   2
ATOM      2  C   UNL A   1      34.536  24.491  25.245  1.00  0.00     0.118 C 
BRANCH   2   3
ATOM      3  N   UNL A   1      33.385  24.517  26.139  1.00  0.00    -0.351 N 
ATOM      4  C   UNL A   1      32.323  25.353  26.309  1.00  0.00     0.275 C 
ATOM      5  O   UNL A   1      31.399  24.909  27.000  1.00  0.00    -0.269 OA
ATOM      6  H   UNL A   1      33.373  23.757  26.766  1.00  0.00     0.163 HD
BRANCH   4   7
ATOM      7  C   UNL A   1      32.195  26.755  25.673  1.00  0.00     0.364 C 
BRANCH   7   8
ATOM      8  N   UNL A   1      33.423  27.605  25.631  1.00  0.00    -0.309 N 
ATOM      9  H   UNL A   1      34.156  27.014  25.241  1.00  0.00     0.349 HD
BRANCH   8  10
ATOM     10  C   UNL A   1      33.712  28.020  26.979  1.00  0.00     0.354 C 
BRANCH  10  11
ATOM     11  C   UNL A   1      34.132  29.441  27.316  1.00  0.00    -0.047 C 
ATOM     12  C   UNL A   1      34.493  30.661  27.605  1.00  0.00     0.010 C 
ENDBRANCH  10  11
ENDBRANCH   8  10
BRANCH   8  13
ATOM     13  C   UNL A   1      33.461  28.728  24.674  1.00  0.00     0.365 C 
BRANCH  13  14
ATOM     14  C   UNL A   1      32.163  29.422  24.316  1.00  0.00     0.283 C 
ATOM     15  O   UNL A   1      31.620  30.191  25.116  1.00  0.00    -0.268 OA
ATOM     16  N   UNL A   1      31.606  29.256  23.059  1.00  0.00    -0.273 N 
ATOM     17  C   UNL A   1      31.215  28.134  22.396  1.00  0.00     0.321 C 
ATOM     18  H   UNL A   1      31.471  30.093  22.560  1.00  0.00     0.175 HD
ATOM     19  O   UNL A   1      30.038  28.011  22.051  1.00  0.00    -0.248 OA
ATOM     20  N   UNL A   1      32.066  27.152  22.050  1.00  0.00    -0.341 N 
ATOM     21  C   UNL A   1      33.494  27.149  21.861  1.00  0.00     0.144 C 
ATOM     22  H   UNL A   1      31.637  26.279  21.899  1.00  0.00     0.165 HD
ENDBRANCH  13  14
ENDBRANCH   8  13
ENDBRANCH   7   8
ENDBRANCH   4   7
ENDBRANCH   2   3
ENDBRANCH   1   2
BRANCH   1  23
ATOM     23  C   UNL A   1      36.982  23.678  24.918  1.00  0.00     0.118 C 
BRANCH  23  24
ATOM     24  N   UNL A   1      37.943  22.688  25.369  1.00  0.00    -0.352 N 
ATOM     25  C   UNL A   1      39.141  22.895  26.011  1.00  0.00     0.251 C 
ATOM     26  H   UNL A   1      37.707  21.749  25.194  1.00  0.00     0.163 HD
ATOM     27  O   UNL A   1      39.999  22.017  25.980  1.00  0.00    -0.269 OA
BRANCH  25  28
ATOM     28  C   UNL A   1      39.402  24.160  26.744  1.00  0.00     0.039 A 
ATOM     29  C   UNL A   1      40.215  25.132  26.154  1.00  0.00     0.014 A 
ATOM     30  C   UNL A   1      38.934  24.345  28.049  1.00  0.00     0.014 A 
ATOM     31  C   UNL A   1      40.551  26.290  26.866  1.00  0.00     0.010 A 
ATOM     32  C   UNL A   1      39.222  25.527  28.735  1.00  0.00     0.010 A 
ATOM     33  C   UNL A   1      40.059  26.497  28.164  1.00  0.00    -0.014 A 
BRANCH  33  34
ATOM     34  C   UNL A   1      40.470  27.681  28.965  1.00  0.00     0.031 A 
ATOM     35  C   UNL A   1      41.807  27.686  29.663  1.00  0.00     0.074 A 
ATOM     36  C   UNL A   1      39.638  28.732  29.103  1.00  0.00     0.049 A 
ATOM     37  N   UNL A   1      42.322  28.585  30.462  1.00  0.00    -0.248 NA
ATOM     38  C   UNL A   1      42.664  26.508  29.458  1.00  0.00     0.031 C 
ATOM     39  C   UNL A   1      38.303  28.836  28.512  1.00  0.00     0.029 A 
ATOM     40  N   UNL A   1      39.788  29.908  29.794  1.00  0.00    -0.354 N 
ATOM     41  C   UNL A   1      43.548  28.072  30.874  1.00  0.00     0.074 A 
ATOM     42  C   UNL A   1      43.679  26.763  30.270  1.00  0.00     0.031 C 
ATOM     43  C   UNL A   1      37.762  30.017  28.854  1.00  0.00     0.029 A 
ATOM     44  C   UNL A   1      38.699  30.743  29.709  1.00  0.00     0.049 A 
ATOM     45  H   UNL A   1      40.600  30.133  30.304  1.00  0.00     0.167 HD
ATOM     46  C   UNL A   1      44.487  28.644  31.664  1.00  0.00     0.037 A 
ATOM     47  C   UNL A   1      38.478  31.953  30.258  1.00  0.00     0.037 A 
ATOM     48  C   UNL A   1      44.375  29.964  32.227  1.00  0.00     0.049 A 
ATOM     49  C   UNL A   1      39.550  32.585  31.104  1.00  0.00     0.074 A 
ATOM     50  C   UNL A   1      45.300  30.659  32.987  1.00  0.00     0.029 A 
ATOM     51  N   UNL A   1      43.271  30.792  32.084  1.00  0.00    -0.354 N 
ATOM     52  N   UNL A   1      40.723  32.106  31.441  1.00  0.00    -0.248 NA
ATOM     53  C   UNL A   1      39.272  33.927  31.638  1.00  0.00     0.031 C 
ATOM     54  C   UNL A   1      44.743  31.898  33.326  1.00  0.00     0.029 A 
ATOM     55  C   UNL A   1      43.486  31.987  32.748  1.00  0.00     0.049 A 
ATOM     56  H   UNL A   1      42.455  30.563  31.584  1.00  0.00     0.167 HD
ATOM     57  C   UNL A   1      41.332  33.093  32.208  1.00  0.00     0.074 A 
ATOM     58  C   UNL A   1      40.402  34.202  32.276  1.00  0.00     0.031 C 
ATOM     59  C   UNL A   1      42.552  33.084  32.800  1.00  0.00     0.037 A 
BRANCH  46  60
ATOM     60  C   UNL A   1      45.726  27.842  31.961  1.00  0.00     0.058 A 
ATOM     61  C   UNL A   1      45.750  26.875  32.980  1.00  0.00     0.135 A 
ATOM     62  C   UNL A   1      46.897  28.032  31.212  1.00  0.00     0.135 A 
ATOM     63  F   UNL A   1      44.662  26.663  33.736  1.00  0.00    -0.206 F 
ATOM     64  C   UNL A   1      46.903  26.152  33.269  1.00  0.00     0.059 A 
ATOM     65  C   UNL A   1      48.055  27.301  31.467  1.00  0.00     0.059 A 
ATOM     66  F   UNL A   1      46.929  28.941  30.224  1.00  0.00    -0.206 F 
ATOM     67  C   UNL A   1      48.053  26.377  32.511  1.00  0.00     0.060 A 
BRANCH  67  68
ATOM     68  S   UNL A   1      49.546  25.441  32.905  1.00  0.00     0.124 S 
ATOM     69  O   UNL A   1      49.055  24.535  33.940  1.00  0.00    -0.237 OA
ATOM     70  O   UNL A   1      49.877  24.820  31.627  1.00  0.00    -0.237 OA
ATOM     71  O   UNL A   1      50.479  26.468  33.360  1.00  0.00    -0.744 OA
ENDBRANCH  67  68
ENDBRANCH  46  60
BRANCH  47  72
ATOM     72  C   UNL A   1      37.197  32.660  29.997  1.00  0.00     0.058 A 
ATOM     73  C   UNL A   1      36.043  32.351  30.732  1.00  0.00     0.135 A 
ATOM     74  C   UNL A   1      37.107  33.676  29.034  1.00  0.00     0.135 A 
ATOM     75  F   UNL A   1      36.079  31.381  31.659  1.00  0.00    -0.206 F 
ATOM     76  C   UNL A   1      34.842  33.018  30.518  1.00  0.00     0.059 A 
ATOM     77  C   UNL A   1      35.922  34.372  28.814  1.00  0.00     0.059 A 
ATOM     78  F   UNL A   1      38.188  34.019  28.316  1.00  0.00    -0.206 F 
ATOM     79  C   UNL A   1      34.793  34.031  29.558  1.00  0.00     0.060 A 
BRANCH  79  80
ATOM     80  S   UNL A   1      33.248  34.941  29.335  1.00  0.00     0.124 S 
ATOM     81  O   UNL A   1      32.719  34.960  30.694  1.00  0.00    -0.237 OA
ATOM     82  O   UNL A   1      33.715  36.221  28.814  1.00  0.00    -0.237 OA
ATOM     83  O   UNL A   1      32.511  34.117  28.380  1.00  0.00    -0.744 OA
ENDBRANCH  79  80
ENDBRANCH  47  72
BRANCH  59  84
ATOM     84  C   UNL A   1      42.964  34.316  33.554  1.00  0.00     0.058 A 
ATOM     85  C   UNL A   1      42.793  34.419  34.942  1.00  0.00     0.135 A 
ATOM     86  C   UNL A   1      43.586  35.382  32.885  1.00  0.00     0.135 A 
ATOM     87  F   UNL A   1      42.200  33.428  35.625  1.00  0.00    -0.206 F 
ATOM     88  C   UNL A   1      43.209  35.547  35.641  1.00  0.00     0.059 A 
ATOM     89  C   UNL A   1      44.027  36.512  33.568  1.00  0.00     0.059 A 
ATOM     90  F   UNL A   1      43.780  35.328  31.558  1.00  0.00    -0.206 F 
ATOM     91  C   UNL A   1      43.825  36.589  34.945  1.00  0.00     0.060 A 
BRANCH  91  92
ATOM     92  S   UNL A   1      44.393  38.034  35.867  1.00  0.00     0.124 S 
ATOM     93  O   UNL A   1      43.621  37.918  37.099  1.00  0.00    -0.237 OA
ATOM     94  O   UNL A   1      45.826  37.785  35.992  1.00  0.00    -0.237 OA
ATOM     95  O   UNL A   1      44.032  39.152  35.000  1.00  0.00    -0.744 OA
ENDBRANCH  91  92
ENDBRANCH  59  84
ENDBRANCH  33  34
ENDBRANCH  25  28
ENDBRANCH  23  24
ENDBRANCH   1  23
TORSDOF 18
ENDMDL
MODEL 3
REMARK VINA RESULT:     -10.1      4.819     10.635
REMARK SMILES C#CC[N@@H+](CC(=O)NCCCNC(=O)c1ccc(-c2c3nc(c(-c4c(F)cc(S(=O)(=O)[O-])cc4F)c4ccc([nH]4)c(-c4c(F)cc(S(=O)(=O)[O-])cc4F)c4nc(c(-c5c(F)cc(S(=O)(=O)[O-])cc5F)c5ccc2[nH]5)C=C4)C=C3)cc1)CC(=O)NC(=O)NC
REMARK SMILES IDX 10 1 9 2 8 3 6 4 7 5 5 7 4 8 3 10 2 11 1 12 81 13 82 14
REMARK SMILES IDX 83 15 84 16 85 17 86 19 87 20 88 21 11 23 12 24 13 25 14 27
REMARK SMILES IDX 15 28 16 29 80 30 17 31 79 32 18 33 19 34 20 35 73 36 21 37
REMARK SMILES IDX 78 38 72 39 74 40 22 41 77 42 71 43 70 44 23 46 57 47 36 48
REMARK SMILES IDX 56 49 37 50 40 51 55 52 75 53 38 54 39 55 54 57 76 58 41 59
REMARK SMILES IDX 24 60 25 61 34 62 26 63 27 64 33 65 35 66 28 67 29 68 30 69
REMARK SMILES IDX 31 70 32 71 58 72 59 73 68 74 60 75 61 76 67 77 69 78 62 79
REMARK SMILES IDX 63 80 64 81 65 82 66 83 42 84 43 85 52 86 44 87 45 88 51 89
REMARK SMILES IDX 53 90 46 91 47 92 48 93 49 94 50 95
REMARK H PARENT 8 6 4 9 84 18 87 22 12 26 74 45 40 56
REMARK Flexibility Score: inf
ROOT
ATOM      1  C   UNL A   1      37.945  22.682  25.915  1.00  0.00     0.042 C 
ENDROOT
BRANCH   1   2
ATOM      2  C   UNL A   1      36.450  22.853  25.594  1.00  0.00     0.118 C 
BRANCH   2   3
ATOM      3  N   UNL A   1      35.541  22.637  26.714  1.00  0.00    -0.351 N 
ATOM      4  C   UNL A   1      34.188  22.552  26.847  1.00  0.00     0.275 C 
ATOM      5  O   UNL A   1      33.785  22.097  27.923  1.00  0.00    -0.269 OA
ATOM      6  H   UNL A   1      36.015  22.529  27.571  1.00  0.00     0.163 HD
BRANCH   4   7
ATOM      7  C   UNL A   1      33.170  22.938  25.751  1.00  0.00     0.364 C 
BRANCH   7   8
ATOM      8  N   UNL A   1      33.181  24.351  25.269  1.00  0.00    -0.309 N 
ATOM      9  H   UNL A   1      33.841  24.844  25.870  1.00  0.00     0.349 HD
BRANCH   8  10
ATOM     10  C   UNL A   1      31.841  24.864  25.391  1.00  0.00     0.354 C 
BRANCH  10  11
ATOM     11  C   UNL A   1      31.543  26.207  26.039  1.00  0.00    -0.047 C 
ATOM     12  C   UNL A   1      31.288  27.358  26.594  1.00  0.00     0.010 C 
ENDBRANCH  10  11
ENDBRANCH   8  10
BRANCH   8  13
ATOM     13  C   UNL A   1      33.775  24.633  23.948  1.00  0.00     0.365 C 
BRANCH  13  14
ATOM     14  C   UNL A   1      33.238  23.895  22.738  1.00  0.00     0.283 C 
ATOM     15  O   UNL A   1      33.387  22.673  22.630  1.00  0.00    -0.268 OA
ATOM     16  N   UNL A   1      32.513  24.572  21.773  1.00  0.00    -0.273 N 
ATOM     17  C   UNL A   1      32.835  25.647  21.003  1.00  0.00     0.321 C 
ATOM     18  H   UNL A   1      31.608  24.216  21.618  1.00  0.00     0.175 HD
ATOM     19  O   UNL A   1      32.835  25.536  19.775  1.00  0.00    -0.248 OA
ATOM     20  N   UNL A   1      33.114  26.859  21.514  1.00  0.00    -0.341 N 
ATOM     21  C   UNL A   1      32.771  27.466  22.775  1.00  0.00     0.144 C 
ATOM     22  H   UNL A   1      33.649  27.434  20.921  1.00  0.00     0.165 HD
ENDBRANCH  13  14
ENDBRANCH   8  13
ENDBRANCH   7   8
ENDBRANCH   4   7
ENDBRANCH   2   3
ENDBRANCH   1   2
BRANCH   1  23
ATOM     23  C   UNL A   1      38.687  23.951  26.330  1.00  0.00     0.118 C 
BRANCH  23  24
ATOM     24  N   UNL A   1      40.121  23.776  26.191  1.00  0.00    -0.352 N 
ATOM     25  C   UNL A   1      41.123  24.653  26.532  1.00  0.00     0.251 C 
ATOM     26  H   UNL A   1      40.414  22.920  25.805  1.00  0.00     0.163 HD
ATOM     27  O   UNL A   1      42.229  24.534  26.013  1.00  0.00    -0.269 OA
BRANCH  25  28
ATOM     28  C   UNL A   1      40.883  25.732  27.523  1.00  0.00     0.039 A 
ATOM     29  C   UNL A   1      41.745  26.833  27.553  1.00  0.00     0.014 A 
ATOM     30  C   UNL A   1      39.877  25.614  28.488  1.00  0.00     0.014 A 
ATOM     31  C   UNL A   1      41.595  27.814  28.540  1.00  0.00     0.010 A 
ATOM     32  C   UNL A   1      39.691  26.623  29.436  1.00  0.00     0.010 A 
ATOM     33  C   UNL A   1      40.568  27.717  29.492  1.00  0.00    -0.014 A 
BRANCH  33  34
ATOM     34  C   UNL A   1      40.442  28.707  30.595  1.00  0.00     0.031 A 
ATOM     35  C   UNL A   1      41.327  28.589  31.811  1.00  0.00     0.074 A 
ATOM     36  C   UNL A   1      39.515  29.683  30.533  1.00  0.00     0.049 A 
ATOM     37  N   UNL A   1      41.329  29.304  32.908  1.00  0.00    -0.248 NA
ATOM     38  C   UNL A   1      42.321  27.503  31.804  1.00  0.00     0.031 C 
ATOM     39  C   UNL A   1      38.573  29.883  29.431  1.00  0.00     0.029 A 
ATOM     40  N   UNL A   1      39.207  30.683  31.421  1.00  0.00    -0.354 N 
ATOM     41  C   UNL A   1      42.302  28.740  33.727  1.00  0.00     0.074 A 
ATOM     42  C   UNL A   1      42.839  27.598  33.019  1.00  0.00     0.031 C 
ATOM     43  C   UNL A   1      37.802  30.949  29.702  1.00  0.00     0.029 A 
ATOM     44  C   UNL A   1      38.175  31.491  31.006  1.00  0.00     0.049 A 
ATOM     45  H   UNL A   1      39.680  30.809  32.274  1.00  0.00     0.167 HD
ATOM     46  C   UNL A   1      42.724  29.147  34.949  1.00  0.00     0.037 A 
ATOM     47  C   UNL A   1      37.594  32.547  31.609  1.00  0.00     0.037 A 
ATOM     48  C   UNL A   1      42.221  30.309  35.632  1.00  0.00     0.049 A 
ATOM     49  C   UNL A   1      38.103  33.003  32.949  1.00  0.00     0.074 A 
ATOM     50  C   UNL A   1      42.629  30.842  36.843  1.00  0.00     0.029 A 
ATOM     51  N   UNL A   1      41.202  31.123  35.160  1.00  0.00    -0.354 N 
ATOM     52  N   UNL A   1      39.058  32.488  33.687  1.00  0.00    -0.248 NA
ATOM     53  C   UNL A   1      37.462  34.189  33.537  1.00  0.00     0.031 C 
ATOM     54  C   UNL A   1      41.838  31.964  37.114  1.00  0.00     0.029 A 
ATOM     55  C   UNL A   1      40.961  32.149  36.057  1.00  0.00     0.049 A 
ATOM     56  H   UNL A   1      40.722  30.991  34.311  1.00  0.00     0.167 HD
ATOM     57  C   UNL A   1      39.147  33.298  34.814  1.00  0.00     0.074 A 
ATOM     58  C   UNL A   1      38.157  34.344  34.657  1.00  0.00     0.031 C 
ATOM     59  C   UNL A   1      39.975  33.186  35.882  1.00  0.00     0.037 A 
BRANCH  46  60
ATOM     60  C   UNL A   1      43.793  28.327  35.621  1.00  0.00     0.058 A 
ATOM     61  C   UNL A   1      43.474  27.294  36.517  1.00  0.00     0.135 A 
ATOM     62  C   UNL A   1      45.150  28.568  35.358  1.00  0.00     0.135 A 
ATOM     63  F   UNL A   1      42.192  27.030  36.815  1.00  0.00    -0.206 F 
ATOM     64  C   UNL A   1      44.463  26.554  37.156  1.00  0.00     0.059 A 
ATOM     65  C   UNL A   1      46.157  27.823  35.966  1.00  0.00     0.059 A 
ATOM     66  F   UNL A   1      45.513  29.542  34.507  1.00  0.00    -0.206 F 
ATOM     67  C   UNL A   1      45.803  26.830  36.879  1.00  0.00     0.060 A 
BRANCH  67  68
ATOM     68  S   UNL A   1      47.077  25.870  37.725  1.00  0.00     0.124 S 
ATOM     69  O   UNL A   1      46.316  25.284  38.825  1.00  0.00    -0.237 OA
ATOM     70  O   UNL A   1      47.511  24.939  36.690  1.00  0.00    -0.237 OA
ATOM     71  O   UNL A   1      48.061  26.879  38.109  1.00  0.00    -0.744 OA
ENDBRANCH  67  68
ENDBRANCH  46  60
BRANCH  47  72
ATOM     72  C   UNL A   1      36.483  33.265  30.931  1.00  0.00     0.058 A 
ATOM     73  C   UNL A   1      35.170  33.178  31.416  1.00  0.00     0.135 A 
ATOM     74  C   UNL A   1      36.714  34.073  29.808  1.00  0.00     0.135 A 
ATOM     75  F   UNL A   1      34.899  32.411  32.483  1.00  0.00    -0.206 F 
ATOM     76  C   UNL A   1      34.122  33.862  30.808  1.00  0.00     0.059 A 
ATOM     77  C   UNL A   1      35.687  34.783  29.194  1.00  0.00     0.059 A 
ATOM     78  F   UNL A   1      37.956  34.201  29.316  1.00  0.00    -0.206 F 
ATOM     79  C   UNL A   1      34.392  34.665  29.699  1.00  0.00     0.060 A 
BRANCH  79  80
ATOM     80  S   UNL A   1      33.038  35.606  28.959  1.00  0.00     0.124 S 
ATOM     81  O   UNL A   1      33.764  36.626  28.211  1.00  0.00    -0.237 OA
ATOM     82  O   UNL A   1      32.358  34.592  28.160  1.00  0.00    -0.237 OA
ATOM     83  O   UNL A   1      32.291  36.083  30.119  1.00  0.00    -0.744 OA
ENDBRANCH  79  80
ENDBRANCH  47  72
BRANCH  59  84
ATOM     84  C   UNL A   1      39.866  34.234  36.953  1.00  0.00     0.058 A 
ATOM     85  C   UNL A   1      40.484  35.486  36.820  1.00  0.00     0.135 A 
ATOM     86  C   UNL A   1      39.088  34.001  38.098  1.00  0.00     0.135 A 
ATOM     87  F   UNL A   1      41.242  35.755  35.746  1.00  0.00    -0.206 F 
ATOM     88  C   UNL A   1      40.351  36.467  37.798  1.00  0.00     0.059 A 
ATOM     89  C   UNL A   1      38.924  34.975  39.078  1.00  0.00     0.059 A 
ATOM     90  F   UNL A   1      38.468  32.821  38.266  1.00  0.00    -0.206 F 
ATOM     91  C   UNL A   1      39.569  36.201  38.924  1.00  0.00     0.060 A 
BRANCH  91  92
ATOM     92  S   UNL A   1      39.372  37.493  40.169  1.00  0.00     0.124 S 
ATOM     93  O   UNL A   1      40.747  37.955  40.331  1.00  0.00    -0.237 OA
ATOM     94  O   UNL A   1      38.463  38.428  39.515  1.00  0.00    -0.237 OA
ATOM     95  O   UNL A   1      38.810  36.779  41.312  1.00  0.00    -0.744 OA
ENDBRANCH  91  92
ENDBRANCH  59  84
ENDBRANCH  33  34
ENDBRANCH  25  28
ENDBRANCH  23  24
ENDBRANCH   1  23
TORSDOF 18
ENDMDL
