MODEL 1
REMARK VINA RESULT:     -12.6      0.000      0.000
REMARK SMILES O=C(NCCCNC(=O)[C@@H]1[C@@H](C(=O)NCCCn2ccnc2)[C@@H]2C=C[C@H]1C2)c1ccc(-c2c3nc(c(-c4c(F)cc(S(=O)(=O)[O-])cc4F)c4ccc([nH]4)c(-c4c(F)cc(S(=O)(=O)[O-])cc4F)c4nc(c(-c5c(F)cc(S(=O)(=O)[O-])cc5F)c5ccc2[nH]5)C=C4)C=C3)cc1
REMARK SMILES IDX 6 1 5 2 4 3 3 4 1 5 2 6 28 8 29 9 93 10 30 11 92 12 31 13
REMARK SMILES IDX 32 14 33 15 86 16 34 17 91 18 85 19 87 20 35 21 90 22 84 23
REMARK SMILES IDX 83 24 36 26 70 27 49 28 69 29 50 30 53 31 68 32 88 33 51 34
REMARK SMILES IDX 52 35 67 37 89 38 54 39 37 40 38 41 47 42 39 43 40 44 46 45
REMARK SMILES IDX 48 46 41 47 42 48 43 49 44 50 45 51 71 52 72 53 81 54 73 55
REMARK SMILES IDX 74 56 80 57 82 58 75 59 76 60 77 61 78 62 79 63 55 64 56 65
REMARK SMILES IDX 65 66 57 67 58 68 64 69 66 70 59 71 60 72 61 73 62 74 63 75
REMARK SMILES IDX 7 76 8 77 9 79 10 80 11 81 26 82 23 83 25 84 27 85 24 86
REMARK SMILES IDX 12 87 13 88 14 89 15 91 16 92 17 93 18 94 19 95 22 96 20 97
REMARK SMILES IDX 21 98
REMARK H PARENT 3 7 87 25 53 36 7 78 14 90
REMARK Flexibility Score: inf
ROOT
ATOM      1  C   UNL A   1      32.193  27.587  27.159  1.00  0.00     0.117 C 
ENDROOT
BRANCH   1   2
ATOM      2  C   UNL A   1      31.882  29.033  26.786  1.00  0.00     0.042 C 
BRANCH   2   3
ATOM      3  C   UNL A   1      33.100  29.884  26.431  1.00  0.00     0.118 C 
BRANCH   3   4
ATOM      4  N   UNL A   1      33.170  31.176  27.084  1.00  0.00    -0.352 N 
ATOM      5  O   UNL A   1      33.880  33.049  28.014  1.00  0.00    -0.269 OA
ATOM      6  C   UNL A   1      34.161  31.889  27.702  1.00  0.00     0.251 C 
ATOM      7  H   UNL A   1      32.307  31.651  27.081  1.00  0.00     0.163 HD
BRANCH   6   8
ATOM      8  C   UNL A   1      35.501  31.351  28.068  1.00  0.00     0.039 A 
ATOM      9  C   UNL A   1      35.901  30.020  27.938  1.00  0.00     0.014 A 
ATOM     10  C   UNL A   1      36.424  32.282  28.579  1.00  0.00     0.014 A 
ATOM     11  C   UNL A   1      37.157  29.612  28.377  1.00  0.00     0.010 A 
ATOM     12  C   UNL A   1      37.693  31.886  28.993  1.00  0.00     0.010 A 
ATOM     13  C   UNL A   1      38.051  30.543  28.910  1.00  0.00    -0.014 A 
BRANCH  13  14
ATOM     14  C   UNL A   1      39.422  30.101  29.173  1.00  0.00     0.031 A 
ATOM     15  C   UNL A   1      39.820  30.114  30.612  1.00  0.00     0.074 A 
ATOM     16  C   UNL A   1      40.224  29.534  28.250  1.00  0.00     0.049 A 
ATOM     17  N   UNL A   1      40.812  30.729  31.173  1.00  0.00    -0.248 NA
ATOM     18  C   UNL A   1      38.937  29.416  31.562  1.00  0.00     0.031 C 
ATOM     19  C   UNL A   1      39.864  29.157  26.882  1.00  0.00     0.029 A 
ATOM     20  N   UNL A   1      41.499  29.056  28.383  1.00  0.00    -0.354 N 
ATOM     21  C   UNL A   1      40.809  30.311  32.504  1.00  0.00     0.074 A 
ATOM     22  C   UNL A   1      39.554  29.644  32.720  1.00  0.00     0.031 C 
ATOM     23  C   UNL A   1      40.806  28.321  26.393  1.00  0.00     0.029 A 
ATOM     24  C   UNL A   1      41.881  28.190  27.364  1.00  0.00     0.049 A 
ATOM     25  H   UNL A   1      42.090  29.302  29.130  1.00  0.00     0.167 HD
ATOM     26  C   UNL A   1      41.939  30.324  33.265  1.00  0.00     0.037 A 
ATOM     27  C   UNL A   1      42.955  27.360  27.352  1.00  0.00     0.037 A 
ATOM     28  C   UNL A   1      42.931  31.223  32.736  1.00  0.00     0.049 A 
ATOM     29  C   UNL A   1      43.926  27.852  28.360  1.00  0.00     0.074 A 
ATOM     30  C   UNL A   1      42.960  32.567  32.409  1.00  0.00     0.029 A 
ATOM     31  N   UNL A   1      44.059  30.684  32.172  1.00  0.00    -0.354 N 
ATOM     32  N   UNL A   1      44.610  28.958  28.253  1.00  0.00    -0.248 NA
ATOM     33  C   UNL A   1      43.892  27.272  29.695  1.00  0.00     0.031 C 
ATOM     34  C   UNL A   1      43.832  32.660  31.285  1.00  0.00     0.029 A 
ATOM     35  C   UNL A   1      44.307  31.377  31.017  1.00  0.00     0.049 A 
ATOM     36  H   UNL A   1      44.591  29.937  32.531  1.00  0.00     0.167 HD
ATOM     37  C   UNL A   1      44.728  29.428  29.550  1.00  0.00     0.074 A 
ATOM     38  C   UNL A   1      44.387  28.293  30.398  1.00  0.00     0.031 C 
ATOM     39  C   UNL A   1      44.815  30.767  29.809  1.00  0.00     0.037 A 
BRANCH  26  40
ATOM     40  C   UNL A   1      42.289  29.233  34.260  1.00  0.00     0.058 A 
ATOM     41  C   UNL A   1      42.271  27.886  33.842  1.00  0.00     0.135 A 
ATOM     42  C   UNL A   1      42.326  29.431  35.660  1.00  0.00     0.135 A 
ATOM     43  F   UNL A   1      42.236  27.575  32.536  1.00  0.00    -0.206 F 
ATOM     44  C   UNL A   1      42.188  26.822  34.743  1.00  0.00     0.059 A 
ATOM     45  C   UNL A   1      42.305  28.385  36.575  1.00  0.00     0.059 A 
ATOM     46  F   UNL A   1      42.282  30.648  36.216  1.00  0.00    -0.206 F 
ATOM     47  C   UNL A   1      42.179  27.088  36.110  1.00  0.00     0.060 A 
BRANCH  47  48
ATOM     48  S   UNL A   1      41.921  25.741  37.276  1.00  0.00     0.124 S 
ATOM     49  O   UNL A   1      42.960  26.017  38.261  1.00  0.00    -0.237 OA
ATOM     50  O   UNL A   1      40.547  25.971  37.710  1.00  0.00    -0.237 OA
ATOM     51  O   UNL A   1      42.123  24.549  36.457  1.00  0.00    -0.744 OA
ENDBRANCH  47  48
ENDBRANCH  26  40
BRANCH  27  52
ATOM     52  C   UNL A   1      43.087  26.020  26.718  1.00  0.00     0.058 A 
ATOM     53  C   UNL A   1      43.855  25.838  25.552  1.00  0.00     0.135 A 
ATOM     54  C   UNL A   1      42.687  24.844  27.383  1.00  0.00     0.135 A 
ATOM     55  F   UNL A   1      44.301  26.899  24.864  1.00  0.00    -0.206 F 
ATOM     56  C   UNL A   1      44.245  24.571  25.105  1.00  0.00     0.059 A 
ATOM     57  C   UNL A   1      43.045  23.571  26.945  1.00  0.00     0.059 A 
ATOM     58  F   UNL A   1      42.012  24.893  28.541  1.00  0.00    -0.206 F 
ATOM     59  C   UNL A   1      43.849  23.442  25.820  1.00  0.00     0.060 A 
BRANCH  59  60
ATOM     60  S   UNL A   1      44.493  21.818  25.354  1.00  0.00     0.124 S 
ATOM     61  O   UNL A   1      43.510  20.921  25.950  1.00  0.00    -0.237 OA
ATOM     62  O   UNL A   1      44.491  21.892  23.897  1.00  0.00    -0.237 OA
ATOM     63  O   UNL A   1      45.817  21.790  25.971  1.00  0.00    -0.744 OA
ENDBRANCH  59  60
ENDBRANCH  27  52
BRANCH  39  64
ATOM     64  C   UNL A   1      45.213  31.689  28.690  1.00  0.00     0.058 A 
ATOM     65  C   UNL A   1      44.355  32.128  27.669  1.00  0.00     0.135 A 
ATOM     66  C   UNL A   1      46.502  32.246  28.730  1.00  0.00     0.135 A 
ATOM     67  F   UNL A   1      43.073  31.735  27.624  1.00  0.00    -0.206 F 
ATOM     68  C   UNL A   1      44.778  33.035  26.697  1.00  0.00     0.059 A 
ATOM     69  C   UNL A   1      46.933  33.179  27.792  1.00  0.00     0.059 A 
ATOM     70  F   UNL A   1      47.349  31.916  29.719  1.00  0.00    -0.206 F 
ATOM     71  C   UNL A   1      46.070  33.555  26.767  1.00  0.00     0.060 A 
BRANCH  71  72
ATOM     72  S   UNL A   1      46.594  34.786  25.553  1.00  0.00     0.124 S 
ATOM     73  O   UNL A   1      47.989  34.411  25.321  1.00  0.00    -0.237 OA
ATOM     74  O   UNL A   1      45.681  34.539  24.436  1.00  0.00    -0.237 OA
ATOM     75  O   UNL A   1      46.394  36.052  26.240  1.00  0.00    -0.744 OA
ENDBRANCH  71  72
ENDBRANCH  39  64
ENDBRANCH  13  14
ENDBRANCH   6   8
ENDBRANCH   3   4
ENDBRANCH   2   3
ENDBRANCH   1   2
BRANCH   1  76
ATOM     76  N   UNL A   1      33.110  26.954  26.229  1.00  0.00    -0.356 N 
ATOM     77  C   UNL A   1      33.254  25.640  25.894  1.00  0.00     0.224 C 
ATOM     78  H   UNL A   1      33.723  27.570  25.766  1.00  0.00     0.163 HD
ATOM     79  O   UNL A   1      34.165  25.347  25.117  1.00  0.00    -0.275 OA
BRANCH  77  80
ATOM     80  C   UNL A   1      32.323  24.605  26.503  1.00  0.00     0.098 C 
ATOM     81  C   UNL A   1      32.667  23.133  26.058  1.00  0.00     0.098 C 
ATOM     82  C   UNL A   1      30.850  24.748  26.032  1.00  0.00     0.025 C 
ATOM     83  C   UNL A   1      31.307  22.630  25.503  1.00  0.00     0.025 C 
ATOM     84  C   UNL A   1      30.779  24.636  24.524  1.00  0.00    -0.027 C 
ATOM     85  C   UNL A   1      30.304  23.366  26.393  1.00  0.00     0.017 C 
ATOM     86  C   UNL A   1      31.053  23.364  24.206  1.00  0.00    -0.027 C 
BRANCH  81  87
ATOM     87  C   UNL A   1      33.147  22.255  27.200  1.00  0.00     0.224 C 
ATOM     88  O   UNL A   1      32.729  22.358  28.352  1.00  0.00    -0.275 OA
ATOM     89  N   UNL A   1      34.101  21.309  26.954  1.00  0.00    -0.356 N 
ATOM     90  H   UNL A   1      34.386  20.782  27.735  1.00  0.00     0.163 HD
BRANCH  89  91
ATOM     91  C   UNL A   1      34.757  20.970  25.702  1.00  0.00     0.117 C 
BRANCH  91  92
ATOM     92  C   UNL A   1      33.844  20.198  24.752  1.00  0.00     0.043 C 
BRANCH  92  93
ATOM     93  C   UNL A   1      32.936  19.173  25.433  1.00  0.00     0.125 C 
BRANCH  93  94
ATOM     94  N   UNL A   1      33.214  17.807  25.040  1.00  0.00    -0.337 N 
ATOM     95  C   UNL A   1      32.874  16.680  25.732  1.00  0.00     0.107 A 
ATOM     96  C   UNL A   1      33.855  17.417  23.899  1.00  0.00     0.199 A 
ATOM     97  C   UNL A   1      33.308  15.639  24.945  1.00  0.00     0.130 A 
ATOM     98  N   UNL A   1      33.919  16.109  23.810  1.00  0.00    -0.245 NA
ENDBRANCH  93  94
ENDBRANCH  92  93
ENDBRANCH  91  92
ENDBRANCH  89  91
ENDBRANCH  81  87
ENDBRANCH  77  80
ENDBRANCH   1  76
TORSDOF 18
ENDMDL
MODEL 2
REMARK VINA RESULT:     -12.4      0.863      1.554
REMARK SMILES O=C(NCCCNC(=O)[C@@H]1[C@@H](C(=O)NCCCn2ccnc2)[C@@H]2C=C[C@H]1C2)c1ccc(-c2c3nc(c(-c4c(F)cc(S(=O)(=O)[O-])cc4F)c4ccc([nH]4)c(-c4c(F)cc(S(=O)(=O)[O-])cc4F)c4nc(c(-c5c(F)cc(S(=O)(=O)[O-])cc5F)c5ccc2[nH]5)C=C4)C=C3)cc1
REMARK SMILES IDX 6 1 5 2 4 3 3 4 1 5 2 6 28 8 29 9 93 10 30 11 92 12 31 13
REMARK SMILES IDX 32 14 33 15 86 16 34 17 91 18 85 19 87 20 35 21 90 22 84 23
REMARK SMILES IDX 83 24 36 26 70 27 49 28 69 29 50 30 53 31 68 32 88 33 51 34
REMARK SMILES IDX 52 35 67 37 89 38 54 39 37 40 38 41 47 42 39 43 40 44 46 45
REMARK SMILES IDX 48 46 41 47 42 48 43 49 44 50 45 51 71 52 72 53 81 54 73 55
REMARK SMILES IDX 74 56 80 57 82 58 75 59 76 60 77 61 78 62 79 63 55 64 56 65
REMARK SMILES IDX 65 66 57 67 58 68 64 69 66 70 59 71 60 72 61 73 62 74 63 75
REMARK SMILES IDX 7 76 8 77 9 79 10 80 11 81 26 82 23 83 25 84 27 85 24 86
REMARK SMILES IDX 12 87 13 88 14 89 15 91 16 92 17 93 18 94 19 95 22 96 20 97
REMARK SMILES IDX 21 98
REMARK H PARENT 3 7 87 25 53 36 7 78 14 90
REMARK Flexibility Score: inf
ROOT
ATOM      1  C   UNL A   1      32.180  28.340  27.624  1.00  0.00     0.117 C 
ENDROOT
BRANCH   1   2
ATOM      2  C   UNL A   1      31.806  29.638  26.916  1.00  0.00     0.042 C 
BRANCH   2   3
ATOM      3  C   UNL A   1      32.985  30.542  26.562  1.00  0.00     0.118 C 
BRANCH   3   4
ATOM      4  N   UNL A   1      33.075  31.777  27.315  1.00  0.00    -0.352 N 
ATOM      5  O   UNL A   1      33.811  33.553  28.401  1.00  0.00    -0.269 OA
ATOM      6  C   UNL A   1      34.071  32.415  28.002  1.00  0.00     0.251 C 
ATOM      7  H   UNL A   1      32.223  32.271  27.338  1.00  0.00     0.163 HD
BRANCH   6   8
ATOM      8  C   UNL A   1      35.392  31.818  28.343  1.00  0.00     0.039 A 
ATOM      9  C   UNL A   1      35.705  30.459  28.284  1.00  0.00     0.014 A 
ATOM     10  C   UNL A   1      36.393  32.719  28.750  1.00  0.00     0.014 A 
ATOM     11  C   UNL A   1      36.955  30.001  28.694  1.00  0.00     0.010 A 
ATOM     12  C   UNL A   1      37.654  32.272  29.133  1.00  0.00     0.010 A 
ATOM     13  C   UNL A   1      37.928  30.906  29.124  1.00  0.00    -0.014 A 
BRANCH  13  14
ATOM     14  C   UNL A   1      39.280  30.396  29.354  1.00  0.00     0.031 A 
ATOM     15  C   UNL A   1      39.674  30.290  30.790  1.00  0.00     0.074 A 
ATOM     16  C   UNL A   1      40.064  29.869  28.393  1.00  0.00     0.049 A 
ATOM     17  N   UNL A   1      40.686  30.825  31.396  1.00  0.00    -0.248 NA
ATOM     18  C   UNL A   1      38.763  29.557  31.686  1.00  0.00     0.031 C 
ATOM     19  C   UNL A   1      39.695  29.606  27.001  1.00  0.00     0.029 A 
ATOM     20  N   UNL A   1      41.320  29.336  28.491  1.00  0.00    -0.354 N 
ATOM     21  C   UNL A   1      40.664  30.311  32.692  1.00  0.00     0.074 A 
ATOM     22  C   UNL A   1      39.384  29.677  32.858  1.00  0.00     0.031 C 
ATOM     23  C   UNL A   1      40.608  28.775  26.453  1.00  0.00     0.029 A 
ATOM     24  C   UNL A   1      41.674  28.533  27.412  1.00  0.00     0.049 A 
ATOM     25  H   UNL A   1      41.918  29.506  29.254  1.00  0.00     0.167 HD
ATOM     26  C   UNL A   1      41.791  30.228  33.454  1.00  0.00     0.037 A 
ATOM     27  C   UNL A   1      42.717  27.669  27.340  1.00  0.00     0.037 A 
ATOM     28  C   UNL A   1      42.816  31.127  32.992  1.00  0.00     0.049 A 
ATOM     29  C   UNL A   1      43.702  28.050  28.382  1.00  0.00     0.074 A 
ATOM     30  C   UNL A   1      42.895  32.488  32.764  1.00  0.00     0.029 A 
ATOM     31  N   UNL A   1      43.926  30.589  32.390  1.00  0.00    -0.354 N 
ATOM     32  N   UNL A   1      44.426  29.134  28.356  1.00  0.00    -0.248 NA
ATOM     33  C   UNL A   1      43.642  27.376  29.671  1.00  0.00     0.031 C 
ATOM     34  C   UNL A   1      43.774  32.632  31.650  1.00  0.00     0.029 A 
ATOM     35  C   UNL A   1      44.203  31.355  31.289  1.00  0.00     0.049 A 
ATOM     36  H   UNL A   1      44.429  29.799  32.694  1.00  0.00     0.167 HD
ATOM     37  C   UNL A   1      44.557  29.504  29.684  1.00  0.00     0.074 A 
ATOM     38  C   UNL A   1      44.172  28.323  30.447  1.00  0.00     0.031 C 
ATOM     39  C   UNL A   1      44.691  30.816  30.041  1.00  0.00     0.037 A 
BRANCH  26  40
ATOM     40  C   UNL A   1      42.097  29.055  34.366  1.00  0.00     0.058 A 
ATOM     41  C   UNL A   1      42.086  27.747  33.838  1.00  0.00     0.135 A 
ATOM     42  C   UNL A   1      42.085  29.137  35.778  1.00  0.00     0.135 A 
ATOM     43  F   UNL A   1      42.096  27.546  32.510  1.00  0.00    -0.206 F 
ATOM     44  C   UNL A   1      41.964  26.614  34.644  1.00  0.00     0.059 A 
ATOM     45  C   UNL A   1      42.024  28.019  36.602  1.00  0.00     0.059 A 
ATOM     46  F   UNL A   1      42.029  30.304  36.431  1.00  0.00    -0.206 F 
ATOM     47  C   UNL A   1      41.907  26.765  36.026  1.00  0.00     0.060 A 
BRANCH  47  48
ATOM     48  S   UNL A   1      41.598  25.329  37.067  1.00  0.00     0.124 S 
ATOM     49  O   UNL A   1      41.440  24.282  36.064  1.00  0.00    -0.237 OA
ATOM     50  O   UNL A   1      42.813  25.268  37.873  1.00  0.00    -0.237 OA
ATOM     51  O   UNL A   1      40.387  25.700  37.794  1.00  0.00    -0.744 OA
ENDBRANCH  47  48
ENDBRANCH  26  40
BRANCH  27  52
ATOM     52  C   UNL A   1      42.802  26.374  26.610  1.00  0.00     0.058 A 
ATOM     53  C   UNL A   1      43.706  26.196  25.546  1.00  0.00     0.135 A 
ATOM     54  C   UNL A   1      42.194  25.203  27.105  1.00  0.00     0.135 A 
ATOM     55  F   UNL A   1      44.351  27.249  25.023  1.00  0.00    -0.206 F 
ATOM     56  C   UNL A   1      44.027  24.931  25.041  1.00  0.00     0.059 A 
ATOM     57  C   UNL A   1      42.481  23.935  26.605  1.00  0.00     0.059 A 
ATOM     58  F   UNL A   1      41.369  25.240  28.162  1.00  0.00    -0.206 F 
ATOM     59  C   UNL A   1      43.420  23.802  25.591  1.00  0.00     0.060 A 
BRANCH  59  60
ATOM     60  S   UNL A   1      43.957  22.156  25.069  1.00  0.00     0.124 S 
ATOM     61  O   UNL A   1      44.094  22.326  23.627  1.00  0.00    -0.237 OA
ATOM     62  O   UNL A   1      45.199  21.987  25.815  1.00  0.00    -0.237 OA
ATOM     63  O   UNL A   1      42.857  21.292  25.494  1.00  0.00    -0.744 OA
ENDBRANCH  59  60
ENDBRANCH  27  52
BRANCH  39  64
ATOM     64  C   UNL A   1      45.127  31.802  28.992  1.00  0.00     0.058 A 
ATOM     65  C   UNL A   1      46.462  32.055  28.635  1.00  0.00     0.135 A 
ATOM     66  C   UNL A   1      44.128  32.434  28.233  1.00  0.00     0.135 A 
ATOM     67  F   UNL A   1      47.474  31.406  29.231  1.00  0.00    -0.206 F 
ATOM     68  C   UNL A   1      46.789  32.941  27.607  1.00  0.00     0.059 A 
ATOM     69  C   UNL A   1      44.431  33.293  27.181  1.00  0.00     0.059 A 
ATOM     70  F   UNL A   1      42.832  32.184  28.483  1.00  0.00    -0.206 F 
ATOM     71  C   UNL A   1      45.766  33.556  26.886  1.00  0.00     0.060 A 
BRANCH  71  72
ATOM     72  S   UNL A   1      46.187  34.644  25.508  1.00  0.00     0.124 S 
ATOM     73  O   UNL A   1      45.285  34.171  24.459  1.00  0.00    -0.237 OA
ATOM     74  O   UNL A   1      45.886  35.971  26.048  1.00  0.00    -0.237 OA
ATOM     75  O   UNL A   1      47.599  34.381  25.281  1.00  0.00    -0.744 OA
ENDBRANCH  71  72
ENDBRANCH  39  64
ENDBRANCH  13  14
ENDBRANCH   6   8
ENDBRANCH   3   4
ENDBRANCH   2   3
ENDBRANCH   1   2
BRANCH   1  76
ATOM     76  N   UNL A   1      33.167  27.567  26.891  1.00  0.00    -0.356 N 
ATOM     77  C   UNL A   1      33.016  26.453  26.120  1.00  0.00     0.224 C 
ATOM     78  H   UNL A   1      34.091  27.901  26.961  1.00  0.00     0.163 HD
ATOM     79  O   UNL A   1      34.035  25.940  25.655  1.00  0.00    -0.275 OA
BRANCH  77  80
ATOM     80  C   UNL A   1      31.626  25.881  25.894  1.00  0.00     0.098 C 
ATOM     81  C   UNL A   1      31.649  24.366  25.463  1.00  0.00     0.098 C 
ATOM     82  C   UNL A   1      30.874  26.543  24.706  1.00  0.00     0.025 C 
ATOM     83  C   UNL A   1      30.813  24.382  24.154  1.00  0.00     0.025 C 
ATOM     84  C   UNL A   1      31.678  26.381  23.434  1.00  0.00    -0.027 C 
ATOM     85  C   UNL A   1      29.797  25.491  24.436  1.00  0.00     0.017 C 
ATOM     86  C   UNL A   1      31.641  25.084  23.103  1.00  0.00    -0.027 C 
BRANCH  81  87
ATOM     87  C   UNL A   1      31.030  23.437  26.493  1.00  0.00     0.224 C 
ATOM     88  O   UNL A   1      30.020  23.720  27.135  1.00  0.00    -0.275 OA
ATOM     89  N   UNL A   1      31.622  22.231  26.738  1.00  0.00    -0.356 N 
ATOM     90  H   UNL A   1      31.186  21.679  27.428  1.00  0.00     0.163 HD
BRANCH  89  91
ATOM     91  C   UNL A   1      32.802  21.646  26.127  1.00  0.00     0.117 C 
BRANCH  91  92
ATOM     92  C   UNL A   1      32.459  20.584  25.085  1.00  0.00     0.043 C 
BRANCH  92  93
ATOM     93  C   UNL A   1      32.831  19.156  25.483  1.00  0.00     0.125 C 
BRANCH  93  94
ATOM     94  N   UNL A   1      33.138  18.303  24.354  1.00  0.00    -0.337 N 
ATOM     95  C   UNL A   1      34.137  17.375  24.287  1.00  0.00     0.107 A 
ATOM     96  C   UNL A   1      32.467  18.279  23.165  1.00  0.00     0.199 A 
ATOM     97  C   UNL A   1      34.001  16.799  23.045  1.00  0.00     0.130 A 
ATOM     98  N   UNL A   1      32.961  17.370  22.356  1.00  0.00    -0.245 NA
ENDBRANCH  93  94
ENDBRANCH  92  93
ENDBRANCH  91  92
ENDBRANCH  89  91
ENDBRANCH  81  87
ENDBRANCH  77  80
ENDBRANCH   1  76
TORSDOF 18
ENDMDL
MODEL 3
REMARK VINA RESULT:     -12.3      2.733      8.794
REMARK SMILES O=C(NCCCNC(=O)[C@@H]1[C@@H](C(=O)NCCCn2ccnc2)[C@@H]2C=C[C@H]1C2)c1ccc(-c2c3nc(c(-c4c(F)cc(S(=O)(=O)[O-])cc4F)c4ccc([nH]4)c(-c4c(F)cc(S(=O)(=O)[O-])cc4F)c4nc(c(-c5c(F)cc(S(=O)(=O)[O-])cc5F)c5ccc2[nH]5)C=C4)C=C3)cc1
REMARK SMILES IDX 6 1 5 2 4 3 3 4 1 5 2 6 28 8 29 9 93 10 30 11 92 12 31 13
REMARK SMILES IDX 32 14 33 15 86 16 34 17 91 18 85 19 87 20 35 21 90 22 84 23
REMARK SMILES IDX 83 24 36 26 70 27 49 28 69 29 50 30 53 31 68 32 88 33 51 34
REMARK SMILES IDX 52 35 67 37 89 38 54 39 37 40 38 41 47 42 39 43 40 44 46 45
REMARK SMILES IDX 48 46 41 47 42 48 43 49 44 50 45 51 71 52 72 53 81 54 73 55
REMARK SMILES IDX 74 56 80 57 82 58 75 59 76 60 77 61 78 62 79 63 55 64 56 65
REMARK SMILES IDX 65 66 57 67 58 68 64 69 66 70 59 71 60 72 61 73 62 74 63 75
REMARK SMILES IDX 7 76 8 77 9 79 10 80 11 81 26 82 23 83 25 84 27 85 24 86
REMARK SMILES IDX 12 87 13 88 14 89 15 91 16 92 17 93 18 94 19 95 22 96 20 97
REMARK SMILES IDX 21 98
REMARK H PARENT 3 7 87 25 53 36 7 78 14 90
REMARK Flexibility Score: inf
ROOT
ATOM      1  C   UNL A   1      35.495  24.215  24.574  1.00  0.00     0.117 C 
ENDROOT
BRANCH   1   2
ATOM      2  C   UNL A   1      36.523  23.100  24.411  1.00  0.00     0.042 C 
BRANCH   2   3
ATOM      3  C   UNL A   1      36.894  22.371  25.701  1.00  0.00     0.118 C 
BRANCH   3   4
ATOM      4  N   UNL A   1      38.195  21.734  25.707  1.00  0.00    -0.352 N 
ATOM      5  O   UNL A   1      40.273  21.153  26.178  1.00  0.00    -0.269 OA
ATOM      6  C   UNL A   1      39.409  22.029  26.265  1.00  0.00     0.251 C 
ATOM      7  H   UNL A   1      38.210  20.895  25.191  1.00  0.00     0.163 HD
BRANCH   6   8
ATOM      8  C   UNL A   1      39.764  23.329  26.901  1.00  0.00     0.039 A 
ATOM      9  C   UNL A   1      38.965  24.473  26.904  1.00  0.00     0.014 A 
ATOM     10  C   UNL A   1      41.012  23.380  27.550  1.00  0.00     0.014 A 
ATOM     11  C   UNL A   1      39.427  25.658  27.470  1.00  0.00     0.010 A 
ATOM     12  C   UNL A   1      41.468  24.554  28.143  1.00  0.00     0.010 A 
ATOM     13  C   UNL A   1      40.680  25.701  28.084  1.00  0.00    -0.014 A 
BRANCH  13  14
ATOM     14  C   UNL A   1      41.034  26.910  28.831  1.00  0.00     0.031 A 
ATOM     15  C   UNL A   1      42.179  27.683  28.267  1.00  0.00     0.074 A 
ATOM     16  C   UNL A   1      40.292  27.424  29.832  1.00  0.00     0.049 A 
ATOM     17  N   UNL A   1      43.287  28.026  28.841  1.00  0.00    -0.248 NA
ATOM     18  C   UNL A   1      42.109  28.046  26.841  1.00  0.00     0.031 C 
ATOM     19  C   UNL A   1      38.978  26.961  30.282  1.00  0.00     0.029 A 
ATOM     20  N   UNL A   1      40.499  28.553  30.576  1.00  0.00    -0.354 N 
ATOM     21  C   UNL A   1      43.951  28.840  27.923  1.00  0.00     0.074 A 
ATOM     22  C   UNL A   1      43.266  28.683  26.669  1.00  0.00     0.031 C 
ATOM     23  C   UNL A   1      38.415  27.918  31.053  1.00  0.00     0.029 A 
ATOM     24  C   UNL A   1      39.363  29.005  31.238  1.00  0.00     0.049 A 
ATOM     25  H   UNL A   1      41.373  29.003  30.638  1.00  0.00     0.167 HD
ATOM     26  C   UNL A   1      44.863  29.773  28.315  1.00  0.00     0.037 A 
ATOM     27  C   UNL A   1      39.181  30.216  31.822  1.00  0.00     0.037 A 
ATOM     28  C   UNL A   1      45.390  29.490  29.624  1.00  0.00     0.049 A 
ATOM     29  C   UNL A   1      40.517  30.808  32.077  1.00  0.00     0.074 A 
ATOM     30  C   UNL A   1      46.024  28.411  30.213  1.00  0.00     0.029 A 
ATOM     31  N   UNL A   1      45.024  30.310  30.661  1.00  0.00    -0.354 N 
ATOM     32  N   UNL A   1      41.369  30.362  32.959  1.00  0.00    -0.248 NA
ATOM     33  C   UNL A   1      41.070  31.721  31.089  1.00  0.00     0.031 C 
ATOM     34  C   UNL A   1      45.584  28.411  31.569  1.00  0.00     0.029 A 
ATOM     35  C   UNL A   1      44.738  29.507  31.733  1.00  0.00     0.049 A 
ATOM     36  H   UNL A   1      44.975  31.294  30.638  1.00  0.00     0.167 HD
ATOM     37  C   UNL A   1      42.613  30.590  32.396  1.00  0.00     0.074 A 
ATOM     38  C   UNL A   1      42.373  31.540  31.317  1.00  0.00     0.031 C 
ATOM     39  C   UNL A   1      43.673  29.774  32.673  1.00  0.00     0.037 A 
BRANCH  26  40
ATOM     40  C   UNL A   1      44.980  31.145  27.677  1.00  0.00     0.058 A 
ATOM     41  C   UNL A   1      46.229  31.569  27.174  1.00  0.00     0.135 A 
ATOM     42  C   UNL A   1      44.011  32.164  27.826  1.00  0.00     0.135 A 
ATOM     43  F   UNL A   1      47.226  30.689  26.990  1.00  0.00    -0.206 F 
ATOM     44  C   UNL A   1      46.526  32.913  26.941  1.00  0.00     0.059 A 
ATOM     45  C   UNL A   1      44.266  33.501  27.543  1.00  0.00     0.059 A 
ATOM     46  F   UNL A   1      42.801  31.935  28.350  1.00  0.00    -0.206 F 
ATOM     47  C   UNL A   1      45.542  33.874  27.155  1.00  0.00     0.060 A 
BRANCH  47  48
ATOM     48  S   UNL A   1      45.955  35.620  27.004  1.00  0.00     0.124 S 
ATOM     49  O   UNL A   1      44.664  36.241  27.276  1.00  0.00    -0.237 OA
ATOM     50  O   UNL A   1      46.975  35.783  28.035  1.00  0.00    -0.237 OA
ATOM     51  O   UNL A   1      46.436  35.729  25.630  1.00  0.00    -0.744 OA
ENDBRANCH  47  48
ENDBRANCH  26  40
BRANCH  27  52
ATOM     52  C   UNL A   1      37.930  31.015  31.933  1.00  0.00     0.058 A 
ATOM     53  C   UNL A   1      37.408  31.380  33.189  1.00  0.00     0.135 A 
ATOM     54  C   UNL A   1      37.363  31.664  30.818  1.00  0.00     0.135 A 
ATOM     55  F   UNL A   1      37.900  30.833  34.311  1.00  0.00    -0.206 F 
ATOM     56  C   UNL A   1      36.425  32.365  33.332  1.00  0.00     0.059 A 
ATOM     57  C   UNL A   1      36.368  32.631  30.934  1.00  0.00     0.059 A 
ATOM     58  F   UNL A   1      37.826  31.449  29.578  1.00  0.00    -0.206 F 
ATOM     59  C   UNL A   1      35.922  32.999  32.197  1.00  0.00     0.060 A 
BRANCH  59  60
ATOM     60  S   UNL A   1      34.784  34.391  32.381  1.00  0.00     0.124 S 
ATOM     61  O   UNL A   1      35.569  35.318  33.189  1.00  0.00    -0.237 OA
ATOM     62  O   UNL A   1      34.555  34.787  30.995  1.00  0.00    -0.237 OA
ATOM     63  O   UNL A   1      33.631  33.799  33.055  1.00  0.00    -0.744 OA
ENDBRANCH  59  60
ENDBRANCH  27  52
BRANCH  39  64
ATOM     64  C   UNL A   1      43.608  28.906  33.899  1.00  0.00     0.058 A 
ATOM     65  C   UNL A   1      43.972  29.317  35.193  1.00  0.00     0.135 A 
ATOM     66  C   UNL A   1      43.034  27.630  33.768  1.00  0.00     0.135 A 
ATOM     67  F   UNL A   1      44.419  30.560  35.424  1.00  0.00    -0.206 F 
ATOM     68  C   UNL A   1      43.825  28.475  36.296  1.00  0.00     0.059 A 
ATOM     69  C   UNL A   1      42.846  26.789  34.860  1.00  0.00     0.059 A 
ATOM     70  F   UNL A   1      42.606  27.204  32.568  1.00  0.00    -0.206 F 
ATOM     71  C   UNL A   1      43.262  27.212  36.119  1.00  0.00     0.060 A 
BRANCH  71  72
ATOM     72  S   UNL A   1      43.003  26.150  37.558  1.00  0.00     0.124 S 
ATOM     73  O   UNL A   1      43.869  26.775  38.557  1.00  0.00    -0.237 OA
ATOM     74  O   UNL A   1      41.565  26.286  37.797  1.00  0.00    -0.237 OA
ATOM     75  O   UNL A   1      43.427  24.838  37.097  1.00  0.00    -0.744 OA
ENDBRANCH  71  72
ENDBRANCH  39  64
ENDBRANCH  13  14
ENDBRANCH   6   8
ENDBRANCH   3   4
ENDBRANCH   2   3
ENDBRANCH   1   2
BRANCH   1  76
ATOM     76  N   UNL A   1      34.460  24.175  23.556  1.00  0.00    -0.356 N 
ATOM     77  C   UNL A   1      33.117  24.384  23.661  1.00  0.00     0.224 C 
ATOM     78  H   UNL A   1      34.779  23.966  22.648  1.00  0.00     0.163 HD
ATOM     79  O   UNL A   1      32.435  24.223  22.647  1.00  0.00    -0.275 OA
BRANCH  77  80
ATOM     80  C   UNL A   1      32.520  24.769  25.004  1.00  0.00     0.098 C 
ATOM     81  C   UNL A   1      31.037  24.265  25.184  1.00  0.00     0.098 C 
ATOM     82  C   UNL A   1      32.363  26.303  25.191  1.00  0.00     0.025 C 
ATOM     83  C   UNL A   1      30.287  25.573  25.554  1.00  0.00     0.025 C 
ATOM     84  C   UNL A   1      31.489  26.868  24.092  1.00  0.00    -0.027 C 
ATOM     85  C   UNL A   1      31.351  26.344  26.337  1.00  0.00     0.017 C 
ATOM     86  C   UNL A   1      30.242  26.430  24.310  1.00  0.00    -0.027 C 
BRANCH  81  87
ATOM     87  C   UNL A   1      30.885  23.222  26.278  1.00  0.00     0.224 C 
ATOM     88  O   UNL A   1      30.458  23.480  27.401  1.00  0.00    -0.275 OA
ATOM     89  N   UNL A   1      31.251  21.931  26.019  1.00  0.00    -0.356 N 
ATOM     90  H   UNL A   1      31.147  21.304  26.770  1.00  0.00     0.163 HD
BRANCH  89  91
ATOM     91  C   UNL A   1      31.773  21.354  24.793  1.00  0.00     0.117 C 
BRANCH  91  92
ATOM     92  C   UNL A   1      33.172  20.765  24.971  1.00  0.00     0.043 C 
BRANCH  92  93
ATOM     93  C   UNL A   1      33.196  19.313  25.447  1.00  0.00     0.125 C 
BRANCH  93  94
ATOM     94  N   UNL A   1      33.408  18.359  24.379  1.00  0.00    -0.337 N 
ATOM     95  C   UNL A   1      34.411  17.435  24.306  1.00  0.00     0.107 A 
ATOM     96  C   UNL A   1      32.629  18.217  23.267  1.00  0.00     0.199 A 
ATOM     97  C   UNL A   1      34.168  16.743  23.142  1.00  0.00     0.130 A 
ATOM     98  N   UNL A   1      33.059  17.239  22.504  1.00  0.00    -0.245 NA
ENDBRANCH  93  94
ENDBRANCH  92  93
ENDBRANCH  91  92
ENDBRANCH  89  91
ENDBRANCH  81  87
ENDBRANCH  77  80
ENDBRANCH   1  76
TORSDOF 18
ENDMDL
