MODEL 1
REMARK VINA RESULT:     -11.9      0.000      0.000
REMARK SMILES COc1cc(-c2ccc(NC(=O)CCC(=O)NCCCNC(=O)c3ccc(-c4c5nc(c(-c6c(F)cc(S(=O)(=O)[O-])cc6F)c6ccc([nH]6)c(-c6c(F)cc(S(=O)(=O)[O-])cc6F)c6nc(c(-c7c(F)cc(S(=O)(=O)[O-])cc7F)c7ccc4[nH]7)C=C6)C=C5)cc3)c(OC)c2)ccc1N
REMARK SMILES IDX 18 1 17 2 15 3 16 4 14 6 13 7 11 8 10 9 12 11 9 12 6 13 7 14
REMARK SMILES IDX 93 15 8 16 90 17 5 18 3 19 4 20 96 21 95 22 94 23 2 24 1 25
REMARK SMILES IDX 97 26 91 29 92 30 19 31 20 32 21 33 22 34 23 36 24 37 25 38
REMARK SMILES IDX 89 39 26 40 88 41 27 42 28 43 29 44 82 45 30 46 87 47 81 48
REMARK SMILES IDX 83 49 31 50 86 51 80 52 79 53 32 55 66 56 45 57 65 58 46 59
REMARK SMILES IDX 49 60 64 61 84 62 47 63 48 64 63 66 85 67 50 68 33 69 34 70
REMARK SMILES IDX 43 71 35 72 36 73 42 74 44 75 37 76 38 77 39 78 40 79 41 80
REMARK SMILES IDX 67 81 68 82 77 83 69 84 70 85 76 86 78 87 71 88 72 89 73 90
REMARK SMILES IDX 74 91 75 92 51 93 52 94 61 95 53 96 54 97 60 98 62 99 55 100
REMARK SMILES IDX 56 101 57 102 58 103 59 104
REMARK H PARENT 17 5 10 10 97 27 97 28 21 35 83 54 49 65
REMARK Flexibility Score: inf
ROOT
ATOM      1  C   UNL A   1      38.323  22.831  26.016  1.00  0.00     0.117 C 
ENDROOT
BRANCH   1   2
ATOM      2  N   UNL A   1      37.586  22.715  24.728  1.00  0.00    -0.356 N 
ATOM      3  C   UNL A   1      36.511  23.287  24.075  1.00  0.00     0.220 C 
ATOM      4  O   UNL A   1      36.459  23.022  22.862  1.00  0.00    -0.275 OA
ATOM      5  H   UNL A   1      37.990  22.015  24.167  1.00  0.00     0.163 HD
BRANCH   3   6
ATOM      6  C   UNL A   1      35.364  24.174  24.659  1.00  0.00     0.110 C 
BRANCH   6   7
ATOM      7  C   UNL A   1      34.647  23.624  25.965  1.00  0.00     0.110 C 
BRANCH   7   8
ATOM      8  C   UNL A   1      34.212  22.116  26.151  1.00  0.00     0.224 C 
ATOM      9  N   UNL A   1      32.880  21.704  26.215  1.00  0.00    -0.323 N 
ATOM     10  H   UNL A   1      32.712  20.784  26.524  1.00  0.00     0.170 HD
ATOM     11  O   UNL A   1      35.079  21.247  26.303  1.00  0.00    -0.275 OA
BRANCH   9  12
ATOM     12  C   UNL A   1      31.763  22.477  25.880  1.00  0.00     0.083 A 
ATOM     13  C   UNL A   1      30.874  25.017  25.309  1.00  0.00    -0.014 A 
ATOM     14  C   UNL A   1      30.435  24.342  26.468  1.00  0.00     0.011 A 
ATOM     15  C   UNL A   1      31.288  24.149  24.291  1.00  0.00     0.057 A 
ATOM     16  C   UNL A   1      30.933  23.075  26.796  1.00  0.00     0.031 A 
ATOM     17  C   UNL A   1      31.559  22.795  24.576  1.00  0.00     0.142 A 
BRANCH  13  18
ATOM     18  C   UNL A   1      30.977  26.526  25.280  1.00  0.00    -0.014 A 
ATOM     19  C   UNL A   1      31.060  28.758  24.179  1.00  0.00     0.142 A 
ATOM     20  C   UNL A   1      30.828  27.349  24.138  1.00  0.00     0.057 A 
ATOM     21  C   UNL A   1      31.368  29.398  25.390  1.00  0.00     0.074 A 
ATOM     22  C   UNL A   1      31.620  28.590  26.490  1.00  0.00     0.030 A 
ATOM     23  C   UNL A   1      31.422  27.207  26.433  1.00  0.00     0.011 A 
BRANCH  19  24
ATOM     24  O   UNL A   1      30.907  29.434  22.985  1.00  0.00    -0.495 OA
ATOM     25  C   UNL A   1      29.558  29.806  22.677  1.00  0.00     0.278 C 
ENDBRANCH  19  24
BRANCH  21  26
ATOM     26  N   UNL A   1      31.533  30.774  25.535  1.00  0.00    -0.396 N 
ATOM     27  H   UNL A   1      30.773  31.334  25.816  1.00  0.00     0.156 HD
ATOM     28  H   UNL A   1      32.408  31.186  25.358  1.00  0.00     0.156 HD
ENDBRANCH  21  26
ENDBRANCH  13  18
BRANCH  17  29
ATOM     29  O   UNL A   1      31.783  21.853  23.619  1.00  0.00    -0.495 OA
ATOM     30  C   UNL A   1      32.763  22.008  22.561  1.00  0.00     0.278 C 
ENDBRANCH  17  29
ENDBRANCH   9  12
ENDBRANCH   7   8
ENDBRANCH   6   7
ENDBRANCH   3   6
ENDBRANCH   1   2
BRANCH   1  31
ATOM     31  C   UNL A   1      39.594  21.988  26.462  1.00  0.00     0.042 C 
BRANCH  31  32
ATOM     32  C   UNL A   1      40.897  22.575  27.048  1.00  0.00     0.118 C 
BRANCH  32  33
ATOM     33  N   UNL A   1      41.430  23.618  26.159  1.00  0.00    -0.352 N 
ATOM     34  C   UNL A   1      41.546  24.990  26.201  1.00  0.00     0.251 C 
ATOM     35  H   UNL A   1      41.797  23.242  25.326  1.00  0.00     0.163 HD
ATOM     36  O   UNL A   1      41.689  25.545  25.107  1.00  0.00    -0.269 OA
BRANCH  34  37
ATOM     37  C   UNL A   1      41.551  25.861  27.420  1.00  0.00     0.039 A 
ATOM     38  C   UNL A   1      40.396  25.841  28.231  1.00  0.00     0.014 A 
ATOM     39  C   UNL A   1      42.512  26.835  27.693  1.00  0.00     0.014 A 
ATOM     40  C   UNL A   1      40.211  26.757  29.284  1.00  0.00     0.010 A 
ATOM     41  C   UNL A   1      42.335  27.742  28.772  1.00  0.00     0.010 A 
ATOM     42  C   UNL A   1      41.182  27.723  29.581  1.00  0.00    -0.014 A 
BRANCH  42  43
ATOM     43  C   UNL A   1      40.983  28.681  30.724  1.00  0.00     0.031 A 
ATOM     44  C   UNL A   1      41.835  28.620  31.974  1.00  0.00     0.074 A 
ATOM     45  C   UNL A   1      40.026  29.634  30.655  1.00  0.00     0.049 A 
ATOM     46  N   UNL A   1      41.772  29.354  33.060  1.00  0.00    -0.248 NA
ATOM     47  C   UNL A   1      42.889  27.598  32.009  1.00  0.00     0.031 C 
ATOM     48  C   UNL A   1      39.121  29.835  29.525  1.00  0.00     0.029 A 
ATOM     49  N   UNL A   1      39.649  30.607  31.555  1.00  0.00    -0.354 N 
ATOM     50  C   UNL A   1      42.766  28.878  33.912  1.00  0.00     0.074 A 
ATOM     51  C   UNL A   1      43.397  27.770  33.224  1.00  0.00     0.031 C 
ATOM     52  C   UNL A   1      38.301  30.866  29.792  1.00  0.00     0.029 A 
ATOM     53  C   UNL A   1      38.593  31.383  31.127  1.00  0.00     0.049 A 
ATOM     54  H   UNL A   1      40.093  30.738  32.424  1.00  0.00     0.167 HD
ATOM     55  C   UNL A   1      43.131  29.323  35.144  1.00  0.00     0.037 A 
ATOM     56  C   UNL A   1      37.923  32.386  31.733  1.00  0.00     0.037 A 
ATOM     57  C   UNL A   1      42.528  30.439  35.834  1.00  0.00     0.049 A 
ATOM     58  C   UNL A   1      38.323  32.843  33.110  1.00  0.00     0.074 A 
ATOM     59  C   UNL A   1      42.874  30.979  37.064  1.00  0.00     0.029 A 
ATOM     60  N   UNL A   1      41.456  31.184  35.367  1.00  0.00    -0.354 N 
ATOM     61  N   UNL A   1      39.291  32.400  33.876  1.00  0.00    -0.248 NA
ATOM     62  C   UNL A   1      37.541  33.938  33.707  1.00  0.00     0.031 C 
ATOM     63  C   UNL A   1      41.985  32.019  37.359  1.00  0.00     0.029 A 
ATOM     64  C   UNL A   1      41.113  32.158  36.293  1.00  0.00     0.049 A 
ATOM     65  H   UNL A   1      41.004  31.041  34.503  1.00  0.00     0.167 HD
ATOM     66  C   UNL A   1      39.249  33.178  35.031  1.00  0.00     0.074 A 
ATOM     67  C   UNL A   1      38.168  34.125  34.860  1.00  0.00     0.031 C 
ATOM     68  C   UNL A   1      40.041  33.109  36.128  1.00  0.00     0.037 A 
BRANCH  55  69
ATOM     69  C   UNL A   1      44.245  28.594  35.851  1.00  0.00     0.058 A 
ATOM     70  C   UNL A   1      45.590  28.957  35.680  1.00  0.00     0.135 A 
ATOM     71  C   UNL A   1      43.959  27.558  36.758  1.00  0.00     0.135 A 
ATOM     72  F   UNL A   1      45.922  29.938  34.827  1.00  0.00    -0.206 F 
ATOM     73  C   UNL A   1      46.614  28.296  36.354  1.00  0.00     0.059 A 
ATOM     74  C   UNL A   1      44.966  26.902  37.463  1.00  0.00     0.059 A 
ATOM     75  F   UNL A   1      42.690  27.177  36.972  1.00  0.00    -0.206 F 
ATOM     76  C   UNL A   1      46.292  27.266  37.241  1.00  0.00     0.060 A 
BRANCH  76  77
ATOM     77  S   UNL A   1      47.633  26.410  38.097  1.00  0.00     0.124 S 
ATOM     78  O   UNL A   1      46.918  25.295  38.710  1.00  0.00    -0.237 OA
ATOM     79  O   UNL A   1      48.533  26.060  37.003  1.00  0.00    -0.237 OA
ATOM     80  O   UNL A   1      48.140  27.416  39.026  1.00  0.00    -0.744 OA
ENDBRANCH  76  77
ENDBRANCH  55  69
BRANCH  56  81
ATOM     81  C   UNL A   1      36.783  33.041  31.031  1.00  0.00     0.058 A 
ATOM     82  C   UNL A   1      35.455  32.760  31.388  1.00  0.00     0.135 A 
ATOM     83  C   UNL A   1      37.000  33.961  29.994  1.00  0.00     0.135 A 
ATOM     84  F   UNL A   1      35.196  31.874  32.362  1.00  0.00    -0.206 F 
ATOM     85  C   UNL A   1      34.383  33.362  30.738  1.00  0.00     0.059 A 
ATOM     86  C   UNL A   1      35.945  34.595  29.346  1.00  0.00     0.059 A 
ATOM     87  F   UNL A   1      38.253  34.269  29.620  1.00  0.00    -0.206 F 
ATOM     88  C   UNL A   1      34.639  34.283  29.720  1.00  0.00     0.060 A 
BRANCH  88  89
ATOM     89  S   UNL A   1      33.240  35.096  28.916  1.00  0.00     0.124 S 
ATOM     90  O   UNL A   1      32.422  35.470  30.037  1.00  0.00    -0.237 OA
ATOM     91  O   UNL A   1      33.900  36.192  28.194  1.00  0.00    -0.237 OA
ATOM     92  O   UNL A   1      32.702  34.040  28.046  1.00  0.00    -0.744 OA
ENDBRANCH  88  89
ENDBRANCH  56  81
BRANCH  68  93
ATOM     93  C   UNL A   1      39.796  34.101  37.235  1.00  0.00     0.058 A 
ATOM     94  C   UNL A   1      38.991  33.788  38.343  1.00  0.00     0.135 A 
ATOM     95  C   UNL A   1      40.413  35.362  37.213  1.00  0.00     0.135 A 
ATOM     96  F   UNL A   1      38.369  32.601  38.412  1.00  0.00    -0.206 F 
ATOM     97  C   UNL A   1      38.794  34.696  39.381  1.00  0.00     0.059 A 
ATOM     98  C   UNL A   1      40.250  36.276  38.252  1.00  0.00     0.059 A 
ATOM     99  F   UNL A   1      41.199  35.712  36.183  1.00  0.00    -0.206 F 
ATOM    100  C   UNL A   1      39.431  35.938  39.327  1.00  0.00     0.060 A 
BRANCH 100 101
ATOM    101  S   UNL A   1      39.201  37.090  40.699  1.00  0.00     0.124 S 
ATOM    102  O   UNL A   1      38.584  36.233  41.705  1.00  0.00    -0.237 OA
ATOM    103  O   UNL A   1      40.568  37.517  40.982  1.00  0.00    -0.237 OA
ATOM    104  O   UNL A   1      38.335  38.121  40.135  1.00  0.00    -0.744 OA
ENDBRANCH 100 101
ENDBRANCH  68  93
ENDBRANCH  42  43
ENDBRANCH  34  37
ENDBRANCH  32  33
ENDBRANCH  31  32
ENDBRANCH   1  31
TORSDOF 20
ENDMDL
MODEL 2
REMARK VINA RESULT:     -11.7      6.384     11.933
REMARK SMILES COc1cc(-c2ccc(NC(=O)CCC(=O)NCCCNC(=O)c3ccc(-c4c5nc(c(-c6c(F)cc(S(=O)(=O)[O-])cc6F)c6ccc([nH]6)c(-c6c(F)cc(S(=O)(=O)[O-])cc6F)c6nc(c(-c7c(F)cc(S(=O)(=O)[O-])cc7F)c7ccc4[nH]7)C=C6)C=C5)cc3)c(OC)c2)ccc1N
REMARK SMILES IDX 18 1 17 2 15 3 16 4 14 6 13 7 11 8 10 9 12 11 9 12 6 13 7 14
REMARK SMILES IDX 93 15 8 16 90 17 5 18 3 19 4 20 96 21 95 22 94 23 2 24 1 25
REMARK SMILES IDX 97 26 91 29 92 30 19 31 20 32 21 33 22 34 23 36 24 37 25 38
REMARK SMILES IDX 89 39 26 40 88 41 27 42 28 43 29 44 82 45 30 46 87 47 81 48
REMARK SMILES IDX 83 49 31 50 86 51 80 52 79 53 32 55 66 56 45 57 65 58 46 59
REMARK SMILES IDX 49 60 64 61 84 62 47 63 48 64 63 66 85 67 50 68 33 69 34 70
REMARK SMILES IDX 43 71 35 72 36 73 42 74 44 75 37 76 38 77 39 78 40 79 41 80
REMARK SMILES IDX 67 81 68 82 77 83 69 84 70 85 76 86 78 87 71 88 72 89 73 90
REMARK SMILES IDX 74 91 75 92 51 93 52 94 61 95 53 96 54 97 60 98 62 99 55 100
REMARK SMILES IDX 56 101 57 102 58 103 59 104
REMARK H PARENT 17 5 10 10 97 27 97 28 21 35 83 54 49 65
REMARK Flexibility Score: inf
ROOT
ATOM      1  C   UNL A   1      33.832  30.034  27.243  1.00  0.00     0.117 C 
ENDROOT
BRANCH   1   2
ATOM      2  N   UNL A   1      33.682  29.722  25.795  1.00  0.00    -0.356 N 
ATOM      3  C   UNL A   1      33.619  28.626  24.956  1.00  0.00     0.220 C 
ATOM      4  O   UNL A   1      33.199  28.889  23.816  1.00  0.00    -0.275 OA
ATOM      5  H   UNL A   1      33.601  30.553  25.275  1.00  0.00     0.163 HD
BRANCH   3   6
ATOM      6  C   UNL A   1      34.029  27.145  25.238  1.00  0.00     0.110 C 
BRANCH   6   7
ATOM      7  C   UNL A   1      33.090  26.334  26.229  1.00  0.00     0.110 C 
BRANCH   7   8
ATOM      8  C   UNL A   1      31.554  26.649  26.427  1.00  0.00     0.224 C 
ATOM      9  N   UNL A   1      30.534  25.827  25.945  1.00  0.00    -0.323 N 
ATOM     10  H   UNL A   1      29.622  26.200  25.946  1.00  0.00     0.170 HD
ATOM     11  O   UNL A   1      31.215  27.697  26.990  1.00  0.00    -0.275 OA
BRANCH   9  12
ATOM     12  C   UNL A   1      30.687  24.524  25.460  1.00  0.00     0.083 A 
ATOM     13  C   UNL A   1      32.432  22.414  25.192  1.00  0.00    -0.014 A 
ATOM     14  C   UNL A   1      31.951  23.101  24.058  1.00  0.00     0.011 A 
ATOM     15  C   UNL A   1      31.577  22.510  26.296  1.00  0.00     0.057 A 
ATOM     16  C   UNL A   1      31.113  24.215  24.192  1.00  0.00     0.031 A 
ATOM     17  C   UNL A   1      30.561  23.487  26.327  1.00  0.00     0.142 A 
BRANCH  13  18
ATOM     18  C   UNL A   1      33.798  21.763  25.186  1.00  0.00    -0.014 A 
ATOM     19  C   UNL A   1      36.287  21.750  25.137  1.00  0.00     0.142 A 
ATOM     20  C   UNL A   1      35.041  22.435  25.269  1.00  0.00     0.057 A 
ATOM     21  C   UNL A   1      36.325  20.353  25.001  1.00  0.00     0.074 A 
ATOM     22  C   UNL A   1      35.116  19.699  24.812  1.00  0.00     0.030 A 
ATOM     23  C   UNL A   1      33.900  20.383  24.910  1.00  0.00     0.011 A 
BRANCH  19  24
ATOM     24  O   UNL A   1      37.422  22.533  25.208  1.00  0.00    -0.495 OA
ATOM     25  C   UNL A   1      37.210  23.844  25.748  1.00  0.00     0.278 C 
ENDBRANCH  19  24
BRANCH  21  26
ATOM     26  N   UNL A   1      37.495  19.598  24.944  1.00  0.00    -0.396 N 
ATOM     27  H   UNL A   1      38.251  19.814  25.538  1.00  0.00     0.156 HD
ATOM     28  H   UNL A   1      37.566  18.848  24.311  1.00  0.00     0.156 HD
ENDBRANCH  21  26
ENDBRANCH  13  18
BRANCH  17  29
ATOM     29  O   UNL A   1      29.580  23.526  27.270  1.00  0.00    -0.495 OA
ATOM     30  C   UNL A   1      28.769  22.377  27.626  1.00  0.00     0.278 C 
ENDBRANCH  17  29
ENDBRANCH   9  12
ENDBRANCH   7   8
ENDBRANCH   6   7
ENDBRANCH   3   6
ENDBRANCH   1   2
BRANCH   1  31
ATOM     31  C   UNL A   1      33.949  31.478  27.897  1.00  0.00     0.042 C 
BRANCH  31  32
ATOM     32  C   UNL A   1      35.244  32.104  28.459  1.00  0.00     0.118 C 
BRANCH  32  33
ATOM     33  N   UNL A   1      35.468  31.656  29.841  1.00  0.00    -0.352 N 
ATOM     34  C   UNL A   1      36.278  30.731  30.463  1.00  0.00     0.251 C 
ATOM     35  H   UNL A   1      34.897  32.136  30.483  1.00  0.00     0.163 HD
ATOM     36  O   UNL A   1      35.905  30.365  31.583  1.00  0.00    -0.269 OA
BRANCH  34  37
ATOM     37  C   UNL A   1      37.563  30.159  29.945  1.00  0.00     0.039 A 
ATOM     38  C   UNL A   1      38.567  29.870  30.893  1.00  0.00     0.014 A 
ATOM     39  C   UNL A   1      37.912  30.091  28.595  1.00  0.00     0.014 A 
ATOM     40  C   UNL A   1      39.875  29.517  30.507  1.00  0.00     0.010 A 
ATOM     41  C   UNL A   1      39.224  29.710  28.208  1.00  0.00     0.010 A 
ATOM     42  C   UNL A   1      40.227  29.423  29.154  1.00  0.00    -0.014 A 
BRANCH  42  43
ATOM     43  C   UNL A   1      41.622  29.022  28.753  1.00  0.00     0.031 A 
ATOM     44  C   UNL A   1      42.763  30.016  28.730  1.00  0.00     0.074 A 
ATOM     45  C   UNL A   1      41.888  27.744  28.401  1.00  0.00     0.049 A 
ATOM     46  N   UNL A   1      44.016  29.837  28.382  1.00  0.00    -0.248 NA
ATOM     47  C   UNL A   1      42.454  31.390  29.149  1.00  0.00     0.031 C 
ATOM     48  C   UNL A   1      40.907  26.660  28.371  1.00  0.00     0.029 A 
ATOM     49  N   UNL A   1      43.058  27.139  27.996  1.00  0.00    -0.354 N 
ATOM     50  C   UNL A   1      44.642  31.073  28.526  1.00  0.00     0.074 A 
ATOM     51  C   UNL A   1      43.620  32.000  28.967  1.00  0.00     0.031 C 
ATOM     52  C   UNL A   1      41.512  25.527  27.977  1.00  0.00     0.029 A 
ATOM     53  C   UNL A   1      42.919  25.803  27.691  1.00  0.00     0.049 A 
ATOM     54  H   UNL A   1      43.916  27.618  27.930  1.00  0.00     0.167 HD
ATOM     55  C   UNL A   1      45.944  31.407  28.325  1.00  0.00     0.037 A 
ATOM     56  C   UNL A   1      43.806  24.899  27.225  1.00  0.00     0.037 A 
ATOM     57  C   UNL A   1      46.980  30.492  27.907  1.00  0.00     0.049 A 
ATOM     58  C   UNL A   1      45.237  25.298  26.979  1.00  0.00     0.074 A 
ATOM     59  C   UNL A   1      48.332  30.745  27.727  1.00  0.00     0.029 A 
ATOM     60  N   UNL A   1      46.788  29.153  27.600  1.00  0.00    -0.354 N 
ATOM     61  N   UNL A   1      45.810  26.463  27.160  1.00  0.00    -0.248 NA
ATOM     62  C   UNL A   1      46.144  24.258  26.465  1.00  0.00     0.031 C 
ATOM     63  C   UNL A   1      48.947  29.575  27.269  1.00  0.00     0.029 A 
ATOM     64  C   UNL A   1      47.988  28.577  27.208  1.00  0.00     0.049 A 
ATOM     65  H   UNL A   1      45.926  28.681  27.653  1.00  0.00     0.167 HD
ATOM     66  C   UNL A   1      47.146  26.289  26.807  1.00  0.00     0.074 A 
ATOM     67  C   UNL A   1      47.300  24.905  26.412  1.00  0.00     0.031 C 
ATOM     68  C   UNL A   1      48.150  27.199  26.817  1.00  0.00     0.037 A 
BRANCH  55  69
ATOM     69  C   UNL A   1      46.342  32.846  28.544  1.00  0.00     0.058 A 
ATOM     70  C   UNL A   1      46.792  33.304  29.792  1.00  0.00     0.135 A 
ATOM     71  C   UNL A   1      46.329  33.762  27.478  1.00  0.00     0.135 A 
ATOM     72  F   UNL A   1      46.825  32.474  30.846  1.00  0.00    -0.206 F 
ATOM     73  C   UNL A   1      47.181  34.628  29.984  1.00  0.00     0.059 A 
ATOM     74  C   UNL A   1      46.738  35.083  27.642  1.00  0.00     0.059 A 
ATOM     75  F   UNL A   1      45.920  33.376  26.260  1.00  0.00    -0.206 F 
ATOM     76  C   UNL A   1      47.146  35.512  28.904  1.00  0.00     0.060 A 
BRANCH  76  77
ATOM     77  S   UNL A   1      47.641  37.228  29.172  1.00  0.00     0.124 S 
ATOM     78  O   UNL A   1      49.094  37.129  29.068  1.00  0.00    -0.237 OA
ATOM     79  O   UNL A   1      46.974  37.923  28.076  1.00  0.00    -0.237 OA
ATOM     80  O   UNL A   1      47.126  37.526  30.505  1.00  0.00    -0.744 OA
ENDBRANCH  76  77
ENDBRANCH  55  69
BRANCH  56  81
ATOM     81  C   UNL A   1      43.364  23.502  26.955  1.00  0.00     0.058 A 
ATOM     82  C   UNL A   1      43.148  22.594  28.003  1.00  0.00     0.135 A 
ATOM     83  C   UNL A   1      43.146  23.050  25.644  1.00  0.00     0.135 A 
ATOM     84  F   UNL A   1      43.360  22.974  29.272  1.00  0.00    -0.206 F 
ATOM     85  C   UNL A   1      42.740  21.286  27.762  1.00  0.00     0.059 A 
ATOM     86  C   UNL A   1      42.713  21.755  25.380  1.00  0.00     0.059 A 
ATOM     87  F   UNL A   1      43.330  23.882  24.606  1.00  0.00    -0.206 F 
ATOM     88  C   UNL A   1      42.520  20.877  26.445  1.00  0.00     0.060 A 
BRANCH  88  89
ATOM     89  S   UNL A   1      41.942  19.191  26.149  1.00  0.00     0.124 S 
ATOM     90  O   UNL A   1      42.715  18.804  25.001  1.00  0.00    -0.237 OA
ATOM     91  O   UNL A   1      42.278  18.529  27.417  1.00  0.00    -0.237 OA
ATOM     92  O   UNL A   1      40.500  19.372  25.927  1.00  0.00    -0.744 OA
ENDBRANCH  88  89
ENDBRANCH  56  81
BRANCH  68  93
ATOM     93  C   UNL A   1      49.524  26.733  26.411  1.00  0.00     0.058 A 
ATOM     94  C   UNL A   1      50.410  26.153  27.334  1.00  0.00     0.135 A 
ATOM     95  C   UNL A   1      49.942  26.820  25.073  1.00  0.00     0.135 A 
ATOM     96  F   UNL A   1      50.067  26.052  28.628  1.00  0.00    -0.206 F 
ATOM     97  C   UNL A   1      51.666  25.691  26.948  1.00  0.00     0.059 A 
ATOM     98  C   UNL A   1      51.184  26.343  24.660  1.00  0.00     0.059 A 
ATOM     99  F   UNL A   1      49.133  27.358  24.147  1.00  0.00    -0.206 F 
ATOM    100  C   UNL A   1      52.044  25.789  25.607  1.00  0.00     0.060 A 
BRANCH 100 101
ATOM    101  S   UNL A   1      53.658  25.150  25.111  1.00  0.00     0.124 S 
ATOM    102  O   UNL A   1      53.844  25.791  23.814  1.00  0.00    -0.237 OA
ATOM    103  O   UNL A   1      54.527  25.626  26.183  1.00  0.00    -0.237 OA
ATOM    104  O   UNL A   1      53.456  23.704  25.074  1.00  0.00    -0.744 OA
ENDBRANCH 100 101
ENDBRANCH  68  93
ENDBRANCH  42  43
ENDBRANCH  34  37
ENDBRANCH  32  33
ENDBRANCH  31  32
ENDBRANCH   1  31
TORSDOF 20
ENDMDL
MODEL 3
REMARK VINA RESULT:     -11.6      6.262     11.972
REMARK SMILES COc1cc(-c2ccc(NC(=O)CCC(=O)NCCCNC(=O)c3ccc(-c4c5nc(c(-c6c(F)cc(S(=O)(=O)[O-])cc6F)c6ccc([nH]6)c(-c6c(F)cc(S(=O)(=O)[O-])cc6F)c6nc(c(-c7c(F)cc(S(=O)(=O)[O-])cc7F)c7ccc4[nH]7)C=C6)C=C5)cc3)c(OC)c2)ccc1N
REMARK SMILES IDX 18 1 17 2 15 3 16 4 14 6 13 7 11 8 10 9 12 11 9 12 6 13 7 14
REMARK SMILES IDX 93 15 8 16 90 17 5 18 3 19 4 20 96 21 95 22 94 23 2 24 1 25
REMARK SMILES IDX 97 26 91 29 92 30 19 31 20 32 21 33 22 34 23 36 24 37 25 38
REMARK SMILES IDX 89 39 26 40 88 41 27 42 28 43 29 44 82 45 30 46 87 47 81 48
REMARK SMILES IDX 83 49 31 50 86 51 80 52 79 53 32 55 66 56 45 57 65 58 46 59
REMARK SMILES IDX 49 60 64 61 84 62 47 63 48 64 63 66 85 67 50 68 33 69 34 70
REMARK SMILES IDX 43 71 35 72 36 73 42 74 44 75 37 76 38 77 39 78 40 79 41 80
REMARK SMILES IDX 67 81 68 82 77 83 69 84 70 85 76 86 78 87 71 88 72 89 73 90
REMARK SMILES IDX 74 91 75 92 51 93 52 94 61 95 53 96 54 97 60 98 62 99 55 100
REMARK SMILES IDX 56 101 57 102 58 103 59 104
REMARK H PARENT 17 5 10 10 97 27 97 28 21 35 83 54 49 65
REMARK Flexibility Score: inf
ROOT
ATOM      1  C   UNL A   1      34.546  30.728  27.959  1.00  0.00     0.117 C 
ENDROOT
BRANCH   1   2
ATOM      2  N   UNL A   1      33.237  30.137  27.569  1.00  0.00    -0.356 N 
ATOM      3  C   UNL A   1      32.730  28.984  27.000  1.00  0.00     0.220 C 
ATOM      4  O   UNL A   1      31.502  28.852  27.141  1.00  0.00    -0.275 OA
ATOM      5  H   UNL A   1      32.506  30.760  27.783  1.00  0.00     0.163 HD
BRANCH   3   6
ATOM      6  C   UNL A   1      33.478  27.872  26.197  1.00  0.00     0.110 C 
BRANCH   6   7
ATOM      7  C   UNL A   1      33.499  28.041  24.618  1.00  0.00     0.110 C 
BRANCH   7   8
ATOM      8  C   UNL A   1      32.201  28.281  23.749  1.00  0.00     0.224 C 
ATOM      9  N   UNL A   1      31.654  27.315  22.903  1.00  0.00    -0.323 N 
ATOM     10  H   UNL A   1      30.968  27.618  22.264  1.00  0.00     0.170 HD
ATOM     11  O   UNL A   1      31.654  29.391  23.765  1.00  0.00    -0.275 OA
BRANCH   9  12
ATOM     12  C   UNL A   1      31.992  25.958  22.879  1.00  0.00     0.083 A 
ATOM     13  C   UNL A   1      33.786  24.068  23.762  1.00  0.00    -0.014 A 
ATOM     14  C   UNL A   1      33.678  24.375  22.390  1.00  0.00     0.011 A 
ATOM     15  C   UNL A   1      32.617  24.349  24.482  1.00  0.00     0.057 A 
ATOM     16  C   UNL A   1      32.812  25.381  21.942  1.00  0.00     0.031 A 
ATOM     17  C   UNL A   1      31.620  25.175  23.925  1.00  0.00     0.142 A 
BRANCH  13  18
ATOM     18  C   UNL A   1      35.097  23.602  24.355  1.00  0.00    -0.014 A 
ATOM     19  C   UNL A   1      36.970  21.998  24.700  1.00  0.00     0.142 A 
ATOM     20  C   UNL A   1      35.797  22.423  24.004  1.00  0.00     0.057 A 
ATOM     21  C   UNL A   1      37.526  22.791  25.717  1.00  0.00     0.074 A 
ATOM     22  C   UNL A   1      36.791  23.890  26.140  1.00  0.00     0.030 A 
ATOM     23  C   UNL A   1      35.625  24.281  25.474  1.00  0.00     0.011 A 
BRANCH  19  24
ATOM     24  O   UNL A   1      37.535  20.813  24.272  1.00  0.00    -0.495 OA
ATOM     25  C   UNL A   1      37.062  19.645  24.955  1.00  0.00     0.278 C 
ENDBRANCH  19  24
BRANCH  21  26
ATOM     26  N   UNL A   1      38.707  22.492  26.394  1.00  0.00    -0.396 N 
ATOM     27  H   UNL A   1      39.199  21.664  26.184  1.00  0.00     0.156 HD
ATOM     28  H   UNL A   1      39.051  23.108  27.079  1.00  0.00     0.156 HD
ENDBRANCH  21  26
ENDBRANCH  13  18
BRANCH  17  29
ATOM     29  O   UNL A   1      30.386  25.344  24.475  1.00  0.00    -0.495 OA
ATOM     30  C   UNL A   1      30.169  25.586  25.889  1.00  0.00     0.278 C 
ENDBRANCH  17  29
ENDBRANCH   9  12
ENDBRANCH   7   8
ENDBRANCH   6   7
ENDBRANCH   3   6
ENDBRANCH   1   2
BRANCH   1  31
ATOM     31  C   UNL A   1      34.893  32.274  28.080  1.00  0.00     0.042 C 
BRANCH  31  32
ATOM     32  C   UNL A   1      35.809  32.905  29.151  1.00  0.00     0.118 C 
BRANCH  32  33
ATOM     33  N   UNL A   1      35.809  32.083  30.370  1.00  0.00    -0.352 N 
ATOM     34  C   UNL A   1      36.427  30.922  30.781  1.00  0.00     0.251 C 
ATOM     35  H   UNL A   1      35.221  32.454  31.066  1.00  0.00     0.163 HD
ATOM     36  O   UNL A   1      35.879  30.332  31.719  1.00  0.00    -0.269 OA
BRANCH  34  37
ATOM     37  C   UNL A   1      37.693  30.330  30.241  1.00  0.00     0.039 A 
ATOM     38  C   UNL A   1      38.725  30.064  31.166  1.00  0.00     0.014 A 
ATOM     39  C   UNL A   1      38.000  30.221  28.884  1.00  0.00     0.014 A 
ATOM     40  C   UNL A   1      40.018  29.694  30.750  1.00  0.00     0.010 A 
ATOM     41  C   UNL A   1      39.298  29.823  28.468  1.00  0.00     0.010 A 
ATOM     42  C   UNL A   1      40.329  29.559  29.391  1.00  0.00    -0.014 A 
BRANCH  42  43
ATOM     43  C   UNL A   1      41.709  29.140  28.959  1.00  0.00     0.031 A 
ATOM     44  C   UNL A   1      42.866  30.115  28.928  1.00  0.00     0.074 A 
ATOM     45  C   UNL A   1      41.948  27.862  28.587  1.00  0.00     0.049 A 
ATOM     46  N   UNL A   1      44.109  29.920  28.554  1.00  0.00    -0.248 NA
ATOM     47  C   UNL A   1      42.588  31.489  29.369  1.00  0.00     0.031 C 
ATOM     48  C   UNL A   1      40.948  26.795  28.561  1.00  0.00     0.029 A 
ATOM     49  N   UNL A   1      43.099  27.244  28.153  1.00  0.00    -0.354 N 
ATOM     50  C   UNL A   1      44.759  31.143  28.702  1.00  0.00     0.074 A 
ATOM     51  C   UNL A   1      43.760  32.082  29.172  1.00  0.00     0.031 C 
ATOM     52  C   UNL A   1      41.527  25.657  28.142  1.00  0.00     0.029 A 
ATOM     53  C   UNL A   1      42.933  25.913  27.834  1.00  0.00     0.049 A 
ATOM     54  H   UNL A   1      43.964  27.709  28.077  1.00  0.00     0.167 HD
ATOM     55  C   UNL A   1      46.062  31.458  28.480  1.00  0.00     0.037 A 
ATOM     56  C   UNL A   1      43.796  25.001  27.341  1.00  0.00     0.037 A 
ATOM     57  C   UNL A   1      47.075  30.532  28.033  1.00  0.00     0.049 A 
ATOM     58  C   UNL A   1      45.229  25.379  27.073  1.00  0.00     0.074 A 
ATOM     59  C   UNL A   1      48.427  30.765  27.830  1.00  0.00     0.029 A 
ATOM     60  N   UNL A   1      46.855  29.201  27.713  1.00  0.00    -0.354 N 
ATOM     61  N   UNL A   1      45.824  26.532  27.258  1.00  0.00    -0.248 NA
ATOM     62  C   UNL A   1      46.108  24.331  26.529  1.00  0.00     0.031 C 
ATOM     63  C   UNL A   1      49.014  29.590  27.347  1.00  0.00     0.029 A 
ATOM     64  C   UNL A   1      48.038  28.610  27.291  1.00  0.00     0.049 A 
ATOM     65  H   UNL A   1      45.986  28.742  27.776  1.00  0.00     0.167 HD
ATOM     66  C   UNL A   1      47.151  26.341  26.878  1.00  0.00     0.074 A 
ATOM     67  C   UNL A   1      47.274  24.960  26.464  1.00  0.00     0.031 C 
ATOM     68  C   UNL A   1      48.170  27.234  26.880  1.00  0.00     0.037 A 
BRANCH  55  69
ATOM     69  C   UNL A   1      46.488  32.888  28.710  1.00  0.00     0.058 A 
ATOM     70  C   UNL A   1      46.429  33.848  27.689  1.00  0.00     0.135 A 
ATOM     71  C   UNL A   1      46.901  33.314  29.984  1.00  0.00     0.135 A 
ATOM     72  F   UNL A   1      46.043  33.497  26.452  1.00  0.00    -0.206 F 
ATOM     73  C   UNL A   1      46.800  35.172  27.911  1.00  0.00     0.059 A 
ATOM     74  C   UNL A   1      47.251  34.639  30.236  1.00  0.00     0.059 A 
ATOM     75  F   UNL A   1      46.963  32.443  31.003  1.00  0.00    -0.206 F 
ATOM     76  C   UNL A   1      47.214  35.557  29.188  1.00  0.00     0.060 A 
BRANCH  76  77
ATOM     77  S   UNL A   1      47.704  37.274  29.458  1.00  0.00     0.124 S 
ATOM     78  O   UNL A   1      46.807  37.664  30.542  1.00  0.00    -0.237 OA
ATOM     79  O   UNL A   1      49.113  37.148  29.818  1.00  0.00    -0.237 OA
ATOM     80  O   UNL A   1      47.443  37.909  28.170  1.00  0.00    -0.744 OA
ENDBRANCH  76  77
ENDBRANCH  55  69
BRANCH  56  81
ATOM     81  C   UNL A   1      43.326  23.615  27.062  1.00  0.00     0.058 A 
ATOM     82  C   UNL A   1      43.079  23.184  25.750  1.00  0.00     0.135 A 
ATOM     83  C   UNL A   1      43.118  22.695  28.101  1.00  0.00     0.135 A 
ATOM     84  F   UNL A   1      43.246  24.031  24.723  1.00  0.00    -0.206 F 
ATOM     85  C   UNL A   1      42.635  21.893  25.478  1.00  0.00     0.059 A 
ATOM     86  C   UNL A   1      42.699  21.392  27.853  1.00  0.00     0.059 A 
ATOM     87  F   UNL A   1      43.347  23.056  29.375  1.00  0.00    -0.206 F 
ATOM     88  C   UNL A   1      42.453  21.002  26.537  1.00  0.00     0.060 A 
BRANCH  88  89
ATOM     89  S   UNL A   1      41.925  19.315  26.167  1.00  0.00     0.124 S 
ATOM     90  O   UNL A   1      42.755  18.977  25.045  1.00  0.00    -0.237 OA
ATOM     91  O   UNL A   1      42.219  18.622  27.430  1.00  0.00    -0.237 OA
ATOM     92  O   UNL A   1      40.491  19.473  25.887  1.00  0.00    -0.744 OA
ENDBRANCH  88  89
ENDBRANCH  56  81
BRANCH  68  93
ATOM     93  C   UNL A   1      49.528  26.751  26.444  1.00  0.00     0.058 A 
ATOM     94  C   UNL A   1      50.362  26.015  27.302  1.00  0.00     0.135 A 
ATOM     95  C   UNL A   1      49.981  26.980  25.134  1.00  0.00     0.135 A 
ATOM     96  F   UNL A   1      49.984  25.774  28.567  1.00  0.00    -0.206 F 
ATOM     97  C   UNL A   1      51.602  25.540  26.884  1.00  0.00     0.059 A 
ATOM     98  C   UNL A   1      51.207  26.494  24.687  1.00  0.00     0.059 A 
ATOM     99  F   UNL A   1      49.222  27.670  24.268  1.00  0.00    -0.206 F 
ATOM    100  C   UNL A   1      52.016  25.783  25.572  1.00  0.00     0.060 A 
BRANCH 100 101
ATOM    101  S   UNL A   1      53.608  25.127  25.029  1.00  0.00     0.124 S 
ATOM    102  O   UNL A   1      53.628  25.524  23.625  1.00  0.00    -0.237 OA
ATOM    103  O   UNL A   1      54.549  25.825  25.899  1.00  0.00    -0.237 OA
ATOM    104  O   UNL A   1      53.487  23.692  25.274  1.00  0.00    -0.744 OA
ENDBRANCH 100 101
ENDBRANCH  68  93
ENDBRANCH  42  43
ENDBRANCH  34  37
ENDBRANCH  32  33
ENDBRANCH  31  32
ENDBRANCH   1  31
TORSDOF 20
ENDMDL
