MODEL 1
REMARK VINA RESULT:     -15.0      0.000      0.000
REMARK SMILES COc1cc2ccccc2cc1C(=O)Nc1cc(C(=O)NCCCNC(=O)c2ccc(-c3c4nc(c(-c5c(F)cc(S(=O)(=O)[O-])cc5F)c5ccc([nH]5)c(-c5c(F)cc(S(=O)(=O)[O-])cc5F)c5nc(c(-c6c(F)cc(S(=O)(=O)[O-])cc6F)c6ccc3[nH]6)C=C5)C=C4)cc2)ccc1C
REMARK SMILES IDX 23 1 22 2 21 3 19 4 20 5 18 7 16 8 17 9 96 10 95 11 97 12
REMARK SMILES IDX 94 13 15 14 13 15 14 16 12 18 3 19 4 20 5 21 11 22 6 23
REMARK SMILES IDX 10 24 7 25 9 26 8 27 2 28 1 29 24 30 25 31 26 32 27 34 28 35
REMARK SMILES IDX 29 36 93 37 30 38 92 39 31 40 32 41 33 42 86 43 34 44 91 45
REMARK SMILES IDX 85 46 87 47 35 48 90 49 84 50 83 51 36 53 70 54 49 55 69 56
REMARK SMILES IDX 50 57 53 58 68 59 88 60 51 61 52 62 67 64 89 65 54 66 37 67
REMARK SMILES IDX 38 68 47 69 39 70 40 71 46 72 48 73 41 74 42 75 43 76 44 77
REMARK SMILES IDX 45 78 71 79 72 80 81 81 73 82 74 83 80 84 82 85 75 86 76 87
REMARK SMILES IDX 77 88 78 89 79 90 55 91 56 92 65 93 57 94 58 95 64 96 66 97
REMARK SMILES IDX 59 98 60 99 61 100 62 101 63 102
REMARK H PARENT 21 6 15 17 25 33 87 52 53 63
REMARK Flexibility Score: inf
ROOT
ATOM      1  C   UNL A   1      32.881  29.692  27.202  1.00  0.00     0.042 C 
ENDROOT
BRANCH   1   2
ATOM      2  C   UNL A   1      32.277  29.998  25.831  1.00  0.00     0.118 C 
BRANCH   2   3
ATOM      3  N   UNL A   1      33.221  29.824  24.735  1.00  0.00    -0.352 N 
ATOM      4  C   UNL A   1      33.436  28.819  23.822  1.00  0.00     0.251 C 
ATOM      5  O   UNL A   1      34.241  29.056  22.916  1.00  0.00    -0.269 OA
ATOM      6  H   UNL A   1      33.834  30.586  24.626  1.00  0.00     0.163 HD
BRANCH   4   7
ATOM      7  C   UNL A   1      32.768  27.478  23.834  1.00  0.00     0.041 A 
ATOM      8  C   UNL A   1      31.854  25.482  24.906  1.00  0.00     0.045 A 
ATOM      9  C   UNL A   1      32.577  26.681  24.959  1.00  0.00     0.040 A 
ATOM     10  C   UNL A   1      31.450  24.957  23.670  1.00  0.00    -0.027 A 
ATOM     11  C   UNL A   1      31.651  25.740  22.526  1.00  0.00     0.006 A 
ATOM     12  C   UNL A   1      30.660  23.686  23.535  1.00  0.00     0.046 C 
ATOM     13  C   UNL A   1      32.282  26.988  22.611  1.00  0.00     0.014 A 
BRANCH   8  14
ATOM     14  N   UNL A   1      31.487  24.831  26.096  1.00  0.00    -0.322 N 
ATOM     15  C   UNL A   1      31.937  23.649  26.655  1.00  0.00     0.259 C 
ATOM     16  O   UNL A   1      31.312  23.205  27.622  1.00  0.00    -0.269 OA
ATOM     17  H   UNL A   1      30.794  25.293  26.620  1.00  0.00     0.170 HD
BRANCH  15  18
ATOM     18  C   UNL A   1      33.179  22.933  26.229  1.00  0.00     0.082 A 
ATOM     19  C   UNL A   1      33.230  21.670  25.620  1.00  0.00     0.132 A 
ATOM     20  C   UNL A   1      34.460  21.065  25.332  1.00  0.00     0.056 A 
ATOM     21  C   UNL A   1      35.662  21.751  25.530  1.00  0.00    -0.015 A 
ATOM     22  C   UNL A   1      34.386  23.634  26.398  1.00  0.00     0.026 A 
ATOM     23  C   UNL A   1      36.896  21.154  25.233  1.00  0.00     0.009 A 
ATOM     24  C   UNL A   1      35.624  23.068  26.037  1.00  0.00    -0.017 A 
ATOM     25  C   UNL A   1      38.082  21.870  25.388  1.00  0.00     0.001 A 
ATOM     26  C   UNL A   1      36.826  23.775  26.182  1.00  0.00     0.009 A 
ATOM     27  C   UNL A   1      38.043  23.182  25.847  1.00  0.00     0.001 A 
BRANCH  19  28
ATOM     28  O   UNL A   1      32.136  20.896  25.343  1.00  0.00    -0.496 OA
ATOM     29  C   UNL A   1      32.326  20.129  24.161  1.00  0.00     0.278 C 
ENDBRANCH  19  28
ENDBRANCH  15  18
ENDBRANCH   8  14
ENDBRANCH   4   7
ENDBRANCH   2   3
ENDBRANCH   1   2
BRANCH   1  30
ATOM     30  C   UNL A   1      34.399  29.648  27.181  1.00  0.00     0.118 C 
BRANCH  30  31
ATOM     31  N   UNL A   1      35.019  30.833  27.768  1.00  0.00    -0.352 N 
ATOM     32  C   UNL A   1      36.262  30.916  28.385  1.00  0.00     0.251 C 
ATOM     33  H   UNL A   1      34.499  31.668  27.720  1.00  0.00     0.163 HD
ATOM     34  O   UNL A   1      36.666  31.920  28.922  1.00  0.00    -0.269 OA
BRANCH  32  35
ATOM     35  C   UNL A   1      37.107  29.705  28.278  1.00  0.00     0.039 A 
ATOM     36  C   UNL A   1      37.261  28.930  29.431  1.00  0.00     0.014 A 
ATOM     37  C   UNL A   1      37.996  29.609  27.211  1.00  0.00     0.014 A 
ATOM     38  C   UNL A   1      38.433  28.198  29.603  1.00  0.00     0.010 A 
ATOM     39  C   UNL A   1      39.199  28.966  27.431  1.00  0.00     0.010 A 
ATOM     40  C   UNL A   1      39.443  28.304  28.648  1.00  0.00    -0.014 A 
BRANCH  40  41
ATOM     41  C   UNL A   1      40.814  27.837  28.861  1.00  0.00     0.031 A 
ATOM     42  C   UNL A   1      41.190  26.456  28.475  1.00  0.00     0.074 A 
ATOM     43  C   UNL A   1      41.766  28.672  29.332  1.00  0.00     0.049 A 
ATOM     44  N   UNL A   1      42.277  25.857  28.827  1.00  0.00    -0.248 NA
ATOM     45  C   UNL A   1      40.305  25.608  27.688  1.00  0.00     0.031 C 
ATOM     46  C   UNL A   1      43.213  28.476  29.274  1.00  0.00     0.029 A 
ATOM     47  N   UNL A   1      41.603  29.783  30.161  1.00  0.00    -0.354 N 
ATOM     48  C   UNL A   1      42.367  24.676  28.122  1.00  0.00     0.074 A 
ATOM     49  C   UNL A   1      41.086  24.549  27.471  1.00  0.00     0.031 C 
ATOM     50  C   UNL A   1      43.795  29.241  30.208  1.00  0.00     0.029 A 
ATOM     51  C   UNL A   1      42.741  29.853  30.994  1.00  0.00     0.049 A 
ATOM     52  H   UNL A   1      40.838  30.402  30.165  1.00  0.00     0.167 HD
ATOM     53  C   UNL A   1      43.558  24.006  28.095  1.00  0.00     0.037 A 
ATOM     54  C   UNL A   1      42.618  29.741  32.351  1.00  0.00     0.037 A 
ATOM     55  C   UNL A   1      44.502  24.568  29.067  1.00  0.00     0.049 A 
ATOM     56  C   UNL A   1      43.239  28.493  32.943  1.00  0.00     0.074 A 
ATOM     57  C   UNL A   1      45.581  25.433  29.001  1.00  0.00     0.029 A 
ATOM     58  N   UNL A   1      44.203  24.442  30.413  1.00  0.00    -0.354 N 
ATOM     59  N   UNL A   1      43.914  27.604  32.266  1.00  0.00    -0.248 NA
ATOM     60  C   UNL A   1      43.074  28.110  34.348  1.00  0.00     0.031 C 
ATOM     61  C   UNL A   1      45.885  25.869  30.326  1.00  0.00     0.029 A 
ATOM     62  C   UNL A   1      44.994  25.264  31.193  1.00  0.00     0.049 A 
ATOM     63  H   UNL A   1      43.512  23.839  30.771  1.00  0.00     0.167 HD
ATOM     64  C   UNL A   1      44.166  26.523  33.069  1.00  0.00     0.074 A 
ATOM     65  C   UNL A   1      43.659  26.900  34.374  1.00  0.00     0.031 C 
ATOM     66  C   UNL A   1      44.714  25.361  32.616  1.00  0.00     0.037 A 
BRANCH  53  67
ATOM     67  C   UNL A   1      43.947  22.979  27.041  1.00  0.00     0.058 A 
ATOM     68  C   UNL A   1      43.151  21.830  26.833  1.00  0.00     0.135 A 
ATOM     69  C   UNL A   1      45.119  23.012  26.259  1.00  0.00     0.135 A 
ATOM     70  F   UNL A   1      41.956  21.689  27.422  1.00  0.00    -0.206 F 
ATOM     71  C   UNL A   1      43.543  20.762  26.018  1.00  0.00     0.059 A 
ATOM     72  C   UNL A   1      45.563  21.937  25.484  1.00  0.00     0.059 A 
ATOM     73  F   UNL A   1      45.864  24.115  26.147  1.00  0.00    -0.206 F 
ATOM     74  C   UNL A   1      44.774  20.806  25.379  1.00  0.00     0.060 A 
BRANCH  74  75
ATOM     75  S   UNL A   1      45.315  19.393  24.402  1.00  0.00     0.124 S 
ATOM     76  O   UNL A   1      44.934  18.268  25.252  1.00  0.00    -0.237 OA
ATOM     77  O   UNL A   1      44.542  19.556  23.176  1.00  0.00    -0.237 OA
ATOM     78  O   UNL A   1      46.754  19.604  24.267  1.00  0.00    -0.744 OA
ENDBRANCH  74  75
ENDBRANCH  53  67
BRANCH  54  79
ATOM     79  C   UNL A   1      41.401  30.430  32.861  1.00  0.00     0.058 A 
ATOM     80  C   UNL A   1      40.287  29.624  33.169  1.00  0.00     0.135 A 
ATOM     81  C   UNL A   1      41.478  31.695  33.455  1.00  0.00     0.135 A 
ATOM     82  F   UNL A   1      40.157  28.411  32.607  1.00  0.00    -0.206 F 
ATOM     83  C   UNL A   1      39.392  29.978  34.169  1.00  0.00     0.059 A 
ATOM     84  C   UNL A   1      40.579  32.078  34.448  1.00  0.00     0.059 A 
ATOM     85  F   UNL A   1      42.516  32.504  33.194  1.00  0.00    -0.206 F 
ATOM     86  C   UNL A   1      39.592  31.177  34.849  1.00  0.00     0.060 A 
BRANCH  86  87
ATOM     87  S   UNL A   1      38.680  31.436  36.386  1.00  0.00     0.124 S 
ATOM     88  O   UNL A   1      38.303  30.073  36.744  1.00  0.00    -0.237 OA
ATOM     89  O   UNL A   1      39.700  32.064  37.226  1.00  0.00    -0.237 OA
ATOM     90  O   UNL A   1      37.581  32.305  35.983  1.00  0.00    -0.744 OA
ENDBRANCH  86  87
ENDBRANCH  54  79
BRANCH  66  91
ATOM     91  C   UNL A   1      45.009  24.209  33.525  1.00  0.00     0.058 A 
ATOM     92  C   UNL A   1      46.216  24.132  34.237  1.00  0.00     0.135 A 
ATOM     93  C   UNL A   1      44.152  23.094  33.607  1.00  0.00     0.135 A 
ATOM     94  F   UNL A   1      47.096  25.145  34.198  1.00  0.00    -0.206 F 
ATOM     95  C   UNL A   1      46.553  23.014  34.999  1.00  0.00     0.059 A 
ATOM     96  C   UNL A   1      44.485  21.950  34.327  1.00  0.00     0.059 A 
ATOM     97  F   UNL A   1      42.954  23.099  33.002  1.00  0.00    -0.206 F 
ATOM     98  C   UNL A   1      45.684  21.924  35.031  1.00  0.00     0.060 A 
BRANCH  98  99
ATOM     99  S   UNL A   1      46.140  20.449  35.965  1.00  0.00     0.124 S 
ATOM    100  O   UNL A   1      45.295  19.415  35.371  1.00  0.00    -0.237 OA
ATOM    101  O   UNL A   1      47.564  20.345  35.668  1.00  0.00    -0.237 OA
ATOM    102  O   UNL A   1      45.803  20.807  37.339  1.00  0.00    -0.744 OA
ENDBRANCH  98  99
ENDBRANCH  66  91
ENDBRANCH  40  41
ENDBRANCH  32  35
ENDBRANCH  30  31
ENDBRANCH   1  30
TORSDOF 16
ENDMDL
MODEL 2
REMARK VINA RESULT:     -14.7      4.767     11.264
REMARK SMILES COc1cc2ccccc2cc1C(=O)Nc1cc(C(=O)NCCCNC(=O)c2ccc(-c3c4nc(c(-c5c(F)cc(S(=O)(=O)[O-])cc5F)c5ccc([nH]5)c(-c5c(F)cc(S(=O)(=O)[O-])cc5F)c5nc(c(-c6c(F)cc(S(=O)(=O)[O-])cc6F)c6ccc3[nH]6)C=C5)C=C4)cc2)ccc1C
REMARK SMILES IDX 23 1 22 2 21 3 19 4 20 5 18 7 16 8 17 9 96 10 95 11 97 12
REMARK SMILES IDX 94 13 15 14 13 15 14 16 12 18 3 19 4 20 5 21 11 22 6 23
REMARK SMILES IDX 10 24 7 25 9 26 8 27 2 28 1 29 24 30 25 31 26 32 27 34 28 35
REMARK SMILES IDX 29 36 93 37 30 38 92 39 31 40 32 41 33 42 86 43 34 44 91 45
REMARK SMILES IDX 85 46 87 47 35 48 90 49 84 50 83 51 36 53 70 54 49 55 69 56
REMARK SMILES IDX 50 57 53 58 68 59 88 60 51 61 52 62 67 64 89 65 54 66 37 67
REMARK SMILES IDX 38 68 47 69 39 70 40 71 46 72 48 73 41 74 42 75 43 76 44 77
REMARK SMILES IDX 45 78 71 79 72 80 81 81 73 82 74 83 80 84 82 85 75 86 76 87
REMARK SMILES IDX 77 88 78 89 79 90 55 91 56 92 65 93 57 94 58 95 64 96 66 97
REMARK SMILES IDX 59 98 60 99 61 100 62 101 63 102
REMARK H PARENT 21 6 15 17 25 33 87 52 53 63
REMARK Flexibility Score: inf
ROOT
ATOM      1  C   UNL A   1      37.919  21.848  25.448  1.00  0.00     0.042 C 
ENDROOT
BRANCH   1   2
ATOM      2  C   UNL A   1      36.400  21.889  25.273  1.00  0.00     0.118 C 
BRANCH   2   3
ATOM      3  N   UNL A   1      35.681  22.060  26.528  1.00  0.00    -0.352 N 
ATOM      4  C   UNL A   1      34.411  22.485  26.840  1.00  0.00     0.251 C 
ATOM      5  O   UNL A   1      34.064  22.374  28.019  1.00  0.00    -0.269 OA
ATOM      6  H   UNL A   1      36.217  21.822  27.318  1.00  0.00     0.163 HD
BRANCH   4   7
ATOM      7  C   UNL A   1      33.423  23.056  25.868  1.00  0.00     0.041 A 
ATOM      8  C   UNL A   1      32.761  24.351  23.906  1.00  0.00     0.045 A 
ATOM      9  C   UNL A   1      33.724  23.938  24.835  1.00  0.00     0.040 A 
ATOM     10  C   UNL A   1      31.411  24.022  24.097  1.00  0.00    -0.027 A 
ATOM     11  C   UNL A   1      31.091  23.147  25.144  1.00  0.00     0.006 A 
ATOM     12  C   UNL A   1      30.324  24.414  23.137  1.00  0.00     0.046 C 
ATOM     13  C   UNL A   1      32.083  22.658  26.001  1.00  0.00     0.014 A 
BRANCH   8  14
ATOM     14  N   UNL A   1      33.153  25.051  22.752  1.00  0.00    -0.322 N 
ATOM     15  C   UNL A   1      33.015  26.383  22.413  1.00  0.00     0.259 C 
ATOM     16  O   UNL A   1      33.282  26.704  21.251  1.00  0.00    -0.269 OA
ATOM     17  H   UNL A   1      33.601  24.500  22.071  1.00  0.00     0.170 HD
BRANCH  15  18
ATOM     18  C   UNL A   1      32.661  27.468  23.380  1.00  0.00     0.082 A 
ATOM     19  C   UNL A   1      31.465  28.203  23.387  1.00  0.00     0.132 A 
ATOM     20  C   UNL A   1      31.275  29.249  24.299  1.00  0.00     0.056 A 
ATOM     21  C   UNL A   1      32.215  29.508  25.301  1.00  0.00    -0.015 A 
ATOM     22  C   UNL A   1      33.590  27.709  24.407  1.00  0.00     0.026 A 
ATOM     23  C   UNL A   1      32.025  30.547  26.224  1.00  0.00     0.009 A 
ATOM     24  C   UNL A   1      33.373  28.704  25.380  1.00  0.00    -0.017 A 
ATOM     25  C   UNL A   1      32.946  30.760  27.248  1.00  0.00     0.001 A 
ATOM     26  C   UNL A   1      34.287  28.928  26.419  1.00  0.00     0.009 A 
ATOM     27  C   UNL A   1      34.065  29.941  27.352  1.00  0.00     0.001 A 
BRANCH  19  28
ATOM     28  O   UNL A   1      30.449  28.042  22.485  1.00  0.00    -0.496 OA
ATOM     29  C   UNL A   1      29.184  27.980  23.132  1.00  0.00     0.278 C 
ENDBRANCH  19  28
ENDBRANCH  15  18
ENDBRANCH   8  14
ENDBRANCH   4   7
ENDBRANCH   2   3
ENDBRANCH   1   2
BRANCH   1  30
ATOM     30  C   UNL A   1      38.470  23.103  26.103  1.00  0.00     0.118 C 
BRANCH  30  31
ATOM     31  N   UNL A   1      39.869  22.976  26.505  1.00  0.00    -0.352 N 
ATOM     32  C   UNL A   1      40.701  23.980  26.988  1.00  0.00     0.251 C 
ATOM     33  H   UNL A   1      40.267  22.079  26.427  1.00  0.00     0.163 HD
ATOM     34  O   UNL A   1      41.874  23.809  27.219  1.00  0.00    -0.269 OA
BRANCH  32  35
ATOM     35  C   UNL A   1      40.037  25.270  27.281  1.00  0.00     0.039 A 
ATOM     36  C   UNL A   1      40.414  26.372  26.507  1.00  0.00     0.014 A 
ATOM     37  C   UNL A   1      39.402  25.426  28.509  1.00  0.00     0.014 A 
ATOM     38  C   UNL A   1      40.338  27.647  27.061  1.00  0.00     0.010 A 
ATOM     39  C   UNL A   1      39.425  26.678  29.092  1.00  0.00     0.010 A 
ATOM     40  C   UNL A   1      39.942  27.782  28.391  1.00  0.00    -0.014 A 
BRANCH  40  41
ATOM     41  C   UNL A   1      40.112  29.013  29.166  1.00  0.00     0.031 A 
ATOM     42  C   UNL A   1      39.084  30.079  29.092  1.00  0.00     0.074 A 
ATOM     43  C   UNL A   1      41.154  29.160  30.014  1.00  0.00     0.049 A 
ATOM     44  N   UNL A   1      39.232  31.284  29.527  1.00  0.00    -0.248 NA
ATOM     45  C   UNL A   1      37.797  29.863  28.446  1.00  0.00     0.031 C 
ATOM     46  C   UNL A   1      41.281  30.142  31.088  1.00  0.00     0.029 A 
ATOM     47  N   UNL A   1      42.421  28.578  29.931  1.00  0.00    -0.354 N 
ATOM     48  C   UNL A   1      38.011  31.919  29.465  1.00  0.00     0.074 A 
ATOM     49  C   UNL A   1      37.168  31.004  28.733  1.00  0.00     0.031 C 
ATOM     50  C   UNL A   1      42.577  30.290  31.395  1.00  0.00     0.029 A 
ATOM     51  C   UNL A   1      43.346  29.515  30.440  1.00  0.00     0.049 A 
ATOM     52  H   UNL A   1      42.629  27.681  29.582  1.00  0.00     0.167 HD
ATOM     53  C   UNL A   1      37.838  33.097  30.135  1.00  0.00     0.037 A 
ATOM     54  C   UNL A   1      44.333  30.022  29.642  1.00  0.00     0.037 A 
ATOM     55  C   UNL A   1      39.118  33.620  30.624  1.00  0.00     0.049 A 
ATOM     56  C   UNL A   1      44.206  31.501  29.338  1.00  0.00     0.074 A 
ATOM     57  C   UNL A   1      39.777  33.624  31.842  1.00  0.00     0.029 A 
ATOM     58  N   UNL A   1      40.054  34.027  29.689  1.00  0.00    -0.354 N 
ATOM     59  N   UNL A   1      43.289  32.287  29.833  1.00  0.00    -0.248 NA
ATOM     60  C   UNL A   1      45.067  32.193  28.375  1.00  0.00     0.031 C 
ATOM     61  C   UNL A   1      41.139  33.983  31.610  1.00  0.00     0.029 A 
ATOM     62  C   UNL A   1      41.303  34.202  30.256  1.00  0.00     0.049 A 
ATOM     63  H   UNL A   1      39.855  34.176  28.736  1.00  0.00     0.167 HD
ATOM     64  C   UNL A   1      43.353  33.504  29.207  1.00  0.00     0.074 A 
ATOM     65  C   UNL A   1      44.506  33.414  28.332  1.00  0.00     0.031 C 
ATOM     66  C   UNL A   1      42.432  34.491  29.387  1.00  0.00     0.037 A 
BRANCH  53  67
ATOM     67  C   UNL A   1      36.487  33.672  30.536  1.00  0.00     0.058 A 
ATOM     68  C   UNL A   1      35.600  34.169  29.555  1.00  0.00     0.135 A 
ATOM     69  C   UNL A   1      36.029  33.841  31.859  1.00  0.00     0.135 A 
ATOM     70  F   UNL A   1      35.836  34.000  28.246  1.00  0.00    -0.206 F 
ATOM     71  C   UNL A   1      34.431  34.874  29.863  1.00  0.00     0.059 A 
ATOM     72  C   UNL A   1      34.899  34.590  32.197  1.00  0.00     0.059 A 
ATOM     73  F   UNL A   1      36.613  33.230  32.893  1.00  0.00    -0.206 F 
ATOM     74  C   UNL A   1      34.109  35.117  31.190  1.00  0.00     0.060 A 
BRANCH  74  75
ATOM     75  S   UNL A   1      32.652  36.101  31.583  1.00  0.00     0.124 S 
ATOM     76  O   UNL A   1      33.225  37.211  32.338  1.00  0.00    -0.237 OA
ATOM     77  O   UNL A   1      32.141  36.430  30.257  1.00  0.00    -0.237 OA
ATOM     78  O   UNL A   1      31.823  35.185  32.362  1.00  0.00    -0.744 OA
ENDBRANCH  74  75
ENDBRANCH  53  67
BRANCH  54  79
ATOM     79  C   UNL A   1      44.895  28.994  28.725  1.00  0.00     0.058 A 
ATOM     80  C   UNL A   1      44.362  28.933  27.422  1.00  0.00     0.135 A 
ATOM     81  C   UNL A   1      46.166  28.447  28.938  1.00  0.00     0.135 A 
ATOM     82  F   UNL A   1      43.137  29.424  27.172  1.00  0.00    -0.206 F 
ATOM     83  C   UNL A   1      45.133  28.525  26.342  1.00  0.00     0.059 A 
ATOM     84  C   UNL A   1      46.950  28.015  27.870  1.00  0.00     0.059 A 
ATOM     85  F   UNL A   1      46.719  28.475  30.160  1.00  0.00    -0.206 F 
ATOM     86  C   UNL A   1      46.450  28.135  26.573  1.00  0.00     0.060 A 
BRANCH  86  87
ATOM     87  S   UNL A   1      47.549  27.992  25.148  1.00  0.00     0.124 S 
ATOM     88  O   UNL A   1      47.610  26.546  24.961  1.00  0.00    -0.237 OA
ATOM     89  O   UNL A   1      46.808  28.742  24.134  1.00  0.00    -0.237 OA
ATOM     90  O   UNL A   1      48.782  28.617  25.609  1.00  0.00    -0.744 OA
ENDBRANCH  86  87
ENDBRANCH  54  79
BRANCH  66  91
ATOM     91  C   UNL A   1      42.547  35.823  28.714  1.00  0.00     0.058 A 
ATOM     92  C   UNL A   1      43.067  36.939  29.389  1.00  0.00     0.135 A 
ATOM     93  C   UNL A   1      42.023  36.048  27.426  1.00  0.00     0.135 A 
ATOM     94  F   UNL A   1      43.569  36.813  30.628  1.00  0.00    -0.206 F 
ATOM     95  C   UNL A   1      43.076  38.210  28.815  1.00  0.00     0.059 A 
ATOM     96  C   UNL A   1      41.985  37.314  26.849  1.00  0.00     0.059 A 
ATOM     97  F   UNL A   1      41.554  35.032  26.685  1.00  0.00    -0.206 F 
ATOM     98  C   UNL A   1      42.526  38.389  27.547  1.00  0.00     0.060 A 
BRANCH  98  99
ATOM     99  S   UNL A   1      42.479  40.040  26.820  1.00  0.00     0.124 S 
ATOM    100  O   UNL A   1      42.652  40.910  27.981  1.00  0.00    -0.237 OA
ATOM    101  O   UNL A   1      43.610  39.984  25.900  1.00  0.00    -0.237 OA
ATOM    102  O   UNL A   1      41.160  40.093  26.199  1.00  0.00    -0.744 OA
ENDBRANCH  98  99
ENDBRANCH  66  91
ENDBRANCH  40  41
ENDBRANCH  32  35
ENDBRANCH  30  31
ENDBRANCH   1  30
TORSDOF 16
ENDMDL
MODEL 3
REMARK VINA RESULT:     -14.6      4.672     11.238
REMARK SMILES COc1cc2ccccc2cc1C(=O)Nc1cc(C(=O)NCCCNC(=O)c2ccc(-c3c4nc(c(-c5c(F)cc(S(=O)(=O)[O-])cc5F)c5ccc([nH]5)c(-c5c(F)cc(S(=O)(=O)[O-])cc5F)c5nc(c(-c6c(F)cc(S(=O)(=O)[O-])cc6F)c6ccc3[nH]6)C=C5)C=C4)cc2)ccc1C
REMARK SMILES IDX 23 1 22 2 21 3 19 4 20 5 18 7 16 8 17 9 96 10 95 11 97 12
REMARK SMILES IDX 94 13 15 14 13 15 14 16 12 18 3 19 4 20 5 21 11 22 6 23
REMARK SMILES IDX 10 24 7 25 9 26 8 27 2 28 1 29 24 30 25 31 26 32 27 34 28 35
REMARK SMILES IDX 29 36 93 37 30 38 92 39 31 40 32 41 33 42 86 43 34 44 91 45
REMARK SMILES IDX 85 46 87 47 35 48 90 49 84 50 83 51 36 53 70 54 49 55 69 56
REMARK SMILES IDX 50 57 53 58 68 59 88 60 51 61 52 62 67 64 89 65 54 66 37 67
REMARK SMILES IDX 38 68 47 69 39 70 40 71 46 72 48 73 41 74 42 75 43 76 44 77
REMARK SMILES IDX 45 78 71 79 72 80 81 81 73 82 74 83 80 84 82 85 75 86 76 87
REMARK SMILES IDX 77 88 78 89 79 90 55 91 56 92 65 93 57 94 58 95 64 96 66 97
REMARK SMILES IDX 59 98 60 99 61 100 62 101 63 102
REMARK H PARENT 21 6 15 17 25 33 87 52 53 63
REMARK Flexibility Score: inf
ROOT
ATOM      1  C   UNL A   1      37.927  21.968  25.706  1.00  0.00     0.042 C 
ENDROOT
BRANCH   1   2
ATOM      2  C   UNL A   1      36.431  22.089  25.415  1.00  0.00     0.118 C 
BRANCH   2   3
ATOM      3  N   UNL A   1      35.607  22.056  26.616  1.00  0.00    -0.352 N 
ATOM      4  C   UNL A   1      34.287  22.349  26.866  1.00  0.00     0.251 C 
ATOM      5  O   UNL A   1      33.861  22.071  27.991  1.00  0.00    -0.269 OA
ATOM      6  H   UNL A   1      36.098  21.761  27.416  1.00  0.00     0.163 HD
BRANCH   4   7
ATOM      7  C   UNL A   1      33.333  22.962  25.886  1.00  0.00     0.041 A 
ATOM      8  C   UNL A   1      32.745  24.294  23.924  1.00  0.00     0.045 A 
ATOM      9  C   UNL A   1      33.680  23.839  24.863  1.00  0.00     0.040 A 
ATOM     10  C   UNL A   1      31.381  24.014  24.097  1.00  0.00    -0.027 A 
ATOM     11  C   UNL A   1      31.015  23.145  25.134  1.00  0.00     0.006 A 
ATOM     12  C   UNL A   1      30.322  24.453  23.126  1.00  0.00     0.046 C 
ATOM     13  C   UNL A   1      31.978  22.614  26.000  1.00  0.00     0.014 A 
BRANCH   8  14
ATOM     14  N   UNL A   1      33.177  24.985  22.780  1.00  0.00    -0.322 N 
ATOM     15  C   UNL A   1      33.075  26.321  22.440  1.00  0.00     0.259 C 
ATOM     16  O   UNL A   1      33.375  26.637  21.285  1.00  0.00    -0.269 OA
ATOM     17  H   UNL A   1      33.628  24.425  22.108  1.00  0.00     0.170 HD
BRANCH  15  18
ATOM     18  C   UNL A   1      32.723  27.412  23.400  1.00  0.00     0.082 A 
ATOM     19  C   UNL A   1      31.532  28.153  23.400  1.00  0.00     0.132 A 
ATOM     20  C   UNL A   1      31.344  29.204  24.306  1.00  0.00     0.056 A 
ATOM     21  C   UNL A   1      32.283  29.464  25.309  1.00  0.00    -0.015 A 
ATOM     22  C   UNL A   1      33.651  27.654  24.428  1.00  0.00     0.026 A 
ATOM     23  C   UNL A   1      32.094  30.510  26.226  1.00  0.00     0.009 A 
ATOM     24  C   UNL A   1      33.436  28.655  25.395  1.00  0.00    -0.017 A 
ATOM     25  C   UNL A   1      33.014  30.723  27.251  1.00  0.00     0.001 A 
ATOM     26  C   UNL A   1      34.348  28.881  26.435  1.00  0.00     0.009 A 
ATOM     27  C   UNL A   1      34.129  29.900  27.363  1.00  0.00     0.001 A 
BRANCH  19  28
ATOM     28  O   UNL A   1      30.517  27.992  22.497  1.00  0.00    -0.496 OA
ATOM     29  C   UNL A   1      29.243  28.057  23.126  1.00  0.00     0.278 C 
ENDBRANCH  19  28
ENDBRANCH  15  18
ENDBRANCH   8  14
ENDBRANCH   4   7
ENDBRANCH   2   3
ENDBRANCH   1   2
BRANCH   1  30
ATOM     30  C   UNL A   1      38.553  23.286  26.129  1.00  0.00     0.118 C 
BRANCH  30  31
ATOM     31  N   UNL A   1      39.956  23.159  26.517  1.00  0.00    -0.352 N 
ATOM     32  C   UNL A   1      40.801  24.170  26.962  1.00  0.00     0.251 C 
ATOM     33  H   UNL A   1      40.347  22.258  26.457  1.00  0.00     0.163 HD
ATOM     34  O   UNL A   1      41.976  23.996  27.182  1.00  0.00    -0.269 OA
BRANCH  32  35
ATOM     35  C   UNL A   1      40.150  25.472  27.229  1.00  0.00     0.039 A 
ATOM     36  C   UNL A   1      40.599  26.572  26.492  1.00  0.00     0.014 A 
ATOM     37  C   UNL A   1      39.445  25.630  28.418  1.00  0.00     0.014 A 
ATOM     38  C   UNL A   1      40.518  27.843  27.055  1.00  0.00     0.010 A 
ATOM     39  C   UNL A   1      39.461  26.876  29.016  1.00  0.00     0.010 A 
ATOM     40  C   UNL A   1      40.045  27.974  28.360  1.00  0.00    -0.014 A 
BRANCH  40  41
ATOM     41  C   UNL A   1      40.196  29.193  29.158  1.00  0.00     0.031 A 
ATOM     42  C   UNL A   1      39.131  30.225  29.136  1.00  0.00     0.074 A 
ATOM     43  C   UNL A   1      41.255  29.356  29.981  1.00  0.00     0.049 A 
ATOM     44  N   UNL A   1      39.251  31.425  29.594  1.00  0.00    -0.248 NA
ATOM     45  C   UNL A   1      37.835  29.981  28.519  1.00  0.00     0.031 C 
ATOM     46  C   UNL A   1      41.378  30.318  31.074  1.00  0.00     0.029 A 
ATOM     47  N   UNL A   1      42.537  28.819  29.852  1.00  0.00    -0.354 N 
ATOM     48  C   UNL A   1      38.009  32.019  29.578  1.00  0.00     0.074 A 
ATOM     49  C   UNL A   1      37.177  31.093  28.848  1.00  0.00     0.031 C 
ATOM     50  C   UNL A   1      42.676  30.503  31.350  1.00  0.00     0.029 A 
ATOM     51  C   UNL A   1      43.444  29.775  30.358  1.00  0.00     0.049 A 
ATOM     52  H   UNL A   1      42.765  27.937  29.477  1.00  0.00     0.167 HD
ATOM     53  C   UNL A   1      37.815  33.176  30.279  1.00  0.00     0.037 A 
ATOM     54  C   UNL A   1      44.392  30.332  29.546  1.00  0.00     0.037 A 
ATOM     55  C   UNL A   1      39.090  33.731  30.746  1.00  0.00     0.049 A 
ATOM     56  C   UNL A   1      44.208  31.812  29.278  1.00  0.00     0.074 A 
ATOM     57  C   UNL A   1      39.781  33.730  31.946  1.00  0.00     0.029 A 
ATOM     58  N   UNL A   1      39.987  34.190  29.796  1.00  0.00    -0.354 N 
ATOM     59  N   UNL A   1      43.280  32.556  29.816  1.00  0.00    -0.248 NA
ATOM     60  C   UNL A   1      45.019  32.554  28.309  1.00  0.00     0.031 C 
ATOM     61  C   UNL A   1      41.124  34.140  31.687  1.00  0.00     0.029 A 
ATOM     62  C   UNL A   1      41.243  34.394  30.334  1.00  0.00     0.049 A 
ATOM     63  H   UNL A   1      39.757  34.353  28.852  1.00  0.00     0.167 HD
ATOM     64  C   UNL A   1      43.287  33.788  29.216  1.00  0.00     0.074 A 
ATOM     65  C   UNL A   1      44.418  33.756  28.309  1.00  0.00     0.031 C 
ATOM     66  C   UNL A   1      42.339  34.739  29.443  1.00  0.00     0.037 A 
BRANCH  53  67
ATOM     67  C   UNL A   1      36.457  33.696  30.729  1.00  0.00     0.058 A 
ATOM     68  C   UNL A   1      35.532  34.194  29.783  1.00  0.00     0.135 A 
ATOM     69  C   UNL A   1      36.027  33.813  32.066  1.00  0.00     0.135 A 
ATOM     70  F   UNL A   1      35.741  34.070  28.466  1.00  0.00    -0.206 F 
ATOM     71  C   UNL A   1      34.349  34.853  30.140  1.00  0.00     0.059 A 
ATOM     72  C   UNL A   1      34.882  34.516  32.452  1.00  0.00     0.059 A 
ATOM     73  F   UNL A   1      36.654  33.191  33.068  1.00  0.00    -0.206 F 
ATOM     74  C   UNL A   1      34.053  35.047  31.481  1.00  0.00     0.060 A 
BRANCH  74  75
ATOM     75  S   UNL A   1      32.576  35.973  31.936  1.00  0.00     0.124 S 
ATOM     76  O   UNL A   1      33.102  36.936  32.899  1.00  0.00    -0.237 OA
ATOM     77  O   UNL A   1      32.153  36.521  30.653  1.00  0.00    -0.237 OA
ATOM     78  O   UNL A   1      31.696  34.953  32.501  1.00  0.00    -0.744 OA
ENDBRANCH  74  75
ENDBRANCH  53  67
BRANCH  54  79
ATOM     79  C   UNL A   1      44.962  29.343  28.591  1.00  0.00     0.058 A 
ATOM     80  C   UNL A   1      46.022  28.539  29.053  1.00  0.00     0.135 A 
ATOM     81  C   UNL A   1      44.224  28.886  27.493  1.00  0.00     0.135 A 
ATOM     82  F   UNL A   1      46.774  28.945  30.090  1.00  0.00    -0.206 F 
ATOM     83  C   UNL A   1      46.217  27.251  28.573  1.00  0.00     0.059 A 
ATOM     84  C   UNL A   1      44.416  27.603  26.983  1.00  0.00     0.059 A 
ATOM     85  F   UNL A   1      43.206  29.614  27.010  1.00  0.00    -0.206 F 
ATOM     86  C   UNL A   1      45.360  26.771  27.585  1.00  0.00     0.060 A 
BRANCH  86  87
ATOM     87  S   UNL A   1      45.364  24.996  27.256  1.00  0.00     0.124 S 
ATOM     88  O   UNL A   1      44.584  24.918  26.026  1.00  0.00    -0.237 OA
ATOM     89  O   UNL A   1      46.796  24.727  27.130  1.00  0.00    -0.237 OA
ATOM     90  O   UNL A   1      44.726  24.432  28.440  1.00  0.00    -0.744 OA
ENDBRANCH  86  87
ENDBRANCH  54  79
BRANCH  66  91
ATOM     91  C   UNL A   1      42.392  36.089  28.797  1.00  0.00     0.058 A 
ATOM     92  C   UNL A   1      41.813  36.320  27.539  1.00  0.00     0.135 A 
ATOM     93  C   UNL A   1      43.132  37.148  29.358  1.00  0.00     0.135 A 
ATOM     94  F   UNL A   1      41.106  35.356  26.927  1.00  0.00    -0.206 F 
ATOM     95  C   UNL A   1      41.951  37.538  26.876  1.00  0.00     0.059 A 
ATOM     96  C   UNL A   1      43.318  38.358  28.697  1.00  0.00     0.059 A 
ATOM     97  F   UNL A   1      43.677  37.037  30.580  1.00  0.00    -0.206 F 
ATOM     98  C   UNL A   1      42.713  38.549  27.460  1.00  0.00     0.060 A 
BRANCH  98  99
ATOM     99  S   UNL A   1      42.947  40.108  26.582  1.00  0.00     0.124 S 
ATOM    100  O   UNL A   1      41.719  40.229  25.800  1.00  0.00    -0.237 OA
ATOM    101  O   UNL A   1      43.084  41.048  27.690  1.00  0.00    -0.237 OA
ATOM    102  O   UNL A   1      44.156  39.871  25.800  1.00  0.00    -0.744 OA
ENDBRANCH  98  99
ENDBRANCH  66  91
ENDBRANCH  40  41
ENDBRANCH  32  35
ENDBRANCH  30  31
ENDBRANCH   1  30
TORSDOF 16
ENDMDL
