MODEL 1
REMARK VINA RESULT:     -11.5      0.000      0.000
REMARK SMILES Cc1ccc(S(=O)(=O)n2cc(C(=O)C(=O)NCC(=O)NCC(=O)NCCCNC(=O)c3ccc(-c4c5nc(c(-c6c(F)cc(S(=O)(=O)[O-])cc6F)c6ccc([nH]6)c(-c6c(F)cc(S(=O)(=O)[O-])cc6F)c6nc(c(-c7c(F)cc(S(=O)(=O)[O-])cc7F)c7ccc4[nH]7)C=C6)C=C5)cc3)c3ccccc32)cc1
REMARK SMILES IDX 22 1 23 2 24 3 21 5 20 6 18 7 19 8 17 10 16 11 14 12 15 13
REMARK SMILES IDX 12 15 13 16 11 17 9 18 10 19 102 20 97 21 101 22 98 23
REMARK SMILES IDX 100 24 99 25 6 26 7 27 8 28 5 29 1 30 2 31 3 32 104 33 4 34
REMARK SMILES IDX 103 35 25 36 26 37 27 38 28 39 29 40 30 42 31 43 32 44 96 45
REMARK SMILES IDX 33 46 95 47 34 48 35 49 36 50 89 51 37 52 94 53 88 54 90 55
REMARK SMILES IDX 38 56 93 57 87 58 86 59 39 61 73 62 52 63 72 64 53 65 56 66
REMARK SMILES IDX 71 67 91 68 54 69 55 70 70 72 92 73 57 74 40 75 41 76 50 77
REMARK SMILES IDX 42 78 43 79 49 80 51 81 44 82 45 83 46 84 47 85 48 86 74 87
REMARK SMILES IDX 75 88 84 89 76 90 77 91 83 92 85 93 78 94 79 95 80 96 81 97
REMARK SMILES IDX 82 98 58 99 59 100 68 101 60 102 61 103 67 104 69 105 62 106
REMARK SMILES IDX 63 107 64 108 65 109 66 110
REMARK H PARENT 24 4 20 9 16 14 28 41 90 60 56 71
REMARK Flexibility Score: inf
ROOT
ATOM      1  C   UNL A   1      34.608  33.948  28.299  1.00  0.00     0.239 C 
ATOM      2  O   UNL A   1      34.785  34.586  27.259  1.00  0.00    -0.273 OA
ATOM      3  N   UNL A   1      34.833  34.567  29.498  1.00  0.00    -0.355 N 
ATOM      4  H   UNL A   1      35.311  35.426  29.461  1.00  0.00     0.163 HD
ENDROOT
BRANCH   1   5
ATOM      5  C   UNL A   1      34.025  32.522  28.256  1.00  0.00     0.216 C 
BRANCH   5   6
ATOM      6  N   UNL A   1      35.018  31.492  28.012  1.00  0.00    -0.346 N 
ATOM      7  C   UNL A   1      34.962  30.297  27.369  1.00  0.00     0.239 C 
ATOM      8  O   UNL A   1      36.027  29.679  27.255  1.00  0.00    -0.273 OA
ATOM      9  H   UNL A   1      35.906  31.699  28.385  1.00  0.00     0.164 HD
BRANCH   7  10
ATOM     10  C   UNL A   1      33.690  29.758  26.693  1.00  0.00     0.216 C 
BRANCH  10  11
ATOM     11  N   UNL A   1      32.673  29.144  27.543  1.00  0.00    -0.340 N 
ATOM     12  C   UNL A   1      31.641  28.270  27.263  1.00  0.00     0.292 C 
ATOM     13  O   UNL A   1      30.896  27.910  28.167  1.00  0.00    -0.265 OA
ATOM     14  H   UNL A   1      32.735  29.401  28.491  1.00  0.00     0.164 HD
BRANCH  12  15
ATOM     15  C   UNL A   1      31.405  27.756  25.834  1.00  0.00     0.252 C 
ATOM     16  O   UNL A   1      30.891  28.532  25.032  1.00  0.00    -0.283 OA
BRANCH  15  17
ATOM     17  C   UNL A   1      31.768  26.400  25.399  1.00  0.00     0.054 A 
ATOM     18  N   UNL A   1      32.243  24.219  25.300  1.00  0.00    -0.240 N 
ATOM     19  C   UNL A   1      31.837  25.231  26.138  1.00  0.00     0.117 A 
ATOM     20  C   UNL A   1      32.449  24.685  24.017  1.00  0.00     0.065 A 
ATOM     21  C   UNL A   1      32.148  26.051  24.055  1.00  0.00     0.012 A 
ATOM     22  C   UNL A   1      32.896  24.062  22.837  1.00  0.00     0.028 A 
ATOM     23  C   UNL A   1      32.287  26.804  22.868  1.00  0.00     0.011 A 
ATOM     24  C   UNL A   1      33.050  24.844  21.689  1.00  0.00     0.002 A 
ATOM     25  C   UNL A   1      32.744  26.198  21.699  1.00  0.00     0.001 A 
BRANCH  18  26
ATOM     26  S   UNL A   1      32.579  22.625  25.808  1.00  0.00     0.268 S 
ATOM     27  O   UNL A   1      31.908  21.771  24.853  1.00  0.00    -0.201 OA
ATOM     28  O   UNL A   1      32.279  22.585  27.230  1.00  0.00    -0.201 OA
BRANCH  26  29
ATOM     29  C   UNL A   1      34.325  22.348  25.628  1.00  0.00     0.088 A 
ATOM     30  C   UNL A   1      38.592  21.789  25.585  1.00  0.00     0.044 C 
ATOM     31  C   UNL A   1      37.105  21.985  25.581  1.00  0.00    -0.051 A 
ATOM     32  C   UNL A   1      36.559  23.201  26.009  1.00  0.00     0.005 A 
ATOM     33  C   UNL A   1      36.247  20.968  25.145  1.00  0.00     0.005 A 
ATOM     34  C   UNL A   1      35.175  23.381  26.040  1.00  0.00     0.022 A 
ATOM     35  C   UNL A   1      34.860  21.148  25.156  1.00  0.00     0.022 A 
ENDBRANCH  26  29
ENDBRANCH  18  26
ENDBRANCH  15  17
ENDBRANCH  12  15
ENDBRANCH  10  11
ENDBRANCH   7  10
ENDBRANCH   5   6
ENDBRANCH   1   5
BRANCH   3  36
ATOM     36  C   UNL A   1      34.448  34.103  30.819  1.00  0.00     0.117 C 
BRANCH  36  37
ATOM     37  C   UNL A   1      35.601  34.080  31.809  1.00  0.00     0.042 C 
BRANCH  37  38
ATOM     38  C   UNL A   1      36.725  33.195  31.328  1.00  0.00     0.118 C 
BRANCH  38  39
ATOM     39  N   UNL A   1      36.656  31.812  31.780  1.00  0.00    -0.352 N 
ATOM     40  C   UNL A   1      36.993  30.722  30.978  1.00  0.00     0.251 C 
ATOM     41  H   UNL A   1      36.356  31.637  32.701  1.00  0.00     0.163 HD
ATOM     42  O   UNL A   1      36.349  29.683  30.935  1.00  0.00    -0.269 OA
BRANCH  40  43
ATOM     43  C   UNL A   1      38.298  30.832  30.288  1.00  0.00     0.039 A 
ATOM     44  C   UNL A   1      38.361  30.517  28.925  1.00  0.00     0.014 A 
ATOM     45  C   UNL A   1      39.441  30.861  31.072  1.00  0.00     0.014 A 
ATOM     46  C   UNL A   1      39.542  30.005  28.406  1.00  0.00     0.010 A 
ATOM     47  C   UNL A   1      40.518  30.148  30.634  1.00  0.00     0.010 A 
ATOM     48  C   UNL A   1      40.558  29.720  29.305  1.00  0.00    -0.014 A 
BRANCH  48  49
ATOM     49  C   UNL A   1      41.826  29.116  28.985  1.00  0.00     0.031 A 
ATOM     50  C   UNL A   1      41.850  27.642  29.052  1.00  0.00     0.074 A 
ATOM     51  C   UNL A   1      42.714  29.896  28.332  1.00  0.00     0.049 A 
ATOM     52  N   UNL A   1      42.907  26.932  28.946  1.00  0.00    -0.248 NA
ATOM     53  C   UNL A   1      40.643  26.825  29.244  1.00  0.00     0.031 C 
ATOM     54  C   UNL A   1      43.829  29.509  27.480  1.00  0.00     0.029 A 
ATOM     55  N   UNL A   1      42.871  31.278  28.483  1.00  0.00    -0.354 N 
ATOM     56  C   UNL A   1      42.511  25.630  28.717  1.00  0.00     0.074 A 
ATOM     57  C   UNL A   1      41.102  25.594  28.997  1.00  0.00     0.031 C 
ATOM     58  C   UNL A   1      44.716  30.521  27.440  1.00  0.00     0.029 A 
ATOM     59  C   UNL A   1      44.255  31.528  28.384  1.00  0.00     0.049 A 
ATOM     60  H   UNL A   1      42.159  31.943  28.629  1.00  0.00     0.167 HD
ATOM     61  C   UNL A   1      43.420  24.785  28.159  1.00  0.00     0.037 A 
ATOM     62  C   UNL A   1      44.936  31.904  29.510  1.00  0.00     0.037 A 
ATOM     63  C   UNL A   1      44.691  25.487  28.015  1.00  0.00     0.049 A 
ATOM     64  C   UNL A   1      45.899  30.825  29.967  1.00  0.00     0.074 A 
ATOM     65  C   UNL A   1      45.244  26.198  26.962  1.00  0.00     0.029 A 
ATOM     66  N   UNL A   1      45.349  25.905  29.163  1.00  0.00    -0.354 N 
ATOM     67  N   UNL A   1      45.749  29.549  29.719  1.00  0.00    -0.248 NA
ATOM     68  C   UNL A   1      47.165  31.114  30.633  1.00  0.00     0.031 C 
ATOM     69  C   UNL A   1      46.201  27.097  27.500  1.00  0.00     0.029 A 
ATOM     70  C   UNL A   1      46.224  26.933  28.875  1.00  0.00     0.049 A 
ATOM     71  H   UNL A   1      45.210  25.522  30.059  1.00  0.00     0.167 HD
ATOM     72  C   UNL A   1      46.868  28.863  30.124  1.00  0.00     0.074 A 
ATOM     73  C   UNL A   1      47.720  29.892  30.694  1.00  0.00     0.031 C 
ATOM     74  C   UNL A   1      47.034  27.517  29.931  1.00  0.00     0.037 A 
BRANCH  61  75
ATOM     75  C   UNL A   1      43.120  23.454  27.519  1.00  0.00     0.058 A 
ATOM     76  C   UNL A   1      42.856  22.334  28.339  1.00  0.00     0.135 A 
ATOM     77  C   UNL A   1      43.064  23.203  26.134  1.00  0.00     0.135 A 
ATOM     78  F   UNL A   1      42.874  22.418  29.675  1.00  0.00    -0.206 F 
ATOM     79  C   UNL A   1      42.576  21.068  27.833  1.00  0.00     0.059 A 
ATOM     80  C   UNL A   1      42.817  21.929  25.602  1.00  0.00     0.059 A 
ATOM     81  F   UNL A   1      43.206  24.191  25.239  1.00  0.00    -0.206 F 
ATOM     82  C   UNL A   1      42.561  20.869  26.463  1.00  0.00     0.060 A 
BRANCH  82  83
ATOM     83  S   UNL A   1      42.176  19.218  25.853  1.00  0.00     0.124 S 
ATOM     84  O   UNL A   1      42.986  19.143  24.641  1.00  0.00    -0.237 OA
ATOM     85  O   UNL A   1      42.614  18.377  26.961  1.00  0.00    -0.237 OA
ATOM     86  O   UNL A   1      40.733  19.265  25.634  1.00  0.00    -0.744 OA
ENDBRANCH  82  83
ENDBRANCH  61  75
BRANCH  62  87
ATOM     87  C   UNL A   1      44.117  32.836  30.356  1.00  0.00     0.058 A 
ATOM     88  C   UNL A   1      43.667  32.323  31.595  1.00  0.00     0.135 A 
ATOM     89  C   UNL A   1      44.254  34.230  30.263  1.00  0.00     0.135 A 
ATOM     90  F   UNL A   1      43.477  31.000  31.735  1.00  0.00    -0.206 F 
ATOM     91  C   UNL A   1      43.588  33.112  32.740  1.00  0.00     0.059 A 
ATOM     92  C   UNL A   1      44.149  35.046  31.398  1.00  0.00     0.059 A 
ATOM     93  F   UNL A   1      44.652  34.795  29.115  1.00  0.00    -0.206 F 
ATOM     94  C   UNL A   1      43.914  34.462  32.645  1.00  0.00     0.060 A 
BRANCH  94  95
ATOM     95  S   UNL A   1      44.188  35.385  34.183  1.00  0.00     0.124 S 
ATOM     96  O   UNL A   1      43.979  34.356  35.197  1.00  0.00    -0.237 OA
ATOM     97  O   UNL A   1      45.568  35.852  34.027  1.00  0.00    -0.237 OA
ATOM     98  O   UNL A   1      43.170  36.426  34.133  1.00  0.00    -0.744 OA
ENDBRANCH  94  95
ENDBRANCH  62  87
BRANCH  74  99
ATOM     99  C   UNL A   1      48.029  26.611  30.636  1.00  0.00     0.058 A 
ATOM    100  C   UNL A   1      49.165  26.062  30.024  1.00  0.00     0.135 A 
ATOM    101  C   UNL A   1      47.945  26.399  32.042  1.00  0.00     0.135 A 
ATOM    102  F   UNL A   1      49.451  26.283  28.735  1.00  0.00    -0.206 F 
ATOM    103  C   UNL A   1      50.096  25.294  30.725  1.00  0.00     0.059 A 
ATOM    104  C   UNL A   1      48.909  25.717  32.774  1.00  0.00     0.059 A 
ATOM    105  F   UNL A   1      46.923  26.863  32.776  1.00  0.00    -0.206 F 
ATOM    106  C   UNL A   1      49.962  25.131  32.099  1.00  0.00     0.060 A 
BRANCH 106 107
ATOM    107  S   UNL A   1      51.184  24.167  32.998  1.00  0.00     0.124 S 
ATOM    108  O   UNL A   1      52.370  25.003  32.853  1.00  0.00    -0.237 OA
ATOM    109  O   UNL A   1      50.613  24.108  34.341  1.00  0.00    -0.237 OA
ATOM    110  O   UNL A   1      51.212  22.896  32.281  1.00  0.00    -0.744 OA
ENDBRANCH 106 107
ENDBRANCH  74  99
ENDBRANCH  48  49
ENDBRANCH  40  43
ENDBRANCH  38  39
ENDBRANCH  37  38
ENDBRANCH  36  37
ENDBRANCH   3  36
TORSDOF 20
ENDMDL
MODEL 2
REMARK VINA RESULT:     -10.9      5.331      9.251
REMARK SMILES Cc1ccc(S(=O)(=O)n2cc(C(=O)C(=O)NCC(=O)NCC(=O)NCCCNC(=O)c3ccc(-c4c5nc(c(-c6c(F)cc(S(=O)(=O)[O-])cc6F)c6ccc([nH]6)c(-c6c(F)cc(S(=O)(=O)[O-])cc6F)c6nc(c(-c7c(F)cc(S(=O)(=O)[O-])cc7F)c7ccc4[nH]7)C=C6)C=C5)cc3)c3ccccc32)cc1
REMARK SMILES IDX 22 1 23 2 24 3 21 5 20 6 18 7 19 8 17 10 16 11 14 12 15 13
REMARK SMILES IDX 12 15 13 16 11 17 9 18 10 19 102 20 97 21 101 22 98 23
REMARK SMILES IDX 100 24 99 25 6 26 7 27 8 28 5 29 1 30 2 31 3 32 104 33 4 34
REMARK SMILES IDX 103 35 25 36 26 37 27 38 28 39 29 40 30 42 31 43 32 44 96 45
REMARK SMILES IDX 33 46 95 47 34 48 35 49 36 50 89 51 37 52 94 53 88 54 90 55
REMARK SMILES IDX 38 56 93 57 87 58 86 59 39 61 73 62 52 63 72 64 53 65 56 66
REMARK SMILES IDX 71 67 91 68 54 69 55 70 70 72 92 73 57 74 40 75 41 76 50 77
REMARK SMILES IDX 42 78 43 79 49 80 51 81 44 82 45 83 46 84 47 85 48 86 74 87
REMARK SMILES IDX 75 88 84 89 76 90 77 91 83 92 85 93 78 94 79 95 80 96 81 97
REMARK SMILES IDX 82 98 58 99 59 100 68 101 60 102 61 103 67 104 69 105 62 106
REMARK SMILES IDX 63 107 64 108 65 109 66 110
REMARK H PARENT 24 4 20 9 16 14 28 41 90 60 56 71
REMARK Flexibility Score: inf
ROOT
ATOM      1  C   UNL A   1      38.482  30.768  35.415  1.00  0.00     0.239 C 
ATOM      2  O   UNL A   1      38.964  30.328  36.462  1.00  0.00    -0.273 OA
ATOM      3  N   UNL A   1      37.513  31.732  35.491  1.00  0.00    -0.355 N 
ATOM      4  H   UNL A   1      37.116  31.881  36.379  1.00  0.00     0.163 HD
ENDROOT
BRANCH   1   5
ATOM      5  C   UNL A   1      39.043  30.335  34.048  1.00  0.00     0.216 C 
BRANCH   5   6
ATOM      6  N   UNL A   1      38.780  28.945  33.722  1.00  0.00    -0.346 N 
ATOM      7  C   UNL A   1      38.168  28.350  32.665  1.00  0.00     0.239 C 
ATOM      8  O   UNL A   1      38.182  27.114  32.641  1.00  0.00    -0.273 OA
ATOM      9  H   UNL A   1      39.108  28.308  34.398  1.00  0.00     0.164 HD
BRANCH   7  10
ATOM     10  C   UNL A   1      37.584  29.131  31.475  1.00  0.00     0.216 C 
BRANCH  10  11
ATOM     11  N   UNL A   1      37.996  28.736  30.131  1.00  0.00    -0.340 N 
ATOM     12  C   UNL A   1      38.134  29.454  28.959  1.00  0.00     0.292 C 
ATOM     13  O   UNL A   1      38.482  28.875  27.936  1.00  0.00    -0.265 OA
ATOM     14  H   UNL A   1      38.216  27.780  30.044  1.00  0.00     0.164 HD
BRANCH  12  15
ATOM     15  C   UNL A   1      37.842  30.962  28.916  1.00  0.00     0.252 C 
ATOM     16  O   UNL A   1      38.754  31.724  29.227  1.00  0.00    -0.283 OA
BRANCH  15  17
ATOM     17  C   UNL A   1      36.539  31.515  28.519  1.00  0.00     0.054 A 
ATOM     18  N   UNL A   1      34.794  32.850  28.112  1.00  0.00    -0.240 N 
ATOM     19  C   UNL A   1      36.089  32.824  28.572  1.00  0.00     0.117 A 
ATOM     20  C   UNL A   1      34.366  31.588  27.754  1.00  0.00     0.065 A 
ATOM     21  C   UNL A   1      35.449  30.735  27.993  1.00  0.00     0.012 A 
ATOM     22  C   UNL A   1      33.136  31.098  27.275  1.00  0.00     0.028 A 
ATOM     23  C   UNL A   1      35.293  29.356  27.729  1.00  0.00     0.011 A 
ATOM     24  C   UNL A   1      33.008  29.724  27.052  1.00  0.00     0.002 A 
ATOM     25  C   UNL A   1      34.074  28.862  27.269  1.00  0.00     0.001 A 
BRANCH  18  26
ATOM     26  S   UNL A   1      33.800  34.237  28.111  1.00  0.00     0.268 S 
ATOM     27  O   UNL A   1      32.452  33.741  27.936  1.00  0.00    -0.201 OA
ATOM     28  O   UNL A   1      34.411  35.168  27.178  1.00  0.00    -0.201 OA
BRANCH  26  29
ATOM     29  C   UNL A   1      33.885  34.974  29.726  1.00  0.00     0.088 A 
ATOM     30  C   UNL A   1      33.686  36.826  33.605  1.00  0.00     0.044 C 
ATOM     31  C   UNL A   1      33.774  36.184  32.252  1.00  0.00    -0.051 A 
ATOM     32  C   UNL A   1      33.265  36.848  31.129  1.00  0.00     0.005 A 
ATOM     33  C   UNL A   1      34.368  34.927  32.091  1.00  0.00     0.005 A 
ATOM     34  C   UNL A   1      33.313  36.244  29.872  1.00  0.00     0.022 A 
ATOM     35  C   UNL A   1      34.437  34.324  30.831  1.00  0.00     0.022 A 
ENDBRANCH  26  29
ENDBRANCH  18  26
ENDBRANCH  15  17
ENDBRANCH  12  15
ENDBRANCH  10  11
ENDBRANCH   7  10
ENDBRANCH   5   6
ENDBRANCH   1   5
BRANCH   3  36
ATOM     36  C   UNL A   1      37.003  32.560  34.413  1.00  0.00     0.117 C 
BRANCH  36  37
ATOM     37  C   UNL A   1      36.944  34.038  34.764  1.00  0.00     0.042 C 
BRANCH  37  38
ATOM     38  C   UNL A   1      38.125  34.787  34.197  1.00  0.00     0.118 C 
BRANCH  38  39
ATOM     39  N   UNL A   1      39.404  34.487  34.825  1.00  0.00    -0.352 N 
ATOM     40  C   UNL A   1      40.484  33.922  34.145  1.00  0.00     0.251 C 
ATOM     41  H   UNL A   1      39.514  34.691  35.781  1.00  0.00     0.163 HD
ATOM     42  O   UNL A   1      41.192  33.038  34.604  1.00  0.00    -0.269 OA
BRANCH  40  43
ATOM     43  C   UNL A   1      40.834  34.586  32.868  1.00  0.00     0.039 A 
ATOM     44  C   UNL A   1      40.229  34.128  31.690  1.00  0.00     0.014 A 
ATOM     45  C   UNL A   1      41.995  35.342  32.832  1.00  0.00     0.014 A 
ATOM     46  C   UNL A   1      40.921  34.236  30.493  1.00  0.00     0.010 A 
ATOM     47  C   UNL A   1      42.772  35.242  31.717  1.00  0.00     0.010 A 
ATOM     48  C   UNL A   1      42.232  34.683  30.556  1.00  0.00    -0.014 A 
BRANCH  48  49
ATOM     49  C   UNL A   1      43.142  34.793  29.446  1.00  0.00     0.031 A 
ATOM     50  C   UNL A   1      44.163  33.730  29.367  1.00  0.00     0.074 A 
ATOM     51  C   UNL A   1      42.761  35.604  28.435  1.00  0.00     0.049 A 
ATOM     52  N   UNL A   1      45.143  33.730  28.548  1.00  0.00    -0.248 NA
ATOM     53  C   UNL A   1      44.156  32.542  30.232  1.00  0.00     0.031 C 
ATOM     54  C   UNL A   1      43.167  35.587  27.036  1.00  0.00     0.029 A 
ATOM     55  N   UNL A   1      42.012  36.780  28.553  1.00  0.00    -0.354 N 
ATOM     56  C   UNL A   1      45.669  32.454  28.531  1.00  0.00     0.074 A 
ATOM     57  C   UNL A   1      45.083  31.774  29.653  1.00  0.00     0.031 C 
ATOM     58  C   UNL A   1      42.954  36.808  26.509  1.00  0.00     0.029 A 
ATOM     59  C   UNL A   1      42.538  37.676  27.600  1.00  0.00     0.049 A 
ATOM     60  H   UNL A   1      41.268  36.948  29.176  1.00  0.00     0.167 HD
ATOM     61  C   UNL A   1      46.421  32.098  27.454  1.00  0.00     0.037 A 
ATOM     62  C   UNL A   1      43.248  38.760  28.042  1.00  0.00     0.037 A 
ATOM     63  C   UNL A   1      46.564  33.254  26.575  1.00  0.00     0.049 A 
ATOM     64  C   UNL A   1      44.717  38.651  27.680  1.00  0.00     0.074 A 
ATOM     65  C   UNL A   1      45.838  33.677  25.473  1.00  0.00     0.029 A 
ATOM     66  N   UNL A   1      47.245  34.365  27.051  1.00  0.00    -0.354 N 
ATOM     67  N   UNL A   1      45.348  37.520  27.492  1.00  0.00    -0.248 NA
ATOM     68  C   UNL A   1      45.556  39.808  27.386  1.00  0.00     0.031 C 
ATOM     69  C   UNL A   1      46.041  35.074  25.330  1.00  0.00     0.029 A 
ATOM     70  C   UNL A   1      46.885  35.495  26.344  1.00  0.00     0.049 A 
ATOM     71  H   UNL A   1      47.895  34.351  27.790  1.00  0.00     0.167 HD
ATOM     72  C   UNL A   1      46.615  37.769  27.021  1.00  0.00     0.074 A 
ATOM     73  C   UNL A   1      46.692  39.218  26.979  1.00  0.00     0.031 C 
ATOM     74  C   UNL A   1      47.490  36.778  26.663  1.00  0.00     0.037 A 
BRANCH  61  75
ATOM     75  C   UNL A   1      46.801  30.694  27.061  1.00  0.00     0.058 A 
ATOM     76  C   UNL A   1      45.805  29.813  26.583  1.00  0.00     0.135 A 
ATOM     77  C   UNL A   1      48.099  30.149  27.117  1.00  0.00     0.135 A 
ATOM     78  F   UNL A   1      44.525  30.187  26.475  1.00  0.00    -0.206 F 
ATOM     79  C   UNL A   1      46.067  28.499  26.205  1.00  0.00     0.059 A 
ATOM     80  C   UNL A   1      48.381  28.819  26.773  1.00  0.00     0.059 A 
ATOM     81  F   UNL A   1      49.155  30.897  27.467  1.00  0.00    -0.206 F 
ATOM     82  C   UNL A   1      47.357  28.005  26.305  1.00  0.00     0.060 A 
BRANCH  82  83
ATOM     83  S   UNL A   1      47.652  26.305  25.788  1.00  0.00     0.124 S 
ATOM     84  O   UNL A   1      47.509  26.398  24.337  1.00  0.00    -0.237 OA
ATOM     85  O   UNL A   1      49.005  26.069  26.278  1.00  0.00    -0.237 OA
ATOM     86  O   UNL A   1      46.599  25.555  26.468  1.00  0.00    -0.744 OA
ENDBRANCH  82  83
ENDBRANCH  61  75
BRANCH  62  87
ATOM     87  C   UNL A   1      42.638  39.342  29.285  1.00  0.00     0.058 A 
ATOM     88  C   UNL A   1      43.376  39.174  30.479  1.00  0.00     0.135 A 
ATOM     89  C   UNL A   1      41.759  40.435  29.234  1.00  0.00     0.135 A 
ATOM     90  F   UNL A   1      44.204  38.123  30.605  1.00  0.00    -0.206 F 
ATOM     91  C   UNL A   1      43.423  40.156  31.466  1.00  0.00     0.059 A 
ATOM     92  C   UNL A   1      41.769  41.420  30.232  1.00  0.00     0.059 A 
ATOM     93  F   UNL A   1      41.007  40.649  28.145  1.00  0.00    -0.206 F 
ATOM     94  C   UNL A   1      42.676  41.317  31.290  1.00  0.00     0.060 A 
BRANCH  94  95
ATOM     95  S   UNL A   1      43.037  42.736  32.362  1.00  0.00     0.124 S 
ATOM     96  O   UNL A   1      44.486  42.650  32.503  1.00  0.00    -0.237 OA
ATOM     97  O   UNL A   1      42.541  43.863  31.566  1.00  0.00    -0.237 OA
ATOM     98  O   UNL A   1      42.273  42.444  33.568  1.00  0.00    -0.744 OA
ENDBRANCH  94  95
ENDBRANCH  62  87
BRANCH  74  99
ATOM     99  C   UNL A   1      48.992  36.910  26.484  1.00  0.00     0.058 A 
ATOM    100  C   UNL A   1      49.668  36.650  25.283  1.00  0.00     0.135 A 
ATOM    101  C   UNL A   1      49.797  37.481  27.511  1.00  0.00     0.135 A 
ATOM    102  F   UNL A   1      49.024  36.233  24.186  1.00  0.00    -0.206 F 
ATOM    103  C   UNL A   1      51.040  36.855  25.135  1.00  0.00     0.059 A 
ATOM    104  C   UNL A   1      51.145  37.780  27.353  1.00  0.00     0.059 A 
ATOM    105  F   UNL A   1      49.302  37.794  28.718  1.00  0.00    -0.206 F 
ATOM    106  C   UNL A   1      51.769  37.423  26.173  1.00  0.00     0.060 A 
BRANCH 106 107
ATOM    107  S   UNL A   1      53.530  37.713  25.963  1.00  0.00     0.124 S 
ATOM    108  O   UNL A   1      53.577  39.170  25.923  1.00  0.00    -0.237 OA
ATOM    109  O   UNL A   1      54.096  37.095  27.158  1.00  0.00    -0.237 OA
ATOM    110  O   UNL A   1      53.840  37.035  24.708  1.00  0.00    -0.744 OA
ENDBRANCH 106 107
ENDBRANCH  74  99
ENDBRANCH  48  49
ENDBRANCH  40  43
ENDBRANCH  38  39
ENDBRANCH  37  38
ENDBRANCH  36  37
ENDBRANCH   3  36
TORSDOF 20
ENDMDL
MODEL 3
REMARK VINA RESULT:     -10.8      5.837     13.908
REMARK SMILES Cc1ccc(S(=O)(=O)n2cc(C(=O)C(=O)NCC(=O)NCC(=O)NCCCNC(=O)c3ccc(-c4c5nc(c(-c6c(F)cc(S(=O)(=O)[O-])cc6F)c6ccc([nH]6)c(-c6c(F)cc(S(=O)(=O)[O-])cc6F)c6nc(c(-c7c(F)cc(S(=O)(=O)[O-])cc7F)c7ccc4[nH]7)C=C6)C=C5)cc3)c3ccccc32)cc1
REMARK SMILES IDX 22 1 23 2 24 3 21 5 20 6 18 7 19 8 17 10 16 11 14 12 15 13
REMARK SMILES IDX 12 15 13 16 11 17 9 18 10 19 102 20 97 21 101 22 98 23
REMARK SMILES IDX 100 24 99 25 6 26 7 27 8 28 5 29 1 30 2 31 3 32 104 33 4 34
REMARK SMILES IDX 103 35 25 36 26 37 27 38 28 39 29 40 30 42 31 43 32 44 96 45
REMARK SMILES IDX 33 46 95 47 34 48 35 49 36 50 89 51 37 52 94 53 88 54 90 55
REMARK SMILES IDX 38 56 93 57 87 58 86 59 39 61 73 62 52 63 72 64 53 65 56 66
REMARK SMILES IDX 71 67 91 68 54 69 55 70 70 72 92 73 57 74 40 75 41 76 50 77
REMARK SMILES IDX 42 78 43 79 49 80 51 81 44 82 45 83 46 84 47 85 48 86 74 87
REMARK SMILES IDX 75 88 84 89 76 90 77 91 83 92 85 93 78 94 79 95 80 96 81 97
REMARK SMILES IDX 82 98 58 99 59 100 68 101 60 102 61 103 67 104 69 105 62 106
REMARK SMILES IDX 63 107 64 108 65 109 66 110
REMARK H PARENT 24 4 20 9 16 14 28 41 90 60 56 71
REMARK Flexibility Score: inf
ROOT
ATOM      1  C   UNL A   1      44.134  24.931  31.545  1.00  0.00     0.239 C 
ATOM      2  O   UNL A   1      43.830  26.054  31.954  1.00  0.00    -0.273 OA
ATOM      3  N   UNL A   1      43.703  24.542  30.305  1.00  0.00    -0.355 N 
ATOM      4  H   UNL A   1      43.011  25.105  29.889  1.00  0.00     0.163 HD
ENDROOT
BRANCH   1   5
ATOM      5  C   UNL A   1      45.084  24.029  32.357  1.00  0.00     0.216 C 
BRANCH   5   6
ATOM      6  N   UNL A   1      44.473  23.456  33.543  1.00  0.00    -0.346 N 
ATOM      7  C   UNL A   1      44.904  22.534  34.443  1.00  0.00     0.239 C 
ATOM      8  O   UNL A   1      44.167  22.320  35.412  1.00  0.00    -0.273 OA
ATOM      9  H   UNL A   1      43.571  23.802  33.733  1.00  0.00     0.164 HD
BRANCH   7  10
ATOM     10  C   UNL A   1      46.284  21.858  34.367  1.00  0.00     0.216 C 
BRANCH  10  11
ATOM     11  N   UNL A   1      47.450  22.640  34.770  1.00  0.00    -0.340 N 
ATOM     12  C   UNL A   1      48.527  22.340  35.581  1.00  0.00     0.292 C 
ATOM     13  O   UNL A   1      49.382  23.194  35.785  1.00  0.00    -0.265 OA
ATOM     14  H   UNL A   1      47.472  23.549  34.393  1.00  0.00     0.164 HD
BRANCH  12  15
ATOM     15  C   UNL A   1      48.659  20.960  36.243  1.00  0.00     0.252 C 
ATOM     16  O   UNL A   1      49.239  20.082  35.611  1.00  0.00    -0.283 OA
BRANCH  15  17
ATOM     17  C   UNL A   1      48.130  20.659  37.582  1.00  0.00     0.054 A 
ATOM     18  N   UNL A   1      47.653  19.726  39.555  1.00  0.00    -0.240 N 
ATOM     19  C   UNL A   1      48.404  19.585  38.412  1.00  0.00     0.117 A 
ATOM     20  C   UNL A   1      46.882  20.870  39.509  1.00  0.00     0.065 A 
ATOM     21  C   UNL A   1      47.172  21.475  38.281  1.00  0.00     0.012 A 
ATOM     22  C   UNL A   1      45.940  21.420  40.397  1.00  0.00     0.028 A 
ATOM     23  C   UNL A   1      46.506  22.676  37.948  1.00  0.00     0.011 A 
ATOM     24  C   UNL A   1      45.278  22.593  40.022  1.00  0.00     0.002 A 
ATOM     25  C   UNL A   1      45.560  23.219  38.815  1.00  0.00     0.001 A 
BRANCH  18  26
ATOM     26  S   UNL A   1      47.582  18.570  40.808  1.00  0.00     0.268 S 
ATOM     27  O   UNL A   1      47.622  19.335  42.036  1.00  0.00    -0.201 OA
ATOM     28  O   UNL A   1      48.583  17.567  40.487  1.00  0.00    -0.201 OA
BRANCH  26  29
ATOM     29  C   UNL A   1      45.994  17.776  40.733  1.00  0.00     0.088 A 
ATOM     30  C   UNL A   1      42.349  15.500  40.501  1.00  0.00     0.044 C 
ATOM     31  C   UNL A   1      43.610  16.309  40.577  1.00  0.00    -0.051 A 
ATOM     32  C   UNL A   1      44.573  16.201  39.567  1.00  0.00     0.005 A 
ATOM     33  C   UNL A   1      43.838  17.184  41.646  1.00  0.00     0.005 A 
ATOM     34  C   UNL A   1      45.764  16.925  39.646  1.00  0.00     0.022 A 
ATOM     35  C   UNL A   1      45.021  17.927  41.723  1.00  0.00     0.022 A 
ENDBRANCH  26  29
ENDBRANCH  18  26
ENDBRANCH  15  17
ENDBRANCH  12  15
ENDBRANCH  10  11
ENDBRANCH   7  10
ENDBRANCH   5   6
ENDBRANCH   1   5
BRANCH   3  36
ATOM     36  C   UNL A   1      44.148  23.396  29.533  1.00  0.00     0.117 C 
BRANCH  36  37
ATOM     37  C   UNL A   1      43.042  22.760  28.706  1.00  0.00     0.042 C 
BRANCH  37  38
ATOM     38  C   UNL A   1      42.947  23.388  27.337  1.00  0.00     0.118 C 
BRANCH  38  39
ATOM     39  N   UNL A   1      41.856  22.894  26.508  1.00  0.00    -0.352 N 
ATOM     40  C   UNL A   1      40.512  23.173  26.757  1.00  0.00     0.251 C 
ATOM     41  H   UNL A   1      42.078  22.332  25.731  1.00  0.00     0.163 HD
ATOM     42  O   UNL A   1      39.616  22.346  26.667  1.00  0.00    -0.269 OA
BRANCH  40  43
ATOM     43  C   UNL A   1      40.202  24.603  26.982  1.00  0.00     0.039 A 
ATOM     44  C   UNL A   1      40.716  25.547  26.083  1.00  0.00     0.014 A 
ATOM     45  C   UNL A   1      39.762  24.977  28.242  1.00  0.00     0.014 A 
ATOM     46  C   UNL A   1      41.002  26.825  26.540  1.00  0.00     0.010 A 
ATOM     47  C   UNL A   1      40.251  26.142  28.755  1.00  0.00     0.010 A 
ATOM     48  C   UNL A   1      40.873  27.056  27.901  1.00  0.00    -0.014 A 
BRANCH  48  49
ATOM     49  C   UNL A   1      41.193  28.282  28.585  1.00  0.00     0.031 A 
ATOM     50  C   UNL A   1      40.096  29.268  28.645  1.00  0.00     0.074 A 
ATOM     51  C   UNL A   1      42.283  28.258  29.382  1.00  0.00     0.049 A 
ATOM     52  N   UNL A   1      40.223  30.463  29.077  1.00  0.00    -0.248 NA
ATOM     53  C   UNL A   1      38.723  28.972  28.212  1.00  0.00     0.031 C 
ATOM     54  C   UNL A   1      42.610  29.103  30.522  1.00  0.00     0.029 A 
ATOM     55  N   UNL A   1      43.450  27.516  29.168  1.00  0.00    -0.354 N 
ATOM     56  C   UNL A   1      38.956  30.962  29.298  1.00  0.00     0.074 A 
ATOM     57  C   UNL A   1      38.055  30.036  28.667  1.00  0.00     0.031 C 
ATOM     58  C   UNL A   1      43.944  29.080  30.710  1.00  0.00     0.029 A 
ATOM     59  C   UNL A   1      44.516  28.330  29.602  1.00  0.00     0.049 A 
ATOM     60  H   UNL A   1      43.514  26.609  28.790  1.00  0.00     0.167 HD
ATOM     61  C   UNL A   1      38.836  32.025  30.138  1.00  0.00     0.037 A 
ATOM     62  C   UNL A   1      45.362  28.858  28.664  1.00  0.00     0.037 A 
ATOM     63  C   UNL A   1      40.168  32.454  30.550  1.00  0.00     0.049 A 
ATOM     64  C   UNL A   1      45.210  30.364  28.560  1.00  0.00     0.074 A 
ATOM     65  C   UNL A   1      40.947  32.134  31.651  1.00  0.00     0.029 A 
ATOM     66  N   UNL A   1      41.033  32.944  29.582  1.00  0.00    -0.354 N 
ATOM     67  N   UNL A   1      44.119  31.018  28.861  1.00  0.00    -0.248 NA
ATOM     68  C   UNL A   1      46.315  31.256  28.224  1.00  0.00     0.031 C 
ATOM     69  C   UNL A   1      42.302  32.378  31.309  1.00  0.00     0.029 A 
ATOM     70  C   UNL A   1      42.343  32.841  30.005  1.00  0.00     0.049 A 
ATOM     71  H   UNL A   1      40.752  33.313  28.714  1.00  0.00     0.167 HD
ATOM     72  C   UNL A   1      44.360  32.370  28.815  1.00  0.00     0.074 A 
ATOM     73  C   UNL A   1      45.750  32.462  28.406  1.00  0.00     0.031 C 
ATOM     74  C   UNL A   1      43.423  33.310  29.152  1.00  0.00     0.037 A 
BRANCH  61  75
ATOM     75  C   UNL A   1      37.562  32.509  30.782  1.00  0.00     0.058 A 
ATOM     76  C   UNL A   1      37.203  33.872  30.671  1.00  0.00     0.135 A 
ATOM     77  C   UNL A   1      36.653  31.712  31.505  1.00  0.00     0.135 A 
ATOM     78  F   UNL A   1      37.968  34.752  30.015  1.00  0.00    -0.206 F 
ATOM     79  C   UNL A   1      36.049  34.405  31.239  1.00  0.00     0.059 A 
ATOM     80  C   UNL A   1      35.502  32.233  32.114  1.00  0.00     0.059 A 
ATOM     81  F   UNL A   1      36.821  30.387  31.615  1.00  0.00    -0.206 F 
ATOM     82  C   UNL A   1      35.203  33.582  31.963  1.00  0.00     0.060 A 
BRANCH  82  83
ATOM     83  S   UNL A   1      33.713  34.311  32.665  1.00  0.00     0.124 S 
ATOM     84  O   UNL A   1      34.262  35.281  33.609  1.00  0.00    -0.237 OA
ATOM     85  O   UNL A   1      33.066  34.872  31.485  1.00  0.00    -0.237 OA
ATOM     86  O   UNL A   1      33.030  33.173  33.273  1.00  0.00    -0.744 OA
ENDBRANCH  82  83
ENDBRANCH  61  75
BRANCH  62  87
ATOM     87  C   UNL A   1      45.638  27.874  27.563  1.00  0.00     0.058 A 
ATOM     88  C   UNL A   1      45.055  28.163  26.308  1.00  0.00     0.135 A 
ATOM     89  C   UNL A   1      46.797  27.082  27.554  1.00  0.00     0.135 A 
ATOM     90  F   UNL A   1      43.922  28.882  26.252  1.00  0.00    -0.206 F 
ATOM     91  C   UNL A   1      45.708  27.890  25.107  1.00  0.00     0.059 A 
ATOM     92  C   UNL A   1      47.453  26.771  26.355  1.00  0.00     0.059 A 
ATOM     93  F   UNL A   1      47.394  26.745  28.706  1.00  0.00    -0.206 F 
ATOM     94  C   UNL A   1      46.950  27.266  25.149  1.00  0.00     0.060 A 
BRANCH  94  95
ATOM     95  S   UNL A   1      47.958  27.266  23.640  1.00  0.00     0.124 S 
ATOM     96  O   UNL A   1      47.174  28.116  22.750  1.00  0.00    -0.237 OA
ATOM     97  O   UNL A   1      49.225  27.836  24.109  1.00  0.00    -0.237 OA
ATOM     98  O   UNL A   1      48.009  25.857  23.273  1.00  0.00    -0.744 OA
ENDBRANCH  94  95
ENDBRANCH  62  87
BRANCH  74  99
ATOM     99  C   UNL A   1      43.450  34.789  28.802  1.00  0.00     0.058 A 
ATOM    100  C   UNL A   1      43.334  35.292  27.497  1.00  0.00     0.135 A 
ATOM    101  C   UNL A   1      43.429  35.777  29.827  1.00  0.00     0.135 A 
ATOM    102  F   UNL A   1      43.210  34.484  26.437  1.00  0.00    -0.206 F 
ATOM    103  C   UNL A   1      43.288  36.658  27.223  1.00  0.00     0.059 A 
ATOM    104  C   UNL A   1      43.290  37.137  29.580  1.00  0.00     0.059 A 
ATOM    105  F   UNL A   1      43.526  35.461  31.127  1.00  0.00    -0.206 F 
ATOM    106  C   UNL A   1      43.262  37.573  28.270  1.00  0.00     0.060 A 
BRANCH 106 107
ATOM    107  S   UNL A   1      43.171  39.330  27.907  1.00  0.00     0.124 S 
ATOM    108  O   UNL A   1      43.370  39.334  26.462  1.00  0.00    -0.237 OA
ATOM    109  O   UNL A   1      41.827  39.676  28.361  1.00  0.00    -0.237 OA
ATOM    110  O   UNL A   1      44.258  39.899  28.697  1.00  0.00    -0.744 OA
ENDBRANCH 106 107
ENDBRANCH  74  99
ENDBRANCH  48  49
ENDBRANCH  40  43
ENDBRANCH  38  39
ENDBRANCH  37  38
ENDBRANCH  36  37
ENDBRANCH   3  36
TORSDOF 20
ENDMDL
