MODEL 1
REMARK VINA RESULT:     -11.8      0.000      0.000
REMARK SMILES O=C(NCCCNC(=O)c1ccc(-c2c3nc(c(-c4c(F)cc(S(=O)(=O)[O-])cc4F)c4ccc([nH]4)c(-c4c(F)cc(S(=O)(=O)[O-])cc4F)c4nc(c(-c5c(F)cc(S(=O)(=O)[O-])cc5F)c5ccc2[nH]5)C=C4)C=C3)cc1)C1=Cc2cc(Cl)cc(Cl)c2O[C@@H]1C(F)(F)F
REMARK SMILES IDX 6 1 5 2 4 3 3 4 1 5 2 6 76 8 77 9 87 10 78 11 86 12 79 13
REMARK SMILES IDX 85 14 80 15 83 16 81 17 82 18 84 19 88 20 89 21 90 22 91 23
REMARK SMILES IDX 7 24 8 25 9 27 10 28 11 29 75 30 12 31 74 32 13 33 14 34
REMARK SMILES IDX 15 35 68 36 16 37 73 38 67 39 69 40 17 41 72 42 66 43 65 44
REMARK SMILES IDX 18 46 52 47 31 48 51 49 32 50 35 51 50 52 70 53 33 54 34 55
REMARK SMILES IDX 49 57 71 58 36 59 19 60 20 61 29 62 21 63 22 64 28 65 30 66
REMARK SMILES IDX 23 67 24 68 25 69 26 70 27 71 53 72 54 73 63 74 55 75 56 76
REMARK SMILES IDX 62 77 64 78 57 79 58 80 59 81 60 82 61 83 37 84 38 85 47 86
REMARK SMILES IDX 39 87 40 88 46 89 48 90 41 91 42 92 43 93 44 94 45 95
REMARK H PARENT 3 7 7 26 69 45 35 56
REMARK Flexibility Score: inf
ROOT
ATOM      1  C   UNL A   1      33.684  28.353  27.089  1.00  0.00     0.118 C 
ENDROOT
BRANCH   1   2
ATOM      2  C   UNL A   1      33.693  28.253  25.568  1.00  0.00     0.042 C 
BRANCH   2   3
ATOM      3  C   UNL A   1      32.602  27.333  25.037  1.00  0.00     0.118 C 
BRANCH   3   4
ATOM      4  N   UNL A   1      32.257  26.253  25.964  1.00  0.00    -0.352 N 
ATOM      5  O   UNL A   1      32.481  24.255  27.012  1.00  0.00    -0.270 OA
ATOM      6  C   UNL A   1      32.702  24.956  26.035  1.00  0.00     0.251 C 
ATOM      7  H   UNL A   1      31.596  26.497  26.651  1.00  0.00     0.163 HD
BRANCH   6   8
ATOM      8  C   UNL A   1      33.540  24.470  24.924  1.00  0.00     0.067 C 
ATOM      9  C   UNL A   1      34.845  24.765  24.941  1.00  0.00     0.025 C 
ATOM     10  C   UNL A   1      32.968  23.383  24.074  1.00  0.00     0.314 C 
ATOM     11  C   UNL A   1      35.686  23.571  24.768  1.00  0.00     0.020 A 
ATOM     12  O   UNL A   1      33.786  22.189  24.083  1.00  0.00    -0.474 OA
ATOM     13  C   UNL A   1      36.976  23.622  25.310  1.00  0.00     0.032 A 
ATOM     14  C   UNL A   1      35.093  22.321  24.492  1.00  0.00     0.146 A 
ATOM     15  C   UNL A   1      37.626  22.441  25.661  1.00  0.00     0.043 A 
ATOM     16  C   UNL A   1      35.775  21.143  24.831  1.00  0.00     0.085 A 
ATOM     17  Cl  UNL A   1      39.129  22.522  26.493  1.00  0.00    -0.084 Cl
ATOM     18  C   UNL A   1      37.028  21.203  25.441  1.00  0.00     0.045 A 
ATOM     19  Cl  UNL A   1      35.016  19.598  24.675  1.00  0.00    -0.080 Cl
BRANCH  10  20
ATOM     20  C   UNL A   1      32.741  23.878  22.637  1.00  0.00     0.429 C 
ATOM     21  F   UNL A   1      31.461  24.285  22.456  1.00  0.00    -0.167 F 
ATOM     22  F   UNL A   1      33.533  24.933  22.333  1.00  0.00    -0.167 F 
ATOM     23  F   UNL A   1      32.987  22.913  21.718  1.00  0.00    -0.167 F 
ENDBRANCH  10  20
ENDBRANCH   6   8
ENDBRANCH   3   4
ENDBRANCH   2   3
ENDBRANCH   1   2
BRANCH   1  24
ATOM     24  N   UNL A   1      33.588  29.712  27.606  1.00  0.00    -0.352 N 
ATOM     25  C   UNL A   1      34.550  30.508  28.202  1.00  0.00     0.251 C 
ATOM     26  H   UNL A   1      32.700  30.128  27.519  1.00  0.00     0.163 HD
ATOM     27  O   UNL A   1      34.239  31.609  28.621  1.00  0.00    -0.269 OA
BRANCH  25  28
ATOM     28  C   UNL A   1      35.940  30.006  28.370  1.00  0.00     0.039 A 
ATOM     29  C   UNL A   1      36.837  30.119  27.304  1.00  0.00     0.014 A 
ATOM     30  C   UNL A   1      36.371  29.452  29.574  1.00  0.00     0.014 A 
ATOM     31  C   UNL A   1      38.176  29.750  27.479  1.00  0.00     0.010 A 
ATOM     32  C   UNL A   1      37.723  29.228  29.791  1.00  0.00     0.010 A 
ATOM     33  C   UNL A   1      38.642  29.344  28.740  1.00  0.00    -0.014 A 
BRANCH  33  34
ATOM     34  C   UNL A   1      40.064  28.982  28.981  1.00  0.00     0.031 A 
ATOM     35  C   UNL A   1      41.003  30.004  29.578  1.00  0.00     0.074 A 
ATOM     36  C   UNL A   1      40.531  27.778  28.594  1.00  0.00     0.049 A 
ATOM     37  N   UNL A   1      42.295  29.932  29.770  1.00  0.00    -0.248 NA
ATOM     38  C   UNL A   1      40.421  31.304  29.956  1.00  0.00     0.031 C 
ATOM     39  C   UNL A   1      39.748  26.735  27.927  1.00  0.00     0.029 A 
ATOM     40  N   UNL A   1      41.784  27.229  28.700  1.00  0.00    -0.354 N 
ATOM     41  C   UNL A   1      42.678  31.181  30.247  1.00  0.00     0.074 A 
ATOM     42  C   UNL A   1      41.499  32.017  30.238  1.00  0.00     0.031 C 
ATOM     43  C   UNL A   1      40.525  25.658  27.726  1.00  0.00     0.029 A 
ATOM     44  C   UNL A   1      41.868  25.944  28.216  1.00  0.00     0.049 A 
ATOM     45  H   UNL A   1      42.551  27.709  29.087  1.00  0.00     0.167 HD
ATOM     46  C   UNL A   1      43.889  31.587  30.697  1.00  0.00     0.037 A 
ATOM     47  C   UNL A   1      42.911  25.092  28.182  1.00  0.00     0.037 A 
ATOM     48  C   UNL A   1      45.038  30.725  30.772  1.00  0.00     0.049 A 
ATOM     49  C   UNL A   1      44.227  25.534  28.764  1.00  0.00     0.074 A 
ATOM     50  C   UNL A   1      46.293  31.001  31.284  1.00  0.00     0.029 A 
ATOM     51  N   UNL A   1      45.062  29.407  30.341  1.00  0.00    -0.354 N 
ATOM     52  N   UNL A   1      44.555  26.699  29.269  1.00  0.00    -0.248 NA
ATOM     53  C   UNL A   1      45.307  24.539  28.790  1.00  0.00     0.031 C 
ATOM     54  C   UNL A   1      47.085  29.857  31.135  1.00  0.00     0.029 A 
ATOM     55  C   UNL A   1      46.310  28.855  30.573  1.00  0.00     0.049 A 
ATOM     56  H   UNL A   1      44.302  28.933  29.931  1.00  0.00     0.167 HD
ATOM     57  C   UNL A   1      45.871  26.571  29.699  1.00  0.00     0.074 A 
ATOM     58  C   UNL A   1      46.270  25.207  29.410  1.00  0.00     0.031 C 
ATOM     59  C   UNL A   1      46.678  27.492  30.281  1.00  0.00     0.037 A 
BRANCH  46  60
ATOM     60  C   UNL A   1      44.015  33.013  31.163  1.00  0.00     0.058 A 
ATOM     61  C   UNL A   1      43.742  33.384  32.491  1.00  0.00     0.135 A 
ATOM     62  C   UNL A   1      44.414  34.025  30.274  1.00  0.00     0.135 A 
ATOM     63  F   UNL A   1      43.339  32.464  33.381  1.00  0.00    -0.206 F 
ATOM     64  C   UNL A   1      43.814  34.709  32.908  1.00  0.00     0.059 A 
ATOM     65  C   UNL A   1      44.527  35.353  30.679  1.00  0.00     0.059 A 
ATOM     66  F   UNL A   1      44.689  33.731  28.994  1.00  0.00    -0.206 F 
ATOM     67  C   UNL A   1      44.204  35.687  31.993  1.00  0.00     0.060 A 
BRANCH  67  68
ATOM     68  S   UNL A   1      44.285  37.403  32.548  1.00  0.00     0.124 S 
ATOM     69  O   UNL A   1      44.014  38.122  31.307  1.00  0.00    -0.237 OA
ATOM     70  O   UNL A   1      43.228  37.457  33.553  1.00  0.00    -0.237 OA
ATOM     71  O   UNL A   1      45.644  37.530  33.064  1.00  0.00    -0.744 OA
ENDBRANCH  67  68
ENDBRANCH  46  60
BRANCH  47  72
ATOM     72  C   UNL A   1      42.734  23.718  27.638  1.00  0.00     0.058 A 
ATOM     73  C   UNL A   1      42.452  22.638  28.488  1.00  0.00     0.135 A 
ATOM     74  C   UNL A   1      42.819  23.459  26.261  1.00  0.00     0.135 A 
ATOM     75  F   UNL A   1      42.361  22.834  29.812  1.00  0.00    -0.206 F 
ATOM     76  C   UNL A   1      42.282  21.347  27.999  1.00  0.00     0.059 A 
ATOM     77  C   UNL A   1      42.629  22.180  25.745  1.00  0.00     0.059 A 
ATOM     78  F   UNL A   1      43.065  24.460  25.403  1.00  0.00    -0.206 F 
ATOM     79  C   UNL A   1      42.370  21.128  26.623  1.00  0.00     0.060 A 
BRANCH  79  80
ATOM     80  S   UNL A   1      42.097  19.457  25.992  1.00  0.00     0.124 S 
ATOM     81  O   UNL A   1      42.949  19.448  24.808  1.00  0.00    -0.237 OA
ATOM     82  O   UNL A   1      42.546  18.631  27.108  1.00  0.00    -0.237 OA
ATOM     83  O   UNL A   1      40.660  19.426  25.739  1.00  0.00    -0.744 OA
ENDBRANCH  79  80
ENDBRANCH  47  72
BRANCH  59  84
ATOM     84  C   UNL A   1      48.055  27.040  30.679  1.00  0.00     0.058 A 
ATOM     85  C   UNL A   1      48.305  26.436  31.920  1.00  0.00     0.135 A 
ATOM     86  C   UNL A   1      49.134  27.201  29.794  1.00  0.00     0.135 A 
ATOM     87  F   UNL A   1      47.307  26.260  32.799  1.00  0.00    -0.206 F 
ATOM     88  C   UNL A   1      49.588  26.047  32.290  1.00  0.00     0.059 A 
ATOM     89  C   UNL A   1      50.420  26.793  30.132  1.00  0.00     0.059 A 
ATOM     90  F   UNL A   1      48.944  27.759  28.588  1.00  0.00    -0.206 F 
ATOM     91  C   UNL A   1      50.640  26.238  31.392  1.00  0.00     0.060 A 
BRANCH  91  92
ATOM     92  S   UNL A   1      52.302  25.737  31.885  1.00  0.00     0.124 S 
ATOM     93  O   UNL A   1      52.551  26.627  33.015  1.00  0.00    -0.237 OA
ATOM     94  O   UNL A   1      52.121  24.327  32.215  1.00  0.00    -0.237 OA
ATOM     95  O   UNL A   1      53.102  25.997  30.691  1.00  0.00    -0.744 OA
ENDBRANCH  91  92
ENDBRANCH  59  84
ENDBRANCH  33  34
ENDBRANCH  25  28
ENDBRANCH   1  24
TORSDOF 14
ENDMDL
MODEL 2
REMARK VINA RESULT:     -11.7      3.705      6.448
REMARK SMILES O=C(NCCCNC(=O)c1ccc(-c2c3nc(c(-c4c(F)cc(S(=O)(=O)[O-])cc4F)c4ccc([nH]4)c(-c4c(F)cc(S(=O)(=O)[O-])cc4F)c4nc(c(-c5c(F)cc(S(=O)(=O)[O-])cc5F)c5ccc2[nH]5)C=C4)C=C3)cc1)C1=Cc2cc(Cl)cc(Cl)c2O[C@@H]1C(F)(F)F
REMARK SMILES IDX 6 1 5 2 4 3 3 4 1 5 2 6 76 8 77 9 87 10 78 11 86 12 79 13
REMARK SMILES IDX 85 14 80 15 83 16 81 17 82 18 84 19 88 20 89 21 90 22 91 23
REMARK SMILES IDX 7 24 8 25 9 27 10 28 11 29 75 30 12 31 74 32 13 33 14 34
REMARK SMILES IDX 15 35 68 36 16 37 73 38 67 39 69 40 17 41 72 42 66 43 65 44
REMARK SMILES IDX 18 46 52 47 31 48 51 49 32 50 35 51 50 52 70 53 33 54 34 55
REMARK SMILES IDX 49 57 71 58 36 59 19 60 20 61 29 62 21 63 22 64 28 65 30 66
REMARK SMILES IDX 23 67 24 68 25 69 26 70 27 71 53 72 54 73 63 74 55 75 56 76
REMARK SMILES IDX 62 77 64 78 57 79 58 80 59 81 60 82 61 83 37 84 38 85 47 86
REMARK SMILES IDX 39 87 40 88 46 89 48 90 41 91 42 92 43 93 44 94 45 95
REMARK H PARENT 3 7 7 26 69 45 35 56
REMARK Flexibility Score: inf
ROOT
ATOM      1  C   UNL A   1      34.509  32.546  28.028  1.00  0.00     0.118 C 
ENDROOT
BRANCH   1   2
ATOM      2  C   UNL A   1      33.647  33.564  28.764  1.00  0.00     0.042 C 
BRANCH   2   3
ATOM      3  C   UNL A   1      34.475  34.573  29.549  1.00  0.00     0.118 C 
BRANCH   3   4
ATOM      4  N   UNL A   1      35.898  34.544  29.202  1.00  0.00    -0.352 N 
ATOM      5  O   UNL A   1      38.068  33.905  29.354  1.00  0.00    -0.270 OA
ATOM      6  C   UNL A   1      36.979  34.052  29.891  1.00  0.00     0.251 C 
ATOM      7  H   UNL A   1      36.116  34.944  28.329  1.00  0.00     0.163 HD
BRANCH   6   8
ATOM      8  C   UNL A   1      36.752  33.620  31.281  1.00  0.00     0.067 C 
ATOM      9  C   UNL A   1      36.732  32.307  31.539  1.00  0.00     0.025 C 
ATOM     10  C   UNL A   1      36.937  34.650  32.347  1.00  0.00     0.314 C 
ATOM     11  C   UNL A   1      37.640  31.944  32.637  1.00  0.00     0.020 A 
ATOM     12  O   UNL A   1      37.959  34.277  33.301  1.00  0.00    -0.474 OA
ATOM     13  C   UNL A   1      38.138  30.635  32.638  1.00  0.00     0.032 A 
ATOM     14  C   UNL A   1      38.315  32.949  33.360  1.00  0.00     0.146 A 
ATOM     15  C   UNL A   1      39.347  30.357  33.273  1.00  0.00     0.043 A 
ATOM     16  C   UNL A   1      39.518  32.642  34.014  1.00  0.00     0.085 A 
ATOM     17  Cl  UNL A   1      40.042  28.791  33.112  1.00  0.00    -0.084 Cl
ATOM     18  C   UNL A   1      40.048  31.354  33.946  1.00  0.00     0.045 A 
ATOM     19  Cl  UNL A   1      40.467  33.878  34.761  1.00  0.00    -0.080 Cl
BRANCH  10  20
ATOM     20  C   UNL A   1      35.607  34.943  33.059  1.00  0.00     0.429 C 
ATOM     21  F   UNL A   1      34.646  34.066  32.680  1.00  0.00    -0.167 F 
ATOM     22  F   UNL A   1      35.719  34.841  34.405  1.00  0.00    -0.167 F 
ATOM     23  F   UNL A   1      35.143  36.187  32.787  1.00  0.00    -0.167 F 
ENDBRANCH  10  20
ENDBRANCH   6   8
ENDBRANCH   3   4
ENDBRANCH   2   3
ENDBRANCH   1   2
BRANCH   1  24
ATOM     24  N   UNL A   1      33.881  31.245  27.838  1.00  0.00    -0.352 N 
ATOM     25  C   UNL A   1      34.429  29.976  27.892  1.00  0.00     0.251 C 
ATOM     26  H   UNL A   1      32.917  31.273  27.639  1.00  0.00     0.163 HD
ATOM     27  O   UNL A   1      33.727  29.010  27.642  1.00  0.00    -0.269 OA
BRANCH  25  28
ATOM     28  C   UNL A   1      35.870  29.793  28.210  1.00  0.00     0.039 A 
ATOM     29  C   UNL A   1      36.233  29.314  29.472  1.00  0.00     0.014 A 
ATOM     30  C   UNL A   1      36.860  30.066  27.269  1.00  0.00     0.014 A 
ATOM     31  C   UNL A   1      37.577  29.036  29.750  1.00  0.00     0.010 A 
ATOM     32  C   UNL A   1      38.166  29.653  27.494  1.00  0.00     0.010 A 
ATOM     33  C   UNL A   1      38.551  29.160  28.747  1.00  0.00    -0.014 A 
BRANCH  33  34
ATOM     34  C   UNL A   1      39.982  28.836  28.987  1.00  0.00     0.031 A 
ATOM     35  C   UNL A   1      40.890  29.876  29.601  1.00  0.00     0.074 A 
ATOM     36  C   UNL A   1      40.485  27.652  28.584  1.00  0.00     0.049 A 
ATOM     37  N   UNL A   1      42.183  29.839  29.795  1.00  0.00    -0.248 NA
ATOM     38  C   UNL A   1      40.270  31.154  29.995  1.00  0.00     0.031 C 
ATOM     39  C   UNL A   1      39.734  26.595  27.902  1.00  0.00     0.029 A 
ATOM     40  N   UNL A   1      41.753  27.137  28.687  1.00  0.00    -0.354 N 
ATOM     41  C   UNL A   1      42.528  31.092  30.290  1.00  0.00     0.074 A 
ATOM     42  C   UNL A   1      41.327  31.894  30.289  1.00  0.00     0.031 C 
ATOM     43  C   UNL A   1      40.542  25.545  27.688  1.00  0.00     0.029 A 
ATOM     44  C   UNL A   1      41.876  25.862  28.185  1.00  0.00     0.049 A 
ATOM     45  H   UNL A   1      42.505  27.634  29.082  1.00  0.00     0.167 HD
ATOM     46  C   UNL A   1      43.727  31.526  30.749  1.00  0.00     0.037 A 
ATOM     47  C   UNL A   1      42.942  25.041  28.143  1.00  0.00     0.037 A 
ATOM     48  C   UNL A   1      44.900  30.697  30.816  1.00  0.00     0.049 A 
ATOM     49  C   UNL A   1      44.244  25.513  28.734  1.00  0.00     0.074 A 
ATOM     50  C   UNL A   1      46.145  31.003  31.334  1.00  0.00     0.029 A 
ATOM     51  N   UNL A   1      44.963  29.386  30.366  1.00  0.00    -0.354 N 
ATOM     52  N   UNL A   1      44.537  26.680  29.255  1.00  0.00    -0.248 NA
ATOM     53  C   UNL A   1      45.352  24.549  28.749  1.00  0.00     0.031 C 
ATOM     54  C   UNL A   1      46.970  29.884  31.172  1.00  0.00     0.029 A 
ATOM     55  C   UNL A   1      46.226  28.868  30.593  1.00  0.00     0.049 A 
ATOM     56  H   UNL A   1      44.218  28.897  29.947  1.00  0.00     0.167 HD
ATOM     57  C   UNL A   1      45.855  26.584  29.688  1.00  0.00     0.074 A 
ATOM     58  C   UNL A   1      46.294  25.237  29.380  1.00  0.00     0.031 C 
ATOM     59  C   UNL A   1      46.633  27.520  30.284  1.00  0.00     0.037 A 
BRANCH  46  60
ATOM     60  C   UNL A   1      43.810  32.949  31.235  1.00  0.00     0.058 A 
ATOM     61  C   UNL A   1      44.152  34.007  30.374  1.00  0.00     0.135 A 
ATOM     62  C   UNL A   1      43.547  33.263  32.578  1.00  0.00     0.135 A 
ATOM     63  F   UNL A   1      44.432  33.764  29.084  1.00  0.00    -0.206 F 
ATOM     64  C   UNL A   1      44.274  35.313  30.836  1.00  0.00     0.059 A 
ATOM     65  C   UNL A   1      43.629  34.570  33.054  1.00  0.00     0.059 A 
ATOM     66  F   UNL A   1      43.216  32.295  33.448  1.00  0.00    -0.206 F 
ATOM     67  C   UNL A   1      44.014  35.584  32.179  1.00  0.00     0.060 A 
BRANCH  67  68
ATOM     68  S   UNL A   1      44.185  37.283  32.764  1.00  0.00     0.124 S 
ATOM     69  O   UNL A   1      44.106  38.030  31.512  1.00  0.00    -0.237 OA
ATOM     70  O   UNL A   1      43.039  37.424  33.657  1.00  0.00    -0.237 OA
ATOM     71  O   UNL A   1      45.489  37.288  33.417  1.00  0.00    -0.744 OA
ENDBRANCH  67  68
ENDBRANCH  46  60
BRANCH  47  72
ATOM     72  C   UNL A   1      42.807  23.671  27.579  1.00  0.00     0.058 A 
ATOM     73  C   UNL A   1      43.018  23.431  26.212  1.00  0.00     0.135 A 
ATOM     74  C   UNL A   1      42.488  22.572  28.391  1.00  0.00     0.135 A 
ATOM     75  F   UNL A   1      43.323  24.449  25.393  1.00  0.00    -0.206 F 
ATOM     76  C   UNL A   1      42.897  22.158  25.665  1.00  0.00     0.059 A 
ATOM     77  C   UNL A   1      42.386  21.284  27.872  1.00  0.00     0.059 A 
ATOM     78  F   UNL A   1      42.298  22.742  29.708  1.00  0.00    -0.206 F 
ATOM     79  C   UNL A   1      42.583  21.089  26.505  1.00  0.00     0.060 A 
BRANCH  79  80
ATOM     80  S   UNL A   1      42.478  19.430  25.795  1.00  0.00     0.124 S 
ATOM     81  O   UNL A   1      42.872  18.601  26.928  1.00  0.00    -0.237 OA
ATOM     82  O   UNL A   1      41.074  19.353  25.404  1.00  0.00    -0.237 OA
ATOM     83  O   UNL A   1      43.427  19.481  24.687  1.00  0.00    -0.744 OA
ENDBRANCH  79  80
ENDBRANCH  47  72
BRANCH  59  84
ATOM     84  C   UNL A   1      48.022  27.103  30.679  1.00  0.00     0.058 A 
ATOM     85  C   UNL A   1      48.280  26.444  31.891  1.00  0.00     0.135 A 
ATOM     86  C   UNL A   1      49.106  27.353  29.821  1.00  0.00     0.135 A 
ATOM     87  F   UNL A   1      47.278  26.183  32.744  1.00  0.00    -0.206 F 
ATOM     88  C   UNL A   1      49.572  26.087  32.260  1.00  0.00     0.059 A 
ATOM     89  C   UNL A   1      50.402  26.979  30.158  1.00  0.00     0.059 A 
ATOM     90  F   UNL A   1      48.910  27.966  28.643  1.00  0.00    -0.206 F 
ATOM     91  C   UNL A   1      50.628  26.367  31.390  1.00  0.00     0.060 A 
BRANCH  91  92
ATOM     92  S   UNL A   1      52.302  25.907  31.882  1.00  0.00     0.124 S 
ATOM     93  O   UNL A   1      53.038  26.111  30.638  1.00  0.00    -0.237 OA
ATOM     94  O   UNL A   1      52.587  26.858  32.952  1.00  0.00    -0.237 OA
ATOM     95  O   UNL A   1      52.160  24.518  32.309  1.00  0.00    -0.744 OA
ENDBRANCH  91  92
ENDBRANCH  59  84
ENDBRANCH  33  34
ENDBRANCH  25  28
ENDBRANCH   1  24
TORSDOF 14
ENDMDL
MODEL 3
REMARK VINA RESULT:     -11.7      4.270     10.677
REMARK SMILES O=C(NCCCNC(=O)c1ccc(-c2c3nc(c(-c4c(F)cc(S(=O)(=O)[O-])cc4F)c4ccc([nH]4)c(-c4c(F)cc(S(=O)(=O)[O-])cc4F)c4nc(c(-c5c(F)cc(S(=O)(=O)[O-])cc5F)c5ccc2[nH]5)C=C4)C=C3)cc1)C1=Cc2cc(Cl)cc(Cl)c2O[C@@H]1C(F)(F)F
REMARK SMILES IDX 6 1 5 2 4 3 3 4 1 5 2 6 76 8 77 9 87 10 78 11 86 12 79 13
REMARK SMILES IDX 85 14 80 15 83 16 81 17 82 18 84 19 88 20 89 21 90 22 91 23
REMARK SMILES IDX 7 24 8 25 9 27 10 28 11 29 75 30 12 31 74 32 13 33 14 34
REMARK SMILES IDX 15 35 68 36 16 37 73 38 67 39 69 40 17 41 72 42 66 43 65 44
REMARK SMILES IDX 18 46 52 47 31 48 51 49 32 50 35 51 50 52 70 53 33 54 34 55
REMARK SMILES IDX 49 57 71 58 36 59 19 60 20 61 29 62 21 63 22 64 28 65 30 66
REMARK SMILES IDX 23 67 24 68 25 69 26 70 27 71 53 72 54 73 63 74 55 75 56 76
REMARK SMILES IDX 62 77 64 78 57 79 58 80 59 81 60 82 61 83 37 84 38 85 47 86
REMARK SMILES IDX 39 87 40 88 46 89 48 90 41 91 42 92 43 93 44 94 45 95
REMARK H PARENT 3 7 7 26 69 45 35 56
REMARK Flexibility Score: inf
ROOT
ATOM      1  C   UNL A   1      40.428  21.634  26.480  1.00  0.00     0.118 C 
ENDROOT
BRANCH   1   2
ATOM      2  C   UNL A   1      41.749  21.947  25.791  1.00  0.00     0.042 C 
BRANCH   2   3
ATOM      3  C   UNL A   1      42.947  21.773  26.715  1.00  0.00     0.118 C 
BRANCH   3   4
ATOM      4  N   UNL A   1      44.150  21.311  26.019  1.00  0.00    -0.352 N 
ATOM      5  O   UNL A   1      46.323  21.336  25.374  1.00  0.00    -0.270 OA
ATOM      6  C   UNL A   1      45.341  21.947  25.770  1.00  0.00     0.251 C 
ATOM      7  H   UNL A   1      44.096  20.392  25.672  1.00  0.00     0.163 HD
BRANCH   6   8
ATOM      8  C   UNL A   1      45.417  23.384  26.089  1.00  0.00     0.067 C 
ATOM      9  C   UNL A   1      46.114  23.756  27.169  1.00  0.00     0.025 C 
ATOM     10  C   UNL A   1      45.045  24.337  24.999  1.00  0.00     0.314 C 
ATOM     11  C   UNL A   1      47.102  24.800  26.860  1.00  0.00     0.020 A 
ATOM     12  O   UNL A   1      46.130  25.230  24.655  1.00  0.00    -0.474 OA
ATOM     13  C   UNL A   1      48.226  24.873  27.692  1.00  0.00     0.032 A 
ATOM     14  C   UNL A   1      47.147  25.374  25.572  1.00  0.00     0.146 A 
ATOM     15  C   UNL A   1      49.410  25.424  27.206  1.00  0.00     0.043 A 
ATOM     16  C   UNL A   1      48.342  25.947  25.112  1.00  0.00     0.085 A 
ATOM     17  Cl  UNL A   1      50.833  25.341  28.168  1.00  0.00    -0.084 Cl
ATOM     18  C   UNL A   1      49.480  25.947  25.918  1.00  0.00     0.045 A 
ATOM     19  Cl  UNL A   1      48.494  26.501  23.482  1.00  0.00    -0.080 Cl
BRANCH  10  20
ATOM     20  C   UNL A   1      43.785  25.131  25.377  1.00  0.00     0.429 C 
ATOM     21  F   UNL A   1      43.448  24.926  26.674  1.00  0.00    -0.167 F 
ATOM     22  F   UNL A   1      43.961  26.465  25.227  1.00  0.00    -0.167 F 
ATOM     23  F   UNL A   1      42.714  24.780  24.626  1.00  0.00    -0.167 F 
ENDBRANCH  10  20
ENDBRANCH   6   8
ENDBRANCH   3   4
ENDBRANCH   2   3
ENDBRANCH   1   2
BRANCH   1  24
ATOM     24  N   UNL A   1      39.247  22.127  25.782  1.00  0.00    -0.352 N 
ATOM     25  C   UNL A   1      38.633  23.365  25.836  1.00  0.00     0.251 C 
ATOM     26  H   UNL A   1      38.821  21.478  25.176  1.00  0.00     0.163 HD
ATOM     27  O   UNL A   1      37.607  23.552  25.205  1.00  0.00    -0.269 OA
BRANCH  25  28
ATOM     28  C   UNL A   1      39.194  24.445  26.693  1.00  0.00     0.039 A 
ATOM     29  C   UNL A   1      39.980  25.440  26.105  1.00  0.00     0.014 A 
ATOM     30  C   UNL A   1      38.932  24.496  28.060  1.00  0.00     0.014 A 
ATOM     31  C   UNL A   1      40.427  26.519  26.875  1.00  0.00     0.010 A 
ATOM     32  C   UNL A   1      39.248  25.635  28.786  1.00  0.00     0.010 A 
ATOM     33  C   UNL A   1      40.026  26.650  28.214  1.00  0.00    -0.014 A 
BRANCH  33  34
ATOM     34  C   UNL A   1      40.444  27.802  29.058  1.00  0.00     0.031 A 
ATOM     35  C   UNL A   1      41.790  27.776  29.744  1.00  0.00     0.074 A 
ATOM     36  C   UNL A   1      39.593  28.825  29.276  1.00  0.00     0.049 A 
ATOM     37  N   UNL A   1      42.301  28.620  30.602  1.00  0.00    -0.248 NA
ATOM     38  C   UNL A   1      42.654  26.613  29.472  1.00  0.00     0.031 C 
ATOM     39  C   UNL A   1      38.232  28.929  28.743  1.00  0.00     0.029 A 
ATOM     40  N   UNL A   1      39.746  29.974  30.010  1.00  0.00    -0.354 N 
ATOM     41  C   UNL A   1      43.516  28.070  30.997  1.00  0.00     0.074 A 
ATOM     42  C   UNL A   1      43.628  26.783  30.351  1.00  0.00     0.031 C 
ATOM     43  C   UNL A   1      37.694  30.096  29.130  1.00  0.00     0.029 A 
ATOM     44  C   UNL A   1      38.653  30.809  29.965  1.00  0.00     0.049 A 
ATOM     45  H   UNL A   1      40.561  30.181  30.521  1.00  0.00     0.167 HD
ATOM     46  C   UNL A   1      44.475  28.604  31.791  1.00  0.00     0.037 A 
ATOM     47  C   UNL A   1      38.456  32.017  30.528  1.00  0.00     0.037 A 
ATOM     48  C   UNL A   1      44.386  29.918  32.370  1.00  0.00     0.049 A 
ATOM     49  C   UNL A   1      39.567  32.629  31.337  1.00  0.00     0.074 A 
ATOM     50  C   UNL A   1      45.328  30.595  33.123  1.00  0.00     0.029 A 
ATOM     51  N   UNL A   1      43.294  30.763  32.239  1.00  0.00    -0.354 N 
ATOM     52  N   UNL A   1      40.736  32.121  31.651  1.00  0.00    -0.248 NA
ATOM     53  C   UNL A   1      39.341  33.986  31.851  1.00  0.00     0.031 C 
ATOM     54  C   UNL A   1      44.793  31.840  33.471  1.00  0.00     0.029 A 
ATOM     55  C   UNL A   1      43.536  31.956  32.898  1.00  0.00     0.049 A 
ATOM     56  H   UNL A   1      42.468  30.546  31.749  1.00  0.00     0.167 HD
ATOM     57  C   UNL A   1      41.397  33.107  32.375  1.00  0.00     0.074 A 
ATOM     58  C   UNL A   1      40.502  34.246  32.436  1.00  0.00     0.031 C 
ATOM     59  C   UNL A   1      42.631  33.076  32.937  1.00  0.00     0.037 A 
BRANCH  46  60
ATOM     60  C   UNL A   1      45.705  27.775  32.049  1.00  0.00     0.058 A 
ATOM     61  C   UNL A   1      45.798  26.914  33.156  1.00  0.00     0.135 A 
ATOM     62  C   UNL A   1      46.807  27.839  31.181  1.00  0.00     0.135 A 
ATOM     63  F   UNL A   1      44.783  26.825  34.031  1.00  0.00    -0.206 F 
ATOM     64  C   UNL A   1      46.952  26.184  33.418  1.00  0.00     0.059 A 
ATOM     65  C   UNL A   1      47.960  27.090  31.405  1.00  0.00     0.059 A 
ATOM     66  F   UNL A   1      46.776  28.643  30.107  1.00  0.00    -0.206 F 
ATOM     67  C   UNL A   1      48.030  26.281  32.538  1.00  0.00     0.060 A 
BRANCH  67  68
ATOM     68  S   UNL A   1      49.524  25.334  32.897  1.00  0.00     0.124 S 
ATOM     69  O   UNL A   1      49.894  24.861  31.566  1.00  0.00    -0.237 OA
ATOM     70  O   UNL A   1      50.404  26.345  33.475  1.00  0.00    -0.237 OA
ATOM     71  O   UNL A   1      49.060  24.307  33.823  1.00  0.00    -0.744 OA
ENDBRANCH  67  68
ENDBRANCH  46  60
BRANCH  47  72
ATOM     72  C   UNL A   1      37.183  32.750  30.291  1.00  0.00     0.058 A 
ATOM     73  C   UNL A   1      37.049  33.627  29.203  1.00  0.00     0.135 A 
ATOM     74  C   UNL A   1      36.071  32.576  31.128  1.00  0.00     0.135 A 
ATOM     75  F   UNL A   1      38.085  33.828  28.374  1.00  0.00    -0.206 F 
ATOM     76  C   UNL A   1      35.868  34.320  28.963  1.00  0.00     0.059 A 
ATOM     77  C   UNL A   1      34.869  33.241  30.895  1.00  0.00     0.059 A 
ATOM     78  F   UNL A   1      36.138  31.733  32.170  1.00  0.00    -0.206 F 
ATOM     79  C   UNL A   1      34.781  34.119  29.816  1.00  0.00     0.060 A 
BRANCH  79  80
ATOM     80  S   UNL A   1      33.234  34.986  29.467  1.00  0.00     0.124 S 
ATOM     81  O   UNL A   1      32.652  34.142  28.431  1.00  0.00    -0.237 OA
ATOM     82  O   UNL A   1      32.568  34.956  30.765  1.00  0.00    -0.237 OA
ATOM     83  O   UNL A   1      33.682  36.305  29.032  1.00  0.00    -0.744 OA
ENDBRANCH  79  80
ENDBRANCH  47  72
BRANCH  59  84
ATOM     84  C   UNL A   1      43.096  34.326  33.630  1.00  0.00     0.058 A 
ATOM     85  C   UNL A   1      42.967  34.495  35.017  1.00  0.00     0.135 A 
ATOM     86  C   UNL A   1      43.694  35.361  32.893  1.00  0.00     0.135 A 
ATOM     87  F   UNL A   1      42.403  33.534  35.765  1.00  0.00    -0.206 F 
ATOM     88  C   UNL A   1      43.374  35.667  35.645  1.00  0.00     0.059 A 
ATOM     89  C   UNL A   1      44.134  36.530  33.504  1.00  0.00     0.059 A 
ATOM     90  F   UNL A   1      43.855  35.243  31.565  1.00  0.00    -0.206 F 
ATOM     91  C   UNL A   1      43.950  36.682  34.877  1.00  0.00     0.060 A 
BRANCH  91  92
ATOM     92  S   UNL A   1      44.467  38.203  35.700  1.00  0.00     0.124 S 
ATOM     93  O   UNL A   1      43.952  39.218  34.787  1.00  0.00    -0.237 OA
ATOM     94  O   UNL A   1      43.792  38.108  36.991  1.00  0.00    -0.237 OA
ATOM     95  O   UNL A   1      45.921  38.082  35.751  1.00  0.00    -0.744 OA
ENDBRANCH  91  92
ENDBRANCH  59  84
ENDBRANCH  33  34
ENDBRANCH  25  28
ENDBRANCH   1  24
TORSDOF 14
ENDMDL
