MODEL 1
REMARK VINA RESULT:     -11.9      0.000      0.000
REMARK SMILES COCC[C@]1(C(=O)NCCCNC(=O)c2ccc(-c3c4nc(c(-c5c(F)cc(S(=O)(=O)[O-])cc5F)c5ccc([nH]5)c(-c5c(F)cc(S(=O)(=O)[O-])cc5F)c5nc(c(-c6c(F)cc(S(=O)(=O)[O-])cc6F)c6ccc3[nH]6)C=C5)C=C4)cc2)CCC[N@@H+](Cc2ccc(C(F)(F)F)nc2)C1
REMARK SMILES IDX 10 1 9 2 8 3 6 4 7 5 5 7 81 8 96 9 82 10 84 11 83 12 4 14
REMARK SMILES IDX 3 15 2 16 1 17 85 18 86 19 87 20 95 21 88 22 94 23 89 24
REMARK SMILES IDX 90 25 91 26 92 27 93 28 11 29 12 30 13 31 14 33 15 34 16 35
REMARK SMILES IDX 80 36 17 37 79 38 18 39 19 40 20 41 73 42 21 43 78 44 72 45
REMARK SMILES IDX 74 46 22 47 77 48 71 49 70 50 23 52 57 53 36 54 56 55 37 56
REMARK SMILES IDX 40 57 55 58 75 59 38 60 39 61 54 63 76 64 41 65 24 66 25 67
REMARK SMILES IDX 34 68 26 69 27 70 33 71 35 72 28 73 29 74 30 75 31 76 32 77
REMARK SMILES IDX 58 78 59 79 68 80 60 81 61 82 67 83 69 84 62 85 63 86 64 87
REMARK SMILES IDX 65 88 66 89 42 90 43 91 52 92 44 93 45 94 51 95 53 96 46 97
REMARK SMILES IDX 47 98 48 99 49 100 50 101
REMARK H PARENT 8 6 84 13 12 32 74 51 40 62
REMARK Flexibility Score: inf
ROOT
ATOM      1  C   UNL A   1      34.104  31.252  27.839  1.00  0.00     0.042 C 
ENDROOT
BRANCH   1   2
ATOM      2  C   UNL A   1      33.853  30.010  26.981  1.00  0.00     0.117 C 
BRANCH   2   3
ATOM      3  N   UNL A   1      32.925  29.067  27.581  1.00  0.00    -0.355 N 
ATOM      4  C   UNL A   1      31.992  28.201  27.121  1.00  0.00     0.232 C 
ATOM      5  O   UNL A   1      31.169  27.883  27.987  1.00  0.00    -0.274 OA
ATOM      6  H   UNL A   1      32.989  29.058  28.564  1.00  0.00     0.163 HD
BRANCH   4   7
ATOM      7  C   UNL A   1      31.842  27.722  25.656  1.00  0.00     0.100 C 
ATOM      8  C   UNL A   1      31.111  28.889  24.919  1.00  0.00     0.029 C 
ATOM      9  C   UNL A   1      33.156  27.352  24.922  1.00  0.00     0.279 C 
ATOM     10  C   UNL A   1      31.236  28.940  23.393  1.00  0.00     0.063 C 
ATOM     11  N   UNL A   1      32.846  27.186  23.499  1.00  0.00    -0.330 N 
ATOM     12  C   UNL A   1      32.588  28.471  22.871  1.00  0.00     0.262 C 
ATOM     13  H   UNL A   1      31.972  26.660  23.509  1.00  0.00     0.348 HD
BRANCH   7  14
ATOM     14  C   UNL A   1      30.904  26.448  25.635  1.00  0.00     0.051 C 
BRANCH  14  15
ATOM     15  C   UNL A   1      31.454  25.136  26.245  1.00  0.00     0.161 C 
BRANCH  15  16
ATOM     16  O   UNL A   1      30.459  24.387  26.930  1.00  0.00    -0.385 OA
ATOM     17  C   UNL A   1      30.462  22.996  26.647  1.00  0.00     0.194 C 
ENDBRANCH  15  16
ENDBRANCH  14  15
ENDBRANCH   7  14
BRANCH  11  18
ATOM     18  C   UNL A   1      33.559  26.201  22.710  1.00  0.00     0.300 C 
BRANCH  18  19
ATOM     19  C   UNL A   1      33.318  24.763  23.048  1.00  0.00     0.025 A 
ATOM     20  C   UNL A   1      32.085  24.165  22.784  1.00  0.00     0.013 A 
ATOM     21  C   UNL A   1      34.312  23.967  23.599  1.00  0.00     0.121 A 
ATOM     22  C   UNL A   1      31.885  22.824  23.092  1.00  0.00     0.034 A 
ATOM     23  N   UNL A   1      34.147  22.660  23.906  1.00  0.00    -0.251 NA
ATOM     24  C   UNL A   1      32.927  22.098  23.669  1.00  0.00     0.144 A 
BRANCH  24  25
ATOM     25  C   UNL A   1      32.704  20.635  24.030  1.00  0.00     0.433 C 
ATOM     26  F   UNL A   1      33.865  19.966  24.283  1.00  0.00    -0.165 F 
ATOM     27  F   UNL A   1      31.915  20.458  25.127  1.00  0.00    -0.165 F 
ATOM     28  F   UNL A   1      32.094  19.928  23.030  1.00  0.00    -0.165 F 
ENDBRANCH  24  25
ENDBRANCH  18  19
ENDBRANCH  11  18
ENDBRANCH   4   7
ENDBRANCH   2   3
ENDBRANCH   1   2
BRANCH   1  29
ATOM     29  C   UNL A   1      35.512  31.375  28.410  1.00  0.00     0.118 C 
BRANCH  29  30
ATOM     30  N   UNL A   1      35.520  31.285  29.859  1.00  0.00    -0.352 N 
ATOM     31  C   UNL A   1      36.388  30.624  30.693  1.00  0.00     0.251 C 
ATOM     32  H   UNL A   1      34.794  31.772  30.311  1.00  0.00     0.163 HD
ATOM     33  O   UNL A   1      36.061  30.444  31.864  1.00  0.00    -0.269 OA
BRANCH  31  34
ATOM     34  C   UNL A   1      37.700  30.122  30.210  1.00  0.00     0.039 A 
ATOM     35  C   UNL A   1      38.623  29.646  31.149  1.00  0.00     0.014 A 
ATOM     36  C   UNL A   1      38.069  30.197  28.864  1.00  0.00     0.014 A 
ATOM     37  C   UNL A   1      39.895  29.229  30.736  1.00  0.00     0.010 A 
ATOM     38  C   UNL A   1      39.306  29.705  28.444  1.00  0.00     0.010 A 
ATOM     39  C   UNL A   1      40.246  29.245  29.377  1.00  0.00    -0.014 A 
BRANCH  39  40
ATOM     40  C   UNL A   1      41.610  28.856  28.925  1.00  0.00     0.031 A 
ATOM     41  C   UNL A   1      42.704  29.894  28.864  1.00  0.00     0.074 A 
ATOM     42  C   UNL A   1      41.862  27.591  28.531  1.00  0.00     0.049 A 
ATOM     43  N   UNL A   1      43.932  29.780  28.424  1.00  0.00    -0.248 NA
ATOM     44  C   UNL A   1      42.365  31.248  29.334  1.00  0.00     0.031 C 
ATOM     45  C   UNL A   1      40.884  26.502  28.502  1.00  0.00     0.029 A 
ATOM     46  N   UNL A   1      43.016  27.009  28.067  1.00  0.00    -0.354 N 
ATOM     47  C   UNL A   1      44.497  31.046  28.536  1.00  0.00     0.074 A 
ATOM     48  C   UNL A   1      43.467  31.924  29.046  1.00  0.00     0.031 C 
ATOM     49  C   UNL A   1      41.483  25.383  28.058  1.00  0.00     0.029 A 
ATOM     50  C   UNL A   1      42.876  25.680  27.741  1.00  0.00     0.049 A 
ATOM     51  H   UNL A   1      43.865  27.500  27.975  1.00  0.00     0.167 HD
ATOM     52  C   UNL A   1      45.764  31.439  28.263  1.00  0.00     0.037 A 
ATOM     53  C   UNL A   1      43.767  24.803  27.239  1.00  0.00     0.037 A 
ATOM     54  C   UNL A   1      46.803  30.552  27.809  1.00  0.00     0.049 A 
ATOM     55  C   UNL A   1      45.182  25.255  26.983  1.00  0.00     0.074 A 
ATOM     56  C   UNL A   1      48.135  30.841  27.564  1.00  0.00     0.029 A 
ATOM     57  N   UNL A   1      46.632  29.201  27.546  1.00  0.00    -0.354 N 
ATOM     58  N   UNL A   1      45.708  26.446  27.143  1.00  0.00    -0.248 NA
ATOM     59  C   UNL A   1      46.127  24.243  26.490  1.00  0.00     0.031 C 
ATOM     60  C   UNL A   1      48.762  29.670  27.125  1.00  0.00     0.029 A 
ATOM     61  C   UNL A   1      47.832  28.645  27.138  1.00  0.00     0.049 A 
ATOM     62  H   UNL A   1      45.783  28.711  27.638  1.00  0.00     0.167 HD
ATOM     63  C   UNL A   1      47.052  26.315  26.808  1.00  0.00     0.074 A 
ATOM     64  C   UNL A   1      47.259  24.930  26.442  1.00  0.00     0.031 C 
ATOM     65  C   UNL A   1      48.027  27.257  26.805  1.00  0.00     0.037 A 
BRANCH  52  66
ATOM     66  C   UNL A   1      46.111  32.889  28.461  1.00  0.00     0.058 A 
ATOM     67  C   UNL A   1      45.975  33.828  27.425  1.00  0.00     0.135 A 
ATOM     68  C   UNL A   1      46.525  33.359  29.719  1.00  0.00     0.135 A 
ATOM     69  F   UNL A   1      45.598  33.431  26.200  1.00  0.00    -0.206 F 
ATOM     70  C   UNL A   1      46.253  35.176  27.623  1.00  0.00     0.059 A 
ATOM     71  C   UNL A   1      46.783  34.709  29.946  1.00  0.00     0.059 A 
ATOM     72  F   UNL A   1      46.673  32.506  30.744  1.00  0.00    -0.206 F 
ATOM     73  C   UNL A   1      46.653  35.608  28.889  1.00  0.00     0.060 A 
BRANCH  73  74
ATOM     74  S   UNL A   1      46.980  37.365  29.140  1.00  0.00     0.124 S 
ATOM     75  O   UNL A   1      46.082  37.972  28.159  1.00  0.00    -0.237 OA
ATOM     76  O   UNL A   1      46.603  37.555  30.540  1.00  0.00    -0.237 OA
ATOM     77  O   UNL A   1      48.401  37.493  28.855  1.00  0.00    -0.744 OA
ENDBRANCH  73  74
ENDBRANCH  52  66
BRANCH  53  78
ATOM     78  C   UNL A   1      43.363  23.397  26.963  1.00  0.00     0.058 A 
ATOM     79  C   UNL A   1      43.118  22.959  25.652  1.00  0.00     0.135 A 
ATOM     80  C   UNL A   1      43.193  22.471  28.003  1.00  0.00     0.135 A 
ATOM     81  F   UNL A   1      43.262  23.809  24.624  1.00  0.00    -0.206 F 
ATOM     82  C   UNL A   1      42.691  21.662  25.385  1.00  0.00     0.059 A 
ATOM     83  C   UNL A   1      42.792  21.162  27.758  1.00  0.00     0.059 A 
ATOM     84  F   UNL A   1      43.433  22.834  29.273  1.00  0.00    -0.206 F 
ATOM     85  C   UNL A   1      42.527  20.771  26.446  1.00  0.00     0.060 A 
BRANCH  85  86
ATOM     86  S   UNL A   1      41.992  19.083  26.089  1.00  0.00     0.124 S 
ATOM     87  O   UNL A   1      42.760  18.781  24.887  1.00  0.00    -0.237 OA
ATOM     88  O   UNL A   1      42.390  18.371  27.299  1.00  0.00    -0.237 OA
ATOM     89  O   UNL A   1      40.550  19.224  25.901  1.00  0.00    -0.744 OA
ENDBRANCH  85  86
ENDBRANCH  53  78
BRANCH  65  90
ATOM     90  C   UNL A   1      49.419  26.813  26.455  1.00  0.00     0.058 A 
ATOM     91  C   UNL A   1      50.292  26.283  27.417  1.00  0.00     0.135 A 
ATOM     92  C   UNL A   1      49.866  26.874  25.124  1.00  0.00     0.135 A 
ATOM     93  F   UNL A   1      49.913  26.205  28.703  1.00  0.00    -0.206 F 
ATOM     94  C   UNL A   1      51.570  25.852  27.076  1.00  0.00     0.059 A 
ATOM     95  C   UNL A   1      51.130  26.427  24.757  1.00  0.00     0.059 A 
ATOM     96  F   UNL A   1      49.065  27.363  24.164  1.00  0.00    -0.206 F 
ATOM     97  C   UNL A   1      51.981  25.929  25.745  1.00  0.00     0.060 A 
BRANCH  97  98
ATOM     98  S   UNL A   1      53.632  25.343  25.309  1.00  0.00     0.124 S 
ATOM     99  O   UNL A   1      53.469  23.896  25.422  1.00  0.00    -0.237 OA
ATOM    100  O   UNL A   1      53.801  25.857  23.954  1.00  0.00    -0.237 OA
ATOM    101  O   UNL A   1      54.488  25.959  26.319  1.00  0.00    -0.744 OA
ENDBRANCH  97  98
ENDBRANCH  65  90
ENDBRANCH  39  40
ENDBRANCH  31  34
ENDBRANCH  29  30
ENDBRANCH   1  29
TORSDOF 19
ENDMDL
MODEL 2
REMARK VINA RESULT:     -11.7      6.584     11.900
REMARK SMILES COCC[C@]1(C(=O)NCCCNC(=O)c2ccc(-c3c4nc(c(-c5c(F)cc(S(=O)(=O)[O-])cc5F)c5ccc([nH]5)c(-c5c(F)cc(S(=O)(=O)[O-])cc5F)c5nc(c(-c6c(F)cc(S(=O)(=O)[O-])cc6F)c6ccc3[nH]6)C=C5)C=C4)cc2)CCC[N@@H+](Cc2ccc(C(F)(F)F)nc2)C1
REMARK SMILES IDX 10 1 9 2 8 3 6 4 7 5 5 7 81 8 96 9 82 10 84 11 83 12 4 14
REMARK SMILES IDX 3 15 2 16 1 17 85 18 86 19 87 20 95 21 88 22 94 23 89 24
REMARK SMILES IDX 90 25 91 26 92 27 93 28 11 29 12 30 13 31 14 33 15 34 16 35
REMARK SMILES IDX 80 36 17 37 79 38 18 39 19 40 20 41 73 42 21 43 78 44 72 45
REMARK SMILES IDX 74 46 22 47 77 48 71 49 70 50 23 52 57 53 36 54 56 55 37 56
REMARK SMILES IDX 40 57 55 58 75 59 38 60 39 61 54 63 76 64 41 65 24 66 25 67
REMARK SMILES IDX 34 68 26 69 27 70 33 71 35 72 28 73 29 74 30 75 31 76 32 77
REMARK SMILES IDX 58 78 59 79 68 80 60 81 61 82 67 83 69 84 62 85 63 86 64 87
REMARK SMILES IDX 65 88 66 89 42 90 43 91 52 92 44 93 45 94 51 95 53 96 46 97
REMARK SMILES IDX 47 98 48 99 49 100 50 101
REMARK H PARENT 8 6 84 13 12 32 74 51 40 62
REMARK Flexibility Score: inf
ROOT
ATOM      1  C   UNL A   1      38.131  23.855  26.145  1.00  0.00     0.042 C 
ENDROOT
BRANCH   1   2
ATOM      2  C   UNL A   1      37.225  22.725  25.654  1.00  0.00     0.117 C 
BRANCH   2   3
ATOM      3  N   UNL A   1      36.068  22.496  26.503  1.00  0.00    -0.355 N 
ATOM      4  C   UNL A   1      34.768  22.871  26.488  1.00  0.00     0.232 C 
ATOM      5  O   UNL A   1      34.232  22.776  27.599  1.00  0.00    -0.274 OA
ATOM      6  H   UNL A   1      36.284  21.931  27.280  1.00  0.00     0.163 HD
BRANCH   4   7
ATOM      7  C   UNL A   1      34.011  23.478  25.282  1.00  0.00     0.100 C 
ATOM      8  C   UNL A   1      34.868  23.101  24.031  1.00  0.00     0.029 C 
ATOM      9  C   UNL A   1      32.543  23.016  25.097  1.00  0.00     0.279 C 
ATOM     10  C   UNL A   1      34.167  23.131  22.668  1.00  0.00     0.063 C 
ATOM     11  N   UNL A   1      32.088  23.476  23.781  1.00  0.00    -0.330 N 
ATOM     12  C   UNL A   1      32.706  22.702  22.718  1.00  0.00     0.262 C 
ATOM     13  H   UNL A   1      32.449  24.429  23.727  1.00  0.00     0.348 HD
BRANCH   7  14
ATOM     14  C   UNL A   1      34.004  25.053  25.431  1.00  0.00     0.051 C 
BRANCH  14  15
ATOM     15  C   UNL A   1      32.821  25.702  26.190  1.00  0.00     0.161 C 
BRANCH  15  16
ATOM     16  O   UNL A   1      32.648  27.077  25.869  1.00  0.00    -0.385 OA
ATOM     17  C   UNL A   1      33.855  27.814  25.748  1.00  0.00     0.194 C 
ENDBRANCH  15  16
ENDBRANCH  14  15
ENDBRANCH   7  14
BRANCH  11  18
ATOM     18  C   UNL A   1      30.707  23.871  23.587  1.00  0.00     0.300 C 
BRANCH  18  19
ATOM     19  C   UNL A   1      30.448  25.326  23.349  1.00  0.00     0.025 A 
ATOM     20  C   UNL A   1      31.357  26.103  22.628  1.00  0.00     0.013 A 
ATOM     21  C   UNL A   1      29.291  25.945  23.800  1.00  0.00     0.121 A 
ATOM     22  C   UNL A   1      31.092  27.450  22.405  1.00  0.00     0.034 A 
ATOM     23  N   UNL A   1      29.006  27.251  23.595  1.00  0.00    -0.251 NA
ATOM     24  C   UNL A   1      29.918  28.004  22.914  1.00  0.00     0.144 A 
BRANCH  24  25
ATOM     25  C   UNL A   1      29.635  29.484  22.693  1.00  0.00     0.433 C 
ATOM     26  F   UNL A   1      28.343  29.732  22.335  1.00  0.00    -0.165 F 
ATOM     27  F   UNL A   1      29.882  30.257  23.787  1.00  0.00    -0.165 F 
ATOM     28  F   UNL A   1      30.395  30.025  21.691  1.00  0.00    -0.165 F 
ENDBRANCH  24  25
ENDBRANCH  18  19
ENDBRANCH  11  18
ENDBRANCH   4   7
ENDBRANCH   2   3
ENDBRANCH   1   2
BRANCH   1  29
ATOM     29  C   UNL A   1      39.344  23.412  26.955  1.00  0.00     0.118 C 
BRANCH  29  30
ATOM     30  N   UNL A   1      40.591  23.767  26.301  1.00  0.00    -0.352 N 
ATOM     31  C   UNL A   1      41.315  24.933  26.365  1.00  0.00     0.251 C 
ATOM     32  H   UNL A   1      40.977  23.066  25.728  1.00  0.00     0.163 HD
ATOM     33  O   UNL A   1      42.191  25.131  25.524  1.00  0.00    -0.269 OA
BRANCH  31  34
ATOM     34  C   UNL A   1      41.058  25.952  27.414  1.00  0.00     0.039 A 
ATOM     35  C   UNL A   1      41.839  27.114  27.427  1.00  0.00     0.014 A 
ATOM     36  C   UNL A   1      40.127  25.741  28.436  1.00  0.00     0.014 A 
ATOM     37  C   UNL A   1      41.670  28.064  28.442  1.00  0.00     0.010 A 
ATOM     38  C   UNL A   1      39.904  26.725  29.400  1.00  0.00     0.010 A 
ATOM     39  C   UNL A   1      40.694  27.884  29.434  1.00  0.00    -0.014 A 
BRANCH  39  40
ATOM     40  C   UNL A   1      40.535  28.856  30.551  1.00  0.00     0.031 A 
ATOM     41  C   UNL A   1      41.405  28.735  31.779  1.00  0.00     0.074 A 
ATOM     42  C   UNL A   1      39.592  29.817  30.488  1.00  0.00     0.049 A 
ATOM     43  N   UNL A   1      41.371  29.426  32.890  1.00  0.00    -0.248 NA
ATOM     44  C   UNL A   1      42.431  27.678  31.767  1.00  0.00     0.031 C 
ATOM     45  C   UNL A   1      38.659  30.018  29.378  1.00  0.00     0.029 A 
ATOM     46  N   UNL A   1      39.253  30.800  31.386  1.00  0.00    -0.354 N 
ATOM     47  C   UNL A   1      42.344  28.870  33.715  1.00  0.00     0.074 A 
ATOM     48  C   UNL A   1      42.924  27.758  32.994  1.00  0.00     0.031 C 
ATOM     49  C   UNL A   1      37.865  31.067  29.654  1.00  0.00     0.029 A 
ATOM     50  C   UNL A   1      38.207  31.593  30.972  1.00  0.00     0.049 A 
ATOM     51  H   UNL A   1      39.714  30.924  32.246  1.00  0.00     0.167 HD
ATOM     52  C   UNL A   1      42.738  29.263  34.950  1.00  0.00     0.037 A 
ATOM     53  C   UNL A   1      37.593  32.623  31.586  1.00  0.00     0.037 A 
ATOM     54  C   UNL A   1      42.199  30.404  35.642  1.00  0.00     0.049 A 
ATOM     55  C   UNL A   1      38.077  33.067  32.942  1.00  0.00     0.074 A 
ATOM     56  C   UNL A   1      42.573  30.921  36.871  1.00  0.00     0.029 A 
ATOM     57  N   UNL A   1      41.180  31.214  35.162  1.00  0.00    -0.354 N 
ATOM     58  N   UNL A   1      39.032  32.558  33.683  1.00  0.00    -0.248 NA
ATOM     59  C   UNL A   1      37.409  34.231  33.541  1.00  0.00     0.031 C 
ATOM     60  C   UNL A   1      41.762  32.027  37.146  1.00  0.00     0.029 A 
ATOM     61  C   UNL A   1      40.912  32.223  36.071  1.00  0.00     0.049 A 
ATOM     62  H   UNL A   1      40.718  31.089  34.302  1.00  0.00     0.167 HD
ATOM     63  C   UNL A   1      39.104  33.364  34.815  1.00  0.00     0.074 A 
ATOM     64  C   UNL A   1      38.101  34.395  34.659  1.00  0.00     0.031 C 
ATOM     65  C   UNL A   1      39.928  33.259  35.887  1.00  0.00     0.037 A 
BRANCH  52  66
ATOM     66  C   UNL A   1      43.815  28.467  35.634  1.00  0.00     0.058 A 
ATOM     67  C   UNL A   1      45.176  28.752  35.443  1.00  0.00     0.135 A 
ATOM     68  C   UNL A   1      43.481  27.447  36.541  1.00  0.00     0.135 A 
ATOM     69  F   UNL A   1      45.552  29.706  34.576  1.00  0.00    -0.206 F 
ATOM     70  C   UNL A   1      46.169  28.045  36.112  1.00  0.00     0.059 A 
ATOM     71  C   UNL A   1      44.459  26.743  37.242  1.00  0.00     0.059 A 
ATOM     72  F   UNL A   1      42.196  27.132  36.761  1.00  0.00    -0.206 F 
ATOM     73  C   UNL A   1      45.800  27.044  37.013  1.00  0.00     0.060 A 
BRANCH  73  74
ATOM     74  S   UNL A   1      47.098  26.155  37.898  1.00  0.00     0.124 S 
ATOM     75  O   UNL A   1      48.240  26.341  37.004  1.00  0.00    -0.237 OA
ATOM     76  O   UNL A   1      47.166  26.882  39.165  1.00  0.00    -0.237 OA
ATOM     77  O   UNL A   1      46.584  24.797  37.986  1.00  0.00    -0.744 OA
ENDBRANCH  73  74
ENDBRANCH  52  66
BRANCH  53  78
ATOM     78  C   UNL A   1      36.463  33.327  30.920  1.00  0.00     0.058 A 
ATOM     79  C   UNL A   1      36.682  34.163  29.814  1.00  0.00     0.135 A 
ATOM     80  C   UNL A   1      35.146  33.195  31.388  1.00  0.00     0.135 A 
ATOM     81  F   UNL A   1      37.924  34.324  29.334  1.00  0.00    -0.206 F 
ATOM     82  C   UNL A   1      35.643  34.866  29.213  1.00  0.00     0.059 A 
ATOM     83  C   UNL A   1      34.087  33.868  30.787  1.00  0.00     0.059 A 
ATOM     84  F   UNL A   1      34.880  32.393  32.430  1.00  0.00    -0.206 F 
ATOM     85  C   UNL A   1      34.348  34.714  29.711  1.00  0.00     0.060 A 
BRANCH  85  86
ATOM     86  S   UNL A   1      33.000  35.615  28.913  1.00  0.00     0.124 S 
ATOM     87  O   UNL A   1      33.730  36.633  28.166  1.00  0.00    -0.237 OA
ATOM     88  O   UNL A   1      32.361  34.572  28.117  1.00  0.00    -0.237 OA
ATOM     89  O   UNL A   1      32.212  36.103  30.041  1.00  0.00    -0.744 OA
ENDBRANCH  85  86
ENDBRANCH  53  78
BRANCH  65  90
ATOM     90  C   UNL A   1      39.826  34.320  36.946  1.00  0.00     0.058 A 
ATOM     91  C   UNL A   1      40.546  35.521  36.865  1.00  0.00     0.135 A 
ATOM     92  C   UNL A   1      38.953  34.149  38.033  1.00  0.00     0.135 A 
ATOM     93  F   UNL A   1      41.396  35.731  35.847  1.00  0.00    -0.206 F 
ATOM     94  C   UNL A   1      40.425  36.506  37.839  1.00  0.00     0.059 A 
ATOM     95  C   UNL A   1      38.797  35.131  39.006  1.00  0.00     0.059 A 
ATOM     96  F   UNL A   1      38.232  33.022  38.151  1.00  0.00    -0.206 F 
ATOM     97  C   UNL A   1      39.549  36.302  38.907  1.00  0.00     0.060 A 
BRANCH  97  98
ATOM     98  S   UNL A   1      39.379  37.598  40.151  1.00  0.00     0.124 S 
ATOM     99  O   UNL A   1      39.063  36.819  41.345  1.00  0.00    -0.237 OA
ATOM    100  O   UNL A   1      40.696  38.225  40.134  1.00  0.00    -0.237 OA
ATOM    101  O   UNL A   1      38.291  38.424  39.635  1.00  0.00    -0.744 OA
ENDBRANCH  97  98
ENDBRANCH  65  90
ENDBRANCH  39  40
ENDBRANCH  31  34
ENDBRANCH  29  30
ENDBRANCH   1  29
TORSDOF 19
ENDMDL
MODEL 3
REMARK VINA RESULT:     -11.7      2.882      8.632
REMARK SMILES COCC[C@]1(C(=O)NCCCNC(=O)c2ccc(-c3c4nc(c(-c5c(F)cc(S(=O)(=O)[O-])cc5F)c5ccc([nH]5)c(-c5c(F)cc(S(=O)(=O)[O-])cc5F)c5nc(c(-c6c(F)cc(S(=O)(=O)[O-])cc6F)c6ccc3[nH]6)C=C5)C=C4)cc2)CCC[N@@H+](Cc2ccc(C(F)(F)F)nc2)C1
REMARK SMILES IDX 10 1 9 2 8 3 6 4 7 5 5 7 81 8 96 9 82 10 84 11 83 12 4 14
REMARK SMILES IDX 3 15 2 16 1 17 85 18 86 19 87 20 95 21 88 22 94 23 89 24
REMARK SMILES IDX 90 25 91 26 92 27 93 28 11 29 12 30 13 31 14 33 15 34 16 35
REMARK SMILES IDX 80 36 17 37 79 38 18 39 19 40 20 41 73 42 21 43 78 44 72 45
REMARK SMILES IDX 74 46 22 47 77 48 71 49 70 50 23 52 57 53 36 54 56 55 37 56
REMARK SMILES IDX 40 57 55 58 75 59 38 60 39 61 54 63 76 64 41 65 24 66 25 67
REMARK SMILES IDX 34 68 26 69 27 70 33 71 35 72 28 73 29 74 30 75 31 76 32 77
REMARK SMILES IDX 58 78 59 79 68 80 60 81 61 82 67 83 69 84 62 85 63 86 64 87
REMARK SMILES IDX 65 88 66 89 42 90 43 91 52 92 44 93 45 94 51 95 53 96 46 97
REMARK SMILES IDX 47 98 48 99 49 100 50 101
REMARK H PARENT 8 6 84 13 12 32 74 51 40 62
REMARK Flexibility Score: inf
ROOT
ATOM      1  C   UNL A   1      38.321  19.655  25.206  1.00  0.00     0.042 C 
ENDROOT
BRANCH   1   2
ATOM      2  C   UNL A   1      37.335  20.740  24.767  1.00  0.00     0.117 C 
BRANCH   2   3
ATOM      3  N   UNL A   1      37.386  21.938  25.586  1.00  0.00    -0.355 N 
ATOM      4  C   UNL A   1      36.622  23.046  25.728  1.00  0.00     0.232 C 
ATOM      5  O   UNL A   1      37.236  23.983  26.252  1.00  0.00    -0.274 OA
ATOM      6  H   UNL A   1      38.170  21.946  26.183  1.00  0.00     0.163 HD
BRANCH   4   7
ATOM      7  C   UNL A   1      35.178  23.228  25.202  1.00  0.00     0.100 C 
ATOM      8  C   UNL A   1      35.253  24.436  24.215  1.00  0.00     0.029 C 
ATOM      9  C   UNL A   1      34.546  21.994  24.507  1.00  0.00     0.279 C 
ATOM     10  C   UNL A   1      34.128  24.567  23.182  1.00  0.00     0.063 C 
ATOM     11  N   UNL A   1      33.310  22.431  23.851  1.00  0.00    -0.330 N 
ATOM     12  C   UNL A   1      33.602  23.231  22.673  1.00  0.00     0.262 C 
ATOM     13  H   UNL A   1      32.877  23.039  24.545  1.00  0.00     0.348 HD
BRANCH   7  14
ATOM     14  C   UNL A   1      34.244  23.626  26.415  1.00  0.00     0.051 C 
BRANCH  14  15
ATOM     15  C   UNL A   1      33.882  22.525  27.441  1.00  0.00     0.161 C 
BRANCH  15  16
ATOM     16  O   UNL A   1      32.501  22.521  27.781  1.00  0.00    -0.385 OA
ATOM     17  C   UNL A   1      31.685  23.338  26.957  1.00  0.00     0.194 C 
ENDBRANCH  15  16
ENDBRANCH  14  15
ENDBRANCH   7  14
BRANCH  11  18
ATOM     18  C   UNL A   1      32.175  21.533  23.769  1.00  0.00     0.300 C 
BRANCH  18  19
ATOM     19  C   UNL A   1      32.411  20.110  24.171  1.00  0.00     0.025 A 
ATOM     20  C   UNL A   1      32.650  19.127  23.208  1.00  0.00     0.013 A 
ATOM     21  C   UNL A   1      32.436  19.723  25.503  1.00  0.00     0.121 A 
ATOM     22  C   UNL A   1      32.880  17.814  23.602  1.00  0.00     0.034 A 
ATOM     23  N   UNL A   1      32.660  18.454  25.915  1.00  0.00    -0.251 NA
ATOM     24  C   UNL A   1      32.863  17.500  24.961  1.00  0.00     0.144 A 
BRANCH  24  25
ATOM     25  C   UNL A   1      33.090  16.058  25.395  1.00  0.00     0.433 C 
ATOM     26  F   UNL A   1      32.365  15.713  26.498  1.00  0.00    -0.165 F 
ATOM     27  F   UNL A   1      32.782  15.143  24.434  1.00  0.00    -0.165 F 
ATOM     28  F   UNL A   1      34.393  15.804  25.729  1.00  0.00    -0.165 F 
ENDBRANCH  24  25
ENDBRANCH  18  19
ENDBRANCH  11  18
ENDBRANCH   4   7
ENDBRANCH   2   3
ENDBRANCH   1   2
BRANCH   1  29
ATOM     29  C   UNL A   1      39.449  20.130  26.115  1.00  0.00     0.118 C 
BRANCH  29  30
ATOM     30  N   UNL A   1      40.552  19.188  26.149  1.00  0.00    -0.352 N 
ATOM     31  C   UNL A   1      41.905  19.418  26.094  1.00  0.00     0.251 C 
ATOM     32  H   UNL A   1      40.291  18.242  26.223  1.00  0.00     0.163 HD
ATOM     33  O   UNL A   1      42.656  18.473  25.857  1.00  0.00    -0.269 OA
BRANCH  31  34
ATOM     34  C   UNL A   1      42.473  20.773  26.307  1.00  0.00     0.039 A 
ATOM     35  C   UNL A   1      42.643  21.232  27.619  1.00  0.00     0.014 A 
ATOM     36  C   UNL A   1      42.754  21.633  25.240  1.00  0.00     0.014 A 
ATOM     37  C   UNL A   1      43.111  22.530  27.856  1.00  0.00     0.010 A 
ATOM     38  C   UNL A   1      43.298  22.896  25.477  1.00  0.00     0.010 A 
ATOM     39  C   UNL A   1      43.453  23.373  26.787  1.00  0.00    -0.014 A 
BRANCH  39  40
ATOM     40  C   UNL A   1      43.902  24.773  27.017  1.00  0.00     0.031 A 
ATOM     41  C   UNL A   1      45.344  25.148  26.773  1.00  0.00     0.074 A 
ATOM     42  C   UNL A   1      43.037  25.698  27.482  1.00  0.00     0.049 A 
ATOM     43  N   UNL A   1      45.953  26.286  26.988  1.00  0.00    -0.248 NA
ATOM     44  C   UNL A   1      46.225  24.094  26.241  1.00  0.00     0.031 C 
ATOM     45  C   UNL A   1      41.628  25.458  27.798  1.00  0.00     0.029 A 
ATOM     46  N   UNL A   1      43.221  27.026  27.781  1.00  0.00    -0.354 N 
ATOM     47  C   UNL A   1      47.286  26.077  26.649  1.00  0.00     0.074 A 
ATOM     48  C   UNL A   1      47.407  24.691  26.253  1.00  0.00     0.031 C 
ATOM     49  C   UNL A   1      41.073  26.603  28.233  1.00  0.00     0.029 A 
ATOM     50  C   UNL A   1      42.090  27.649  28.257  1.00  0.00     0.049 A 
ATOM     51  H   UNL A   1      44.082  27.489  27.666  1.00  0.00     0.167 HD
ATOM     52  C   UNL A   1      48.312  26.961  26.644  1.00  0.00     0.037 A 
ATOM     53  C   UNL A   1      41.897  28.917  28.671  1.00  0.00     0.037 A 
ATOM     54  C   UNL A   1      48.177  28.353  26.985  1.00  0.00     0.049 A 
ATOM     55  C   UNL A   1      43.044  29.892  28.616  1.00  0.00     0.074 A 
ATOM     56  C   UNL A   1      49.143  29.345  26.951  1.00  0.00     0.029 A 
ATOM     57  N   UNL A   1      47.001  28.955  27.408  1.00  0.00    -0.354 N 
ATOM     58  N   UNL A   1      44.285  29.685  28.245  1.00  0.00    -0.248 NA
ATOM     59  C   UNL A   1      42.763  31.276  29.024  1.00  0.00     0.031 C 
ATOM     60  C   UNL A   1      48.557  30.540  27.381  1.00  0.00     0.029 A 
ATOM     61  C   UNL A   1      47.218  30.302  27.641  1.00  0.00     0.049 A 
ATOM     62  H   UNL A   1      46.140  28.492  27.522  1.00  0.00     0.167 HD
ATOM     63  C   UNL A   1      44.920  30.919  28.338  1.00  0.00     0.074 A 
ATOM     64  C   UNL A   1      43.927  31.867  28.795  1.00  0.00     0.031 C 
ATOM     65  C   UNL A   1      46.210  31.238  28.068  1.00  0.00     0.037 A 
BRANCH  52  66
ATOM     66  C   UNL A   1      49.673  26.461  26.243  1.00  0.00     0.058 A 
ATOM     67  C   UNL A   1      50.165  26.630  24.939  1.00  0.00     0.135 A 
ATOM     68  C   UNL A   1      50.521  25.864  27.191  1.00  0.00     0.135 A 
ATOM     69  F   UNL A   1      49.391  27.180  23.991  1.00  0.00    -0.206 F 
ATOM     70  C   UNL A   1      51.441  26.207  24.583  1.00  0.00     0.059 A 
ATOM     71  C   UNL A   1      51.812  25.458  26.863  1.00  0.00     0.059 A 
ATOM     72  F   UNL A   1      50.101  25.677  28.452  1.00  0.00    -0.206 F 
ATOM     73  C   UNL A   1      52.260  25.626  25.553  1.00  0.00     0.060 A 
BRANCH  73  74
ATOM     74  S   UNL A   1      53.925  25.112  25.085  1.00  0.00     0.124 S 
ATOM     75  O   UNL A   1      53.759  23.665  24.958  1.00  0.00    -0.237 OA
ATOM     76  O   UNL A   1      54.133  25.834  23.831  1.00  0.00    -0.237 OA
ATOM     77  O   UNL A   1      54.747  25.553  26.202  1.00  0.00    -0.744 OA
ENDBRANCH  73  74
ENDBRANCH  52  66
BRANCH  53  78
ATOM     78  C   UNL A   1      40.559  29.352  29.155  1.00  0.00     0.058 A 
ATOM     79  C   UNL A   1      39.504  29.581  28.258  1.00  0.00     0.135 A 
ATOM     80  C   UNL A   1      40.313  29.568  30.520  1.00  0.00     0.135 A 
ATOM     81  F   UNL A   1      39.692  29.393  26.943  1.00  0.00    -0.206 F 
ATOM     82  C   UNL A   1      38.263  30.035  28.691  1.00  0.00     0.059 A 
ATOM     83  C   UNL A   1      39.073  29.998  30.980  1.00  0.00     0.059 A 
ATOM     84  F   UNL A   1      41.282  29.346  31.421  1.00  0.00    -0.206 F 
ATOM     85  C   UNL A   1      38.058  30.245  30.056  1.00  0.00     0.060 A 
BRANCH  85  86
ATOM     86  S   UNL A   1      36.438  30.817  30.613  1.00  0.00     0.124 S 
ATOM     87  O   UNL A   1      36.750  32.159  31.093  1.00  0.00    -0.237 OA
ATOM     88  O   UNL A   1      35.647  30.743  29.389  1.00  0.00    -0.237 OA
ATOM     89  O   UNL A   1      36.078  29.846  31.643  1.00  0.00    -0.744 OA
ENDBRANCH  85  86
ENDBRANCH  53  78
BRANCH  65  90
ATOM     90  C   UNL A   1      46.610  32.681  28.199  1.00  0.00     0.058 A 
ATOM     91  C   UNL A   1      47.201  33.184  29.367  1.00  0.00     0.135 A 
ATOM     92  C   UNL A   1      46.443  33.560  27.115  1.00  0.00     0.135 A 
ATOM     93  F   UNL A   1      47.379  32.385  30.431  1.00  0.00    -0.206 F 
ATOM     94  C   UNL A   1      47.589  34.516  29.467  1.00  0.00     0.059 A 
ATOM     95  C   UNL A   1      46.846  34.889  27.185  1.00  0.00     0.059 A 
ATOM     96  F   UNL A   1      45.892  33.125  25.970  1.00  0.00    -0.206 F 
ATOM     97  C   UNL A   1      47.407  35.361  28.371  1.00  0.00     0.060 A 
BRANCH  97  98
ATOM     98  S   UNL A   1      47.939  37.081  28.502  1.00  0.00     0.124 S 
ATOM     99  O   UNL A   1      48.501  37.113  29.849  1.00  0.00    -0.237 OA
ATOM    100  O   UNL A   1      48.901  37.197  27.411  1.00  0.00    -0.237 OA
ATOM    101  O   UNL A   1      46.701  37.834  28.321  1.00  0.00    -0.744 OA
ENDBRANCH  97  98
ENDBRANCH  65  90
ENDBRANCH  39  40
ENDBRANCH  31  34
ENDBRANCH  29  30
ENDBRANCH   1  29
TORSDOF 19
ENDMDL
