MODEL 1
REMARK VINA RESULT:     -12.0      0.000      0.000
REMARK SMILES Cc1ccc(S(=O)(=O)Nc2ccccn2)cc1C(=O)NCCCNC(=O)c1ccc(-c2c3nc(c(-c4c(F)cc(S(=O)(=O)[O-])cc4F)c4ccc([nH]4)c(-c4c(F)cc(S(=O)(=O)[O-])cc4F)c4nc(c(-c5c(F)cc(S(=O)(=O)[O-])cc5F)c5ccc2[nH]5)C=C4)C=C3)cc1
REMARK SMILES IDX 22 1 21 2 20 3 18 4 19 5 17 7 1 8 2 9 3 10 4 11 16 12 5 13
REMARK SMILES IDX 6 14 7 15 8 16 9 17 10 19 11 20 15 21 12 22 14 23 13 24
REMARK SMILES IDX 23 25 24 26 25 27 26 29 27 30 28 31 92 32 29 33 91 34 30 35
REMARK SMILES IDX 31 36 32 37 85 38 33 39 90 40 84 41 86 42 34 43 89 44 83 45
REMARK SMILES IDX 82 46 35 48 69 49 48 50 68 51 49 52 52 53 67 54 87 55 50 56
REMARK SMILES IDX 51 57 66 59 88 60 53 61 36 62 37 63 46 64 38 65 39 66 45 67
REMARK SMILES IDX 47 68 40 69 41 70 42 71 43 72 44 73 70 74 71 75 80 76 72 77
REMARK SMILES IDX 73 78 79 79 81 80 74 81 75 82 76 83 77 84 78 85 54 86 55 87
REMARK SMILES IDX 64 88 56 89 57 90 63 91 65 92 58 93 59 94 60 95 61 96 62 97
REMARK H PARENT 20 6 9 18 24 28 86 47 52 58
REMARK Flexibility Score: inf
ROOT
ATOM      1  C   UNL A   1      39.606  21.241  26.159  1.00  0.00     0.042 C 
ENDROOT
BRANCH   1   2
ATOM      2  C   UNL A   1      38.585  22.461  25.850  1.00  0.00     0.118 C 
BRANCH   2   3
ATOM      3  N   UNL A   1      37.817  22.446  24.585  1.00  0.00    -0.352 N 
ATOM      4  C   UNL A   1      36.581  22.868  24.128  1.00  0.00     0.251 C 
ATOM      5  O   UNL A   1      36.428  23.088  22.922  1.00  0.00    -0.269 OA
ATOM      6  H   UNL A   1      38.330  22.011  23.865  1.00  0.00     0.163 HD
BRANCH   4   7
ATOM      7  C   UNL A   1      35.361  23.045  24.978  1.00  0.00     0.044 A 
ATOM      8  C   UNL A   1      34.677  20.580  24.855  1.00  0.00     0.045 C 
ATOM      9  C   UNL A   1      34.539  21.980  25.380  1.00  0.00    -0.038 A 
ATOM     10  C   UNL A   1      33.426  22.237  26.196  1.00  0.00     0.005 A 
ATOM     11  C   UNL A   1      32.959  23.533  26.367  1.00  0.00     0.022 A 
ATOM     12  C   UNL A   1      34.866  24.372  25.152  1.00  0.00     0.036 A 
ATOM     13  C   UNL A   1      33.615  24.595  25.741  1.00  0.00     0.088 A 
BRANCH  13  14
ATOM     14  S   UNL A   1      32.598  26.054  25.542  1.00  0.00     0.263 S 
ATOM     15  O   UNL A   1      31.776  25.807  24.372  1.00  0.00    -0.201 OA
ATOM     16  O   UNL A   1      31.967  26.277  26.829  1.00  0.00    -0.201 OA
BRANCH  14  17
ATOM     17  N   UNL A   1      33.485  27.409  25.258  1.00  0.00    -0.263 N 
ATOM     18  H   UNL A   1      34.248  27.328  24.641  1.00  0.00     0.182 HD
BRANCH  17  19
ATOM     19  C   UNL A   1      33.248  28.663  25.818  1.00  0.00     0.139 A 
ATOM     20  C   UNL A   1      33.960  29.266  26.839  1.00  0.00     0.048 A 
ATOM     21  N   UNL A   1      32.161  29.192  25.226  1.00  0.00    -0.239 NA
ATOM     22  C   UNL A   1      33.436  30.444  27.366  1.00  0.00     0.005 A 
ATOM     23  C   UNL A   1      31.688  30.339  25.751  1.00  0.00     0.113 A 
ATOM     24  C   UNL A   1      32.273  30.985  26.825  1.00  0.00     0.020 A 
ENDBRANCH  17  19
ENDBRANCH  14  17
ENDBRANCH  13  14
ENDBRANCH   4   7
ENDBRANCH   2   3
ENDBRANCH   1   2
BRANCH   1  25
ATOM     25  C   UNL A   1      41.130  21.632  26.428  1.00  0.00     0.118 C 
BRANCH  25  26
ATOM     26  N   UNL A   1      41.760  23.050  26.234  1.00  0.00    -0.352 N 
ATOM     27  C   UNL A   1      41.694  24.327  26.932  1.00  0.00     0.251 C 
ATOM     28  H   UNL A   1      42.347  23.089  25.446  1.00  0.00     0.163 HD
ATOM     29  O   UNL A   1      42.763  24.645  27.484  1.00  0.00    -0.269 OA
BRANCH  27  30
ATOM     30  C   UNL A   1      40.568  25.430  27.066  1.00  0.00     0.039 A 
ATOM     31  C   UNL A   1      40.661  26.661  26.337  1.00  0.00     0.014 A 
ATOM     32  C   UNL A   1      39.492  25.408  27.944  1.00  0.00     0.014 A 
ATOM     33  C   UNL A   1      40.123  27.897  26.877  1.00  0.00     0.010 A 
ATOM     34  C   UNL A   1      38.968  26.626  28.487  1.00  0.00     0.010 A 
ATOM     35  C   UNL A   1      39.461  27.886  28.116  1.00  0.00    -0.014 A 
BRANCH  35  36
ATOM     36  C   UNL A   1      39.502  29.022  29.135  1.00  0.00     0.031 A 
ATOM     37  C   UNL A   1      38.547  30.123  29.082  1.00  0.00     0.074 A 
ATOM     38  C   UNL A   1      40.250  29.126  30.277  1.00  0.00     0.049 A 
ATOM     39  N   UNL A   1      38.855  31.378  29.144  1.00  0.00    -0.248 NA
ATOM     40  C   UNL A   1      37.126  29.837  29.086  1.00  0.00     0.031 C 
ATOM     41  C   UNL A   1      40.271  30.077  31.404  1.00  0.00     0.029 A 
ATOM     42  N   UNL A   1      41.213  28.261  30.734  1.00  0.00    -0.354 N 
ATOM     43  C   UNL A   1      37.694  32.015  29.529  1.00  0.00     0.074 A 
ATOM     44  C   UNL A   1      36.631  31.063  29.263  1.00  0.00     0.031 C 
ATOM     45  C   UNL A   1      41.416  29.925  32.111  1.00  0.00     0.029 A 
ATOM     46  C   UNL A   1      42.212  28.907  31.456  1.00  0.00     0.049 A 
ATOM     47  H   UNL A   1      41.199  27.291  30.569  1.00  0.00     0.167 HD
ATOM     48  C   UNL A   1      37.711  33.134  30.321  1.00  0.00     0.037 A 
ATOM     49  C   UNL A   1      43.483  28.952  30.933  1.00  0.00     0.037 A 
ATOM     50  C   UNL A   1      39.044  33.384  30.907  1.00  0.00     0.049 A 
ATOM     51  C   UNL A   1      43.759  30.350  30.428  1.00  0.00     0.074 A 
ATOM     52  C   UNL A   1      39.554  33.334  32.201  1.00  0.00     0.029 A 
ATOM     53  N   UNL A   1      40.162  33.460  30.092  1.00  0.00    -0.354 N 
ATOM     54  N   UNL A   1      43.046  31.378  30.789  1.00  0.00    -0.248 NA
ATOM     55  C   UNL A   1      44.769  30.711  29.433  1.00  0.00     0.031 C 
ATOM     56  C   UNL A   1      40.979  33.403  32.140  1.00  0.00     0.029 A 
ATOM     57  C   UNL A   1      41.345  33.514  30.812  1.00  0.00     0.049 A 
ATOM     58  H   UNL A   1      40.120  33.474  29.108  1.00  0.00     0.167 HD
ATOM     59  C   UNL A   1      43.345  32.456  30.014  1.00  0.00     0.074 A 
ATOM     60  C   UNL A   1      44.476  32.009  29.216  1.00  0.00     0.031 C 
ATOM     61  C   UNL A   1      42.602  33.601  30.076  1.00  0.00     0.037 A 
BRANCH  48  62
ATOM     62  C   UNL A   1      36.435  33.813  30.806  1.00  0.00     0.058 A 
ATOM     63  C   UNL A   1      35.465  34.316  29.913  1.00  0.00     0.135 A 
ATOM     64  C   UNL A   1      36.081  33.946  32.169  1.00  0.00     0.135 A 
ATOM     65  F   UNL A   1      35.563  34.128  28.590  1.00  0.00    -0.206 F 
ATOM     66  C   UNL A   1      34.317  34.994  30.334  1.00  0.00     0.059 A 
ATOM     67  C   UNL A   1      34.987  34.690  32.617  1.00  0.00     0.059 A 
ATOM     68  F   UNL A   1      36.738  33.279  33.130  1.00  0.00    -0.206 F 
ATOM     69  C   UNL A   1      34.100  35.206  31.688  1.00  0.00     0.060 A 
BRANCH  69  70
ATOM     70  S   UNL A   1      32.603  36.055  32.220  1.00  0.00     0.124 S 
ATOM     71  O   UNL A   1      32.228  36.806  31.026  1.00  0.00    -0.237 OA
ATOM     72  O   UNL A   1      31.731  34.937  32.568  1.00  0.00    -0.237 OA
ATOM     73  O   UNL A   1      33.052  36.867  33.348  1.00  0.00    -0.744 OA
ENDBRANCH  69  70
ENDBRANCH  48  62
BRANCH  49  74
ATOM     74  C   UNL A   1      43.982  27.639  30.270  1.00  0.00     0.058 A 
ATOM     75  C   UNL A   1      44.614  27.848  29.024  1.00  0.00     0.135 A 
ATOM     76  C   UNL A   1      44.741  26.864  31.126  1.00  0.00     0.135 A 
ATOM     77  F   UNL A   1      43.871  28.007  27.923  1.00  0.00    -0.206 F 
ATOM     78  C   UNL A   1      46.000  28.010  28.920  1.00  0.00     0.059 A 
ATOM     79  C   UNL A   1      46.128  27.044  31.048  1.00  0.00     0.059 A 
ATOM     80  F   UNL A   1      44.204  26.409  32.273  1.00  0.00    -0.206 F 
ATOM     81  C   UNL A   1      46.739  27.803  30.063  1.00  0.00     0.060 A 
BRANCH  81  82
ATOM     82  S   UNL A   1      48.377  28.824  30.378  1.00  0.00     0.124 S 
ATOM     83  O   UNL A   1      47.817  29.967  31.080  1.00  0.00    -0.237 OA
ATOM     84  O   UNL A   1      49.205  27.988  31.208  1.00  0.00    -0.237 OA
ATOM     85  O   UNL A   1      48.940  29.156  29.074  1.00  0.00    -0.744 OA
ENDBRANCH  81  82
ENDBRANCH  49  74
BRANCH  61  86
ATOM     86  C   UNL A   1      42.975  34.894  29.401  1.00  0.00     0.058 A 
ATOM     87  C   UNL A   1      43.153  35.000  28.012  1.00  0.00     0.135 A 
ATOM     88  C   UNL A   1      43.305  36.052  30.145  1.00  0.00     0.135 A 
ATOM     89  F   UNL A   1      43.036  33.928  27.212  1.00  0.00    -0.206 F 
ATOM     90  C   UNL A   1      43.504  36.199  27.396  1.00  0.00     0.059 A 
ATOM     91  C   UNL A   1      43.699  37.245  29.556  1.00  0.00     0.059 A 
ATOM     92  F   UNL A   1      43.262  36.087  31.481  1.00  0.00    -0.206 F 
ATOM     93  C   UNL A   1      43.757  37.322  28.177  1.00  0.00     0.060 A 
BRANCH  93  94
ATOM     94  S   UNL A   1      44.192  38.874  27.383  1.00  0.00     0.124 S 
ATOM     95  O   UNL A   1      45.378  38.508  26.615  1.00  0.00    -0.237 OA
ATOM     96  O   UNL A   1      42.990  39.144  26.601  1.00  0.00    -0.237 OA
ATOM     97  O   UNL A   1      44.431  39.779  28.503  1.00  0.00    -0.744 OA
ENDBRANCH  93  94
ENDBRANCH  61  86
ENDBRANCH  35  36
ENDBRANCH  27  30
ENDBRANCH  25  26
ENDBRANCH   1  25
TORSDOF 16
ENDMDL
MODEL 2
REMARK VINA RESULT:     -11.7      5.037      9.853
REMARK SMILES Cc1ccc(S(=O)(=O)Nc2ccccn2)cc1C(=O)NCCCNC(=O)c1ccc(-c2c3nc(c(-c4c(F)cc(S(=O)(=O)[O-])cc4F)c4ccc([nH]4)c(-c4c(F)cc(S(=O)(=O)[O-])cc4F)c4nc(c(-c5c(F)cc(S(=O)(=O)[O-])cc5F)c5ccc2[nH]5)C=C4)C=C3)cc1
REMARK SMILES IDX 22 1 21 2 20 3 18 4 19 5 17 7 1 8 2 9 3 10 4 11 16 12 5 13
REMARK SMILES IDX 6 14 7 15 8 16 9 17 10 19 11 20 15 21 12 22 14 23 13 24
REMARK SMILES IDX 23 25 24 26 25 27 26 29 27 30 28 31 92 32 29 33 91 34 30 35
REMARK SMILES IDX 31 36 32 37 85 38 33 39 90 40 84 41 86 42 34 43 89 44 83 45
REMARK SMILES IDX 82 46 35 48 69 49 48 50 68 51 49 52 52 53 67 54 87 55 50 56
REMARK SMILES IDX 51 57 66 59 88 60 53 61 36 62 37 63 46 64 38 65 39 66 45 67
REMARK SMILES IDX 47 68 40 69 41 70 42 71 43 72 44 73 70 74 71 75 80 76 72 77
REMARK SMILES IDX 73 78 79 79 81 80 74 81 75 82 76 83 77 84 78 85 54 86 55 87
REMARK SMILES IDX 64 88 56 89 57 90 63 91 65 92 58 93 59 94 60 95 61 96 62 97
REMARK H PARENT 20 6 9 18 24 28 86 47 52 58
REMARK Flexibility Score: inf
ROOT
ATOM      1  C   UNL A   1      34.045  29.753  27.423  1.00  0.00     0.042 C 
ENDROOT
BRANCH   1   2
ATOM      2  C   UNL A   1      33.151  29.314  26.144  1.00  0.00     0.118 C 
BRANCH   2   3
ATOM      3  N   UNL A   1      32.122  28.265  26.320  1.00  0.00    -0.352 N 
ATOM      4  C   UNL A   1      31.991  26.906  26.096  1.00  0.00     0.251 C 
ATOM      5  O   UNL A   1      31.162  26.265  26.752  1.00  0.00    -0.269 OA
ATOM      6  H   UNL A   1      31.296  28.641  26.703  1.00  0.00     0.163 HD
BRANCH   4   7
ATOM      7  C   UNL A   1      32.750  26.123  25.069  1.00  0.00     0.044 A 
ATOM      8  C   UNL A   1      31.429  27.065  23.088  1.00  0.00     0.045 C 
ATOM      9  C   UNL A   1      32.548  26.264  23.687  1.00  0.00    -0.038 A 
ATOM     10  C   UNL A   1      33.322  25.503  22.796  1.00  0.00     0.005 A 
ATOM     11  C   UNL A   1      34.062  24.420  23.250  1.00  0.00     0.022 A 
ATOM     12  C   UNL A   1      33.505  25.001  25.523  1.00  0.00     0.036 A 
ATOM     13  C   UNL A   1      34.057  24.095  24.608  1.00  0.00     0.088 A 
BRANCH  13  14
ATOM     14  S   UNL A   1      34.517  22.399  24.946  1.00  0.00     0.263 S 
ATOM     15  O   UNL A   1      34.280  22.199  26.363  1.00  0.00    -0.201 OA
ATOM     16  O   UNL A   1      33.800  21.592  23.977  1.00  0.00    -0.201 OA
BRANCH  14  17
ATOM     17  N   UNL A   1      36.108  22.107  24.654  1.00  0.00    -0.263 N 
ATOM     18  H   UNL A   1      36.331  21.574  23.857  1.00  0.00     0.182 HD
BRANCH  17  19
ATOM     19  C   UNL A   1      37.170  22.550  25.442  1.00  0.00     0.139 A 
ATOM     20  C   UNL A   1      37.336  23.814  25.977  1.00  0.00     0.048 A 
ATOM     21  N   UNL A   1      38.054  21.542  25.565  1.00  0.00    -0.239 NA
ATOM     22  C   UNL A   1      38.562  24.089  26.579  1.00  0.00     0.005 A 
ATOM     23  C   UNL A   1      39.223  21.838  26.166  1.00  0.00     0.113 A 
ATOM     24  C   UNL A   1      39.530  23.091  26.664  1.00  0.00     0.020 A 
ENDBRANCH  17  19
ENDBRANCH  14  17
ENDBRANCH  13  14
ENDBRANCH   4   7
ENDBRANCH   2   3
ENDBRANCH   1   2
BRANCH   1  25
ATOM     25  C   UNL A   1      35.616  29.899  27.184  1.00  0.00     0.118 C 
BRANCH  25  26
ATOM     26  N   UNL A   1      36.733  29.634  28.245  1.00  0.00    -0.352 N 
ATOM     27  C   UNL A   1      38.188  29.691  28.267  1.00  0.00     0.251 C 
ATOM     28  H   UNL A   1      36.360  29.361  29.114  1.00  0.00     0.163 HD
ATOM     29  O   UNL A   1      38.637  30.605  28.982  1.00  0.00    -0.269 OA
BRANCH  27  30
ATOM     30  C   UNL A   1      39.317  28.782  27.631  1.00  0.00     0.039 A 
ATOM     31  C   UNL A   1      39.436  27.402  28.001  1.00  0.00     0.014 A 
ATOM     32  C   UNL A   1      40.344  29.203  26.797  1.00  0.00     0.014 A 
ATOM     33  C   UNL A   1      40.729  26.740  28.029  1.00  0.00     0.010 A 
ATOM     34  C   UNL A   1      41.623  28.559  26.832  1.00  0.00     0.010 A 
ATOM     35  C   UNL A   1      41.881  27.447  27.648  1.00  0.00    -0.014 A 
BRANCH  35  36
ATOM     36  C   UNL A   1      43.264  27.254  28.264  1.00  0.00     0.031 A 
ATOM     37  C   UNL A   1      44.117  28.393  28.585  1.00  0.00     0.074 A 
ATOM     38  C   UNL A   1      43.838  26.109  28.746  1.00  0.00     0.049 A 
ATOM     39  N   UNL A   1      45.364  28.503  28.257  1.00  0.00    -0.248 NA
ATOM     40  C   UNL A   1      43.609  29.447  29.440  1.00  0.00     0.031 C 
ATOM     41  C   UNL A   1      45.078  25.819  29.491  1.00  0.00     0.029 A 
ATOM     42  N   UNL A   1      43.332  24.832  28.709  1.00  0.00    -0.354 N 
ATOM     43  C   UNL A   1      45.882  29.443  29.124  1.00  0.00     0.074 A 
ATOM     44  C   UNL A   1      44.728  30.138  29.665  1.00  0.00     0.031 C 
ATOM     45  C   UNL A   1      45.347  24.492  29.437  1.00  0.00     0.029 A 
ATOM     46  C   UNL A   1      44.328  23.864  28.621  1.00  0.00     0.049 A 
ATOM     47  H   UNL A   1      42.370  24.626  28.740  1.00  0.00     0.167 HD
ATOM     48  C   UNL A   1      47.175  29.378  29.574  1.00  0.00     0.037 A 
ATOM     49  C   UNL A   1      44.425  23.118  27.471  1.00  0.00     0.037 A 
ATOM     50  C   UNL A   1      47.815  28.086  29.250  1.00  0.00     0.049 A 
ATOM     51  C   UNL A   1      45.627  23.584  26.680  1.00  0.00     0.074 A 
ATOM     52  C   UNL A   1      48.251  27.008  30.015  1.00  0.00     0.029 A 
ATOM     53  N   UNL A   1      47.826  27.619  27.946  1.00  0.00    -0.354 N 
ATOM     54  N   UNL A   1      46.579  24.296  27.210  1.00  0.00    -0.248 NA
ATOM     55  C   UNL A   1      45.832  23.383  25.246  1.00  0.00     0.031 C 
ATOM     56  C   UNL A   1      48.539  25.912  29.147  1.00  0.00     0.029 A 
ATOM     57  C   UNL A   1      48.298  26.319  27.849  1.00  0.00     0.049 A 
ATOM     58  H   UNL A   1      47.531  28.153  27.173  1.00  0.00     0.167 HD
ATOM     59  C   UNL A   1      47.402  24.780  26.241  1.00  0.00     0.074 A 
ATOM     60  C   UNL A   1      46.930  24.132  25.027  1.00  0.00     0.031 C 
ATOM     61  C   UNL A   1      48.368  25.704  26.527  1.00  0.00     0.037 A 
BRANCH  48  62
ATOM     62  C   UNL A   1      47.743  30.374  30.579  1.00  0.00     0.058 A 
ATOM     63  C   UNL A   1      47.743  30.124  31.967  1.00  0.00     0.135 A 
ATOM     64  C   UNL A   1      48.367  31.591  30.216  1.00  0.00     0.135 A 
ATOM     65  F   UNL A   1      47.340  28.950  32.469  1.00  0.00    -0.206 F 
ATOM     66  C   UNL A   1      48.205  31.048  32.910  1.00  0.00     0.059 A 
ATOM     67  C   UNL A   1      48.759  32.565  31.137  1.00  0.00     0.059 A 
ATOM     68  F   UNL A   1      48.707  31.850  28.945  1.00  0.00    -0.206 F 
ATOM     69  C   UNL A   1      48.683  32.281  32.489  1.00  0.00     0.060 A 
BRANCH  69  70
ATOM     70  S   UNL A   1      49.303  33.451  33.711  1.00  0.00     0.124 S 
ATOM     71  O   UNL A   1      49.095  34.735  33.047  1.00  0.00    -0.237 OA
ATOM     72  O   UNL A   1      48.438  33.178  34.854  1.00  0.00    -0.237 OA
ATOM     73  O   UNL A   1      50.700  33.060  33.880  1.00  0.00    -0.744 OA
ENDBRANCH  69  70
ENDBRANCH  48  62
BRANCH  49  74
ATOM     74  C   UNL A   1      43.076  22.641  26.865  1.00  0.00     0.058 A 
ATOM     75  C   UNL A   1      43.031  22.744  25.457  1.00  0.00     0.135 A 
ATOM     76  C   UNL A   1      42.700  21.391  27.317  1.00  0.00     0.135 A 
ATOM     77  F   UNL A   1      42.758  23.924  24.888  1.00  0.00    -0.206 F 
ATOM     78  C   UNL A   1      43.375  21.670  24.628  1.00  0.00     0.059 A 
ATOM     79  C   UNL A   1      43.070  20.309  26.507  1.00  0.00     0.059 A 
ATOM     80  F   UNL A   1      42.501  21.185  28.633  1.00  0.00    -0.206 F 
ATOM     81  C   UNL A   1      43.614  20.462  25.242  1.00  0.00     0.060 A 
BRANCH  81  82
ATOM     82  S   UNL A   1      44.929  19.219  24.500  1.00  0.00     0.124 S 
ATOM     83  O   UNL A   1      44.767  18.113  25.429  1.00  0.00    -0.237 OA
ATOM     84  O   UNL A   1      44.478  18.923  23.166  1.00  0.00    -0.237 OA
ATOM     85  O   UNL A   1      46.234  19.867  24.584  1.00  0.00    -0.744 OA
ENDBRANCH  81  82
ENDBRANCH  49  74
BRANCH  61  86
ATOM     86  C   UNL A   1      49.435  26.145  25.562  1.00  0.00     0.058 A 
ATOM     87  C   UNL A   1      50.794  25.840  25.745  1.00  0.00     0.135 A 
ATOM     88  C   UNL A   1      49.149  27.015  24.483  1.00  0.00     0.135 A 
ATOM     89  F   UNL A   1      51.216  25.164  26.826  1.00  0.00    -0.206 F 
ATOM     90  C   UNL A   1      51.777  26.256  24.850  1.00  0.00     0.059 A 
ATOM     91  C   UNL A   1      50.118  27.478  23.605  1.00  0.00     0.059 A 
ATOM     92  F   UNL A   1      47.915  27.460  24.225  1.00  0.00    -0.206 F 
ATOM     93  C   UNL A   1      51.425  27.061  23.771  1.00  0.00     0.060 A 
BRANCH  93  94
ATOM     94  S   UNL A   1      52.689  27.585  22.607  1.00  0.00     0.124 S 
ATOM     95  O   UNL A   1      53.708  28.150  23.487  1.00  0.00    -0.237 OA
ATOM     96  O   UNL A   1      53.035  26.320  21.969  1.00  0.00    -0.237 OA
ATOM     97  O   UNL A   1      51.996  28.550  21.758  1.00  0.00    -0.744 OA
ENDBRANCH  93  94
ENDBRANCH  61  86
ENDBRANCH  35  36
ENDBRANCH  27  30
ENDBRANCH  25  26
ENDBRANCH   1  25
TORSDOF 16
ENDMDL
MODEL 3
REMARK VINA RESULT:     -11.5      4.268     10.183
REMARK SMILES Cc1ccc(S(=O)(=O)Nc2ccccn2)cc1C(=O)NCCCNC(=O)c1ccc(-c2c3nc(c(-c4c(F)cc(S(=O)(=O)[O-])cc4F)c4ccc([nH]4)c(-c4c(F)cc(S(=O)(=O)[O-])cc4F)c4nc(c(-c5c(F)cc(S(=O)(=O)[O-])cc5F)c5ccc2[nH]5)C=C4)C=C3)cc1
REMARK SMILES IDX 22 1 21 2 20 3 18 4 19 5 17 7 1 8 2 9 3 10 4 11 16 12 5 13
REMARK SMILES IDX 6 14 7 15 8 16 9 17 10 19 11 20 15 21 12 22 14 23 13 24
REMARK SMILES IDX 23 25 24 26 25 27 26 29 27 30 28 31 92 32 29 33 91 34 30 35
REMARK SMILES IDX 31 36 32 37 85 38 33 39 90 40 84 41 86 42 34 43 89 44 83 45
REMARK SMILES IDX 82 46 35 48 69 49 48 50 68 51 49 52 52 53 67 54 87 55 50 56
REMARK SMILES IDX 51 57 66 59 88 60 53 61 36 62 37 63 46 64 38 65 39 66 45 67
REMARK SMILES IDX 47 68 40 69 41 70 42 71 43 72 44 73 70 74 71 75 80 76 72 77
REMARK SMILES IDX 73 78 79 79 81 80 74 81 75 82 76 83 77 84 78 85 54 86 55 87
REMARK SMILES IDX 64 88 56 89 57 90 63 91 65 92 58 93 59 94 60 95 61 96 62 97
REMARK H PARENT 20 6 9 18 24 28 86 47 52 58
REMARK Flexibility Score: inf
ROOT
ATOM      1  C   UNL A   1      32.767  29.495  25.364  1.00  0.00     0.042 C 
ENDROOT
BRANCH   1   2
ATOM      2  C   UNL A   1      33.188  28.135  26.138  1.00  0.00     0.118 C 
BRANCH   2   3
ATOM      3  N   UNL A   1      32.152  27.109  26.392  1.00  0.00    -0.352 N 
ATOM      4  C   UNL A   1      31.994  25.745  26.226  1.00  0.00     0.251 C 
ATOM      5  O   UNL A   1      31.183  25.141  26.937  1.00  0.00    -0.269 OA
ATOM      6  H   UNL A   1      31.346  27.511  26.792  1.00  0.00     0.163 HD
BRANCH   4   7
ATOM      7  C   UNL A   1      32.703  24.912  25.202  1.00  0.00     0.044 A 
ATOM      8  C   UNL A   1      31.235  25.703  23.257  1.00  0.00     0.045 C 
ATOM      9  C   UNL A   1      32.408  24.961  23.830  1.00  0.00    -0.038 A 
ATOM     10  C   UNL A   1      33.140  24.160  22.939  1.00  0.00     0.005 A 
ATOM     11  C   UNL A   1      33.931  23.121  23.409  1.00  0.00     0.022 A 
ATOM     12  C   UNL A   1      33.511  23.834  25.674  1.00  0.00     0.036 A 
ATOM     13  C   UNL A   1      34.021  22.883  24.782  1.00  0.00     0.088 A 
BRANCH  13  14
ATOM     14  S   UNL A   1      34.540  21.221  25.193  1.00  0.00     0.263 S 
ATOM     15  O   UNL A   1      35.909  21.105  24.726  1.00  0.00    -0.201 OA
ATOM     16  O   UNL A   1      34.246  21.050  26.604  1.00  0.00    -0.201 OA
BRANCH  14  17
ATOM     17  N   UNL A   1      33.647  20.072  24.427  1.00  0.00    -0.263 N 
ATOM     18  H   UNL A   1      33.025  20.377  23.727  1.00  0.00     0.182 HD
BRANCH  17  19
ATOM     19  C   UNL A   1      33.697  18.703  24.684  1.00  0.00     0.139 A 
ATOM     20  C   UNL A   1      34.682  17.818  24.285  1.00  0.00     0.048 A 
ATOM     21  N   UNL A   1      32.585  18.359  25.360  1.00  0.00    -0.239 NA
ATOM     22  C   UNL A   1      34.438  16.463  24.495  1.00  0.00     0.005 A 
ATOM     23  C   UNL A   1      32.386  17.041  25.558  1.00  0.00     0.113 A 
ATOM     24  C   UNL A   1      33.264  16.063  25.130  1.00  0.00     0.020 A 
ENDBRANCH  17  19
ENDBRANCH  14  17
ENDBRANCH  13  14
ENDBRANCH   4   7
ENDBRANCH   2   3
ENDBRANCH   1   2
BRANCH   1  25
ATOM     25  C   UNL A   1      32.338  30.734  26.273  1.00  0.00     0.118 C 
BRANCH  25  26
ATOM     26  N   UNL A   1      33.164  31.328  27.460  1.00  0.00    -0.352 N 
ATOM     27  C   UNL A   1      34.574  31.407  27.817  1.00  0.00     0.251 C 
ATOM     28  H   UNL A   1      32.587  31.756  28.133  1.00  0.00     0.163 HD
ATOM     29  O   UNL A   1      35.031  32.563  27.778  1.00  0.00    -0.269 OA
BRANCH  27  30
ATOM     30  C   UNL A   1      35.624  30.335  28.320  1.00  0.00     0.039 A 
ATOM     31  C   UNL A   1      35.914  30.199  29.718  1.00  0.00     0.014 A 
ATOM     32  C   UNL A   1      36.438  29.541  27.525  1.00  0.00     0.014 A 
ATOM     33  C   UNL A   1      37.233  29.801  30.177  1.00  0.00     0.010 A 
ATOM     34  C   UNL A   1      37.745  29.158  27.971  1.00  0.00     0.010 A 
ATOM     35  C   UNL A   1      38.236  29.503  29.239  1.00  0.00    -0.014 A 
BRANCH  35  36
ATOM     36  C   UNL A   1      39.722  29.795  29.431  1.00  0.00     0.031 A 
ATOM     37  C   UNL A   1      40.744  28.968  28.802  1.00  0.00     0.074 A 
ATOM     38  C   UNL A   1      40.315  30.877  30.023  1.00  0.00     0.049 A 
ATOM     39  N   UNL A   1      41.774  28.471  29.407  1.00  0.00    -0.248 NA
ATOM     40  C   UNL A   1      40.716  28.764  27.367  1.00  0.00     0.031 C 
ATOM     41  C   UNL A   1      41.709  31.347  30.136  1.00  0.00     0.029 A 
ATOM     42  N   UNL A   1      39.705  31.925  30.668  1.00  0.00    -0.354 N 
ATOM     43  C   UNL A   1      42.679  28.189  28.405  1.00  0.00     0.074 A 
ATOM     44  C   UNL A   1      41.899  28.179  27.180  1.00  0.00     0.031 C 
ATOM     45  C   UNL A   1      41.798  32.292  31.102  1.00  0.00     0.029 A 
ATOM     46  C   UNL A   1      40.485  32.450  31.693  1.00  0.00     0.049 A 
ATOM     47  H   UNL A   1      38.812  32.267  30.430  1.00  0.00     0.167 HD
ATOM     48  C   UNL A   1      44.031  28.295  28.600  1.00  0.00     0.037 A 
ATOM     49  C   UNL A   1      40.057  32.305  32.991  1.00  0.00     0.037 A 
ATOM     50  C   UNL A   1      44.362  28.985  29.864  1.00  0.00     0.049 A 
ATOM     51  C   UNL A   1      40.904  31.257  33.677  1.00  0.00     0.074 A 
ATOM     52  C   UNL A   1      44.944  30.212  30.168  1.00  0.00     0.029 A 
ATOM     53  N   UNL A   1      43.823  28.545  31.061  1.00  0.00    -0.354 N 
ATOM     54  N   UNL A   1      42.054  30.870  33.206  1.00  0.00    -0.248 NA
ATOM     55  C   UNL A   1      40.520  30.499  34.867  1.00  0.00     0.031 C 
ATOM     56  C   UNL A   1      44.762  30.477  31.559  1.00  0.00     0.029 A 
ATOM     57  C   UNL A   1      44.085  29.408  32.114  1.00  0.00     0.049 A 
ATOM     58  H   UNL A   1      43.311  27.709  31.155  1.00  0.00     0.167 HD
ATOM     59  C   UNL A   1      42.487  29.763  33.868  1.00  0.00     0.074 A 
ATOM     60  C   UNL A   1      41.522  29.600  34.944  1.00  0.00     0.031 C 
ATOM     61  C   UNL A   1      43.578  29.062  33.438  1.00  0.00     0.037 A 
BRANCH  48  62
ATOM     62  C   UNL A   1      45.041  28.045  27.485  1.00  0.00     0.058 A 
ATOM     63  C   UNL A   1      45.441  29.061  26.591  1.00  0.00     0.135 A 
ATOM     64  C   UNL A   1      45.705  26.812  27.283  1.00  0.00     0.135 A 
ATOM     65  F   UNL A   1      45.035  30.328  26.741  1.00  0.00    -0.206 F 
ATOM     66  C   UNL A   1      46.320  28.840  25.527  1.00  0.00     0.059 A 
ATOM     67  C   UNL A   1      46.520  26.541  26.182  1.00  0.00     0.059 A 
ATOM     68  F   UNL A   1      45.662  25.837  28.204  1.00  0.00    -0.206 F 
ATOM     69  C   UNL A   1      46.832  27.568  25.309  1.00  0.00     0.060 A 
BRANCH  69  70
ATOM     70  S   UNL A   1      47.987  27.302  23.952  1.00  0.00     0.124 S 
ATOM     71  O   UNL A   1      47.372  28.058  22.865  1.00  0.00    -0.237 OA
ATOM     72  O   UNL A   1      49.222  27.859  24.495  1.00  0.00    -0.237 OA
ATOM     73  O   UNL A   1      47.982  25.852  23.778  1.00  0.00    -0.744 OA
ENDBRANCH  69  70
ENDBRANCH  48  62
BRANCH  49  74
ATOM     74  C   UNL A   1      38.537  32.530  33.225  1.00  0.00     0.058 A 
ATOM     75  C   UNL A   1      37.930  31.501  33.978  1.00  0.00     0.135 A 
ATOM     76  C   UNL A   1      38.254  33.788  33.721  1.00  0.00     0.135 A 
ATOM     77  F   UNL A   1      37.569  30.363  33.374  1.00  0.00    -0.206 F 
ATOM     78  C   UNL A   1      37.795  31.588  35.368  1.00  0.00     0.059 A 
ATOM     79  C   UNL A   1      38.148  33.887  35.115  1.00  0.00     0.059 A 
ATOM     80  F   UNL A   1      38.590  34.881  33.011  1.00  0.00    -0.206 F 
ATOM     81  C   UNL A   1      38.139  32.785  35.953  1.00  0.00     0.060 A 
BRANCH  81  82
ATOM     82  S   UNL A   1      38.903  32.820  37.754  1.00  0.00     0.124 S 
ATOM     83  O   UNL A   1      38.630  34.204  38.104  1.00  0.00    -0.237 OA
ATOM     84  O   UNL A   1      38.140  31.870  38.520  1.00  0.00    -0.237 OA
ATOM     85  O   UNL A   1      40.324  32.517  37.629  1.00  0.00    -0.744 OA
ENDBRANCH  81  82
ENDBRANCH  49  74
BRANCH  61  86
ATOM     86  C   UNL A   1      44.233  27.949  34.212  1.00  0.00     0.058 A 
ATOM     87  C   UNL A   1      45.569  28.010  34.642  1.00  0.00     0.135 A 
ATOM     88  C   UNL A   1      43.581  26.712  34.432  1.00  0.00     0.135 A 
ATOM     89  F   UNL A   1      46.348  29.062  34.345  1.00  0.00    -0.206 F 
ATOM     90  C   UNL A   1      46.170  26.973  35.353  1.00  0.00     0.059 A 
ATOM     91  C   UNL A   1      44.174  25.650  35.099  1.00  0.00     0.059 A 
ATOM     92  F   UNL A   1      42.334  26.471  34.012  1.00  0.00    -0.206 F 
ATOM     93  C   UNL A   1      45.456  25.803  35.592  1.00  0.00     0.060 A 
BRANCH  93  94
ATOM     94  S   UNL A   1      46.223  24.472  36.524  1.00  0.00     0.124 S 
ATOM     95  O   UNL A   1      45.190  24.140  37.500  1.00  0.00    -0.237 OA
ATOM     96  O   UNL A   1      46.447  23.480  35.477  1.00  0.00    -0.237 OA
ATOM     97  O   UNL A   1      47.426  25.087  37.075  1.00  0.00    -0.744 OA
ENDBRANCH  93  94
ENDBRANCH  61  86
ENDBRANCH  35  36
ENDBRANCH  27  30
ENDBRANCH  25  26
ENDBRANCH   1  25
TORSDOF 16
ENDMDL
