MODEL 1
REMARK VINA RESULT:     -12.5      0.000      0.000
REMARK SMILES C[C@@H](S[C@H]1CC(=O)N(c2ccc3ccccc3c2)C1=O)C(=O)NCCCNC(=O)c1ccc(-c2c3nc(c(-c4c(F)cc(S(=O)(=O)[O-])cc4F)c4ccc([nH]4)c(-c4c(F)cc(S(=O)(=O)[O-])cc4F)c4nc(c(-c5c(F)cc(S(=O)(=O)[O-])cc5F)c5ccc2[nH]5)C=C4)C=C3)cc1
REMARK SMILES IDX 25 1 24 2 23 3 21 4 22 5 2 7 1 8 3 9 4 10 5 11 19 12 6 13
REMARK SMILES IDX 8 14 20 15 7 16 9 17 10 18 18 19 11 20 17 21 12 22 16 23
REMARK SMILES IDX 13 24 15 25 14 26 26 27 27 28 28 29 29 31 30 32 31 33 95 34
REMARK SMILES IDX 32 35 94 36 33 37 34 38 35 39 88 40 36 41 93 42 87 43 89 44
REMARK SMILES IDX 37 45 92 46 86 47 85 48 38 50 72 51 51 52 71 53 52 54 55 55
REMARK SMILES IDX 70 56 90 57 53 58 54 59 69 61 91 62 56 63 39 64 40 65 49 66
REMARK SMILES IDX 41 67 42 68 48 69 50 70 43 71 44 72 45 73 46 74 47 75 73 76
REMARK SMILES IDX 74 77 83 78 75 79 76 80 82 81 84 82 77 83 78 84 79 85 80 86
REMARK SMILES IDX 81 87 57 88 58 89 67 90 59 91 60 92 66 93 68 94 61 95 62 96
REMARK SMILES IDX 63 97 64 98 65 99
REMARK H PARENT 23 6 27 30 89 49 55 60
REMARK Flexibility Score: inf
ROOT
ATOM      1  C   UNL A   1      33.675  28.455  25.350  1.00  0.00     0.042 C 
ENDROOT
BRANCH   1   2
ATOM      2  C   UNL A   1      32.548  29.239  24.718  1.00  0.00     0.117 C 
BRANCH   2   3
ATOM      3  N   UNL A   1      32.038  28.681  23.481  1.00  0.00    -0.355 N 
ATOM      4  C   UNL A   1      30.945  27.914  23.215  1.00  0.00     0.232 C 
ATOM      5  O   UNL A   1      30.607  27.852  22.027  1.00  0.00    -0.274 OA
ATOM      6  H   UNL A   1      32.582  28.894  22.687  1.00  0.00     0.163 HD
BRANCH   4   7
ATOM      7  C   UNL A   1      30.138  27.167  24.280  1.00  0.00     0.133 C 
ATOM      8  C   UNL A   1      28.738  26.712  23.898  1.00  0.00     0.030 C 
BRANCH   7   9
ATOM      9  S   UNL A   1      31.085  25.897  25.219  1.00  0.00    -0.135 SA
BRANCH   9  10
ATOM     10  C   UNL A   1      31.120  24.488  24.078  1.00  0.00     0.147 C 
ATOM     11  C   UNL A   1      31.978  24.759  22.858  1.00  0.00     0.125 C 
ATOM     12  C   UNL A   1      31.701  23.236  24.683  1.00  0.00     0.247 C 
ATOM     13  C   UNL A   1      32.779  23.506  22.685  1.00  0.00     0.235 C 
ATOM     14  N   UNL A   1      32.578  22.689  23.770  1.00  0.00    -0.250 N 
ATOM     15  O   UNL A   1      31.381  22.793  25.775  1.00  0.00    -0.273 OA
ATOM     16  O   UNL A   1      33.476  23.306  21.698  1.00  0.00    -0.274 OA
BRANCH  14  17
ATOM     17  C   UNL A   1      33.214  21.439  23.956  1.00  0.00     0.052 A 
ATOM     18  C   UNL A   1      34.453  21.363  24.600  1.00  0.00     0.027 A 
ATOM     19  C   UNL A   1      32.603  20.252  23.525  1.00  0.00     0.035 A 
ATOM     20  C   UNL A   1      35.024  20.121  24.890  1.00  0.00     0.011 A 
ATOM     21  C   UNL A   1      33.194  18.998  23.760  1.00  0.00    -0.016 A 
ATOM     22  C   UNL A   1      34.400  18.932  24.490  1.00  0.00    -0.018 A 
ATOM     23  C   UNL A   1      32.606  17.812  23.296  1.00  0.00     0.009 A 
ATOM     24  C   UNL A   1      34.949  17.677  24.796  1.00  0.00     0.009 A 
ATOM     25  C   UNL A   1      33.177  16.572  23.587  1.00  0.00     0.001 A 
ATOM     26  C   UNL A   1      34.337  16.505  24.352  1.00  0.00     0.001 A 
ENDBRANCH  14  17
ENDBRANCH   9  10
ENDBRANCH   7   9
ENDBRANCH   4   7
ENDBRANCH   2   3
ENDBRANCH   1   2
BRANCH   1  27
ATOM     27  C   UNL A   1      33.646  28.457  26.871  1.00  0.00     0.118 C 
BRANCH  27  28
ATOM     28  N   UNL A   1      33.584  29.793  27.457  1.00  0.00    -0.352 N 
ATOM     29  C   UNL A   1      34.504  30.516  28.183  1.00  0.00     0.251 C 
ATOM     30  H   UNL A   1      32.732  30.261  27.306  1.00  0.00     0.163 HD
ATOM     31  O   UNL A   1      34.151  31.565  28.715  1.00  0.00    -0.269 OA
BRANCH  29  32
ATOM     32  C   UNL A   1      35.890  30.028  28.351  1.00  0.00     0.039 A 
ATOM     33  C   UNL A   1      36.786  30.114  27.282  1.00  0.00     0.014 A 
ATOM     34  C   UNL A   1      36.312  29.480  29.560  1.00  0.00     0.014 A 
ATOM     35  C   UNL A   1      38.119  29.733  27.463  1.00  0.00     0.010 A 
ATOM     36  C   UNL A   1      37.660  29.247  29.784  1.00  0.00     0.010 A 
ATOM     37  C   UNL A   1      38.579  29.343  28.732  1.00  0.00    -0.014 A 
BRANCH  37  38
ATOM     38  C   UNL A   1      39.999  28.985  28.981  1.00  0.00     0.031 A 
ATOM     39  C   UNL A   1      40.938  30.010  29.568  1.00  0.00     0.074 A 
ATOM     40  C   UNL A   1      40.461  27.776  28.606  1.00  0.00     0.049 A 
ATOM     41  N   UNL A   1      42.228  29.931  29.767  1.00  0.00    -0.248 NA
ATOM     42  C   UNL A   1      40.360  31.316  29.929  1.00  0.00     0.031 C 
ATOM     43  C   UNL A   1      39.672  26.727  27.952  1.00  0.00     0.029 A 
ATOM     44  N   UNL A   1      41.711  27.224  28.714  1.00  0.00    -0.354 N 
ATOM     45  C   UNL A   1      42.615  31.181  30.240  1.00  0.00     0.074 A 
ATOM     46  C   UNL A   1      41.440  32.022  30.226  1.00  0.00     0.031 C 
ATOM     47  C   UNL A   1      40.445  25.647  27.759  1.00  0.00     0.029 A 
ATOM     48  C   UNL A   1      41.791  25.936  28.240  1.00  0.00     0.049 A 
ATOM     49  H   UNL A   1      42.481  27.705  29.096  1.00  0.00     0.167 HD
ATOM     50  C   UNL A   1      43.828  31.583  30.687  1.00  0.00     0.037 A 
ATOM     51  C   UNL A   1      42.832  25.083  28.205  1.00  0.00     0.037 A 
ATOM     52  C   UNL A   1      44.977  30.720  30.759  1.00  0.00     0.049 A 
ATOM     53  C   UNL A   1      44.153  25.526  28.774  1.00  0.00     0.074 A 
ATOM     54  C   UNL A   1      46.236  31.000  31.259  1.00  0.00     0.029 A 
ATOM     55  N   UNL A   1      44.997  29.400  30.334  1.00  0.00    -0.354 N 
ATOM     56  N   UNL A   1      44.486  26.693  29.272  1.00  0.00    -0.248 NA
ATOM     57  C   UNL A   1      45.232  24.531  28.793  1.00  0.00     0.031 C 
ATOM     58  C   UNL A   1      47.027  29.853  31.111  1.00  0.00     0.029 A 
ATOM     59  C   UNL A   1      46.248  28.850  30.559  1.00  0.00     0.049 A 
ATOM     60  H   UNL A   1      44.235  28.924  29.932  1.00  0.00     0.167 HD
ATOM     61  C   UNL A   1      45.804  26.564  29.695  1.00  0.00     0.074 A 
ATOM     62  C   UNL A   1      46.201  25.200  29.404  1.00  0.00     0.031 C 
ATOM     63  C   UNL A   1      46.614  27.486  30.272  1.00  0.00     0.037 A 
BRANCH  50  64
ATOM     64  C   UNL A   1      43.961  33.008  31.155  1.00  0.00     0.058 A 
ATOM     65  C   UNL A   1      43.726  33.369  32.493  1.00  0.00     0.135 A 
ATOM     66  C   UNL A   1      44.335  34.023  30.261  1.00  0.00     0.135 A 
ATOM     67  F   UNL A   1      43.347  32.443  33.387  1.00  0.00    -0.206 F 
ATOM     68  C   UNL A   1      43.819  34.691  32.917  1.00  0.00     0.059 A 
ATOM     69  C   UNL A   1      44.465  35.347  30.671  1.00  0.00     0.059 A 
ATOM     70  F   UNL A   1      44.569  33.736  28.971  1.00  0.00    -0.206 F 
ATOM     71  C   UNL A   1      44.186  35.673  31.998  1.00  0.00     0.060 A 
BRANCH  71  72
ATOM     72  S   UNL A   1      44.302  37.383  32.565  1.00  0.00     0.124 S 
ATOM     73  O   UNL A   1      45.678  37.434  33.049  1.00  0.00    -0.237 OA
ATOM     74  O   UNL A   1      44.031  38.138  31.346  1.00  0.00    -0.237 OA
ATOM     75  O   UNL A   1      43.272  37.469  33.596  1.00  0.00    -0.744 OA
ENDBRANCH  71  72
ENDBRANCH  50  64
BRANCH  51  76
ATOM     76  C   UNL A   1      42.651  23.707  27.668  1.00  0.00     0.058 A 
ATOM     77  C   UNL A   1      42.743  23.455  26.291  1.00  0.00     0.135 A 
ATOM     78  C   UNL A   1      42.399  22.619  28.516  1.00  0.00     0.135 A 
ATOM     79  F   UNL A   1      42.982  24.464  25.440  1.00  0.00    -0.206 F 
ATOM     80  C   UNL A   1      42.571  22.178  25.770  1.00  0.00     0.059 A 
ATOM     81  C   UNL A   1      42.248  21.326  28.021  1.00  0.00     0.059 A 
ATOM     82  F   UNL A   1      42.325  22.802  29.844  1.00  0.00    -0.206 F 
ATOM     83  C   UNL A   1      42.324  21.118  26.644  1.00  0.00     0.060 A 
BRANCH  83  84
ATOM     84  S   UNL A   1      42.147  19.455  25.961  1.00  0.00     0.124 S 
ATOM     85  O   UNL A   1      43.001  19.530  24.782  1.00  0.00    -0.237 OA
ATOM     86  O   UNL A   1      42.637  18.621  27.054  1.00  0.00    -0.237 OA
ATOM     87  O   UNL A   1      40.714  19.353  25.700  1.00  0.00    -0.744 OA
ENDBRANCH  83  84
ENDBRANCH  51  76
BRANCH  63  88
ATOM     88  C   UNL A   1      47.990  27.034  30.669  1.00  0.00     0.058 A 
ATOM     89  C   UNL A   1      48.235  26.402  31.899  1.00  0.00     0.135 A 
ATOM     90  C   UNL A   1      49.074  27.218  29.797  1.00  0.00     0.135 A 
ATOM     91  F   UNL A   1      47.232  26.205  32.770  1.00  0.00    -0.206 F 
ATOM     92  C   UNL A   1      49.517  26.009  32.268  1.00  0.00     0.059 A 
ATOM     93  C   UNL A   1      50.358  26.806  30.133  1.00  0.00     0.059 A 
ATOM     94  F   UNL A   1      48.889  27.802  28.602  1.00  0.00    -0.206 F 
ATOM     95  C   UNL A   1      50.573  26.221  31.380  1.00  0.00     0.060 A 
BRANCH  95  96
ATOM     96  S   UNL A   1      52.233  25.709  31.868  1.00  0.00     0.124 S 
ATOM     97  O   UNL A   1      52.507  26.621  32.973  1.00  0.00    -0.237 OA
ATOM     98  O   UNL A   1      52.036  24.309  32.234  1.00  0.00    -0.237 OA
ATOM     99  O   UNL A   1      53.024  25.928  30.661  1.00  0.00    -0.744 OA
ENDBRANCH  95  96
ENDBRANCH  63  88
ENDBRANCH  37  38
ENDBRANCH  29  32
ENDBRANCH  27  28
ENDBRANCH   1  27
TORSDOF 16
ENDMDL
MODEL 2
REMARK VINA RESULT:     -12.4      4.777     10.792
REMARK SMILES C[C@@H](S[C@H]1CC(=O)N(c2ccc3ccccc3c2)C1=O)C(=O)NCCCNC(=O)c1ccc(-c2c3nc(c(-c4c(F)cc(S(=O)(=O)[O-])cc4F)c4ccc([nH]4)c(-c4c(F)cc(S(=O)(=O)[O-])cc4F)c4nc(c(-c5c(F)cc(S(=O)(=O)[O-])cc5F)c5ccc2[nH]5)C=C4)C=C3)cc1
REMARK SMILES IDX 25 1 24 2 23 3 21 4 22 5 2 7 1 8 3 9 4 10 5 11 19 12 6 13
REMARK SMILES IDX 8 14 20 15 7 16 9 17 10 18 18 19 11 20 17 21 12 22 16 23
REMARK SMILES IDX 13 24 15 25 14 26 26 27 27 28 28 29 29 31 30 32 31 33 95 34
REMARK SMILES IDX 32 35 94 36 33 37 34 38 35 39 88 40 36 41 93 42 87 43 89 44
REMARK SMILES IDX 37 45 92 46 86 47 85 48 38 50 72 51 51 52 71 53 52 54 55 55
REMARK SMILES IDX 70 56 90 57 53 58 54 59 69 61 91 62 56 63 39 64 40 65 49 66
REMARK SMILES IDX 41 67 42 68 48 69 50 70 43 71 44 72 45 73 46 74 47 75 73 76
REMARK SMILES IDX 74 77 83 78 75 79 76 80 82 81 84 82 77 83 78 84 79 85 80 86
REMARK SMILES IDX 81 87 57 88 58 89 67 90 59 91 60 92 66 93 68 94 61 95 62 96
REMARK SMILES IDX 63 97 64 98 65 99
REMARK H PARENT 23 6 27 30 89 49 55 60
REMARK Flexibility Score: inf
ROOT
ATOM      1  C   UNL A   1      37.842  23.956  26.128  1.00  0.00     0.042 C 
ENDROOT
BRANCH   1   2
ATOM      2  C   UNL A   1      37.527  23.127  24.904  1.00  0.00     0.117 C 
BRANCH   2   3
ATOM      3  N   UNL A   1      37.080  21.776  25.184  1.00  0.00    -0.355 N 
ATOM      4  C   UNL A   1      35.883  21.158  24.988  1.00  0.00     0.232 C 
ATOM      5  O   UNL A   1      35.900  19.923  25.042  1.00  0.00    -0.274 OA
ATOM      6  H   UNL A   1      37.769  21.200  25.590  1.00  0.00     0.163 HD
BRANCH   4   7
ATOM      7  C   UNL A   1      34.572  21.894  24.700  1.00  0.00     0.133 C 
ATOM      8  C   UNL A   1      33.381  21.049  24.275  1.00  0.00     0.030 C 
BRANCH   7   9
ATOM      9  S   UNL A   1      34.136  23.204  25.917  1.00  0.00    -0.135 SA
BRANCH   9  10
ATOM     10  C   UNL A   1      34.342  24.732  24.962  1.00  0.00     0.147 C 
ATOM     11  C   UNL A   1      34.477  24.467  23.476  1.00  0.00     0.125 C 
ATOM     12  C   UNL A   1      33.174  25.678  25.077  1.00  0.00     0.247 C 
ATOM     13  C   UNL A   1      33.589  25.490  22.837  1.00  0.00     0.235 C 
ATOM     14  N   UNL A   1      32.870  26.134  23.812  1.00  0.00    -0.250 N 
ATOM     15  O   UNL A   1      32.653  25.995  26.135  1.00  0.00    -0.273 OA
ATOM     16  O   UNL A   1      33.569  25.673  21.626  1.00  0.00    -0.274 OA
BRANCH  14  17
ATOM     17  C   UNL A   1      31.902  27.135  23.559  1.00  0.00     0.052 A 
ATOM     18  C   UNL A   1      32.293  28.417  23.162  1.00  0.00     0.027 A 
ATOM     19  C   UNL A   1      30.532  26.853  23.676  1.00  0.00     0.035 A 
ATOM     20  C   UNL A   1      31.337  29.368  22.797  1.00  0.00     0.011 A 
ATOM     21  C   UNL A   1      29.558  27.818  23.366  1.00  0.00    -0.016 A 
ATOM     22  C   UNL A   1      29.968  29.078  22.881  1.00  0.00    -0.018 A 
ATOM     23  C   UNL A   1      28.188  27.553  23.520  1.00  0.00     0.009 A 
ATOM     24  C   UNL A   1      28.997  30.015  22.495  1.00  0.00     0.009 A 
ATOM     25  C   UNL A   1      27.234  28.504  23.155  1.00  0.00     0.001 A 
ATOM     26  C   UNL A   1      27.638  29.726  22.626  1.00  0.00     0.001 A 
ENDBRANCH  14  17
ENDBRANCH   9  10
ENDBRANCH   7   9
ENDBRANCH   4   7
ENDBRANCH   2   3
ENDBRANCH   1   2
BRANCH   1  27
ATOM     27  C   UNL A   1      39.118  23.536  26.841  1.00  0.00     0.118 C 
BRANCH  27  28
ATOM     28  N   UNL A   1      40.339  23.958  26.161  1.00  0.00    -0.352 N 
ATOM     29  C   UNL A   1      41.102  25.099  26.274  1.00  0.00     0.251 C 
ATOM     30  H   UNL A   1      40.679  23.310  25.503  1.00  0.00     0.163 HD
ATOM     31  O   UNL A   1      42.002  25.296  25.463  1.00  0.00    -0.269 OA
BRANCH  29  32
ATOM     32  C   UNL A   1      40.827  26.092  27.334  1.00  0.00     0.039 A 
ATOM     33  C   UNL A   1      39.951  25.768  28.374  1.00  0.00     0.014 A 
ATOM     34  C   UNL A   1      41.425  27.350  27.306  1.00  0.00     0.014 A 
ATOM     35  C   UNL A   1      39.755  26.672  29.422  1.00  0.00     0.010 A 
ATOM     36  C   UNL A   1      41.351  28.179  28.415  1.00  0.00     0.010 A 
ATOM     37  C   UNL A   1      40.493  27.866  29.476  1.00  0.00    -0.014 A 
BRANCH  37  38
ATOM     38  C   UNL A   1      40.357  28.828  30.599  1.00  0.00     0.031 A 
ATOM     39  C   UNL A   1      41.234  28.685  31.819  1.00  0.00     0.074 A 
ATOM     40  C   UNL A   1      39.396  29.772  30.562  1.00  0.00     0.049 A 
ATOM     41  N   UNL A   1      41.205  29.353  32.942  1.00  0.00    -0.248 NA
ATOM     42  C   UNL A   1      42.245  27.613  31.792  1.00  0.00     0.031 C 
ATOM     43  C   UNL A   1      38.429  29.961  29.475  1.00  0.00     0.029 A 
ATOM     44  N   UNL A   1      39.067  30.750  31.465  1.00  0.00    -0.354 N 
ATOM     45  C   UNL A   1      42.162  28.761  33.760  1.00  0.00     0.074 A 
ATOM     46  C   UNL A   1      42.701  27.634  33.035  1.00  0.00     0.031 C 
ATOM     47  C   UNL A   1      37.648  31.015  29.757  1.00  0.00     0.029 A 
ATOM     48  C   UNL A   1      38.031  31.555  31.056  1.00  0.00     0.049 A 
ATOM     49  H   UNL A   1      39.529  30.864  32.327  1.00  0.00     0.167 HD
ATOM     50  C   UNL A   1      42.586  29.145  34.988  1.00  0.00     0.037 A 
ATOM     51  C   UNL A   1      37.461  32.616  31.659  1.00  0.00     0.037 A 
ATOM     52  C   UNL A   1      42.091  30.306  35.676  1.00  0.00     0.049 A 
ATOM     53  C   UNL A   1      37.997  33.069  32.990  1.00  0.00     0.074 A 
ATOM     54  C   UNL A   1      42.497  30.829  36.890  1.00  0.00     0.029 A 
ATOM     55  N   UNL A   1      41.090  31.138  35.195  1.00  0.00    -0.354 N 
ATOM     56  N   UNL A   1      38.943  32.532  33.723  1.00  0.00    -0.248 NA
ATOM     57  C   UNL A   1      37.402  34.281  33.566  1.00  0.00     0.031 C 
ATOM     58  C   UNL A   1      41.721  31.964  37.156  1.00  0.00     0.029 A 
ATOM     59  C   UNL A   1      40.864  32.171  36.088  1.00  0.00     0.049 A 
ATOM     60  H   UNL A   1      40.611  31.012  34.343  1.00  0.00     0.167 HD
ATOM     61  C   UNL A   1      39.081  33.359  34.832  1.00  0.00     0.074 A 
ATOM     62  C   UNL A   1      38.127  34.438  34.664  1.00  0.00     0.031 C 
ATOM     63  C   UNL A   1      39.917  33.240  35.892  1.00  0.00     0.037 A 
BRANCH  50  64
ATOM     64  C   UNL A   1      43.655  28.312  35.646  1.00  0.00     0.058 A 
ATOM     65  C   UNL A   1      45.019  28.529  35.392  1.00  0.00     0.135 A 
ATOM     66  C   UNL A   1      43.313  27.292  36.548  1.00  0.00     0.135 A 
ATOM     67  F   UNL A   1      45.403  29.478  34.523  1.00  0.00    -0.206 F 
ATOM     68  C   UNL A   1      46.004  27.740  35.977  1.00  0.00     0.059 A 
ATOM     69  C   UNL A   1      44.284  26.511  37.169  1.00  0.00     0.059 A 
ATOM     70  F   UNL A   1      42.025  27.039  36.827  1.00  0.00    -0.206 F 
ATOM     71  C   UNL A   1      45.626  26.731  36.862  1.00  0.00     0.060 A 
BRANCH  71  72
ATOM     72  S   UNL A   1      46.917  25.716  37.613  1.00  0.00     0.124 S 
ATOM     73  O   UNL A   1      46.302  24.392  37.573  1.00  0.00    -0.237 OA
ATOM     74  O   UNL A   1      48.042  25.919  36.707  1.00  0.00    -0.237 OA
ATOM     75  O   UNL A   1      47.072  26.295  38.944  1.00  0.00    -0.744 OA
ENDBRANCH  71  72
ENDBRANCH  50  64
BRANCH  51  76
ATOM     76  C   UNL A   1      36.362  33.357  30.982  1.00  0.00     0.058 A 
ATOM     77  C   UNL A   1      35.054  33.323  31.489  1.00  0.00     0.135 A 
ATOM     78  C   UNL A   1      36.597  34.123  29.831  1.00  0.00     0.135 A 
ATOM     79  F   UNL A   1      34.780  32.603  32.587  1.00  0.00    -0.206 F 
ATOM     80  C   UNL A   1      34.013  34.003  30.867  1.00  0.00     0.059 A 
ATOM     81  C   UNL A   1      35.577  34.834  29.205  1.00  0.00     0.059 A 
ATOM     82  F   UNL A   1      37.836  34.208  29.320  1.00  0.00    -0.206 F 
ATOM     83  C   UNL A   1      34.285  34.758  29.725  1.00  0.00     0.060 A 
BRANCH  83  84
ATOM     84  S   UNL A   1      32.935  35.676  28.951  1.00  0.00     0.124 S 
ATOM     85  O   UNL A   1      32.132  36.047  30.109  1.00  0.00    -0.237 OA
ATOM     86  O   UNL A   1      33.645  36.765  28.288  1.00  0.00    -0.237 OA
ATOM     87  O   UNL A   1      32.335  34.693  28.054  1.00  0.00    -0.744 OA
ENDBRANCH  83  84
ENDBRANCH  51  76
BRANCH  63  88
ATOM     88  C   UNL A   1      39.871  34.330  36.925  1.00  0.00     0.058 A 
ATOM     89  C   UNL A   1      39.070  34.229  38.073  1.00  0.00     0.135 A 
ATOM     90  C   UNL A   1      40.657  35.483  36.770  1.00  0.00     0.135 A 
ATOM     91  F   UNL A   1      38.298  33.147  38.265  1.00  0.00    -0.206 F 
ATOM     92  C   UNL A   1      39.016  35.253  39.011  1.00  0.00     0.059 A 
ATOM     93  C   UNL A   1      40.641  36.507  37.711  1.00  0.00     0.059 A 
ATOM     94  F   UNL A   1      41.453  35.621  35.699  1.00  0.00    -0.206 F 
ATOM     95  C   UNL A   1      39.801  36.391  38.818  1.00  0.00     0.060 A 
BRANCH  95  96
ATOM     96  S   UNL A   1      39.722  37.718  40.040  1.00  0.00     0.124 S 
ATOM     97  O   UNL A   1      38.565  38.475  39.575  1.00  0.00    -0.237 OA
ATOM     98  O   UNL A   1      39.540  36.984  41.288  1.00  0.00    -0.237 OA
ATOM     99  O   UNL A   1      41.011  38.387  39.896  1.00  0.00    -0.744 OA
ENDBRANCH  95  96
ENDBRANCH  63  88
ENDBRANCH  37  38
ENDBRANCH  29  32
ENDBRANCH  27  28
ENDBRANCH   1  27
TORSDOF 16
ENDMDL
MODEL 3
REMARK VINA RESULT:     -12.4      3.306      5.279
REMARK SMILES C[C@@H](S[C@H]1CC(=O)N(c2ccc3ccccc3c2)C1=O)C(=O)NCCCNC(=O)c1ccc(-c2c3nc(c(-c4c(F)cc(S(=O)(=O)[O-])cc4F)c4ccc([nH]4)c(-c4c(F)cc(S(=O)(=O)[O-])cc4F)c4nc(c(-c5c(F)cc(S(=O)(=O)[O-])cc5F)c5ccc2[nH]5)C=C4)C=C3)cc1
REMARK SMILES IDX 25 1 24 2 23 3 21 4 22 5 2 7 1 8 3 9 4 10 5 11 19 12 6 13
REMARK SMILES IDX 8 14 20 15 7 16 9 17 10 18 18 19 11 20 17 21 12 22 16 23
REMARK SMILES IDX 13 24 15 25 14 26 26 27 27 28 28 29 29 31 30 32 31 33 95 34
REMARK SMILES IDX 32 35 94 36 33 37 34 38 35 39 88 40 36 41 93 42 87 43 89 44
REMARK SMILES IDX 37 45 92 46 86 47 85 48 38 50 72 51 51 52 71 53 52 54 55 55
REMARK SMILES IDX 70 56 90 57 53 58 54 59 69 61 91 62 56 63 39 64 40 65 49 66
REMARK SMILES IDX 41 67 42 68 48 69 50 70 43 71 44 72 45 73 46 74 47 75 73 76
REMARK SMILES IDX 74 77 83 78 75 79 76 80 82 81 84 82 77 83 78 84 79 85 80 86
REMARK SMILES IDX 81 87 57 88 58 89 67 90 59 91 60 92 66 93 68 94 61 95 62 96
REMARK SMILES IDX 63 97 64 98 65 99
REMARK H PARENT 23 6 27 30 89 49 55 60
REMARK Flexibility Score: inf
ROOT
ATOM      1  C   UNL A   1      33.729  28.405  24.540  1.00  0.00     0.042 C 
ENDROOT
BRANCH   1   2
ATOM      2  C   UNL A   1      33.599  26.952  24.146  1.00  0.00     0.117 C 
BRANCH   2   3
ATOM      3  N   UNL A   1      34.272  26.020  25.030  1.00  0.00    -0.355 N 
ATOM      4  C   UNL A   1      34.490  24.679  24.938  1.00  0.00     0.232 C 
ATOM      5  O   UNL A   1      35.356  24.222  25.693  1.00  0.00    -0.274 OA
ATOM      6  H   UNL A   1      34.637  26.432  25.847  1.00  0.00     0.163 HD
BRANCH   4   7
ATOM      7  C   UNL A   1      33.752  23.752  23.968  1.00  0.00     0.133 C 
ATOM      8  C   UNL A   1      34.511  23.297  22.731  1.00  0.00     0.030 C 
BRANCH   7   9
ATOM      9  S   UNL A   1      32.790  22.402  24.770  1.00  0.00    -0.135 SA
BRANCH   9  10
ATOM     10  C   UNL A   1      31.292  23.252  25.338  1.00  0.00     0.147 C 
ATOM     11  C   UNL A   1      31.569  24.190  26.496  1.00  0.00     0.125 C 
ATOM     12  C   UNL A   1      30.655  24.122  24.285  1.00  0.00     0.247 C 
ATOM     13  C   UNL A   1      30.814  25.437  26.148  1.00  0.00     0.235 C 
ATOM     14  N   UNL A   1      30.330  25.328  24.869  1.00  0.00    -0.250 N 
ATOM     15  O   UNL A   1      30.437  23.759  23.140  1.00  0.00    -0.273 OA
ATOM     16  O   UNL A   1      30.684  26.363  26.938  1.00  0.00    -0.274 OA
BRANCH  14  17
ATOM     17  C   UNL A   1      29.603  26.343  24.202  1.00  0.00     0.052 A 
ATOM     18  C   UNL A   1      28.205  26.353  24.233  1.00  0.00     0.027 A 
ATOM     19  C   UNL A   1      30.271  27.373  23.521  1.00  0.00     0.035 A 
ATOM     20  C   UNL A   1      27.493  27.418  23.678  1.00  0.00     0.011 A 
ATOM     21  C   UNL A   1      29.564  28.421  22.909  1.00  0.00    -0.016 A 
ATOM     22  C   UNL A   1      28.158  28.464  23.026  1.00  0.00    -0.018 A 
ATOM     23  C   UNL A   1      30.225  29.432  22.192  1.00  0.00     0.009 A 
ATOM     24  C   UNL A   1      27.457  29.553  22.484  1.00  0.00     0.009 A 
ATOM     25  C   UNL A   1      29.512  30.495  21.638  1.00  0.00     0.001 A 
ATOM     26  C   UNL A   1      28.131  30.566  21.800  1.00  0.00     0.001 A 
ENDBRANCH  14  17
ENDBRANCH   9  10
ENDBRANCH   7   9
ENDBRANCH   4   7
ENDBRANCH   2   3
ENDBRANCH   1   2
BRANCH   1  27
ATOM     27  C   UNL A   1      33.862  28.625  26.039  1.00  0.00     0.118 C 
BRANCH  27  28
ATOM     28  N   UNL A   1      33.751  30.025  26.442  1.00  0.00    -0.352 N 
ATOM     29  C   UNL A   1      34.486  30.784  27.324  1.00  0.00     0.251 C 
ATOM     30  H   UNL A   1      33.017  30.513  26.003  1.00  0.00     0.163 HD
ATOM     31  O   UNL A   1      34.087  31.907  27.620  1.00  0.00    -0.269 OA
BRANCH  29  32
ATOM     32  C   UNL A   1      35.723  30.251  27.935  1.00  0.00     0.039 A 
ATOM     33  C   UNL A   1      36.939  30.384  27.259  1.00  0.00     0.014 A 
ATOM     34  C   UNL A   1      35.690  29.613  29.173  1.00  0.00     0.014 A 
ATOM     35  C   UNL A   1      38.122  29.958  27.871  1.00  0.00     0.010 A 
ATOM     36  C   UNL A   1      36.872  29.332  29.841  1.00  0.00     0.010 A 
ATOM     37  C   UNL A   1      38.103  29.473  29.189  1.00  0.00    -0.014 A 
BRANCH  37  38
ATOM     38  C   UNL A   1      39.343  29.063  29.897  1.00  0.00     0.031 A 
ATOM     39  C   UNL A   1      39.760  29.783  31.156  1.00  0.00     0.074 A 
ATOM     40  C   UNL A   1      40.132  28.107  29.369  1.00  0.00     0.049 A 
ATOM     41  N   UNL A   1      40.852  29.648  31.863  1.00  0.00    -0.248 NA
ATOM     42  C   UNL A   1      38.855  30.833  31.656  1.00  0.00     0.031 C 
ATOM     43  C   UNL A   1      39.880  27.393  28.113  1.00  0.00     0.029 A 
ATOM     44  N   UNL A   1      41.312  27.573  29.818  1.00  0.00    -0.354 N 
ATOM     45  C   UNL A   1      40.778  30.613  32.863  1.00  0.00     0.074 A 
ATOM     46  C   UNL A   1      39.573  31.376  32.626  1.00  0.00     0.031 C 
ATOM     47  C   UNL A   1      40.851  26.487  27.917  1.00  0.00     0.029 A 
ATOM     48  C   UNL A   1      41.812  26.579  29.010  1.00  0.00     0.049 A 
ATOM     49  H   UNL A   1      41.760  27.873  30.641  1.00  0.00     0.167 HD
ATOM     50  C   UNL A   1      41.612  30.820  33.909  1.00  0.00     0.037 A 
ATOM     51  C   UNL A   1      42.918  25.822  29.143  1.00  0.00     0.037 A 
ATOM     52  C   UNL A   1      42.773  30.013  34.174  1.00  0.00     0.049 A 
ATOM     53  C   UNL A   1      43.792  26.019  30.352  1.00  0.00     0.074 A 
ATOM     54  C   UNL A   1      43.650  30.087  35.241  1.00  0.00     0.029 A 
ATOM     55  N   UNL A   1      43.206  28.969  33.370  1.00  0.00    -0.354 N 
ATOM     56  N   UNL A   1      43.675  26.898  31.318  1.00  0.00    -0.248 NA
ATOM     57  C   UNL A   1      44.936  25.112  30.497  1.00  0.00     0.031 C 
ATOM     58  C   UNL A   1      44.631  29.103  35.067  1.00  0.00     0.029 A 
ATOM     59  C   UNL A   1      44.339  28.391  33.916  1.00  0.00     0.049 A 
ATOM     60  H   UNL A   1      42.772  28.682  32.533  1.00  0.00     0.167 HD
ATOM     61  C   UNL A   1      44.711  26.628  32.205  1.00  0.00     0.074 A 
ATOM     62  C   UNL A   1      45.436  25.496  31.663  1.00  0.00     0.031 C 
ATOM     63  C   UNL A   1      45.035  27.256  33.363  1.00  0.00     0.037 A 
BRANCH  50  64
ATOM     64  C   UNL A   1      41.279  31.945  34.853  1.00  0.00     0.058 A 
ATOM     65  C   UNL A   1      40.410  31.761  35.942  1.00  0.00     0.135 A 
ATOM     66  C   UNL A   1      41.840  33.219  34.674  1.00  0.00     0.135 A 
ATOM     67  F   UNL A   1      39.829  30.569  36.150  1.00  0.00    -0.206 F 
ATOM     68  C   UNL A   1      40.079  32.808  36.795  1.00  0.00     0.059 A 
ATOM     69  C   UNL A   1      41.548  34.273  35.535  1.00  0.00     0.059 A 
ATOM     70  F   UNL A   1      42.675  33.453  33.650  1.00  0.00    -0.206 F 
ATOM     71  C   UNL A   1      40.652  34.062  36.581  1.00  0.00     0.060 A 
BRANCH  71  72
ATOM     72  S   UNL A   1      40.212  35.411  37.698  1.00  0.00     0.124 S 
ATOM     73  O   UNL A   1      39.822  36.453  36.753  1.00  0.00    -0.237 OA
ATOM     74  O   UNL A   1      39.127  34.829  38.482  1.00  0.00    -0.237 OA
ATOM     75  O   UNL A   1      41.449  35.661  38.431  1.00  0.00    -0.744 OA
ENDBRANCH  71  72
ENDBRANCH  50  64
BRANCH  51  76
ATOM     76  C   UNL A   1      43.226  24.769  28.138  1.00  0.00     0.058 A 
ATOM     77  C   UNL A   1      43.880  25.089  26.939  1.00  0.00     0.135 A 
ATOM     78  C   UNL A   1      42.888  23.425  28.359  1.00  0.00     0.135 A 
ATOM     79  F   UNL A   1      44.222  26.360  26.681  1.00  0.00    -0.206 F 
ATOM     80  C   UNL A   1      44.170  24.120  25.985  1.00  0.00     0.059 A 
ATOM     81  C   UNL A   1      43.191  22.433  27.431  1.00  0.00     0.059 A 
ATOM     82  F   UNL A   1      42.282  23.062  29.501  1.00  0.00    -0.206 F 
ATOM     83  C   UNL A   1      43.822  22.793  26.241  1.00  0.00     0.060 A 
BRANCH  83  84
ATOM     84  S   UNL A   1      44.245  21.534  25.015  1.00  0.00     0.124 S 
ATOM     85  O   UNL A   1      45.590  21.159  25.434  1.00  0.00    -0.237 OA
ATOM     86  O   UNL A   1      43.204  20.534  25.231  1.00  0.00    -0.237 OA
ATOM     87  O   UNL A   1      44.154  22.257  23.750  1.00  0.00    -0.744 OA
ENDBRANCH  83  84
ENDBRANCH  51  76
BRANCH  63  88
ATOM     88  C   UNL A   1      46.193  26.700  34.141  1.00  0.00     0.058 A 
ATOM     89  C   UNL A   1      47.503  27.173  33.958  1.00  0.00     0.135 A 
ATOM     90  C   UNL A   1      45.984  25.694  35.096  1.00  0.00     0.135 A 
ATOM     91  F   UNL A   1      47.755  28.133  33.054  1.00  0.00    -0.206 F 
ATOM     92  C   UNL A   1      48.572  26.635  34.666  1.00  0.00     0.059 A 
ATOM     93  C   UNL A   1      47.034  25.163  35.837  1.00  0.00     0.059 A 
ATOM     94  F   UNL A   1      44.749  25.219  35.321  1.00  0.00    -0.206 F 
ATOM     95  C   UNL A   1      48.328  25.626  35.599  1.00  0.00     0.060 A 
BRANCH  95  96
ATOM     96  S   UNL A   1      49.722  24.932  36.512  1.00  0.00     0.124 S 
ATOM     97  O   UNL A   1      49.651  23.526  36.129  1.00  0.00    -0.237 OA
ATOM     98  O   UNL A   1      50.854  25.681  35.972  1.00  0.00    -0.237 OA
ATOM     99  O   UNL A   1      49.394  25.223  37.904  1.00  0.00    -0.744 OA
ENDBRANCH  95  96
ENDBRANCH  63  88
ENDBRANCH  37  38
ENDBRANCH  29  32
ENDBRANCH  27  28
ENDBRANCH   1  27
TORSDOF 16
ENDMDL
