MODEL 1
REMARK VINA RESULT:     -10.4      0.000      0.000
REMARK SMILES CC[C@H]1CC[C@](O)([C@H](F)C(=O)NCCCNC(=O)c2ccc(-c3c4nc(c(-c5c(F)cc(S(=O)(=O)[O-])cc5F)c5ccc([nH]5)c(-c5c(F)cc(S(=O)(=O)[O-])cc5F)c5nc(c(-c6c(F)cc(S(=O)(=O)[O-])cc6F)c6ccc3[nH]6)C=C5)C=C4)cc2)CC1
REMARK SMILES IDX 14 1 13 2 12 3 10 4 11 5 8 7 9 8 6 9 3 10 4 11 86 12 5 13
REMARK SMILES IDX 85 14 2 15 1 16 7 17 15 19 16 20 17 21 18 23 19 24 20 25
REMARK SMILES IDX 84 26 21 27 83 28 22 29 23 30 24 31 77 32 25 33 82 34 76 35
REMARK SMILES IDX 78 36 26 37 81 38 75 39 74 40 27 42 61 43 40 44 60 45 41 46
REMARK SMILES IDX 44 47 59 48 79 49 42 50 43 51 58 53 80 54 45 55 28 56 29 57
REMARK SMILES IDX 38 58 30 59 31 60 37 61 39 62 32 63 33 64 34 65 35 66 36 67
REMARK SMILES IDX 62 68 63 69 72 70 64 71 65 72 71 73 73 74 66 75 67 76 68 77
REMARK SMILES IDX 69 78 70 79 46 80 47 81 56 82 48 83 49 84 55 85 57 86 50 87
REMARK SMILES IDX 51 88 52 89 53 90 54 91
REMARK H PARENT 12 6 7 18 16 22 78 41 44 52
REMARK Flexibility Score: inf
ROOT
ATOM      1  C   UNL A   1      33.490  33.632  28.288  1.00  0.00     0.042 C 
ENDROOT
BRANCH   1   2
ATOM      2  C   UNL A   1      33.919  34.762  29.199  1.00  0.00     0.117 C 
BRANCH   2   3
ATOM      3  N   UNL A   1      32.895  35.127  30.157  1.00  0.00    -0.353 N 
ATOM      4  C   UNL A   1      33.023  35.246  31.506  1.00  0.00     0.257 C 
ATOM      5  O   UNL A   1      32.036  35.628  32.144  1.00  0.00    -0.272 OA
ATOM      6  H   UNL A   1      32.001  35.309  29.788  1.00  0.00     0.163 HD
BRANCH   4   7
ATOM      7  C   UNL A   1      34.352  34.977  32.201  1.00  0.00     0.286 C 
ATOM      8  F   UNL A   1      34.675  35.959  33.100  1.00  0.00    -0.234 F 
BRANCH   7   9
ATOM      9  C   UNL A   1      34.504  33.574  32.873  1.00  0.00     0.105 C 
ATOM     10  C   UNL A   1      37.290  32.478  32.473  1.00  0.00    -0.011 C 
ATOM     11  C   UNL A   1      37.009  33.673  33.396  1.00  0.00     0.006 C 
ATOM     12  C   UNL A   1      36.239  32.437  31.351  1.00  0.00     0.006 C 
ATOM     13  C   UNL A   1      35.592  33.653  33.968  1.00  0.00     0.039 C 
ATOM     14  C   UNL A   1      34.817  32.417  31.902  1.00  0.00     0.039 C 
BRANCH  10  15
ATOM     15  C   UNL A   1      37.366  31.108  33.184  1.00  0.00    -0.000 C 
ATOM     16  C   UNL A   1      38.769  30.549  33.351  1.00  0.00     0.004 C 
ENDBRANCH  10  15
BRANCH   9  17
ATOM     17  O   UNL A   1      33.279  33.220  33.547  1.00  0.00    -0.386 OA
ATOM     18  H   UNL A   1      33.146  33.810  34.305  1.00  0.00     0.211 HD
ENDBRANCH   9  17
ENDBRANCH   7   9
ENDBRANCH   4   7
ENDBRANCH   2   3
ENDBRANCH   1   2
BRANCH   1  19
ATOM     19  C   UNL A   1      34.499  32.504  28.175  1.00  0.00     0.118 C 
BRANCH  19  20
ATOM     20  N   UNL A   1      33.890  31.197  27.967  1.00  0.00    -0.352 N 
ATOM     21  C   UNL A   1      34.486  29.958  27.939  1.00  0.00     0.251 C 
ATOM     22  H   UNL A   1      32.916  31.202  27.826  1.00  0.00     0.163 HD
ATOM     23  O   UNL A   1      33.835  28.970  27.608  1.00  0.00    -0.269 OA
BRANCH  21  24
ATOM     24  C   UNL A   1      35.919  29.832  28.277  1.00  0.00     0.039 A 
ATOM     25  C   UNL A   1      36.282  29.405  29.556  1.00  0.00     0.014 A 
ATOM     26  C   UNL A   1      36.900  30.086  27.316  1.00  0.00     0.014 A 
ATOM     27  C   UNL A   1      37.626  29.160  29.842  1.00  0.00     0.010 A 
ATOM     28  C   UNL A   1      38.219  29.730  27.566  1.00  0.00     0.010 A 
ATOM     29  C   UNL A   1      38.602  29.278  28.837  1.00  0.00    -0.014 A 
BRANCH  29  30
ATOM     30  C   UNL A   1      40.027  28.956  29.098  1.00  0.00     0.031 A 
ATOM     31  C   UNL A   1      40.927  29.987  29.727  1.00  0.00     0.074 A 
ATOM     32  C   UNL A   1      40.527  27.764  28.711  1.00  0.00     0.049 A 
ATOM     33  N   UNL A   1      42.208  29.919  29.985  1.00  0.00    -0.248 NA
ATOM     34  C   UNL A   1      40.316  31.281  30.077  1.00  0.00     0.031 C 
ATOM     35  C   UNL A   1      39.775  26.711  28.024  1.00  0.00     0.029 A 
ATOM     36  N   UNL A   1      41.789  27.240  28.834  1.00  0.00    -0.354 N 
ATOM     37  C   UNL A   1      42.555  31.161  30.506  1.00  0.00     0.074 A 
ATOM     38  C   UNL A   1      41.368  31.985  30.465  1.00  0.00     0.031 C 
ATOM     39  C   UNL A   1      40.579  25.655  27.820  1.00  0.00     0.029 A 
ATOM     40  C   UNL A   1      41.911  25.967  28.327  1.00  0.00     0.049 A 
ATOM     41  H   UNL A   1      42.537  27.728  29.248  1.00  0.00     0.167 HD
ATOM     42  C   UNL A   1      43.746  31.570  31.004  1.00  0.00     0.037 A 
ATOM     43  C   UNL A   1      42.976  25.144  28.281  1.00  0.00     0.037 A 
ATOM     44  C   UNL A   1      44.913  30.730  31.079  1.00  0.00     0.049 A 
ATOM     45  C   UNL A   1      44.279  25.604  28.878  1.00  0.00     0.074 A 
ATOM     46  C   UNL A   1      46.148  31.021  31.627  1.00  0.00     0.029 A 
ATOM     47  N   UNL A   1      44.983  29.431  30.597  1.00  0.00    -0.354 N 
ATOM     48  N   UNL A   1      44.570  26.757  29.432  1.00  0.00    -0.248 NA
ATOM     49  C   UNL A   1      45.393  24.648  28.857  1.00  0.00     0.031 C 
ATOM     50  C   UNL A   1      46.980  29.911  31.443  1.00  0.00     0.029 A 
ATOM     51  C   UNL A   1      46.247  28.911  30.823  1.00  0.00     0.049 A 
ATOM     52  H   UNL A   1      44.245  28.950  30.158  1.00  0.00     0.167 HD
ATOM     53  C   UNL A   1      45.892  26.655  29.851  1.00  0.00     0.074 A 
ATOM     54  C   UNL A   1      46.337  25.322  29.498  1.00  0.00     0.031 C 
ATOM     55  C   UNL A   1      46.668  27.578  30.470  1.00  0.00     0.037 A 
BRANCH  42  56
ATOM     56  C   UNL A   1      43.838  32.980  31.518  1.00  0.00     0.058 A 
ATOM     57  C   UNL A   1      43.630  33.286  32.873  1.00  0.00     0.135 A 
ATOM     58  C   UNL A   1      44.163  34.037  30.652  1.00  0.00     0.135 A 
ATOM     59  F   UNL A   1      43.299  32.319  33.743  1.00  0.00    -0.206 F 
ATOM     60  C   UNL A   1      43.707  34.592  33.345  1.00  0.00     0.059 A 
ATOM     61  C   UNL A   1      44.275  35.348  31.109  1.00  0.00     0.059 A 
ATOM     62  F   UNL A   1      44.370  33.803  29.347  1.00  0.00    -0.206 F 
ATOM     63  C   UNL A   1      44.030  35.617  32.455  1.00  0.00     0.060 A 
BRANCH  63  64
ATOM     64  S   UNL A   1      44.134  37.306  33.085  1.00  0.00     0.124 S 
ATOM     65  O   UNL A   1      42.886  37.412  33.835  1.00  0.00    -0.237 OA
ATOM     66  O   UNL A   1      45.353  37.265  33.885  1.00  0.00    -0.237 OA
ATOM     67  O   UNL A   1      44.209  38.116  31.874  1.00  0.00    -0.744 OA
ENDBRANCH  63  64
ENDBRANCH  42  56
BRANCH  43  68
ATOM     68  C   UNL A   1      42.845  23.787  27.685  1.00  0.00     0.058 A 
ATOM     69  C   UNL A   1      42.527  22.677  28.482  1.00  0.00     0.135 A 
ATOM     70  C   UNL A   1      43.017  23.574  26.309  1.00  0.00     0.135 A 
ATOM     71  F   UNL A   1      42.355  22.829  29.805  1.00  0.00    -0.206 F 
ATOM     72  C   UNL A   1      42.408  21.401  27.943  1.00  0.00     0.059 A 
ATOM     73  C   UNL A   1      42.878  22.312  25.741  1.00  0.00     0.059 A 
ATOM     74  F   UNL A   1      43.302  24.606  25.500  1.00  0.00    -0.206 F 
ATOM     75  C   UNL A   1      42.584  21.228  26.569  1.00  0.00     0.060 A 
BRANCH  75  76
ATOM     76  S   UNL A   1      42.380  19.575  25.871  1.00  0.00     0.124 S 
ATOM     77  O   UNL A   1      40.977  19.598  25.469  1.00  0.00    -0.237 OA
ATOM     78  O   UNL A   1      43.355  19.575  24.786  1.00  0.00    -0.237 OA
ATOM     79  O   UNL A   1      42.701  18.696  26.992  1.00  0.00    -0.744 OA
ENDBRANCH  75  76
ENDBRANCH  43  68
BRANCH  55  80
ATOM     80  C   UNL A   1      48.065  27.164  30.842  1.00  0.00     0.058 A 
ATOM     81  C   UNL A   1      49.172  27.497  30.046  1.00  0.00     0.135 A 
ATOM     82  C   UNL A   1      48.299  26.451  32.028  1.00  0.00     0.135 A 
ATOM     83  F   UNL A   1      49.000  28.175  28.901  1.00  0.00    -0.206 F 
ATOM     84  C   UNL A   1      50.459  27.103  30.394  1.00  0.00     0.059 A 
ATOM     85  C   UNL A   1      49.582  26.072  32.410  1.00  0.00     0.059 A 
ATOM     86  F   UNL A   1      47.277  26.120  32.833  1.00  0.00    -0.206 F 
ATOM     87  C   UNL A   1      50.654  26.388  31.577  1.00  0.00     0.060 A 
BRANCH  87  88
ATOM     88  S   UNL A   1      52.330  25.889  32.023  1.00  0.00     0.124 S 
ATOM     89  O   UNL A   1      53.006  25.948  30.731  1.00  0.00    -0.237 OA
ATOM     90  O   UNL A   1      52.716  26.913  32.988  1.00  0.00    -0.237 OA
ATOM     91  O   UNL A   1      52.150  24.551  32.578  1.00  0.00    -0.744 OA
ENDBRANCH  87  88
ENDBRANCH  55  80
ENDBRANCH  29  30
ENDBRANCH  21  24
ENDBRANCH  19  20
ENDBRANCH   1  19
TORSDOF 16
ENDMDL
MODEL 2
REMARK VINA RESULT:     -10.2      4.642     12.610
REMARK SMILES CC[C@H]1CC[C@](O)([C@H](F)C(=O)NCCCNC(=O)c2ccc(-c3c4nc(c(-c5c(F)cc(S(=O)(=O)[O-])cc5F)c5ccc([nH]5)c(-c5c(F)cc(S(=O)(=O)[O-])cc5F)c5nc(c(-c6c(F)cc(S(=O)(=O)[O-])cc6F)c6ccc3[nH]6)C=C5)C=C4)cc2)CC1
REMARK SMILES IDX 14 1 13 2 12 3 10 4 11 5 8 7 9 8 6 9 3 10 4 11 86 12 5 13
REMARK SMILES IDX 85 14 2 15 1 16 7 17 15 19 16 20 17 21 18 23 19 24 20 25
REMARK SMILES IDX 84 26 21 27 83 28 22 29 23 30 24 31 77 32 25 33 82 34 76 35
REMARK SMILES IDX 78 36 26 37 81 38 75 39 74 40 27 42 61 43 40 44 60 45 41 46
REMARK SMILES IDX 44 47 59 48 79 49 42 50 43 51 58 53 80 54 45 55 28 56 29 57
REMARK SMILES IDX 38 58 30 59 31 60 37 61 39 62 32 63 33 64 34 65 35 66 36 67
REMARK SMILES IDX 62 68 63 69 72 70 64 71 65 72 71 73 73 74 66 75 67 76 68 77
REMARK SMILES IDX 69 78 70 79 46 80 47 81 56 82 48 83 49 84 55 85 57 86 50 87
REMARK SMILES IDX 51 88 52 89 53 90 54 91
REMARK H PARENT 12 6 7 18 16 22 78 41 44 52
REMARK Flexibility Score: inf
ROOT
ATOM      1  C   UNL A   1      41.037  21.473  27.313  1.00  0.00     0.042 C 
ENDROOT
BRANCH   1   2
ATOM      2  C   UNL A   1      42.516  21.268  27.060  1.00  0.00     0.117 C 
BRANCH   2   3
ATOM      3  N   UNL A   1      42.774  20.372  25.952  1.00  0.00    -0.353 N 
ATOM      4  C   UNL A   1      43.867  20.340  25.143  1.00  0.00     0.257 C 
ATOM      5  O   UNL A   1      43.921  19.453  24.286  1.00  0.00    -0.272 OA
ATOM      6  H   UNL A   1      42.073  19.707  25.760  1.00  0.00     0.163 HD
BRANCH   4   7
ATOM      7  C   UNL A   1      45.015  21.326  25.328  1.00  0.00     0.286 C 
ATOM      8  F   UNL A   1      46.239  20.720  25.234  1.00  0.00    -0.234 F 
BRANCH   7   9
ATOM      9  C   UNL A   1      44.982  22.596  24.418  1.00  0.00     0.105 C 
ATOM     10  C   UNL A   1      45.768  25.064  25.973  1.00  0.00    -0.011 C 
ATOM     11  C   UNL A   1      46.783  23.968  25.614  1.00  0.00     0.006 C 
ATOM     12  C   UNL A   1      44.366  24.444  26.099  1.00  0.00     0.006 C 
ATOM     13  C   UNL A   1      46.401  23.204  24.347  1.00  0.00     0.039 C 
ATOM     14  C   UNL A   1      43.966  23.676  24.843  1.00  0.00     0.039 C 
BRANCH  10  15
ATOM     15  C   UNL A   1      45.734  26.265  25.001  1.00  0.00    -0.000 C 
ATOM     16  C   UNL A   1      45.406  27.601  25.645  1.00  0.00     0.004 C 
ENDBRANCH  10  15
BRANCH   9  17
ATOM     17  O   UNL A   1      44.635  22.220  23.068  1.00  0.00    -0.386 OA
ATOM     18  H   UNL A   1      44.112  21.404  23.086  1.00  0.00     0.211 HD
ENDBRANCH   9  17
ENDBRANCH   7   9
ENDBRANCH   4   7
ENDBRANCH   2   3
ENDBRANCH   1   2
BRANCH   1  19
ATOM     19  C   UNL A   1      40.631  22.924  27.498  1.00  0.00     0.118 C 
BRANCH  19  20
ATOM     20  N   UNL A   1      40.844  23.743  26.313  1.00  0.00    -0.352 N 
ATOM     21  C   UNL A   1      40.892  25.113  26.202  1.00  0.00     0.251 C 
ATOM     22  H   UNL A   1      40.969  23.247  25.472  1.00  0.00     0.163 HD
ATOM     23  O   UNL A   1      40.938  25.640  25.093  1.00  0.00    -0.269 OA
BRANCH  21  24
ATOM     24  C   UNL A   1      40.852  25.943  27.425  1.00  0.00     0.039 A 
ATOM     25  C   UNL A   1      41.861  26.884  27.643  1.00  0.00     0.014 A 
ATOM     26  C   UNL A   1      39.793  25.827  28.328  1.00  0.00     0.014 A 
ATOM     27  C   UNL A   1      41.762  27.758  28.726  1.00  0.00     0.010 A 
ATOM     28  C   UNL A   1      39.638  26.771  29.334  1.00  0.00     0.010 A 
ATOM     29  C   UNL A   1      40.627  27.739  29.556  1.00  0.00    -0.014 A 
BRANCH  29  30
ATOM     30  C   UNL A   1      40.467  28.705  30.672  1.00  0.00     0.031 A 
ATOM     31  C   UNL A   1      41.303  28.561  31.916  1.00  0.00     0.074 A 
ATOM     32  C   UNL A   1      39.527  29.669  30.594  1.00  0.00     0.049 A 
ATOM     33  N   UNL A   1      41.275  29.265  33.018  1.00  0.00    -0.248 NA
ATOM     34  C   UNL A   1      42.275  27.453  31.941  1.00  0.00     0.031 C 
ATOM     35  C   UNL A   1      38.603  29.865  29.474  1.00  0.00     0.029 A 
ATOM     36  N   UNL A   1      39.186  30.662  31.478  1.00  0.00    -0.354 N 
ATOM     37  C   UNL A   1      42.205  28.676  33.868  1.00  0.00     0.074 A 
ATOM     38  C   UNL A   1      42.732  27.518  33.182  1.00  0.00     0.031 C 
ATOM     39  C   UNL A   1      37.827  30.933  29.723  1.00  0.00     0.029 A 
ATOM     40  C   UNL A   1      38.172  31.476  31.032  1.00  0.00     0.049 A 
ATOM     41  H   UNL A   1      39.629  30.780  32.350  1.00  0.00     0.167 HD
ATOM     42  C   UNL A   1      42.607  29.081  35.096  1.00  0.00     0.037 A 
ATOM     43  C   UNL A   1      37.590  32.544  31.613  1.00  0.00     0.037 A 
ATOM     44  C   UNL A   1      42.108  30.259  35.755  1.00  0.00     0.049 A 
ATOM     45  C   UNL A   1      38.083  32.999  32.960  1.00  0.00     0.074 A 
ATOM     46  C   UNL A   1      42.497  30.797  36.967  1.00  0.00     0.029 A 
ATOM     47  N   UNL A   1      41.113  31.084  35.250  1.00  0.00    -0.354 N 
ATOM     48  N   UNL A   1      39.014  32.472  33.718  1.00  0.00    -0.248 NA
ATOM     49  C   UNL A   1      37.457  34.203  33.523  1.00  0.00     0.031 C 
ATOM     50  C   UNL A   1      41.711  31.929  37.215  1.00  0.00     0.029 A 
ATOM     51  C   UNL A   1      40.866  32.122  36.134  1.00  0.00     0.049 A 
ATOM     52  H   UNL A   1      40.651  30.952  34.391  1.00  0.00     0.167 HD
ATOM     53  C   UNL A   1      39.105  33.294  34.836  1.00  0.00     0.074 A 
ATOM     54  C   UNL A   1      38.145  34.362  34.644  1.00  0.00     0.031 C 
ATOM     55  C   UNL A   1      39.909  33.179  35.921  1.00  0.00     0.037 A 
BRANCH  42  56
ATOM     56  C   UNL A   1      43.649  28.250  35.795  1.00  0.00     0.058 A 
ATOM     57  C   UNL A   1      45.022  28.484  35.614  1.00  0.00     0.135 A 
ATOM     58  C   UNL A   1      43.271  27.224  36.676  1.00  0.00     0.135 A 
ATOM     59  F   UNL A   1      45.440  29.440  34.770  1.00  0.00    -0.206 F 
ATOM     60  C   UNL A   1      45.982  27.709  36.255  1.00  0.00     0.059 A 
ATOM     61  C   UNL A   1      44.216  26.456  37.351  1.00  0.00     0.059 A 
ATOM     62  F   UNL A   1      41.973  26.955  36.885  1.00  0.00    -0.206 F 
ATOM     63  C   UNL A   1      45.570  26.696  37.122  1.00  0.00     0.060 A 
BRANCH  63  64
ATOM     64  S   UNL A   1      46.830  25.705  37.952  1.00  0.00     0.124 S 
ATOM     65  O   UNL A   1      47.907  26.678  38.109  1.00  0.00    -0.237 OA
ATOM     66  O   UNL A   1      46.153  25.307  39.181  1.00  0.00    -0.237 OA
ATOM     67  O   UNL A   1      47.092  24.626  37.005  1.00  0.00    -0.744 OA
ENDBRANCH  63  64
ENDBRANCH  42  56
BRANCH  43  68
ATOM     68  C   UNL A   1      36.507  33.277  30.905  1.00  0.00     0.058 A 
ATOM     69  C   UNL A   1      35.169  33.155  31.311  1.00  0.00     0.135 A 
ATOM     70  C   UNL A   1      36.785  34.126  29.823  1.00  0.00     0.135 A 
ATOM     71  F   UNL A   1      34.851  32.352  32.339  1.00  0.00    -0.206 F 
ATOM     72  C   UNL A   1      34.143  33.827  30.656  1.00  0.00     0.059 A 
ATOM     73  C   UNL A   1      35.779  34.829  29.168  1.00  0.00     0.059 A 
ATOM     74  F   UNL A   1      38.050  34.294  29.408  1.00  0.00    -0.206 F 
ATOM     75  C   UNL A   1      34.458  34.665  29.585  1.00  0.00     0.060 A 
BRANCH  75  76
ATOM     76  S   UNL A   1      33.124  35.571  28.772  1.00  0.00     0.124 S 
ATOM     77  O   UNL A   1      33.869  36.560  28.000  1.00  0.00    -0.237 OA
ATOM     78  O   UNL A   1      32.466  34.523  27.999  1.00  0.00    -0.237 OA
ATOM     79  O   UNL A   1      32.346  36.097  29.890  1.00  0.00    -0.744 OA
ENDBRANCH  75  76
ENDBRANCH  43  68
BRANCH  55  80
ATOM     80  C   UNL A   1      39.813  34.256  36.966  1.00  0.00     0.058 A 
ATOM     81  C   UNL A   1      40.502  35.472  36.840  1.00  0.00     0.135 A 
ATOM     82  C   UNL A   1      38.993  34.079  38.092  1.00  0.00     0.135 A 
ATOM     83  F   UNL A   1      41.300  35.689  35.783  1.00  0.00    -0.206 F 
ATOM     84  C   UNL A   1      40.413  36.460  37.814  1.00  0.00     0.059 A 
ATOM     85  C   UNL A   1      38.866  35.065  39.064  1.00  0.00     0.059 A 
ATOM     86  F   UNL A   1      38.301  32.940  38.253  1.00  0.00    -0.206 F 
ATOM     87  C   UNL A   1      39.594  36.246  38.924  1.00  0.00     0.060 A 
BRANCH  87  88
ATOM     88  S   UNL A   1      39.479  37.539  40.179  1.00  0.00     0.124 S 
ATOM     89  O   UNL A   1      40.838  38.067  40.181  1.00  0.00    -0.237 OA
ATOM     90  O   UNL A   1      38.456  38.421  39.628  1.00  0.00    -0.237 OA
ATOM     91  O   UNL A   1      39.085  36.810  41.382  1.00  0.00    -0.744 OA
ENDBRANCH  87  88
ENDBRANCH  55  80
ENDBRANCH  29  30
ENDBRANCH  21  24
ENDBRANCH  19  20
ENDBRANCH   1  19
TORSDOF 16
ENDMDL
MODEL 3
REMARK VINA RESULT:     -10.1      0.617      8.533
REMARK SMILES CC[C@H]1CC[C@](O)([C@H](F)C(=O)NCCCNC(=O)c2ccc(-c3c4nc(c(-c5c(F)cc(S(=O)(=O)[O-])cc5F)c5ccc([nH]5)c(-c5c(F)cc(S(=O)(=O)[O-])cc5F)c5nc(c(-c6c(F)cc(S(=O)(=O)[O-])cc6F)c6ccc3[nH]6)C=C5)C=C4)cc2)CC1
REMARK SMILES IDX 14 1 13 2 12 3 10 4 11 5 8 7 9 8 6 9 3 10 4 11 86 12 5 13
REMARK SMILES IDX 85 14 2 15 1 16 7 17 15 19 16 20 17 21 18 23 19 24 20 25
REMARK SMILES IDX 84 26 21 27 83 28 22 29 23 30 24 31 77 32 25 33 82 34 76 35
REMARK SMILES IDX 78 36 26 37 81 38 75 39 74 40 27 42 61 43 40 44 60 45 41 46
REMARK SMILES IDX 44 47 59 48 79 49 42 50 43 51 58 53 80 54 45 55 28 56 29 57
REMARK SMILES IDX 38 58 30 59 31 60 37 61 39 62 32 63 33 64 34 65 35 66 36 67
REMARK SMILES IDX 62 68 63 69 72 70 64 71 65 72 71 73 73 74 66 75 67 76 68 77
REMARK SMILES IDX 69 78 70 79 46 80 47 81 56 82 48 83 49 84 55 85 57 86 50 87
REMARK SMILES IDX 51 88 52 89 53 90 54 91
REMARK H PARENT 12 6 7 18 16 22 78 41 44 52
REMARK Flexibility Score: inf
ROOT
ATOM      1  C   UNL A   1      33.454  33.429  28.231  1.00  0.00     0.042 C 
ENDROOT
BRANCH   1   2
ATOM      2  C   UNL A   1      33.885  34.665  28.992  1.00  0.00     0.117 C 
BRANCH   2   3
ATOM      3  N   UNL A   1      32.900  35.094  29.964  1.00  0.00    -0.353 N 
ATOM      4  C   UNL A   1      33.069  35.262  31.303  1.00  0.00     0.257 C 
ATOM      5  O   UNL A   1      32.112  35.696  31.952  1.00  0.00    -0.272 OA
ATOM      6  H   UNL A   1      32.000  35.286  29.612  1.00  0.00     0.163 HD
BRANCH   4   7
ATOM      7  C   UNL A   1      34.411  34.986  31.971  1.00  0.00     0.286 C 
ATOM      8  F   UNL A   1      34.791  35.999  32.810  1.00  0.00    -0.234 F 
BRANCH   7   9
ATOM      9  C   UNL A   1      34.542  33.612  32.705  1.00  0.00     0.105 C 
ATOM     10  C   UNL A   1      37.338  32.503  32.436  1.00  0.00    -0.011 C 
ATOM     11  C   UNL A   1      37.030  33.735  33.299  1.00  0.00     0.006 C 
ATOM     12  C   UNL A   1      36.322  32.414  31.285  1.00  0.00     0.006 C 
ATOM     13  C   UNL A   1      35.596  33.738  33.828  1.00  0.00     0.039 C 
ATOM     14  C   UNL A   1      34.883  32.416  31.793  1.00  0.00     0.039 C 
BRANCH  10  15
ATOM     15  C   UNL A   1      37.391  31.164  33.205  1.00  0.00    -0.000 C 
ATOM     16  C   UNL A   1      38.100  31.224  34.548  1.00  0.00     0.004 C 
ENDBRANCH  10  15
BRANCH   9  17
ATOM     17  O   UNL A   1      33.296  33.286  33.355  1.00  0.00    -0.386 OA
ATOM     18  H   UNL A   1      32.725  34.070  33.369  1.00  0.00     0.211 HD
ENDBRANCH   9  17
ENDBRANCH   7   9
ENDBRANCH   4   7
ENDBRANCH   2   3
ENDBRANCH   1   2
BRANCH   1  19
ATOM     19  C   UNL A   1      34.512  32.343  28.155  1.00  0.00     0.118 C 
BRANCH  19  20
ATOM     20  N   UNL A   1      33.961  31.008  27.965  1.00  0.00    -0.352 N 
ATOM     21  C   UNL A   1      34.612  29.796  27.945  1.00  0.00     0.251 C 
ATOM     22  H   UNL A   1      32.987  30.967  27.831  1.00  0.00     0.163 HD
ATOM     23  O   UNL A   1      34.004  28.777  27.628  1.00  0.00    -0.269 OA
BRANCH  21  24
ATOM     24  C   UNL A   1      36.052  29.739  28.274  1.00  0.00     0.039 A 
ATOM     25  C   UNL A   1      36.444  29.319  29.547  1.00  0.00     0.014 A 
ATOM     26  C   UNL A   1      37.014  30.050  27.310  1.00  0.00     0.014 A 
ATOM     27  C   UNL A   1      37.800  29.139  29.824  1.00  0.00     0.010 A 
ATOM     28  C   UNL A   1      38.350  29.758  27.550  1.00  0.00     0.010 A 
ATOM     29  C   UNL A   1      38.762  29.314  28.814  1.00  0.00    -0.014 A 
BRANCH  29  30
ATOM     30  C   UNL A   1      40.203  29.061  29.065  1.00  0.00     0.031 A 
ATOM     31  C   UNL A   1      40.806  27.730  28.699  1.00  0.00     0.074 A 
ATOM     32  C   UNL A   1      40.952  29.999  29.679  1.00  0.00     0.049 A 
ATOM     33  N   UNL A   1      42.026  27.295  28.887  1.00  0.00    -0.248 NA
ATOM     34  C   UNL A   1      39.910  26.741  28.074  1.00  0.00     0.031 C 
ATOM     35  C   UNL A   1      40.466  31.298  30.151  1.00  0.00     0.029 A 
ATOM     36  N   UNL A   1      42.281  30.002  30.021  1.00  0.00    -0.354 N 
ATOM     37  C   UNL A   1      42.036  25.983  28.423  1.00  0.00     0.074 A 
ATOM     38  C   UNL A   1      40.687  25.670  28.008  1.00  0.00     0.031 C 
ATOM     39  C   UNL A   1      41.488  31.985  30.686  1.00  0.00     0.029 A 
ATOM     40  C   UNL A   1      42.693  31.165  30.629  1.00  0.00     0.049 A 
ATOM     41  H   UNL A   1      42.884  29.243  29.845  1.00  0.00     0.167 HD
ATOM     42  C   UNL A   1      43.080  25.127  28.322  1.00  0.00     0.037 A 
ATOM     43  C   UNL A   1      43.907  31.529  31.085  1.00  0.00     0.037 A 
ATOM     44  C   UNL A   1      44.428  25.461  28.699  1.00  0.00     0.049 A 
ATOM     45  C   UNL A   1      45.062  30.576  30.924  1.00  0.00     0.074 A 
ATOM     46  C   UNL A   1      45.572  24.694  28.574  1.00  0.00     0.029 A 
ATOM     47  N   UNL A   1      44.814  26.665  29.269  1.00  0.00    -0.354 N 
ATOM     48  N   UNL A   1      45.067  29.366  30.418  1.00  0.00    -0.248 NA
ATOM     49  C   UNL A   1      46.376  31.044  31.383  1.00  0.00     0.031 C 
ATOM     50  C   UNL A   1      46.645  25.419  29.103  1.00  0.00     0.029 A 
ATOM     51  C   UNL A   1      46.177  26.657  29.514  1.00  0.00     0.049 A 
ATOM     52  H   UNL A   1      44.208  27.415  29.470  1.00  0.00     0.167 HD
ATOM     53  C   UNL A   1      46.389  28.938  30.471  1.00  0.00     0.074 A 
ATOM     54  C   UNL A   1      47.155  30.026  31.046  1.00  0.00     0.031 C 
ATOM     55  C   UNL A   1      46.922  27.754  30.081  1.00  0.00     0.037 A 
BRANCH  42  56
ATOM     56  C   UNL A   1      42.804  23.756  27.769  1.00  0.00     0.058 A 
ATOM     57  C   UNL A   1      42.536  22.662  28.607  1.00  0.00     0.135 A 
ATOM     58  C   UNL A   1      42.782  23.537  26.382  1.00  0.00     0.135 A 
ATOM     59  F   UNL A   1      42.563  22.809  29.941  1.00  0.00    -0.206 F 
ATOM     60  C   UNL A   1      42.290  21.393  28.093  1.00  0.00     0.059 A 
ATOM     61  C   UNL A   1      42.507  22.282  25.845  1.00  0.00     0.059 A 
ATOM     62  F   UNL A   1      43.033  24.545  25.533  1.00  0.00    -0.206 F 
ATOM     63  C   UNL A   1      42.278  21.213  26.710  1.00  0.00     0.060 A 
BRANCH  63  64
ATOM     64  S   UNL A   1      41.949  19.561  26.058  1.00  0.00     0.124 S 
ATOM     65  O   UNL A   1      40.519  19.641  25.776  1.00  0.00    -0.237 OA
ATOM     66  O   UNL A   1      42.823  19.508  24.891  1.00  0.00    -0.237 OA
ATOM     67  O   UNL A   1      42.323  18.680  27.159  1.00  0.00    -0.744 OA
ENDBRANCH  63  64
ENDBRANCH  42  56
BRANCH  43  68
ATOM     68  C   UNL A   1      44.101  32.870  31.699  1.00  0.00     0.058 A 
ATOM     69  C   UNL A   1      44.422  33.985  30.909  1.00  0.00     0.135 A 
ATOM     70  C   UNL A   1      43.956  33.069  33.080  1.00  0.00     0.135 A 
ATOM     71  F   UNL A   1      44.575  33.845  29.583  1.00  0.00    -0.206 F 
ATOM     72  C   UNL A   1      44.614  35.243  31.467  1.00  0.00     0.059 A 
ATOM     73  C   UNL A   1      44.119  34.324  33.659  1.00  0.00     0.059 A 
ATOM     74  F   UNL A   1      43.631  32.040  33.877  1.00  0.00    -0.206 F 
ATOM     75  C   UNL A   1      44.459  35.404  32.845  1.00  0.00     0.060 A 
BRANCH  75  76
ATOM     76  S   UNL A   1      44.664  37.052  33.554  1.00  0.00     0.124 S 
ATOM     77  O   UNL A   1      44.460  36.789  34.974  1.00  0.00    -0.237 OA
ATOM     78  O   UNL A   1      46.026  37.392  33.157  1.00  0.00    -0.237 OA
ATOM     79  O   UNL A   1      43.617  37.831  32.899  1.00  0.00    -0.744 OA
ENDBRANCH  75  76
ENDBRANCH  43  68
BRANCH  55  80
ATOM     80  C   UNL A   1      48.410  27.589  30.225  1.00  0.00     0.058 A 
ATOM     81  C   UNL A   1      49.292  27.897  29.178  1.00  0.00     0.135 A 
ATOM     82  C   UNL A   1      48.959  27.148  31.440  1.00  0.00     0.135 A 
ATOM     83  F   UNL A   1      48.817  28.321  27.997  1.00  0.00    -0.206 F 
ATOM     84  C   UNL A   1      50.667  27.736  29.318  1.00  0.00     0.059 A 
ATOM     85  C   UNL A   1      50.331  27.007  31.610  1.00  0.00     0.059 A 
ATOM     86  F   UNL A   1      48.159  26.854  32.477  1.00  0.00    -0.206 F 
ATOM     87  C   UNL A   1      51.177  27.287  30.537  1.00  0.00     0.060 A 
BRANCH  87  88
ATOM     88  S   UNL A   1      52.962  27.088  30.710  1.00  0.00     0.124 S 
ATOM     89  O   UNL A   1      53.281  28.133  31.677  1.00  0.00    -0.237 OA
ATOM     90  O   UNL A   1      53.081  25.717  31.196  1.00  0.00    -0.237 OA
ATOM     91  O   UNL A   1      53.461  27.310  29.356  1.00  0.00    -0.744 OA
ENDBRANCH  87  88
ENDBRANCH  55  80
ENDBRANCH  29  30
ENDBRANCH  21  24
ENDBRANCH  19  20
ENDBRANCH   1  19
TORSDOF 16
ENDMDL
