MODEL 1
REMARK VINA RESULT:     -12.8      0.000      0.000
REMARK SMILES Cc1ccccc1CN1C(=O)[C@H](CC(=O)NCCCNC(=O)c2ccc(-c3c4nc(c(-c5c(F)cc(S(=O)(=O)[O-])cc5F)c5ccc([nH]5)c(-c5c(F)cc(S(=O)(=O)[O-])cc5F)c5nc(c(-c6c(F)cc(S(=O)(=O)[O-])cc6F)c6ccc3[nH]6)C=C5)C=C4)cc2)n2c(nc3ccccc32)[C@H]1C
REMARK SMILES IDX 18 1 17 2 16 3 14 4 15 5 13 7 12 8 9 9 10 10 98 11 11 12
REMARK SMILES IDX 90 13 99 14 89 15 91 16 97 17 92 18 96 19 93 20 95 21 94 22
REMARK SMILES IDX 8 23 7 24 1 25 2 26 3 27 4 28 6 29 5 30 19 31 20 32 21 33
REMARK SMILES IDX 22 35 23 36 24 37 88 38 25 39 87 40 26 41 27 42 28 43 81 44
REMARK SMILES IDX 29 45 86 46 80 47 82 48 30 49 85 50 79 51 78 52 31 54 65 55
REMARK SMILES IDX 44 56 64 57 45 58 48 59 63 60 83 61 46 62 47 63 62 65 84 66
REMARK SMILES IDX 49 67 32 68 33 69 42 70 34 71 35 72 41 73 43 74 36 75 37 76
REMARK SMILES IDX 38 77 39 78 40 79 66 80 67 81 76 82 68 83 69 84 75 85 77 86
REMARK SMILES IDX 70 87 71 88 72 89 73 90 74 91 50 92 51 93 60 94 52 95 53 96
REMARK SMILES IDX 59 97 61 98 54 99 55 100 56 101 57 102 58 103
REMARK H PARENT 16 6 20 34 82 53 48 64
REMARK Flexibility Score: inf
ROOT
ATOM      1  C   UNL A   1      34.115  31.767  28.000  1.00  0.00     0.042 C 
ENDROOT
BRANCH   1   2
ATOM      2  C   UNL A   1      34.023  30.426  27.252  1.00  0.00     0.117 C 
BRANCH   2   3
ATOM      3  N   UNL A   1      32.835  29.671  27.632  1.00  0.00    -0.356 N 
ATOM      4  C   UNL A   1      32.465  28.378  27.456  1.00  0.00     0.222 C 
ATOM      5  O   UNL A   1      31.415  27.937  27.930  1.00  0.00    -0.275 OA
ATOM      6  H   UNL A   1      32.166  30.209  28.114  1.00  0.00     0.163 HD
BRANCH   4   7
ATOM      7  C   UNL A   1      33.260  27.463  26.575  1.00  0.00     0.135 C 
BRANCH   7   8
ATOM      8  C   UNL A   1      32.319  27.055  25.437  1.00  0.00     0.187 C 
ATOM      9  N   UNL A   1      31.887  27.614  23.104  1.00  0.00    -0.327 N 
ATOM     10  C   UNL A   1      32.427  28.070  24.298  1.00  0.00     0.247 C 
ATOM     11  C   UNL A   1      32.803  26.608  22.559  1.00  0.00     0.149 C 
ATOM     12  O   UNL A   1      33.091  29.098  24.308  1.00  0.00    -0.272 OA
ATOM     13  C   UNL A   1      32.860  25.483  23.567  1.00  0.00     0.133 A 
ATOM     14  C   UNL A   1      32.568  26.090  21.155  1.00  0.00     0.040 C 
ATOM     15  N   UNL A   1      32.599  25.723  24.903  1.00  0.00    -0.313 N 
ATOM     16  N   UNL A   1      33.166  24.218  23.368  1.00  0.00    -0.231 NA
ATOM     17  C   UNL A   1      32.546  24.515  25.549  1.00  0.00     0.069 A 
ATOM     18  C   UNL A   1      32.961  23.603  24.580  1.00  0.00     0.089 A 
ATOM     19  C   UNL A   1      32.199  24.129  26.849  1.00  0.00     0.028 A 
ATOM     20  C   UNL A   1      33.098  22.250  24.919  1.00  0.00     0.030 A 
ATOM     21  C   UNL A   1      32.329  22.770  27.164  1.00  0.00     0.002 A 
ATOM     22  C   UNL A   1      32.783  21.846  26.221  1.00  0.00     0.002 A 
BRANCH   9  23
ATOM     23  C   UNL A   1      31.141  28.582  22.289  1.00  0.00     0.156 C 
BRANCH  23  24
ATOM     24  C   UNL A   1      29.649  28.502  22.568  1.00  0.00    -0.026 A 
ATOM     25  C   UNL A   1      29.009  30.761  21.473  1.00  0.00     0.044 C 
ATOM     26  C   UNL A   1      28.732  29.549  22.327  1.00  0.00    -0.046 A 
ATOM     27  C   UNL A   1      27.426  29.451  22.853  1.00  0.00     0.004 A 
ATOM     28  C   UNL A   1      27.016  28.334  23.578  1.00  0.00     0.000 A 
ATOM     29  C   UNL A   1      29.168  27.339  23.195  1.00  0.00     0.006 A 
ATOM     30  C   UNL A   1      27.881  27.263  23.725  1.00  0.00     0.000 A 
ENDBRANCH  23  24
ENDBRANCH   9  23
ENDBRANCH   7   8
ENDBRANCH   4   7
ENDBRANCH   2   3
ENDBRANCH   1   2
BRANCH   1  31
ATOM     31  C   UNL A   1      35.420  32.526  27.770  1.00  0.00     0.118 C 
BRANCH  31  32
ATOM     32  N   UNL A   1      35.661  33.484  28.844  1.00  0.00    -0.352 N 
ATOM     33  C   UNL A   1      36.201  33.371  30.098  1.00  0.00     0.251 C 
ATOM     34  H   UNL A   1      35.376  34.399  28.621  1.00  0.00     0.163 HD
ATOM     35  O   UNL A   1      35.818  34.216  30.916  1.00  0.00    -0.269 OA
BRANCH  33  36
ATOM     36  C   UNL A   1      37.226  32.366  30.531  1.00  0.00     0.039 A 
ATOM     37  C   UNL A   1      37.027  31.774  31.792  1.00  0.00     0.014 A 
ATOM     38  C   UNL A   1      38.384  32.012  29.841  1.00  0.00     0.014 A 
ATOM     39  C   UNL A   1      37.937  30.843  32.325  1.00  0.00     0.010 A 
ATOM     40  C   UNL A   1      39.301  31.081  30.380  1.00  0.00     0.010 A 
ATOM     41  C   UNL A   1      39.084  30.460  31.612  1.00  0.00    -0.014 A 
BRANCH  41  42
ATOM     42  C   UNL A   1      39.741  29.173  32.005  1.00  0.00     0.031 A 
ATOM     43  C   UNL A   1      39.781  28.280  30.758  1.00  0.00     0.074 A 
ATOM     44  C   UNL A   1      40.808  28.916  32.834  1.00  0.00     0.049 A 
ATOM     45  N   UNL A   1      40.613  28.531  29.794  1.00  0.00    -0.248 NA
ATOM     46  C   UNL A   1      38.816  27.245  30.367  1.00  0.00     0.031 C 
ATOM     47  C   UNL A   1      40.906  27.631  33.543  1.00  0.00     0.029 A 
ATOM     48  N   UNL A   1      41.959  29.601  33.293  1.00  0.00    -0.354 N 
ATOM     49  C   UNL A   1      40.551  27.490  28.872  1.00  0.00     0.074 A 
ATOM     50  C   UNL A   1      39.303  26.824  29.177  1.00  0.00     0.031 C 
ATOM     51  C   UNL A   1      42.076  27.544  34.213  1.00  0.00     0.029 A 
ATOM     52  C   UNL A   1      42.900  28.717  33.928  1.00  0.00     0.049 A 
ATOM     53  H   UNL A   1      42.099  30.571  33.191  1.00  0.00     0.167 HD
ATOM     54  C   UNL A   1      41.687  27.157  28.162  1.00  0.00     0.037 A 
ATOM     55  C   UNL A   1      44.285  28.707  34.004  1.00  0.00     0.037 A 
ATOM     56  C   UNL A   1      42.791  27.754  28.857  1.00  0.00     0.049 A 
ATOM     57  C   UNL A   1      44.955  29.821  33.234  1.00  0.00     0.074 A 
ATOM     58  C   UNL A   1      43.162  27.280  30.085  1.00  0.00     0.029 A 
ATOM     59  N   UNL A   1      43.424  28.960  28.610  1.00  0.00    -0.354 N 
ATOM     60  N   UNL A   1      45.489  29.615  32.065  1.00  0.00    -0.248 NA
ATOM     61  C   UNL A   1      44.898  31.248  33.559  1.00  0.00     0.031 C 
ATOM     62  C   UNL A   1      43.565  28.429  30.697  1.00  0.00     0.029 A 
ATOM     63  C   UNL A   1      43.951  29.414  29.818  1.00  0.00     0.049 A 
ATOM     64  H   UNL A   1      43.489  29.416  27.740  1.00  0.00     0.167 HD
ATOM     65  C   UNL A   1      45.198  30.754  31.346  1.00  0.00     0.074 A 
ATOM     66  C   UNL A   1      45.154  31.798  32.357  1.00  0.00     0.031 C 
ATOM     67  C   UNL A   1      44.537  30.718  30.134  1.00  0.00     0.037 A 
BRANCH  54  68
ATOM     68  C   UNL A   1      42.067  25.995  27.276  1.00  0.00     0.058 A 
ATOM     69  C   UNL A   1      42.082  24.673  27.827  1.00  0.00     0.135 A 
ATOM     70  C   UNL A   1      42.573  26.107  25.982  1.00  0.00     0.135 A 
ATOM     71  F   UNL A   1      41.588  24.383  29.038  1.00  0.00    -0.206 F 
ATOM     72  C   UNL A   1      42.628  23.576  27.191  1.00  0.00     0.059 A 
ATOM     73  C   UNL A   1      43.126  24.999  25.311  1.00  0.00     0.059 A 
ATOM     74  F   UNL A   1      42.583  27.296  25.359  1.00  0.00    -0.206 F 
ATOM     75  C   UNL A   1      43.180  23.751  25.942  1.00  0.00     0.060 A 
BRANCH  75  76
ATOM     76  S   UNL A   1      43.998  22.318  25.221  1.00  0.00     0.124 S 
ATOM     77  O   UNL A   1      43.008  21.266  25.437  1.00  0.00    -0.237 OA
ATOM     78  O   UNL A   1      44.191  22.731  23.835  1.00  0.00    -0.237 OA
ATOM     79  O   UNL A   1      45.219  22.198  26.011  1.00  0.00    -0.744 OA
ENDBRANCH  75  76
ENDBRANCH  54  68
BRANCH  55  80
ATOM     80  C   UNL A   1      45.100  27.406  34.122  1.00  0.00     0.058 A 
ATOM     81  C   UNL A   1      44.814  26.246  33.397  1.00  0.00     0.135 A 
ATOM     82  C   UNL A   1      46.161  27.255  35.052  1.00  0.00     0.135 A 
ATOM     83  F   UNL A   1      43.807  26.246  32.510  1.00  0.00    -0.206 F 
ATOM     84  C   UNL A   1      45.535  25.043  33.583  1.00  0.00     0.059 A 
ATOM     85  C   UNL A   1      46.904  26.094  35.242  1.00  0.00     0.059 A 
ATOM     86  F   UNL A   1      46.522  28.224  35.879  1.00  0.00    -0.206 F 
ATOM     87  C   UNL A   1      46.584  24.979  34.507  1.00  0.00     0.060 A 
BRANCH  87  88
ATOM     88  S   UNL A   1      47.506  23.449  34.774  1.00  0.00     0.124 S 
ATOM     89  O   UNL A   1      47.767  23.499  36.209  1.00  0.00    -0.237 OA
ATOM     90  O   UNL A   1      46.544  22.442  34.340  1.00  0.00    -0.237 OA
ATOM     91  O   UNL A   1      48.684  23.591  33.924  1.00  0.00    -0.744 OA
ENDBRANCH  87  88
ENDBRANCH  55  80
BRANCH  67  92
ATOM     92  C   UNL A   1      44.171  31.975  29.421  1.00  0.00     0.058 A 
ATOM     93  C   UNL A   1      44.922  32.454  28.332  1.00  0.00     0.135 A 
ATOM     94  C   UNL A   1      43.029  32.715  29.770  1.00  0.00     0.135 A 
ATOM     95  F   UNL A   1      45.998  31.785  27.892  1.00  0.00    -0.206 F 
ATOM     96  C   UNL A   1      44.589  33.628  27.669  1.00  0.00     0.059 A 
ATOM     97  C   UNL A   1      42.664  33.873  29.114  1.00  0.00     0.059 A 
ATOM     98  F   UNL A   1      42.212  32.330  30.757  1.00  0.00    -0.206 F 
ATOM     99  C   UNL A   1      43.456  34.326  28.070  1.00  0.00     0.060 A 
BRANCH  99 100
ATOM    100  S   UNL A   1      42.976  35.809  27.195  1.00  0.00     0.124 S 
ATOM    101  O   UNL A   1      42.625  35.265  25.886  1.00  0.00    -0.237 OA
ATOM    102  O   UNL A   1      41.863  36.296  28.018  1.00  0.00    -0.237 OA
ATOM    103  O   UNL A   1      44.195  36.593  27.231  1.00  0.00    -0.744 OA
ENDBRANCH  99 100
ENDBRANCH  67  92
ENDBRANCH  41  42
ENDBRANCH  33  36
ENDBRANCH  31  32
ENDBRANCH   1  31
TORSDOF 16
ENDMDL
MODEL 2
REMARK VINA RESULT:     -12.8      3.112      9.365
REMARK SMILES Cc1ccccc1CN1C(=O)[C@H](CC(=O)NCCCNC(=O)c2ccc(-c3c4nc(c(-c5c(F)cc(S(=O)(=O)[O-])cc5F)c5ccc([nH]5)c(-c5c(F)cc(S(=O)(=O)[O-])cc5F)c5nc(c(-c6c(F)cc(S(=O)(=O)[O-])cc6F)c6ccc3[nH]6)C=C5)C=C4)cc2)n2c(nc3ccccc32)[C@H]1C
REMARK SMILES IDX 18 1 17 2 16 3 14 4 15 5 13 7 12 8 9 9 10 10 98 11 11 12
REMARK SMILES IDX 90 13 99 14 89 15 91 16 97 17 92 18 96 19 93 20 95 21 94 22
REMARK SMILES IDX 8 23 7 24 1 25 2 26 3 27 4 28 6 29 5 30 19 31 20 32 21 33
REMARK SMILES IDX 22 35 23 36 24 37 88 38 25 39 87 40 26 41 27 42 28 43 81 44
REMARK SMILES IDX 29 45 86 46 80 47 82 48 30 49 85 50 79 51 78 52 31 54 65 55
REMARK SMILES IDX 44 56 64 57 45 58 48 59 63 60 83 61 46 62 47 63 62 65 84 66
REMARK SMILES IDX 49 67 32 68 33 69 42 70 34 71 35 72 41 73 43 74 36 75 37 76
REMARK SMILES IDX 38 77 39 78 40 79 66 80 67 81 76 82 68 83 69 84 75 85 77 86
REMARK SMILES IDX 70 87 71 88 72 89 73 90 74 91 50 92 51 93 60 94 52 95 53 96
REMARK SMILES IDX 59 97 61 98 54 99 55 100 56 101 57 102 58 103
REMARK H PARENT 16 6 20 34 82 53 48 64
REMARK Flexibility Score: inf
ROOT
ATOM      1  C   UNL A   1      39.384  21.353  26.247  1.00  0.00     0.042 C 
ENDROOT
BRANCH   1   2
ATOM      2  C   UNL A   1      38.417  22.518  25.977  1.00  0.00     0.117 C 
BRANCH   2   3
ATOM      3  N   UNL A   1      37.895  22.491  24.617  1.00  0.00    -0.356 N 
ATOM      4  C   UNL A   1      36.869  23.135  24.006  1.00  0.00     0.222 C 
ATOM      5  O   UNL A   1      36.648  22.998  22.800  1.00  0.00    -0.275 OA
ATOM      6  H   UNL A   1      38.388  21.882  24.020  1.00  0.00     0.163 HD
BRANCH   4   7
ATOM      7  C   UNL A   1      35.887  23.942  24.798  1.00  0.00     0.135 C 
BRANCH   7   8
ATOM      8  C   UNL A   1      34.523  23.283  24.574  1.00  0.00     0.187 C 
ATOM      9  N   UNL A   1      32.967  21.811  25.738  1.00  0.00    -0.327 N 
ATOM     10  C   UNL A   1      34.291  22.217  25.646  1.00  0.00     0.247 C 
ATOM     11  C   UNL A   1      32.213  22.897  26.372  1.00  0.00     0.149 C 
ATOM     12  O   UNL A   1      35.090  21.872  26.506  1.00  0.00    -0.272 OA
ATOM     13  C   UNL A   1      32.327  24.095  25.457  1.00  0.00     0.133 A 
ATOM     14  C   UNL A   1      30.778  22.644  26.788  1.00  0.00     0.040 C 
ATOM     15  N   UNL A   1      33.408  24.229  24.607  1.00  0.00    -0.313 N 
ATOM     16  N   UNL A   1      31.514  25.124  25.349  1.00  0.00    -0.231 NA
ATOM     17  C   UNL A   1      33.169  25.296  23.781  1.00  0.00     0.069 A 
ATOM     18  C   UNL A   1      32.011  25.867  24.305  1.00  0.00     0.089 A 
ATOM     19  C   UNL A   1      33.829  25.820  22.662  1.00  0.00     0.028 A 
ATOM     20  C   UNL A   1      31.506  27.047  23.740  1.00  0.00     0.030 A 
ATOM     21  C   UNL A   1      33.300  26.990  22.104  1.00  0.00     0.002 A 
ATOM     22  C   UNL A   1      32.166  27.603  22.639  1.00  0.00     0.002 A 
BRANCH   9  23
ATOM     23  C   UNL A   1      32.715  20.383  25.971  1.00  0.00     0.156 C 
BRANCH  23  24
ATOM     24  C   UNL A   1      32.486  19.643  24.662  1.00  0.00    -0.026 A 
ATOM     25  C   UNL A   1      32.723  17.247  25.615  1.00  0.00     0.044 C 
ATOM     26  C   UNL A   1      32.638  18.250  24.492  1.00  0.00    -0.046 A 
ATOM     27  C   UNL A   1      32.642  17.715  23.186  1.00  0.00     0.004 A 
ATOM     28  C   UNL A   1      32.473  18.527  22.067  1.00  0.00     0.000 A 
ATOM     29  C   UNL A   1      32.195  20.416  23.523  1.00  0.00     0.006 A 
ATOM     30  C   UNL A   1      32.220  19.877  22.238  1.00  0.00     0.000 A 
ENDBRANCH  23  24
ENDBRANCH   9  23
ENDBRANCH   7   8
ENDBRANCH   4   7
ENDBRANCH   2   3
ENDBRANCH   1   2
BRANCH   1  31
ATOM     31  C   UNL A   1      40.861  21.725  26.143  1.00  0.00     0.118 C 
BRANCH  31  32
ATOM     32  N   UNL A   1      41.509  21.650  27.448  1.00  0.00    -0.352 N 
ATOM     33  C   UNL A   1      42.191  22.561  28.210  1.00  0.00     0.251 C 
ATOM     34  H   UNL A   1      41.442  20.761  27.866  1.00  0.00     0.163 HD
ATOM     35  O   UNL A   1      43.017  22.080  28.996  1.00  0.00    -0.269 OA
BRANCH  33  36
ATOM     36  C   UNL A   1      41.987  24.046  28.205  1.00  0.00     0.039 A 
ATOM     37  C   UNL A   1      43.137  24.836  28.394  1.00  0.00     0.014 A 
ATOM     38  C   UNL A   1      40.770  24.716  28.098  1.00  0.00     0.014 A 
ATOM     39  C   UNL A   1      43.071  26.240  28.443  1.00  0.00     0.010 A 
ATOM     40  C   UNL A   1      40.704  26.128  28.154  1.00  0.00     0.010 A 
ATOM     41  C   UNL A   1      41.849  26.914  28.298  1.00  0.00    -0.014 A 
BRANCH  41  42
ATOM     42  C   UNL A   1      41.902  28.359  27.907  1.00  0.00     0.031 A 
ATOM     43  C   UNL A   1      40.574  28.998  28.334  1.00  0.00     0.074 A 
ATOM     44  C   UNL A   1      42.929  29.273  27.951  1.00  0.00     0.049 A 
ATOM     45  N   UNL A   1      40.329  29.237  29.585  1.00  0.00    -0.248 NA
ATOM     46  C   UNL A   1      39.372  29.196  27.513  1.00  0.00     0.031 C 
ATOM     47  C   UNL A   1      42.963  30.398  27.005  1.00  0.00     0.029 A 
ATOM     48  N   UNL A   1      44.118  29.469  28.695  1.00  0.00    -0.354 N 
ATOM     49  C   UNL A   1      39.139  29.954  29.677  1.00  0.00     0.074 A 
ATOM     50  C   UNL A   1      38.501  29.739  28.396  1.00  0.00     0.031 C 
ATOM     51  C   UNL A   1      43.989  31.230  27.288  1.00  0.00     0.029 A 
ATOM     52  C   UNL A   1      44.664  30.787  28.507  1.00  0.00     0.049 A 
ATOM     53  H   UNL A   1      44.524  28.782  29.272  1.00  0.00     0.167 HD
ATOM     54  C   UNL A   1      38.980  30.858  30.707  1.00  0.00     0.037 A 
ATOM     55  C   UNL A   1      45.367  31.646  29.340  1.00  0.00     0.037 A 
ATOM     56  C   UNL A   1      40.291  31.112  31.232  1.00  0.00     0.049 A 
ATOM     57  C   UNL A   1      45.570  31.121  30.742  1.00  0.00     0.074 A 
ATOM     58  C   UNL A   1      41.205  31.801  30.484  1.00  0.00     0.029 A 
ATOM     59  N   UNL A   1      40.920  30.529  32.319  1.00  0.00    -0.354 N 
ATOM     60  N   UNL A   1      44.831  31.524  31.733  1.00  0.00    -0.248 NA
ATOM     61  C   UNL A   1      46.412  29.984  31.121  1.00  0.00     0.031 C 
ATOM     62  C   UNL A   1      42.363  31.186  30.855  1.00  0.00     0.029 A 
ATOM     63  C   UNL A   1      42.294  30.581  32.088  1.00  0.00     0.049 A 
ATOM     64  H   UNL A   1      40.478  30.146  33.110  1.00  0.00     0.167 HD
ATOM     65  C   UNL A   1      44.634  30.396  32.500  1.00  0.00     0.074 A 
ATOM     66  C   UNL A   1      45.845  29.619  32.287  1.00  0.00     0.031 C 
ATOM     67  C   UNL A   1      43.376  29.933  32.830  1.00  0.00     0.037 A 
BRANCH  54  68
ATOM     68  C   UNL A   1      37.972  31.943  31.005  1.00  0.00     0.058 A 
ATOM     69  C   UNL A   1      37.332  31.968  32.286  1.00  0.00     0.135 A 
ATOM     70  C   UNL A   1      37.475  32.851  30.072  1.00  0.00     0.135 A 
ATOM     71  F   UNL A   1      37.720  31.195  33.310  1.00  0.00    -0.206 F 
ATOM     72  C   UNL A   1      36.241  32.757  32.590  1.00  0.00     0.059 A 
ATOM     73  C   UNL A   1      36.369  33.673  30.365  1.00  0.00     0.059 A 
ATOM     74  F   UNL A   1      38.019  32.931  28.847  1.00  0.00    -0.206 F 
ATOM     75  C   UNL A   1      35.740  33.587  31.612  1.00  0.00     0.060 A 
BRANCH  75  76
ATOM     76  S   UNL A   1      34.237  34.489  32.021  1.00  0.00     0.124 S 
ATOM     77  O   UNL A   1      34.771  35.710  32.618  1.00  0.00    -0.237 OA
ATOM     78  O   UNL A   1      33.601  34.647  30.717  1.00  0.00    -0.237 OA
ATOM     79  O   UNL A   1      33.549  33.591  32.944  1.00  0.00    -0.744 OA
ENDBRANCH  75  76
ENDBRANCH  54  68
BRANCH  55  80
ATOM     80  C   UNL A   1      45.276  33.178  29.218  1.00  0.00     0.058 A 
ATOM     81  C   UNL A   1      44.074  33.869  29.035  1.00  0.00     0.135 A 
ATOM     82  C   UNL A   1      46.426  34.009  29.192  1.00  0.00     0.135 A 
ATOM     83  F   UNL A   1      42.916  33.193  29.001  1.00  0.00    -0.206 F 
ATOM     84  C   UNL A   1      44.031  35.272  28.851  1.00  0.00     0.059 A 
ATOM     85  C   UNL A   1      46.416  35.391  29.037  1.00  0.00     0.059 A 
ATOM     86  F   UNL A   1      47.655  33.521  29.273  1.00  0.00    -0.206 F 
ATOM     87  C   UNL A   1      45.210  36.025  28.858  1.00  0.00     0.060 A 
BRANCH  87  88
ATOM     88  S   UNL A   1      45.181  37.814  28.608  1.00  0.00     0.124 S 
ATOM     89  O   UNL A   1      44.453  37.932  27.349  1.00  0.00    -0.237 OA
ATOM     90  O   UNL A   1      44.466  38.269  29.797  1.00  0.00    -0.237 OA
ATOM     91  O   UNL A   1      46.590  38.188  28.548  1.00  0.00    -0.744 OA
ENDBRANCH  87  88
ENDBRANCH  55  80
BRANCH  67  92
ATOM     92  C   UNL A   1      43.201  28.666  33.597  1.00  0.00     0.058 A 
ATOM     93  C   UNL A   1      42.993  28.666  34.988  1.00  0.00     0.135 A 
ATOM     94  C   UNL A   1      43.184  27.415  32.959  1.00  0.00     0.135 A 
ATOM     95  F   UNL A   1      42.939  29.817  35.676  1.00  0.00    -0.206 F 
ATOM     96  C   UNL A   1      42.835  27.488  35.708  1.00  0.00     0.059 A 
ATOM     97  C   UNL A   1      43.008  26.231  33.648  1.00  0.00     0.059 A 
ATOM     98  F   UNL A   1      43.322  27.295  31.634  1.00  0.00    -0.206 F 
ATOM     99  C   UNL A   1      42.843  26.279  35.024  1.00  0.00     0.060 A 
BRANCH  99 100
ATOM    100  S   UNL A   1      42.586  24.755  35.921  1.00  0.00     0.124 S 
ATOM    101  O   UNL A   1      43.093  23.774  34.964  1.00  0.00    -0.237 OA
ATOM    102  O   UNL A   1      43.399  24.972  37.123  1.00  0.00    -0.237 OA
ATOM    103  O   UNL A   1      41.149  24.749  36.107  1.00  0.00    -0.744 OA
ENDBRANCH  99 100
ENDBRANCH  67  92
ENDBRANCH  41  42
ENDBRANCH  33  36
ENDBRANCH  31  32
ENDBRANCH   1  31
TORSDOF 16
ENDMDL
MODEL 3
REMARK VINA RESULT:     -11.9      3.313      6.758
REMARK SMILES Cc1ccccc1CN1C(=O)[C@H](CC(=O)NCCCNC(=O)c2ccc(-c3c4nc(c(-c5c(F)cc(S(=O)(=O)[O-])cc5F)c5ccc([nH]5)c(-c5c(F)cc(S(=O)(=O)[O-])cc5F)c5nc(c(-c6c(F)cc(S(=O)(=O)[O-])cc6F)c6ccc3[nH]6)C=C5)C=C4)cc2)n2c(nc3ccccc32)[C@H]1C
REMARK SMILES IDX 18 1 17 2 16 3 14 4 15 5 13 7 12 8 9 9 10 10 98 11 11 12
REMARK SMILES IDX 90 13 99 14 89 15 91 16 97 17 92 18 96 19 93 20 95 21 94 22
REMARK SMILES IDX 8 23 7 24 1 25 2 26 3 27 4 28 6 29 5 30 19 31 20 32 21 33
REMARK SMILES IDX 22 35 23 36 24 37 88 38 25 39 87 40 26 41 27 42 28 43 81 44
REMARK SMILES IDX 29 45 86 46 80 47 82 48 30 49 85 50 79 51 78 52 31 54 65 55
REMARK SMILES IDX 44 56 64 57 45 58 48 59 63 60 83 61 46 62 47 63 62 65 84 66
REMARK SMILES IDX 49 67 32 68 33 69 42 70 34 71 35 72 41 73 43 74 36 75 37 76
REMARK SMILES IDX 38 77 39 78 40 79 66 80 67 81 76 82 68 83 69 84 75 85 77 86
REMARK SMILES IDX 70 87 71 88 72 89 73 90 74 91 50 92 51 93 60 94 52 95 53 96
REMARK SMILES IDX 59 97 61 98 54 99 55 100 56 101 57 102 58 103
REMARK H PARENT 16 6 20 34 82 53 48 64
REMARK Flexibility Score: inf
ROOT
ATOM      1  C   UNL A   1      35.387  29.548  27.498  1.00  0.00     0.042 C 
ENDROOT
BRANCH   1   2
ATOM      2  C   UNL A   1      34.063  30.243  27.136  1.00  0.00     0.117 C 
BRANCH   2   3
ATOM      3  N   UNL A   1      32.907  29.496  27.615  1.00  0.00    -0.356 N 
ATOM      4  C   UNL A   1      32.507  28.209  27.462  1.00  0.00     0.222 C 
ATOM      5  O   UNL A   1      31.500  27.774  28.025  1.00  0.00    -0.275 OA
ATOM      6  H   UNL A   1      32.290  30.037  28.161  1.00  0.00     0.163 HD
BRANCH   4   7
ATOM      7  C   UNL A   1      33.208  27.295  26.503  1.00  0.00     0.135 C 
BRANCH   7   8
ATOM      8  C   UNL A   1      32.198  27.000  25.390  1.00  0.00     0.187 C 
ATOM      9  N   UNL A   1      31.731  27.666  23.093  1.00  0.00    -0.327 N 
ATOM     10  C   UNL A   1      32.348  28.039  24.279  1.00  0.00     0.247 C 
ATOM     11  C   UNL A   1      32.542  26.607  22.485  1.00  0.00     0.149 C 
ATOM     12  O   UNL A   1      33.093  29.009  24.293  1.00  0.00    -0.272 OA
ATOM     13  C   UNL A   1      32.543  25.450  23.457  1.00  0.00     0.133 A 
ATOM     14  C   UNL A   1      32.216  26.155  21.076  1.00  0.00     0.040 C 
ATOM     15  N   UNL A   1      32.350  25.668  24.808  1.00  0.00    -0.313 N 
ATOM     16  N   UNL A   1      32.738  24.172  23.210  1.00  0.00    -0.231 NA
ATOM     17  C   UNL A   1      32.221  24.448  25.421  1.00  0.00     0.069 A 
ATOM     18  C   UNL A   1      32.526  23.537  24.411  1.00  0.00     0.089 A 
ATOM     19  C   UNL A   1      31.890  24.049  26.721  1.00  0.00     0.028 A 
ATOM     20  C   UNL A   1      32.565  22.167  24.705  1.00  0.00     0.030 A 
ATOM     21  C   UNL A   1      31.920  22.675  26.992  1.00  0.00     0.002 A 
ATOM     22  C   UNL A   1      32.264  21.748  26.005  1.00  0.00     0.002 A 
BRANCH   9  23
ATOM     23  C   UNL A   1      31.038  28.716  22.335  1.00  0.00     0.156 C 
BRANCH  23  24
ATOM     24  C   UNL A   1      29.538  28.673  22.579  1.00  0.00    -0.026 A 
ATOM     25  C   UNL A   1      28.991  30.987  21.553  1.00  0.00     0.044 C 
ATOM     26  C   UNL A   1      28.658  29.755  22.357  1.00  0.00    -0.046 A 
ATOM     27  C   UNL A   1      27.339  29.679  22.851  1.00  0.00     0.004 A 
ATOM     28  C   UNL A   1      26.880  28.550  23.527  1.00  0.00     0.000 A 
ATOM     29  C   UNL A   1      29.008  27.504  23.154  1.00  0.00     0.006 A 
ATOM     30  C   UNL A   1      27.708  27.448  23.652  1.00  0.00     0.000 A 
ENDBRANCH  23  24
ENDBRANCH   9  23
ENDBRANCH   7   8
ENDBRANCH   4   7
ENDBRANCH   2   3
ENDBRANCH   1   2
BRANCH   1  31
ATOM     31  C   UNL A   1      36.402  30.453  28.192  1.00  0.00     0.118 C 
BRANCH  31  32
ATOM     32  N   UNL A   1      36.370  30.258  29.638  1.00  0.00    -0.352 N 
ATOM     33  C   UNL A   1      37.209  29.628  30.518  1.00  0.00     0.251 C 
ATOM     34  H   UNL A   1      35.582  30.663  30.068  1.00  0.00     0.163 HD
ATOM     35  O   UNL A   1      36.674  29.216  31.555  1.00  0.00    -0.269 OA
BRANCH  33  36
ATOM     36  C   UNL A   1      38.688  29.448  30.354  1.00  0.00     0.039 A 
ATOM     37  C   UNL A   1      39.469  30.619  30.391  1.00  0.00     0.014 A 
ATOM     38  C   UNL A   1      39.355  28.251  30.101  1.00  0.00     0.014 A 
ATOM     39  C   UNL A   1      40.864  30.585  30.214  1.00  0.00     0.010 A 
ATOM     40  C   UNL A   1      40.756  28.218  29.917  1.00  0.00     0.010 A 
ATOM     41  C   UNL A   1      41.538  29.373  29.997  1.00  0.00    -0.014 A 
BRANCH  41  42
ATOM     42  C   UNL A   1      43.009  29.346  30.271  1.00  0.00     0.031 A 
ATOM     43  C   UNL A   1      43.241  28.368  31.431  1.00  0.00     0.074 A 
ATOM     44  C   UNL A   1      44.091  29.372  29.422  1.00  0.00     0.049 A 
ATOM     45  N   UNL A   1      43.146  27.088  31.244  1.00  0.00    -0.248 NA
ATOM     46  C   UNL A   1      43.350  28.687  32.861  1.00  0.00     0.031 C 
ATOM     47  C   UNL A   1      45.375  29.933  29.869  1.00  0.00     0.029 A 
ATOM     48  N   UNL A   1      44.371  29.011  28.081  1.00  0.00    -0.354 N 
ATOM     49  C   UNL A   1      43.554  26.437  32.405  1.00  0.00     0.074 A 
ATOM     50  C   UNL A   1      43.489  27.463  33.423  1.00  0.00     0.031 C 
ATOM     51  C   UNL A   1      46.325  29.764  28.925  1.00  0.00     0.029 A 
ATOM     52  C   UNL A   1      45.785  28.987  27.810  1.00  0.00     0.049 A 
ATOM     53  H   UNL A   1      43.680  28.802  27.412  1.00  0.00     0.167 HD
ATOM     54  C   UNL A   1      44.159  25.201  32.302  1.00  0.00     0.037 A 
ATOM     55  C   UNL A   1      46.573  28.211  26.973  1.00  0.00     0.037 A 
ATOM     56  C   UNL A   1      44.568  25.061  30.934  1.00  0.00     0.049 A 
ATOM     57  C   UNL A   1      45.814  27.144  26.220  1.00  0.00     0.074 A 
ATOM     58  C   UNL A   1      45.582  25.834  30.441  1.00  0.00     0.029 A 
ATOM     59  N   UNL A   1      43.912  24.429  29.891  1.00  0.00    -0.354 N 
ATOM     60  N   UNL A   1      45.824  25.901  26.604  1.00  0.00    -0.248 NA
ATOM     61  C   UNL A   1      44.829  27.375  25.160  1.00  0.00     0.031 C 
ATOM     62  C   UNL A   1      45.164  26.027  29.158  1.00  0.00     0.029 A 
ATOM     63  C   UNL A   1      44.306  25.051  28.708  1.00  0.00     0.049 A 
ATOM     64  H   UNL A   1      43.282  23.677  29.970  1.00  0.00     0.167 HD
ATOM     65  C   UNL A   1      44.542  25.455  26.370  1.00  0.00     0.074 A 
ATOM     66  C   UNL A   1      44.107  26.239  25.225  1.00  0.00     0.031 C 
ATOM     67  C   UNL A   1      43.760  24.891  27.359  1.00  0.00     0.037 A 
BRANCH  54  68
ATOM     68  C   UNL A   1      44.912  24.317  33.268  1.00  0.00     0.058 A 
ATOM     69  C   UNL A   1      44.288  23.122  33.752  1.00  0.00     0.135 A 
ATOM     70  C   UNL A   1      46.124  24.644  33.873  1.00  0.00     0.135 A 
ATOM     71  F   UNL A   1      43.145  22.640  33.244  1.00  0.00    -0.206 F 
ATOM     72  C   UNL A   1      44.773  22.366  34.799  1.00  0.00     0.059 A 
ATOM     73  C   UNL A   1      46.642  23.881  34.938  1.00  0.00     0.059 A 
ATOM     74  F   UNL A   1      46.807  25.730  33.478  1.00  0.00    -0.206 F 
ATOM     75  C   UNL A   1      45.938  22.769  35.413  1.00  0.00     0.060 A 
BRANCH  75  76
ATOM     76  S   UNL A   1      46.449  21.824  36.858  1.00  0.00     0.124 S 
ATOM     77  O   UNL A   1      45.857  22.596  37.947  1.00  0.00    -0.237 OA
ATOM     78  O   UNL A   1      45.848  20.518  36.608  1.00  0.00    -0.237 OA
ATOM     79  O   UNL A   1      47.906  21.863  36.784  1.00  0.00    -0.744 OA
ENDBRANCH  75  76
ENDBRANCH  54  68
BRANCH  55  80
ATOM     80  C   UNL A   1      48.039  27.870  27.297  1.00  0.00     0.058 A 
ATOM     81  C   UNL A   1      48.491  27.531  28.576  1.00  0.00     0.135 A 
ATOM     82  C   UNL A   1      49.073  27.961  26.328  1.00  0.00     0.135 A 
ATOM     83  F   UNL A   1      47.617  27.450  29.591  1.00  0.00    -0.206 F 
ATOM     84  C   UNL A   1      49.858  27.296  28.856  1.00  0.00     0.059 A 
ATOM     85  C   UNL A   1      50.421  27.714  26.566  1.00  0.00     0.059 A 
ATOM     86  F   UNL A   1      48.844  28.343  25.081  1.00  0.00    -0.206 F 
ATOM     87  C   UNL A   1      50.816  27.386  27.841  1.00  0.00     0.060 A 
BRANCH  87  88
ATOM     88  S   UNL A   1      52.569  27.108  28.179  1.00  0.00     0.124 S 
ATOM     89  O   UNL A   1      52.678  27.523  29.574  1.00  0.00    -0.237 OA
ATOM     90  O   UNL A   1      52.695  25.675  27.933  1.00  0.00    -0.237 OA
ATOM     91  O   UNL A   1      53.257  27.966  27.219  1.00  0.00    -0.744 OA
ENDBRANCH  87  88
ENDBRANCH  55  80
BRANCH  67  92
ATOM     92  C   UNL A   1      42.350  24.489  27.087  1.00  0.00     0.058 A 
ATOM     93  C   UNL A   1      41.331  25.441  26.904  1.00  0.00     0.135 A 
ATOM     94  C   UNL A   1      41.982  23.141  26.949  1.00  0.00     0.135 A 
ATOM     95  F   UNL A   1      41.599  26.755  26.963  1.00  0.00    -0.206 F 
ATOM     96  C   UNL A   1      40.015  25.072  26.655  1.00  0.00     0.059 A 
ATOM     97  C   UNL A   1      40.686  22.747  26.682  1.00  0.00     0.059 A 
ATOM     98  F   UNL A   1      42.874  22.149  27.053  1.00  0.00    -0.206 F 
ATOM     99  C   UNL A   1      39.708  23.722  26.546  1.00  0.00     0.060 A 
BRANCH  99 100
ATOM    100  S   UNL A   1      38.033  23.224  26.171  1.00  0.00     0.124 S 
ATOM    101  O   UNL A   1      37.745  24.054  25.004  1.00  0.00    -0.237 OA
ATOM    102  O   UNL A   1      38.194  21.787  25.924  1.00  0.00    -0.237 OA
ATOM    103  O   UNL A   1      37.327  23.594  27.381  1.00  0.00    -0.744 OA
ENDBRANCH  99 100
ENDBRANCH  67  92
ENDBRANCH  41  42
ENDBRANCH  33  36
ENDBRANCH  31  32
ENDBRANCH   1  31
TORSDOF 16
ENDMDL
