MODEL 1
REMARK VINA RESULT:     -10.9      0.000      0.000
REMARK SMILES C[C@@H](O)c1ccc(F)cc1OCC(C)(C)C(=O)NCCCNC(=O)c1ccc(-c2c3nc(c(-c4c(F)cc(S(=O)(=O)[O-])cc4F)c4ccc([nH]4)c(-c4c(F)cc(S(=O)(=O)[O-])cc4F)c4nc(c(-c5c(F)cc(S(=O)(=O)[O-])cc5F)c5ccc2[nH]5)C=C4)C=C3)cc1
REMARK SMILES IDX 19 1 18 2 16 3 17 4 13 6 14 7 15 8 12 9 11 10 10 11 4 12
REMARK SMILES IDX 5 13 6 14 9 15 7 16 8 17 2 18 1 19 3 20 20 22 21 23 22 24
REMARK SMILES IDX 23 25 24 27 25 28 26 29 90 30 27 31 89 32 28 33 29 34 30 35
REMARK SMILES IDX 83 36 31 37 88 38 82 39 84 40 32 41 87 42 81 43 80 44 33 46
REMARK SMILES IDX 67 47 46 48 66 49 47 50 50 51 65 52 85 53 48 54 49 55 64 57
REMARK SMILES IDX 86 58 51 59 34 60 35 61 44 62 36 63 37 64 43 65 45 66 38 67
REMARK SMILES IDX 39 68 40 69 41 70 42 71 68 72 69 73 78 74 70 75 71 76 77 77
REMARK SMILES IDX 79 78 72 79 73 80 74 81 75 82 76 83 52 84 53 85 62 86 54 87
REMARK SMILES IDX 55 88 61 89 63 90 56 91 57 92 58 93 59 94 60 95
REMARK H PARENT 18 5 3 21 22 26 84 45 50 56
REMARK Flexibility Score: inf
ROOT
ATOM      1  C   UNL A   1      32.478  28.487  24.966  1.00  0.00     0.117 C 
ENDROOT
BRANCH   1   2
ATOM      2  N   UNL A   1      31.393  27.704  25.551  1.00  0.00    -0.355 N 
ATOM      3  C   UNL A   1      30.889  26.482  25.169  1.00  0.00     0.229 C 
ATOM      4  O   UNL A   1      30.061  25.952  25.909  1.00  0.00    -0.274 OA
ATOM      5  H   UNL A   1      30.958  28.110  26.335  1.00  0.00     0.163 HD
BRANCH   3   6
ATOM      6  C   UNL A   1      31.336  25.860  23.831  1.00  0.00     0.077 C 
ATOM      7  C   UNL A   1      31.334  26.982  22.774  1.00  0.00     0.025 C 
ATOM      8  C   UNL A   1      30.315  24.732  23.526  1.00  0.00     0.025 C 
BRANCH   6   9
ATOM      9  C   UNL A   1      32.711  25.123  23.962  1.00  0.00     0.245 C 
BRANCH   9  10
ATOM     10  O   UNL A   1      32.714  23.892  24.664  1.00  0.00    -0.492 OA
BRANCH  10  11
ATOM     11  C   UNL A   1      33.773  23.051  24.855  1.00  0.00     0.128 A 
ATOM     12  C   UNL A   1      33.912  21.644  24.748  1.00  0.00     0.022 A 
ATOM     13  C   UNL A   1      35.226  21.112  24.824  1.00  0.00     0.013 A 
ATOM     14  C   UNL A   1      36.352  21.919  24.984  1.00  0.00     0.040 A 
ATOM     15  C   UNL A   1      34.919  23.839  25.084  1.00  0.00     0.086 A 
ATOM     16  C   UNL A   1      36.184  23.279  25.129  1.00  0.00     0.126 A 
ATOM     17  F   UNL A   1      37.254  24.070  25.287  1.00  0.00    -0.207 F 
BRANCH  12  18
ATOM     18  C   UNL A   1      32.806  20.632  24.502  1.00  0.00     0.145 C 
ATOM     19  C   UNL A   1      33.281  19.176  24.380  1.00  0.00     0.044 C 
BRANCH  18  20
ATOM     20  O   UNL A   1      31.869  20.713  25.573  1.00  0.00    -0.389 OA
ATOM     21  H   UNL A   1      32.193  20.197  26.327  1.00  0.00     0.211 HD
ENDBRANCH  18  20
ENDBRANCH  12  18
ENDBRANCH  10  11
ENDBRANCH   9  10
ENDBRANCH   6   9
ENDBRANCH   3   6
ENDBRANCH   1   2
BRANCH   1  22
ATOM     22  C   UNL A   1      33.763  28.422  25.750  1.00  0.00     0.042 C 
BRANCH  22  23
ATOM     23  C   UNL A   1      33.528  28.587  27.235  1.00  0.00     0.118 C 
BRANCH  23  24
ATOM     24  N   UNL A   1      33.545  29.987  27.656  1.00  0.00    -0.352 N 
ATOM     25  C   UNL A   1      34.547  30.704  28.270  1.00  0.00     0.251 C 
ATOM     26  H   UNL A   1      32.718  30.490  27.474  1.00  0.00     0.163 HD
ATOM     27  O   UNL A   1      34.328  31.818  28.717  1.00  0.00    -0.269 OA
BRANCH  25  28
ATOM     28  C   UNL A   1      35.879  30.081  28.399  1.00  0.00     0.039 A 
ATOM     29  C   UNL A   1      36.758  30.104  27.316  1.00  0.00     0.014 A 
ATOM     30  C   UNL A   1      36.275  29.550  29.627  1.00  0.00     0.014 A 
ATOM     31  C   UNL A   1      38.072  29.672  27.499  1.00  0.00     0.010 A 
ATOM     32  C   UNL A   1      37.610  29.257  29.841  1.00  0.00     0.010 A 
ATOM     33  C   UNL A   1      38.520  29.295  28.777  1.00  0.00    -0.014 A 
BRANCH  33  34
ATOM     34  C   UNL A   1      39.925  28.899  29.033  1.00  0.00     0.031 A 
ATOM     35  C   UNL A   1      40.870  29.897  29.646  1.00  0.00     0.074 A 
ATOM     36  C   UNL A   1      40.366  27.691  28.634  1.00  0.00     0.049 A 
ATOM     37  N   UNL A   1      42.158  29.801  29.840  1.00  0.00    -0.248 NA
ATOM     38  C   UNL A   1      40.300  31.194  30.049  1.00  0.00     0.031 C 
ATOM     39  C   UNL A   1      39.556  26.667  27.967  1.00  0.00     0.029 A 
ATOM     40  N   UNL A   1      41.608  27.118  28.729  1.00  0.00    -0.354 N 
ATOM     41  C   UNL A   1      42.552  31.030  30.354  1.00  0.00     0.074 A 
ATOM     42  C   UNL A   1      41.384  31.879  30.376  1.00  0.00     0.031 C 
ATOM     43  C   UNL A   1      40.312  25.579  27.753  1.00  0.00     0.029 A 
ATOM     44  C   UNL A   1      41.668  25.839  28.228  1.00  0.00     0.049 A 
ATOM     45  H   UNL A   1      42.385  27.580  29.119  1.00  0.00     0.167 HD
ATOM     46  C   UNL A   1      43.770  31.406  30.805  1.00  0.00     0.037 A 
ATOM     47  C   UNL A   1      42.699  24.974  28.163  1.00  0.00     0.037 A 
ATOM     48  C   UNL A   1      44.909  30.531  30.839  1.00  0.00     0.049 A 
ATOM     49  C   UNL A   1      44.034  25.395  28.710  1.00  0.00     0.074 A 
ATOM     50  C   UNL A   1      46.171  30.781  31.346  1.00  0.00     0.029 A 
ATOM     51  N   UNL A   1      44.920  29.231  30.355  1.00  0.00    -0.354 N 
ATOM     52  N   UNL A   1      44.379  26.544  29.242  1.00  0.00    -0.248 NA
ATOM     53  C   UNL A   1      45.119  24.407  28.651  1.00  0.00     0.031 C 
ATOM     54  C   UNL A   1      46.954  29.641  31.143  1.00  0.00     0.029 A 
ATOM     55  C   UNL A   1      46.169  28.667  30.543  1.00  0.00     0.049 A 
ATOM     56  H   UNL A   1      44.151  28.775  29.941  1.00  0.00     0.167 HD
ATOM     57  C   UNL A   1      45.716  26.414  29.595  1.00  0.00     0.074 A 
ATOM     58  C   UNL A   1      46.115  25.069  29.228  1.00  0.00     0.031 C 
ATOM     59  C   UNL A   1      46.539  27.324  30.170  1.00  0.00     0.037 A 
BRANCH  46  60
ATOM     60  C   UNL A   1      43.919  32.808  31.322  1.00  0.00     0.058 A 
ATOM     61  C   UNL A   1      44.168  33.873  30.442  1.00  0.00     0.135 A 
ATOM     62  C   UNL A   1      43.830  33.100  32.694  1.00  0.00     0.135 A 
ATOM     63  F   UNL A   1      44.252  33.654  29.121  1.00  0.00    -0.206 F 
ATOM     64  C   UNL A   1      44.327  35.175  30.904  1.00  0.00     0.059 A 
ATOM     65  C   UNL A   1      43.957  34.398  33.175  1.00  0.00     0.059 A 
ATOM     66  F   UNL A   1      43.565  32.123  33.576  1.00  0.00    -0.206 F 
ATOM     67  C   UNL A   1      44.217  35.429  32.272  1.00  0.00     0.060 A 
BRANCH  67  68
ATOM     68  S   UNL A   1      44.367  37.132  32.852  1.00  0.00     0.124 S 
ATOM     69  O   UNL A   1      44.569  37.856  31.603  1.00  0.00    -0.237 OA
ATOM     70  O   UNL A   1      43.084  37.347  33.515  1.00  0.00    -0.237 OA
ATOM     71  O   UNL A   1      45.521  37.082  33.746  1.00  0.00    -0.744 OA
ENDBRANCH  67  68
ENDBRANCH  46  60
BRANCH  47  72
ATOM     72  C   UNL A   1      42.478  23.613  27.611  1.00  0.00     0.058 A 
ATOM     73  C   UNL A   1      42.264  22.508  28.448  1.00  0.00     0.135 A 
ATOM     74  C   UNL A   1      42.549  23.383  26.229  1.00  0.00     0.135 A 
ATOM     75  F   UNL A   1      42.201  22.673  29.778  1.00  0.00    -0.206 F 
ATOM     76  C   UNL A   1      42.162  21.218  27.937  1.00  0.00     0.059 A 
ATOM     77  C   UNL A   1      42.430  22.105  25.692  1.00  0.00     0.059 A 
ATOM     78  F   UNL A   1      42.742  24.411  25.388  1.00  0.00    -0.206 F 
ATOM     79  C   UNL A   1      42.258  21.025  26.559  1.00  0.00     0.060 A 
BRANCH  79  80
ATOM     80  S   UNL A   1      42.175  19.337  25.920  1.00  0.00     0.124 S 
ATOM     81  O   UNL A   1      43.049  19.425  24.754  1.00  0.00    -0.237 OA
ATOM     82  O   UNL A   1      42.690  18.561  27.042  1.00  0.00    -0.237 OA
ATOM     83  O   UNL A   1      40.756  19.154  25.630  1.00  0.00    -0.744 OA
ENDBRANCH  79  80
ENDBRANCH  47  72
BRANCH  59  84
ATOM     84  C   UNL A   1      47.952  26.903  30.452  1.00  0.00     0.058 A 
ATOM     85  C   UNL A   1      48.289  26.326  31.686  1.00  0.00     0.135 A 
ATOM     86  C   UNL A   1      48.986  27.160  29.539  1.00  0.00     0.135 A 
ATOM     87  F   UNL A   1      47.336  26.066  32.595  1.00  0.00    -0.206 F 
ATOM     88  C   UNL A   1      49.608  26.037  32.015  1.00  0.00     0.059 A 
ATOM     89  C   UNL A   1      50.310  26.857  29.837  1.00  0.00     0.059 A 
ATOM     90  F   UNL A   1      48.710  27.701  28.341  1.00  0.00    -0.206 F 
ATOM     91  C   UNL A   1      50.613  26.313  31.086  1.00  0.00     0.060 A 
BRANCH  91  92
ATOM     92  S   UNL A   1      52.321  25.936  31.530  1.00  0.00     0.124 S 
ATOM     93  O   UNL A   1      52.204  24.571  32.031  1.00  0.00    -0.237 OA
ATOM     94  O   UNL A   1      53.012  26.089  30.253  1.00  0.00    -0.237 OA
ATOM     95  O   UNL A   1      52.642  26.949  32.532  1.00  0.00    -0.744 OA
ENDBRANCH  91  92
ENDBRANCH  59  84
ENDBRANCH  33  34
ENDBRANCH  25  28
ENDBRANCH  23  24
ENDBRANCH  22  23
ENDBRANCH   1  22
TORSDOF 18
ENDMDL
MODEL 2
REMARK VINA RESULT:     -10.6      1.536      2.906
REMARK SMILES C[C@@H](O)c1ccc(F)cc1OCC(C)(C)C(=O)NCCCNC(=O)c1ccc(-c2c3nc(c(-c4c(F)cc(S(=O)(=O)[O-])cc4F)c4ccc([nH]4)c(-c4c(F)cc(S(=O)(=O)[O-])cc4F)c4nc(c(-c5c(F)cc(S(=O)(=O)[O-])cc5F)c5ccc2[nH]5)C=C4)C=C3)cc1
REMARK SMILES IDX 19 1 18 2 16 3 17 4 13 6 14 7 15 8 12 9 11 10 10 11 4 12
REMARK SMILES IDX 5 13 6 14 9 15 7 16 8 17 2 18 1 19 3 20 20 22 21 23 22 24
REMARK SMILES IDX 23 25 24 27 25 28 26 29 90 30 27 31 89 32 28 33 29 34 30 35
REMARK SMILES IDX 83 36 31 37 88 38 82 39 84 40 32 41 87 42 81 43 80 44 33 46
REMARK SMILES IDX 67 47 46 48 66 49 47 50 50 51 65 52 85 53 48 54 49 55 64 57
REMARK SMILES IDX 86 58 51 59 34 60 35 61 44 62 36 63 37 64 43 65 45 66 38 67
REMARK SMILES IDX 39 68 40 69 41 70 42 71 68 72 69 73 78 74 70 75 71 76 77 77
REMARK SMILES IDX 79 78 72 79 73 80 74 81 75 82 76 83 52 84 53 85 62 86 54 87
REMARK SMILES IDX 55 88 61 89 63 90 56 91 57 92 58 93 59 94 60 95
REMARK H PARENT 18 5 3 21 22 26 84 45 50 56
REMARK Flexibility Score: inf
ROOT
ATOM      1  C   UNL A   1      32.258  26.765  26.073  1.00  0.00     0.117 C 
ENDROOT
BRANCH   1   2
ATOM      2  N   UNL A   1      31.140  25.962  26.562  1.00  0.00    -0.355 N 
ATOM      3  C   UNL A   1      30.867  24.628  26.369  1.00  0.00     0.229 C 
ATOM      4  O   UNL A   1      29.934  24.140  27.005  1.00  0.00    -0.274 OA
ATOM      5  H   UNL A   1      30.484  26.448  27.113  1.00  0.00     0.163 HD
BRANCH   3   6
ATOM      6  C   UNL A   1      31.695  23.824  25.347  1.00  0.00     0.077 C 
ATOM      7  C   UNL A   1      31.630  22.340  25.761  1.00  0.00     0.025 C 
ATOM      8  C   UNL A   1      33.130  24.412  25.407  1.00  0.00     0.025 C 
BRANCH   6   9
ATOM      9  C   UNL A   1      31.222  24.087  23.878  1.00  0.00     0.245 C 
BRANCH   9  10
ATOM     10  O   UNL A   1      30.200  25.052  23.696  1.00  0.00    -0.492 OA
BRANCH  10  11
ATOM     11  C   UNL A   1      30.349  26.348  23.291  1.00  0.00     0.128 A 
ATOM     12  C   UNL A   1      31.359  27.012  22.551  1.00  0.00     0.022 A 
ATOM     13  C   UNL A   1      31.093  28.342  22.132  1.00  0.00     0.013 A 
ATOM     14  C   UNL A   1      29.889  28.987  22.412  1.00  0.00     0.040 A 
ATOM     15  C   UNL A   1      29.168  27.044  23.619  1.00  0.00     0.086 A 
ATOM     16  C   UNL A   1      28.941  28.334  23.171  1.00  0.00     0.126 A 
ATOM     17  F   UNL A   1      27.780  28.940  23.453  1.00  0.00    -0.207 F 
BRANCH  12  18
ATOM     18  C   UNL A   1      32.691  26.435  22.101  1.00  0.00     0.145 C 
ATOM     19  C   UNL A   1      32.613  25.516  20.873  1.00  0.00     0.044 C 
BRANCH  18  20
ATOM     20  O   UNL A   1      33.575  27.512  21.804  1.00  0.00    -0.389 OA
ATOM     21  H   UNL A   1      34.277  27.550  22.473  1.00  0.00     0.211 HD
ENDBRANCH  18  20
ENDBRANCH  12  18
ENDBRANCH  10  11
ENDBRANCH   9  10
ENDBRANCH   6   9
ENDBRANCH   3   6
ENDBRANCH   1   2
BRANCH   1  22
ATOM     22  C   UNL A   1      32.226  28.197  26.541  1.00  0.00     0.042 C 
BRANCH  22  23
ATOM     23  C   UNL A   1      33.492  28.580  27.275  1.00  0.00     0.118 C 
BRANCH  23  24
ATOM     24  N   UNL A   1      33.504  29.985  27.681  1.00  0.00    -0.352 N 
ATOM     25  C   UNL A   1      34.509  30.715  28.274  1.00  0.00     0.251 C 
ATOM     26  H   UNL A   1      32.672  30.480  27.505  1.00  0.00     0.163 HD
ATOM     27  O   UNL A   1      34.288  31.832  28.713  1.00  0.00    -0.269 OA
BRANCH  25  28
ATOM     28  C   UNL A   1      35.847  30.103  28.392  1.00  0.00     0.039 A 
ATOM     29  C   UNL A   1      36.725  30.151  27.309  1.00  0.00     0.014 A 
ATOM     30  C   UNL A   1      36.250  29.556  29.611  1.00  0.00     0.014 A 
ATOM     31  C   UNL A   1      38.043  29.729  27.484  1.00  0.00     0.010 A 
ATOM     32  C   UNL A   1      37.587  29.272  29.820  1.00  0.00     0.010 A 
ATOM     33  C   UNL A   1      38.496  29.336  28.755  1.00  0.00    -0.014 A 
BRANCH  33  34
ATOM     34  C   UNL A   1      39.905  28.949  29.003  1.00  0.00     0.031 A 
ATOM     35  C   UNL A   1      40.851  29.958  29.598  1.00  0.00     0.074 A 
ATOM     36  C   UNL A   1      40.348  27.739  28.614  1.00  0.00     0.049 A 
ATOM     37  N   UNL A   1      42.140  29.870  29.782  1.00  0.00    -0.248 NA
ATOM     38  C   UNL A   1      40.277  31.257  29.992  1.00  0.00     0.031 C 
ATOM     39  C   UNL A   1      39.538  26.705  27.965  1.00  0.00     0.029 A 
ATOM     40  N   UNL A   1      41.594  27.173  28.705  1.00  0.00    -0.354 N 
ATOM     41  C   UNL A   1      42.533  31.106  30.280  1.00  0.00     0.074 A 
ATOM     42  C   UNL A   1      41.361  31.950  30.302  1.00  0.00     0.031 C 
ATOM     43  C   UNL A   1      40.297  25.617  27.756  1.00  0.00     0.029 A 
ATOM     44  C   UNL A   1      41.655  25.889  28.218  1.00  0.00     0.049 A 
ATOM     45  H   UNL A   1      42.372  27.643  29.083  1.00  0.00     0.167 HD
ATOM     46  C   UNL A   1      43.753  31.492  30.716  1.00  0.00     0.037 A 
ATOM     47  C   UNL A   1      42.690  25.028  28.153  1.00  0.00     0.037 A 
ATOM     48  C   UNL A   1      44.896  30.624  30.750  1.00  0.00     0.049 A 
ATOM     49  C   UNL A   1      44.027  25.461  28.684  1.00  0.00     0.074 A 
ATOM     50  C   UNL A   1      46.161  30.885  31.244  1.00  0.00     0.029 A 
ATOM     51  N   UNL A   1      44.909  29.318  30.280  1.00  0.00    -0.354 N 
ATOM     52  N   UNL A   1      44.372  26.617  29.200  1.00  0.00    -0.248 NA
ATOM     53  C   UNL A   1      45.117  24.477  28.627  1.00  0.00     0.031 C 
ATOM     54  C   UNL A   1      46.947  29.746  31.046  1.00  0.00     0.029 A 
ATOM     55  C   UNL A   1      46.163  28.763  30.464  1.00  0.00     0.049 A 
ATOM     56  H   UNL A   1      44.139  28.854  29.877  1.00  0.00     0.167 HD
ATOM     57  C   UNL A   1      45.712  26.497  29.544  1.00  0.00     0.074 A 
ATOM     58  C   UNL A   1      46.114  25.150  29.188  1.00  0.00     0.031 C 
ATOM     59  C   UNL A   1      46.536  27.417  30.102  1.00  0.00     0.037 A 
BRANCH  46  60
ATOM     60  C   UNL A   1      43.899  32.901  31.217  1.00  0.00     0.058 A 
ATOM     61  C   UNL A   1      44.258  33.938  30.342  1.00  0.00     0.135 A 
ATOM     62  C   UNL A   1      43.698  33.226  32.570  1.00  0.00     0.135 A 
ATOM     63  F   UNL A   1      44.452  33.688  29.038  1.00  0.00    -0.206 F 
ATOM     64  C   UNL A   1      44.417  35.245  30.790  1.00  0.00     0.059 A 
ATOM     65  C   UNL A   1      43.823  34.530  33.034  1.00  0.00     0.059 A 
ATOM     66  F   UNL A   1      43.326  32.277  33.443  1.00  0.00    -0.206 F 
ATOM     67  C   UNL A   1      44.194  35.533  32.139  1.00  0.00     0.060 A 
BRANCH  67  68
ATOM     68  S   UNL A   1      44.346  37.243  32.696  1.00  0.00     0.124 S 
ATOM     69  O   UNL A   1      44.328  37.971  31.433  1.00  0.00    -0.237 OA
ATOM     70  O   UNL A   1      43.165  37.398  33.540  1.00  0.00    -0.237 OA
ATOM     71  O   UNL A   1      45.620  37.252  33.411  1.00  0.00    -0.744 OA
ENDBRANCH  67  68
ENDBRANCH  46  60
BRANCH  47  72
ATOM     72  C   UNL A   1      42.470  23.660  27.617  1.00  0.00     0.058 A 
ATOM     73  C   UNL A   1      42.312  22.556  28.468  1.00  0.00     0.135 A 
ATOM     74  C   UNL A   1      42.488  23.424  26.234  1.00  0.00     0.135 A 
ATOM     75  F   UNL A   1      42.302  22.728  29.799  1.00  0.00    -0.206 F 
ATOM     76  C   UNL A   1      42.212  21.261  27.969  1.00  0.00     0.059 A 
ATOM     77  C   UNL A   1      42.370  22.140  25.710  1.00  0.00     0.059 A 
ATOM     78  F   UNL A   1      42.627  24.450  25.381  1.00  0.00    -0.206 F 
ATOM     79  C   UNL A   1      42.254  21.063  26.588  1.00  0.00     0.060 A 
BRANCH  79  80
ATOM     80  S   UNL A   1      42.175  19.370  25.962  1.00  0.00     0.124 S 
ATOM     81  O   UNL A   1      40.742  19.209  25.740  1.00  0.00    -0.237 OA
ATOM     82  O   UNL A   1      42.999  19.450  24.760  1.00  0.00    -0.237 OA
ATOM     83  O   UNL A   1      42.736  18.579  27.053  1.00  0.00    -0.744 OA
ENDBRANCH  79  80
ENDBRANCH  47  72
BRANCH  59  84
ATOM     84  C   UNL A   1      47.953  27.006  30.377  1.00  0.00     0.058 A 
ATOM     85  C   UNL A   1      48.323  26.535  31.646  1.00  0.00     0.135 A 
ATOM     86  C   UNL A   1      48.960  27.169  29.413  1.00  0.00     0.135 A 
ATOM     87  F   UNL A   1      47.396  26.367  32.603  1.00  0.00    -0.206 F 
ATOM     88  C   UNL A   1      49.649  26.261  31.959  1.00  0.00     0.059 A 
ATOM     89  C   UNL A   1      50.289  26.879  29.697  1.00  0.00     0.059 A 
ATOM     90  F   UNL A   1      48.651  27.607  28.182  1.00  0.00    -0.206 F 
ATOM     91  C   UNL A   1      50.627  26.443  30.979  1.00  0.00     0.060 A 
BRANCH  91  92
ATOM     92  S   UNL A   1      52.344  26.085  31.402  1.00  0.00     0.124 S 
ATOM     93  O   UNL A   1      52.629  27.117  32.392  1.00  0.00    -0.237 OA
ATOM     94  O   UNL A   1      52.259  24.720  31.912  1.00  0.00    -0.237 OA
ATOM     95  O   UNL A   1      53.043  26.226  30.127  1.00  0.00    -0.744 OA
ENDBRANCH  91  92
ENDBRANCH  59  84
ENDBRANCH  33  34
ENDBRANCH  25  28
ENDBRANCH  23  24
ENDBRANCH  22  23
ENDBRANCH   1  22
TORSDOF 18
ENDMDL
MODEL 3
REMARK VINA RESULT:     -10.6      2.641      3.429
REMARK SMILES C[C@@H](O)c1ccc(F)cc1OCC(C)(C)C(=O)NCCCNC(=O)c1ccc(-c2c3nc(c(-c4c(F)cc(S(=O)(=O)[O-])cc4F)c4ccc([nH]4)c(-c4c(F)cc(S(=O)(=O)[O-])cc4F)c4nc(c(-c5c(F)cc(S(=O)(=O)[O-])cc5F)c5ccc2[nH]5)C=C4)C=C3)cc1
REMARK SMILES IDX 19 1 18 2 16 3 17 4 13 6 14 7 15 8 12 9 11 10 10 11 4 12
REMARK SMILES IDX 5 13 6 14 9 15 7 16 8 17 2 18 1 19 3 20 20 22 21 23 22 24
REMARK SMILES IDX 23 25 24 27 25 28 26 29 90 30 27 31 89 32 28 33 29 34 30 35
REMARK SMILES IDX 83 36 31 37 88 38 82 39 84 40 32 41 87 42 81 43 80 44 33 46
REMARK SMILES IDX 67 47 46 48 66 49 47 50 50 51 65 52 85 53 48 54 49 55 64 57
REMARK SMILES IDX 86 58 51 59 34 60 35 61 44 62 36 63 37 64 43 65 45 66 38 67
REMARK SMILES IDX 39 68 40 69 41 70 42 71 68 72 69 73 78 74 70 75 71 76 77 77
REMARK SMILES IDX 79 78 72 79 73 80 74 81 75 82 76 83 52 84 53 85 62 86 54 87
REMARK SMILES IDX 55 88 61 89 63 90 56 91 57 92 58 93 59 94 60 95
REMARK H PARENT 18 5 3 21 22 26 84 45 50 56
REMARK Flexibility Score: inf
ROOT
ATOM      1  C   UNL A   1      33.690  30.193  27.058  1.00  0.00     0.117 C 
ENDROOT
BRANCH   1   2
ATOM      2  N   UNL A   1      32.752  29.232  27.634  1.00  0.00    -0.355 N 
ATOM      3  C   UNL A   1      32.042  28.226  27.022  1.00  0.00     0.229 C 
ATOM      4  O   UNL A   1      31.420  27.449  27.744  1.00  0.00    -0.274 OA
ATOM      5  H   UNL A   1      32.606  29.318  28.604  1.00  0.00     0.163 HD
BRANCH   3   6
ATOM      6  C   UNL A   1      32.017  28.141  25.483  1.00  0.00     0.077 C 
ATOM      7  C   UNL A   1      31.930  29.582  24.940  1.00  0.00     0.025 C 
ATOM      8  C   UNL A   1      30.777  27.279  25.126  1.00  0.00     0.025 C 
BRANCH   6   9
ATOM      9  C   UNL A   1      33.234  27.331  24.923  1.00  0.00     0.245 C 
BRANCH   9  10
ATOM     10  O   UNL A   1      33.637  26.189  25.659  1.00  0.00    -0.492 OA
BRANCH  10  11
ATOM     11  C   UNL A   1      33.642  24.891  25.234  1.00  0.00     0.128 A 
ATOM     12  C   UNL A   1      32.664  23.865  25.272  1.00  0.00     0.022 A 
ATOM     13  C   UNL A   1      32.941  22.675  24.549  1.00  0.00     0.013 A 
ATOM     14  C   UNL A   1      34.111  22.501  23.812  1.00  0.00     0.040 A 
ATOM     15  C   UNL A   1      34.847  24.666  24.538  1.00  0.00     0.086 A 
ATOM     16  C   UNL A   1      35.065  23.497  23.828  1.00  0.00     0.126 A 
ATOM     17  F   UNL A   1      36.198  23.346  23.130  1.00  0.00    -0.207 F 
BRANCH  12  18
ATOM     18  C   UNL A   1      31.312  23.917  25.961  1.00  0.00     0.145 C 
ATOM     19  C   UNL A   1      30.642  22.550  26.169  1.00  0.00     0.044 C 
BRANCH  18  20
ATOM     20  O   UNL A   1      31.473  24.538  27.234  1.00  0.00    -0.389 OA
ATOM     21  H   UNL A   1      31.177  25.460  27.184  1.00  0.00     0.211 HD
ENDBRANCH  18  20
ENDBRANCH  12  18
ENDBRANCH  10  11
ENDBRANCH   9  10
ENDBRANCH   6   9
ENDBRANCH   3   6
ENDBRANCH   1   2
BRANCH   1  22
ATOM     22  C   UNL A   1      35.101  29.673  26.951  1.00  0.00     0.042 C 
BRANCH  22  23
ATOM     23  C   UNL A   1      35.625  29.183  28.282  1.00  0.00     0.118 C 
BRANCH  23  24
ATOM     24  N   UNL A   1      35.419  30.150  29.359  1.00  0.00    -0.352 N 
ATOM     25  C   UNL A   1      36.335  30.703  30.225  1.00  0.00     0.251 C 
ATOM     26  H   UNL A   1      34.489  30.450  29.482  1.00  0.00     0.163 HD
ATOM     27  O   UNL A   1      35.964  31.359  31.185  1.00  0.00    -0.269 OA
BRANCH  25  28
ATOM     28  C   UNL A   1      37.770  30.458  29.981  1.00  0.00     0.039 A 
ATOM     29  C   UNL A   1      38.528  29.788  30.942  1.00  0.00     0.014 A 
ATOM     30  C   UNL A   1      38.334  30.824  28.759  1.00  0.00     0.014 A 
ATOM     31  C   UNL A   1      39.833  29.406  30.633  1.00  0.00     0.010 A 
ATOM     32  C   UNL A   1      39.573  30.323  28.404  1.00  0.00     0.010 A 
ATOM     33  C   UNL A   1      40.346  29.625  29.342  1.00  0.00    -0.014 A 
BRANCH  33  34
ATOM     34  C   UNL A   1      41.700  29.171  28.946  1.00  0.00     0.031 A 
ATOM     35  C   UNL A   1      42.838  30.156  28.956  1.00  0.00     0.074 A 
ATOM     36  C   UNL A   1      41.883  27.915  28.496  1.00  0.00     0.049 A 
ATOM     37  N   UNL A   1      44.064  30.003  28.534  1.00  0.00    -0.248 NA
ATOM     38  C   UNL A   1      42.544  31.508  29.463  1.00  0.00     0.031 C 
ATOM     39  C   UNL A   1      40.838  26.894  28.377  1.00  0.00     0.029 A 
ATOM     40  N   UNL A   1      43.015  27.283  28.050  1.00  0.00    -0.354 N 
ATOM     41  C   UNL A   1      44.673  31.241  28.694  1.00  0.00     0.074 A 
ATOM     42  C   UNL A   1      43.665  32.153  29.184  1.00  0.00     0.031 C 
ATOM     43  C   UNL A   1      41.388  25.753  27.931  1.00  0.00     0.029 A 
ATOM     44  C   UNL A   1      42.812  25.971  27.694  1.00  0.00     0.049 A 
ATOM     45  H   UNL A   1      43.891  27.728  27.989  1.00  0.00     0.167 HD
ATOM     46  C   UNL A   1      45.966  31.580  28.489  1.00  0.00     0.037 A 
ATOM     47  C   UNL A   1      43.677  25.048  27.231  1.00  0.00     0.037 A 
ATOM     48  C   UNL A   1      46.973  30.649  28.064  1.00  0.00     0.049 A 
ATOM     49  C   UNL A   1      45.119  25.432  27.051  1.00  0.00     0.074 A 
ATOM     50  C   UNL A   1      48.329  30.863  27.899  1.00  0.00     0.029 A 
ATOM     51  N   UNL A   1      46.735  29.319  27.748  1.00  0.00    -0.354 N 
ATOM     52  N   UNL A   1      45.692  26.595  27.257  1.00  0.00    -0.248 NA
ATOM     53  C   UNL A   1      46.034  24.383  26.580  1.00  0.00     0.031 C 
ATOM     54  C   UNL A   1      48.906  29.671  27.455  1.00  0.00     0.029 A 
ATOM     55  C   UNL A   1      47.917  28.702  27.379  1.00  0.00     0.049 A 
ATOM     56  H   UNL A   1      45.855  28.878  27.782  1.00  0.00     0.167 HD
ATOM     57  C   UNL A   1      47.036  26.416  26.955  1.00  0.00     0.074 A 
ATOM     58  C   UNL A   1      47.194  25.029  26.565  1.00  0.00     0.031 C 
ATOM     59  C   UNL A   1      48.047  27.317  26.997  1.00  0.00     0.037 A 
BRANCH  46  60
ATOM     60  C   UNL A   1      46.362  33.005  28.751  1.00  0.00     0.058 A 
ATOM     61  C   UNL A   1      46.316  33.961  27.725  1.00  0.00     0.135 A 
ATOM     62  C   UNL A   1      46.803  33.425  30.018  1.00  0.00     0.135 A 
ATOM     63  F   UNL A   1      45.892  33.619  26.499  1.00  0.00    -0.206 F 
ATOM     64  C   UNL A   1      46.696  35.281  27.943  1.00  0.00     0.059 A 
ATOM     65  C   UNL A   1      47.161  34.746  30.266  1.00  0.00     0.059 A 
ATOM     66  F   UNL A   1      46.840  32.558  31.042  1.00  0.00    -0.206 F 
ATOM     67  C   UNL A   1      47.116  35.666  29.219  1.00  0.00     0.060 A 
BRANCH  67  68
ATOM     68  S   UNL A   1      47.551  37.394  29.504  1.00  0.00     0.124 S 
ATOM     69  O   UNL A   1      48.930  37.436  29.033  1.00  0.00    -0.237 OA
ATOM     70  O   UNL A   1      46.572  38.098  28.680  1.00  0.00    -0.237 OA
ATOM     71  O   UNL A   1      47.371  37.553  30.945  1.00  0.00    -0.744 OA
ENDBRANCH  67  68
ENDBRANCH  46  60
BRANCH  47  72
ATOM     72  C   UNL A   1      43.201  23.666  26.968  1.00  0.00     0.058 A 
ATOM     73  C   UNL A   1      42.994  22.751  28.011  1.00  0.00     0.135 A 
ATOM     74  C   UNL A   1      43.014  23.213  25.654  1.00  0.00     0.135 A 
ATOM     75  F   UNL A   1      43.173  23.131  29.285  1.00  0.00    -0.206 F 
ATOM     76  C   UNL A   1      42.650  21.426  27.759  1.00  0.00     0.059 A 
ATOM     77  C   UNL A   1      42.650  21.898  25.377  1.00  0.00     0.059 A 
ATOM     78  F   UNL A   1      43.192  24.055  24.624  1.00  0.00    -0.206 F 
ATOM     79  C   UNL A   1      42.492  21.007  26.438  1.00  0.00     0.060 A 
BRANCH  79  80
ATOM     80  S   UNL A   1      42.096  19.271  26.130  1.00  0.00     0.124 S 
ATOM     81  O   UNL A   1      42.486  18.656  27.394  1.00  0.00    -0.237 OA
ATOM     82  O   UNL A   1      40.663  19.327  25.866  1.00  0.00    -0.237 OA
ATOM     83  O   UNL A   1      42.932  18.933  24.982  1.00  0.00    -0.744 OA
ENDBRANCH  79  80
ENDBRANCH  47  72
BRANCH  59  84
ATOM     84  C   UNL A   1      49.420  26.840  26.622  1.00  0.00     0.058 A 
ATOM     85  C   UNL A   1      49.812  26.791  25.275  1.00  0.00     0.135 A 
ATOM     86  C   UNL A   1      50.308  26.342  27.587  1.00  0.00     0.135 A 
ATOM     87  F   UNL A   1      48.995  27.250  24.315  1.00  0.00    -0.206 F 
ATOM     88  C   UNL A   1      51.031  26.243  24.895  1.00  0.00     0.059 A 
ATOM     89  C   UNL A   1      51.543  25.811  27.232  1.00  0.00     0.059 A 
ATOM     90  F   UNL A   1      49.980  26.379  28.889  1.00  0.00    -0.206 F 
ATOM     91  C   UNL A   1      51.888  25.749  25.881  1.00  0.00     0.060 A 
BRANCH  91  92
ATOM     92  S   UNL A   1      53.466  25.038  25.371  1.00  0.00     0.124 S 
ATOM     93  O   UNL A   1      53.146  23.616  25.309  1.00  0.00    -0.237 OA
ATOM     94  O   UNL A   1      53.700  25.694  24.088  1.00  0.00    -0.237 OA
ATOM     95  O   UNL A   1      54.377  25.432  26.443  1.00  0.00    -0.744 OA
ENDBRANCH  91  92
ENDBRANCH  59  84
ENDBRANCH  33  34
ENDBRANCH  25  28
ENDBRANCH  23  24
ENDBRANCH  22  23
ENDBRANCH   1  22
TORSDOF 18
ENDMDL
