MODEL 1
REMARK VINA RESULT:     -13.1      0.000      0.000
REMARK SMILES Cn1c(=O)[nH]c(=O)c2c1nc(NC1CCCC1)n2CC(=O)NCCCNC(=O)c1ccc(-c2c3nc(c(-c4c(F)cc(S(=O)(=O)[O-])cc4F)c4ccc([nH]4)c(-c4c(F)cc(S(=O)(=O)[O-])cc4F)c4nc(c(-c5c(F)cc(S(=O)(=O)[O-])cc5F)c5ccc2[nH]5)C=C4)C=C3)cc1
REMARK SMILES IDX 24 1 23 2 22 3 20 4 21 5 19 7 18 8 1 9 2 10 3 11 9 12 4 13
REMARK SMILES IDX 5 14 8 15 10 16 6 17 11 19 7 20 12 21 13 23 14 24 17 25
REMARK SMILES IDX 15 26 16 27 25 28 26 29 27 30 28 32 29 33 30 34 94 35 31 36
REMARK SMILES IDX 93 37 32 38 33 39 34 40 87 41 35 42 92 43 86 44 88 45 36 46
REMARK SMILES IDX 91 47 85 48 84 49 37 51 71 52 50 53 70 54 51 55 54 56 69 57
REMARK SMILES IDX 89 58 52 59 53 60 68 62 90 63 55 64 38 65 39 66 48 67 40 68
REMARK SMILES IDX 41 69 47 70 49 71 42 72 43 73 44 74 45 75 46 76 72 77 73 78
REMARK SMILES IDX 82 79 74 80 75 81 81 82 83 83 76 84 77 85 78 86 79 87 80 88
REMARK SMILES IDX 56 89 57 90 66 91 58 92 59 93 65 94 67 95 60 96 61 97 62 98
REMARK SMILES IDX 63 99 64 100
REMARK H PARENT 22 6 5 18 12 22 26 31 88 50 54 61
REMARK Flexibility Score: inf
ROOT
ATOM      1  C   UNL A   1      35.876  23.146  25.651  1.00  0.00     0.042 C 
ENDROOT
BRANCH   1   2
ATOM      2  C   UNL A   1      35.075  24.295  25.029  1.00  0.00     0.117 C 
BRANCH   2   3
ATOM      3  N   UNL A   1      33.832  24.561  25.735  1.00  0.00    -0.354 N 
ATOM      4  C   UNL A   1      33.144  25.736  25.843  1.00  0.00     0.240 C 
ATOM      5  O   UNL A   1      32.115  25.764  26.523  1.00  0.00    -0.273 OA
ATOM      6  H   UNL A   1      33.433  23.790  26.198  1.00  0.00     0.163 HD
BRANCH   4   7
ATOM      7  C   UNL A   1      33.629  26.982  25.133  1.00  0.00     0.226 C 
BRANCH   7   8
ATOM      8  N   UNL A   1      32.604  28.001  25.042  1.00  0.00    -0.295 N 
ATOM      9  C   UNL A   1      29.364  31.062  23.848  1.00  0.00     0.157 C 
ATOM     10  N   UNL A   1      30.056  29.834  23.512  1.00  0.00    -0.279 N 
ATOM     11  C   UNL A   1      29.755  29.173  22.329  1.00  0.00     0.329 A 
ATOM     12  C   UNL A   1      31.008  29.294  24.349  1.00  0.00     0.170 A 
ATOM     13  O   UNL A   1      28.919  29.565  21.514  1.00  0.00    -0.248 OA
ATOM     14  N   UNL A   1      30.440  28.002  22.071  1.00  0.00    -0.272 N 
ATOM     15  C   UNL A   1      31.670  28.142  24.045  1.00  0.00     0.154 A 
ATOM     16  N   UNL A   1      31.433  29.827  25.517  1.00  0.00    -0.194 NA
ATOM     17  C   UNL A   1      31.393  27.395  22.863  1.00  0.00     0.279 A 
ATOM     18  H   UNL A   1      30.224  27.549  21.224  1.00  0.00     0.175 HD
ATOM     19  C   UNL A   1      32.417  29.052  25.926  1.00  0.00     0.206 A 
ATOM     20  O   UNL A   1      31.925  26.349  22.540  1.00  0.00    -0.267 OA
BRANCH  19  21
ATOM     21  N   UNL A   1      33.192  29.218  27.018  1.00  0.00    -0.353 N 
ATOM     22  H   UNL A   1      32.928  28.768  27.853  1.00  0.00     0.163 HD
BRANCH  21  23
ATOM     23  C   UNL A   1      34.400  30.031  27.019  1.00  0.00     0.082 C 
ATOM     24  C   UNL A   1      34.254  31.388  27.701  1.00  0.00     0.025 C 
ATOM     25  C   UNL A   1      35.587  29.369  27.714  1.00  0.00     0.025 C 
ATOM     26  C   UNL A   1      35.692  31.809  27.968  1.00  0.00     0.002 C 
ATOM     27  C   UNL A   1      36.479  30.517  28.179  1.00  0.00     0.002 C 
ENDBRANCH  21  23
ENDBRANCH  19  21
ENDBRANCH   7   8
ENDBRANCH   4   7
ENDBRANCH   2   3
ENDBRANCH   1   2
BRANCH   1  28
ATOM     28  C   UNL A   1      37.348  23.216  25.287  1.00  0.00     0.118 C 
BRANCH  28  29
ATOM     29  N   UNL A   1      38.131  22.155  25.926  1.00  0.00    -0.352 N 
ATOM     30  C   UNL A   1      39.339  22.268  26.583  1.00  0.00     0.251 C 
ATOM     31  H   UNL A   1      37.746  21.251  25.881  1.00  0.00     0.163 HD
ATOM     32  O   UNL A   1      40.027  21.277  26.801  1.00  0.00    -0.269 OA
BRANCH  30  33
ATOM     33  C   UNL A   1      39.786  23.605  27.005  1.00  0.00     0.039 A 
ATOM     34  C   UNL A   1      38.966  24.727  26.857  1.00  0.00     0.014 A 
ATOM     35  C   UNL A   1      41.033  23.706  27.612  1.00  0.00     0.014 A 
ATOM     36  C   UNL A   1      39.378  25.939  27.407  1.00  0.00     0.010 A 
ATOM     37  C   UNL A   1      41.360  24.849  28.291  1.00  0.00     0.010 A 
ATOM     38  C   UNL A   1      40.569  25.987  28.142  1.00  0.00    -0.014 A 
BRANCH  38  39
ATOM     39  C   UNL A   1      40.994  27.201  28.832  1.00  0.00     0.031 A 
ATOM     40  C   UNL A   1      42.158  27.923  28.235  1.00  0.00     0.074 A 
ATOM     41  C   UNL A   1      40.214  27.765  29.779  1.00  0.00     0.049 A 
ATOM     42  N   UNL A   1      43.292  28.200  28.790  1.00  0.00    -0.248 NA
ATOM     43  C   UNL A   1      42.093  28.301  26.812  1.00  0.00     0.031 C 
ATOM     44  C   UNL A   1      38.893  27.325  30.254  1.00  0.00     0.029 A 
ATOM     45  N   UNL A   1      40.375  28.948  30.424  1.00  0.00    -0.354 N 
ATOM     46  C   UNL A   1      44.020  28.942  27.859  1.00  0.00     0.074 A 
ATOM     47  C   UNL A   1      43.297  28.846  26.616  1.00  0.00     0.031 C 
ATOM     48  C   UNL A   1      38.282  28.343  30.897  1.00  0.00     0.029 A 
ATOM     49  C   UNL A   1      39.224  29.437  31.030  1.00  0.00     0.049 A 
ATOM     50  H   UNL A   1      41.239  29.421  30.461  1.00  0.00     0.167 HD
ATOM     51  C   UNL A   1      45.074  29.727  28.221  1.00  0.00     0.037 A 
ATOM     52  C   UNL A   1      39.051  30.670  31.566  1.00  0.00     0.037 A 
ATOM     53  C   UNL A   1      45.485  29.461  29.575  1.00  0.00     0.049 A 
ATOM     54  C   UNL A   1      40.412  31.211  31.834  1.00  0.00     0.074 A 
ATOM     55  C   UNL A   1      45.998  28.359  30.227  1.00  0.00     0.029 A 
ATOM     56  N   UNL A   1      45.020  30.302  30.559  1.00  0.00    -0.354 N 
ATOM     57  N   UNL A   1      41.228  30.704  32.720  1.00  0.00    -0.248 NA
ATOM     58  C   UNL A   1      41.049  32.002  30.790  1.00  0.00     0.031 C 
ATOM     59  C   UNL A   1      45.379  28.371  31.510  1.00  0.00     0.029 A 
ATOM     60  C   UNL A   1      44.577  29.512  31.589  1.00  0.00     0.049 A 
ATOM     61  H   UNL A   1      45.008  31.286  30.530  1.00  0.00     0.167 HD
ATOM     62  C   UNL A   1      42.481  30.749  32.124  1.00  0.00     0.074 A 
ATOM     63  C   UNL A   1      42.323  31.641  30.977  1.00  0.00     0.031 C 
ATOM     64  C   UNL A   1      43.452  29.839  32.440  1.00  0.00     0.037 A 
BRANCH  51  65
ATOM     65  C   UNL A   1      45.559  30.944  27.476  1.00  0.00     0.058 A 
ATOM     66  C   UNL A   1      46.896  31.008  27.027  1.00  0.00     0.135 A 
ATOM     67  C   UNL A   1      44.838  32.155  27.421  1.00  0.00     0.135 A 
ATOM     68  F   UNL A   1      47.675  29.915  27.043  1.00  0.00    -0.206 F 
ATOM     69  C   UNL A   1      47.490  32.202  26.616  1.00  0.00     0.059 A 
ATOM     70  C   UNL A   1      45.395  33.347  26.966  1.00  0.00     0.059 A 
ATOM     71  F   UNL A   1      43.592  32.256  27.903  1.00  0.00    -0.206 F 
ATOM     72  C   UNL A   1      46.734  33.371  26.606  1.00  0.00     0.060 A 
BRANCH  72  73
ATOM     73  S   UNL A   1      47.530  34.934  26.189  1.00  0.00     0.124 S 
ATOM     74  O   UNL A   1      48.233  35.242  27.428  1.00  0.00    -0.237 OA
ATOM     75  O   UNL A   1      48.367  34.556  25.055  1.00  0.00    -0.237 OA
ATOM     76  O   UNL A   1      46.407  35.809  25.867  1.00  0.00    -0.744 OA
ENDBRANCH  72  73
ENDBRANCH  51  65
BRANCH  52  77
ATOM     77  C   UNL A   1      37.816  31.498  31.589  1.00  0.00     0.058 A 
ATOM     78  C   UNL A   1      36.830  31.313  32.573  1.00  0.00     0.135 A 
ATOM     79  C   UNL A   1      37.693  32.663  30.803  1.00  0.00     0.135 A 
ATOM     80  F   UNL A   1      36.877  30.243  33.382  1.00  0.00    -0.206 F 
ATOM     81  C   UNL A   1      35.812  32.248  32.797  1.00  0.00     0.059 A 
ATOM     82  C   UNL A   1      36.681  33.603  30.998  1.00  0.00     0.059 A 
ATOM     83  F   UNL A   1      38.610  32.974  29.875  1.00  0.00    -0.206 F 
ATOM     84  C   UNL A   1      35.760  33.404  32.017  1.00  0.00     0.060 A 
BRANCH  84  85
ATOM     85  S   UNL A   1      34.563  34.698  32.424  1.00  0.00     0.124 S 
ATOM     86  O   UNL A   1      35.367  35.615  33.224  1.00  0.00    -0.237 OA
ATOM     87  O   UNL A   1      34.172  35.178  31.102  1.00  0.00    -0.237 OA
ATOM     88  O   UNL A   1      33.522  33.981  33.155  1.00  0.00    -0.744 OA
ENDBRANCH  84  85
ENDBRANCH  52  77
BRANCH  64  89
ATOM     89  C   UNL A   1      43.222  28.929  33.621  1.00  0.00     0.058 A 
ATOM     90  C   UNL A   1      43.436  29.306  34.960  1.00  0.00     0.135 A 
ATOM     91  C   UNL A   1      42.585  27.699  33.404  1.00  0.00     0.135 A 
ATOM     92  F   UNL A   1      43.936  30.509  35.265  1.00  0.00    -0.206 F 
ATOM     93  C   UNL A   1      43.069  28.488  36.028  1.00  0.00     0.059 A 
ATOM     94  C   UNL A   1      42.180  26.879  34.456  1.00  0.00     0.059 A 
ATOM     95  F   UNL A   1      42.288  27.309  32.154  1.00  0.00    -0.206 F 
ATOM     96  C   UNL A   1      42.437  27.275  35.767  1.00  0.00     0.060 A 
BRANCH  96  97
ATOM     97  S   UNL A   1      41.883  26.260  37.154  1.00  0.00     0.124 S 
ATOM     98  O   UNL A   1      42.952  26.464  38.127  1.00  0.00    -0.237 OA
ATOM     99  O   UNL A   1      40.595  26.859  37.493  1.00  0.00    -0.237 OA
ATOM    100  O   UNL A   1      41.806  24.917  36.584  1.00  0.00    -0.744 OA
ENDBRANCH  96  97
ENDBRANCH  64  89
ENDBRANCH  38  39
ENDBRANCH  30  33
ENDBRANCH  28  29
ENDBRANCH   1  28
TORSDOF 16
ENDMDL
MODEL 2
REMARK VINA RESULT:     -13.1      1.326      2.530
REMARK SMILES Cn1c(=O)[nH]c(=O)c2c1nc(NC1CCCC1)n2CC(=O)NCCCNC(=O)c1ccc(-c2c3nc(c(-c4c(F)cc(S(=O)(=O)[O-])cc4F)c4ccc([nH]4)c(-c4c(F)cc(S(=O)(=O)[O-])cc4F)c4nc(c(-c5c(F)cc(S(=O)(=O)[O-])cc5F)c5ccc2[nH]5)C=C4)C=C3)cc1
REMARK SMILES IDX 24 1 23 2 22 3 20 4 21 5 19 7 18 8 1 9 2 10 3 11 9 12 4 13
REMARK SMILES IDX 5 14 8 15 10 16 6 17 11 19 7 20 12 21 13 23 14 24 17 25
REMARK SMILES IDX 15 26 16 27 25 28 26 29 27 30 28 32 29 33 30 34 94 35 31 36
REMARK SMILES IDX 93 37 32 38 33 39 34 40 87 41 35 42 92 43 86 44 88 45 36 46
REMARK SMILES IDX 91 47 85 48 84 49 37 51 71 52 50 53 70 54 51 55 54 56 69 57
REMARK SMILES IDX 89 58 52 59 53 60 68 62 90 63 55 64 38 65 39 66 48 67 40 68
REMARK SMILES IDX 41 69 47 70 49 71 42 72 43 73 44 74 45 75 46 76 72 77 73 78
REMARK SMILES IDX 82 79 74 80 75 81 81 82 83 83 76 84 77 85 78 86 79 87 80 88
REMARK SMILES IDX 56 89 57 90 66 91 58 92 59 93 65 94 67 95 60 96 61 97 62 98
REMARK SMILES IDX 63 99 64 100
REMARK H PARENT 22 6 5 18 12 22 26 31 88 50 54 61
REMARK Flexibility Score: inf
ROOT
ATOM      1  C   UNL A   1      35.876  22.973  26.010  1.00  0.00     0.042 C 
ENDROOT
BRANCH   1   2
ATOM      2  C   UNL A   1      35.040  24.231  25.747  1.00  0.00     0.117 C 
BRANCH   2   3
ATOM      3  N   UNL A   1      34.810  24.467  24.331  1.00  0.00    -0.354 N 
ATOM      4  C   UNL A   1      34.098  25.470  23.736  1.00  0.00     0.240 C 
ATOM      5  O   UNL A   1      33.991  25.476  22.507  1.00  0.00    -0.273 OA
ATOM      6  H   UNL A   1      35.222  23.817  23.719  1.00  0.00     0.163 HD
BRANCH   4   7
ATOM      7  C   UNL A   1      33.460  26.562  24.567  1.00  0.00     0.226 C 
BRANCH   7   8
ATOM      8  N   UNL A   1      32.078  26.798  24.204  1.00  0.00    -0.295 N 
ATOM      9  C   UNL A   1      27.970  28.407  22.851  1.00  0.00     0.157 C 
ATOM     10  N   UNL A   1      29.411  28.537  22.769  1.00  0.00    -0.279 N 
ATOM     11  C   UNL A   1      29.971  29.563  22.020  1.00  0.00     0.329 A 
ATOM     12  C   UNL A   1      30.250  27.654  23.414  1.00  0.00     0.170 A 
ATOM     13  O   UNL A   1      29.314  30.402  21.402  1.00  0.00    -0.248 OA
ATOM     14  N   UNL A   1      31.349  29.627  21.972  1.00  0.00    -0.272 N 
ATOM     15  C   UNL A   1      31.607  27.765  23.350  1.00  0.00     0.154 A 
ATOM     16  N   UNL A   1      29.865  26.623  24.202  1.00  0.00    -0.194 NA
ATOM     17  C   UNL A   1      32.251  28.775  22.577  1.00  0.00     0.279 A 
ATOM     18  H   UNL A   1      31.733  30.365  21.446  1.00  0.00     0.175 HD
ATOM     19  C   UNL A   1      30.976  26.119  24.697  1.00  0.00     0.206 A 
ATOM     20  O   UNL A   1      33.453  28.920  22.454  1.00  0.00    -0.267 OA
BRANCH  19  21
ATOM     21  N   UNL A   1      31.094  25.109  25.585  1.00  0.00    -0.353 N 
ATOM     22  H   UNL A   1      31.260  25.332  26.530  1.00  0.00     0.163 HD
BRANCH  21  23
ATOM     23  C   UNL A   1      30.986  23.706  25.211  1.00  0.00     0.082 C 
ATOM     24  C   UNL A   1      31.433  23.391  23.787  1.00  0.00     0.025 C 
ATOM     25  C   UNL A   1      31.806  22.769  26.095  1.00  0.00     0.025 C 
ATOM     26  C   UNL A   1      31.657  21.885  23.809  1.00  0.00     0.002 C 
ATOM     27  C   UNL A   1      32.094  21.543  25.232  1.00  0.00     0.002 C 
ENDBRANCH  21  23
ENDBRANCH  19  21
ENDBRANCH   7   8
ENDBRANCH   4   7
ENDBRANCH   2   3
ENDBRANCH   1   2
BRANCH   1  28
ATOM     28  C   UNL A   1      37.307  23.129  25.527  1.00  0.00     0.118 C 
BRANCH  28  29
ATOM     29  N   UNL A   1      38.192  22.093  26.065  1.00  0.00    -0.352 N 
ATOM     30  C   UNL A   1      39.442  22.250  26.628  1.00  0.00     0.251 C 
ATOM     31  H   UNL A   1      37.852  21.171  26.019  1.00  0.00     0.163 HD
ATOM     32  O   UNL A   1      40.195  21.291  26.756  1.00  0.00    -0.269 OA
BRANCH  30  33
ATOM     33  C   UNL A   1      39.852  23.596  27.060  1.00  0.00     0.039 A 
ATOM     34  C   UNL A   1      38.999  24.695  26.928  1.00  0.00     0.014 A 
ATOM     35  C   UNL A   1      41.099  23.728  27.661  1.00  0.00     0.014 A 
ATOM     36  C   UNL A   1      39.378  25.913  27.487  1.00  0.00     0.010 A 
ATOM     37  C   UNL A   1      41.397  24.873  28.348  1.00  0.00     0.010 A 
ATOM     38  C   UNL A   1      40.573  25.989  28.215  1.00  0.00    -0.014 A 
BRANCH  38  39
ATOM     39  C   UNL A   1      40.967  27.208  28.914  1.00  0.00     0.031 A 
ATOM     40  C   UNL A   1      42.098  27.976  28.310  1.00  0.00     0.074 A 
ATOM     41  C   UNL A   1      40.180  27.736  29.878  1.00  0.00     0.049 A 
ATOM     42  N   UNL A   1      43.229  28.284  28.854  1.00  0.00    -0.248 NA
ATOM     43  C   UNL A   1      42.001  28.367  26.893  1.00  0.00     0.031 C 
ATOM     44  C   UNL A   1      38.882  27.246  30.365  1.00  0.00     0.029 A 
ATOM     45  N   UNL A   1      40.311  28.916  30.535  1.00  0.00    -0.354 N 
ATOM     46  C   UNL A   1      43.919  29.060  27.922  1.00  0.00     0.074 A 
ATOM     47  C   UNL A   1      43.183  28.955  26.688  1.00  0.00     0.031 C 
ATOM     48  C   UNL A   1      38.246  28.236  31.028  1.00  0.00     0.029 A 
ATOM     49  C   UNL A   1      39.153  29.359  31.162  1.00  0.00     0.049 A 
ATOM     50  H   UNL A   1      41.159  29.416  30.566  1.00  0.00     0.167 HD
ATOM     51  C   UNL A   1      44.952  29.876  28.280  1.00  0.00     0.037 A 
ATOM     52  C   UNL A   1      38.946  30.579  31.715  1.00  0.00     0.037 A 
ATOM     53  C   UNL A   1      45.389  29.608  29.625  1.00  0.00     0.049 A 
ATOM     54  C   UNL A   1      40.292  31.162  31.971  1.00  0.00     0.074 A 
ATOM     55  C   UNL A   1      45.947  28.516  30.258  1.00  0.00     0.029 A 
ATOM     56  N   UNL A   1      44.910  30.422  30.625  1.00  0.00    -0.354 N 
ATOM     57  N   UNL A   1      41.136  30.672  32.841  1.00  0.00    -0.248 NA
ATOM     58  C   UNL A   1      40.888  31.985  30.928  1.00  0.00     0.031 C 
ATOM     59  C   UNL A   1      45.345  28.493  31.549  1.00  0.00     0.029 A 
ATOM     60  C   UNL A   1      44.507  29.605  31.652  1.00  0.00     0.049 A 
ATOM     61  H   UNL A   1      44.865  31.405  30.608  1.00  0.00     0.167 HD
ATOM     62  C   UNL A   1      42.379  30.766  32.229  1.00  0.00     0.074 A 
ATOM     63  C   UNL A   1      42.175  31.665  31.095  1.00  0.00     0.031 C 
ATOM     64  C   UNL A   1      43.384  29.885  32.521  1.00  0.00     0.037 A 
BRANCH  51  65
ATOM     65  C   UNL A   1      45.386  31.117  27.543  1.00  0.00     0.058 A 
ATOM     66  C   UNL A   1      46.687  31.195  27.002  1.00  0.00     0.135 A 
ATOM     67  C   UNL A   1      44.667  32.330  27.582  1.00  0.00     0.135 A 
ATOM     68  F   UNL A   1      47.462  30.101  26.925  1.00  0.00    -0.206 F 
ATOM     69  C   UNL A   1      47.254  32.402  26.590  1.00  0.00     0.059 A 
ATOM     70  C   UNL A   1      45.194  33.536  27.128  1.00  0.00     0.059 A 
ATOM     71  F   UNL A   1      43.459  32.416  28.155  1.00  0.00    -0.206 F 
ATOM     72  C   UNL A   1      46.503  33.571  26.673  1.00  0.00     0.060 A 
BRANCH  72  73
ATOM     73  S   UNL A   1      47.272  35.146  26.253  1.00  0.00     0.124 S 
ATOM     74  O   UNL A   1      48.030  35.433  27.465  1.00  0.00    -0.237 OA
ATOM     75  O   UNL A   1      48.060  34.795  25.075  1.00  0.00    -0.237 OA
ATOM     76  O   UNL A   1      46.132  36.021  26.000  1.00  0.00    -0.744 OA
ENDBRANCH  72  73
ENDBRANCH  51  65
BRANCH  52  77
ATOM     77  C   UNL A   1      37.685  31.364  31.764  1.00  0.00     0.058 A 
ATOM     78  C   UNL A   1      37.022  31.609  32.978  1.00  0.00     0.135 A 
ATOM     79  C   UNL A   1      37.238  32.114  30.654  1.00  0.00     0.135 A 
ATOM     80  F   UNL A   1      37.392  30.958  34.091  1.00  0.00    -0.206 F 
ATOM     81  C   UNL A   1      36.011  32.571  33.099  1.00  0.00     0.059 A 
ATOM     82  C   UNL A   1      36.225  33.068  30.746  1.00  0.00     0.059 A 
ATOM     83  F   UNL A   1      37.836  32.008  29.459  1.00  0.00    -0.206 F 
ATOM     84  C   UNL A   1      35.635  33.313  31.979  1.00  0.00     0.060 A 
BRANCH  84  85
ATOM     85  S   UNL A   1      34.466  34.680  32.169  1.00  0.00     0.124 S 
ATOM     86  O   UNL A   1      33.388  34.056  32.927  1.00  0.00    -0.237 OA
ATOM     87  O   UNL A   1      35.265  35.667  32.890  1.00  0.00    -0.237 OA
ATOM     88  O   UNL A   1      34.135  35.038  30.792  1.00  0.00    -0.744 OA
ENDBRANCH  84  85
ENDBRANCH  52  77
BRANCH  64  89
ATOM     89  C   UNL A   1      43.200  28.954  33.694  1.00  0.00     0.058 A 
ATOM     90  C   UNL A   1      43.400  29.328  35.036  1.00  0.00     0.135 A 
ATOM     91  C   UNL A   1      42.619  27.698  33.467  1.00  0.00     0.135 A 
ATOM     92  F   UNL A   1      43.846  30.549  35.351  1.00  0.00    -0.206 F 
ATOM     93  C   UNL A   1      43.075  28.484  36.097  1.00  0.00     0.059 A 
ATOM     94  C   UNL A   1      42.256  26.850  34.512  1.00  0.00     0.059 A 
ATOM     95  F   UNL A   1      42.336  27.306  32.214  1.00  0.00    -0.206 F 
ATOM     96  C   UNL A   1      42.499  27.245  35.826  1.00  0.00     0.060 A 
BRANCH  96  97
ATOM     97  S   UNL A   1      41.997  26.193  37.205  1.00  0.00     0.124 S 
ATOM     98  O   UNL A   1      41.998  24.868  36.595  1.00  0.00    -0.237 OA
ATOM     99  O   UNL A   1      43.047  26.438  38.191  1.00  0.00    -0.237 OA
ATOM    100  O   UNL A   1      40.681  26.713  37.569  1.00  0.00    -0.744 OA
ENDBRANCH  96  97
ENDBRANCH  64  89
ENDBRANCH  38  39
ENDBRANCH  30  33
ENDBRANCH  28  29
ENDBRANCH   1  28
TORSDOF 16
ENDMDL
MODEL 3
REMARK VINA RESULT:     -12.7      3.021      9.561
REMARK SMILES Cn1c(=O)[nH]c(=O)c2c1nc(NC1CCCC1)n2CC(=O)NCCCNC(=O)c1ccc(-c2c3nc(c(-c4c(F)cc(S(=O)(=O)[O-])cc4F)c4ccc([nH]4)c(-c4c(F)cc(S(=O)(=O)[O-])cc4F)c4nc(c(-c5c(F)cc(S(=O)(=O)[O-])cc5F)c5ccc2[nH]5)C=C4)C=C3)cc1
REMARK SMILES IDX 24 1 23 2 22 3 20 4 21 5 19 7 18 8 1 9 2 10 3 11 9 12 4 13
REMARK SMILES IDX 5 14 8 15 10 16 6 17 11 19 7 20 12 21 13 23 14 24 17 25
REMARK SMILES IDX 15 26 16 27 25 28 26 29 27 30 28 32 29 33 30 34 94 35 31 36
REMARK SMILES IDX 93 37 32 38 33 39 34 40 87 41 35 42 92 43 86 44 88 45 36 46
REMARK SMILES IDX 91 47 85 48 84 49 37 51 71 52 50 53 70 54 51 55 54 56 69 57
REMARK SMILES IDX 89 58 52 59 53 60 68 62 90 63 55 64 38 65 39 66 48 67 40 68
REMARK SMILES IDX 41 69 47 70 49 71 42 72 43 73 44 74 45 75 46 76 72 77 73 78
REMARK SMILES IDX 82 79 74 80 75 81 81 82 83 83 76 84 77 85 78 86 79 87 80 88
REMARK SMILES IDX 56 89 57 90 66 91 58 92 59 93 65 94 67 95 60 96 61 97 62 98
REMARK SMILES IDX 63 99 64 100
REMARK H PARENT 22 6 5 18 12 22 26 31 88 50 54 61
REMARK Flexibility Score: inf
ROOT
ATOM      1  C   UNL A   1      32.430  28.831  26.717  1.00  0.00     0.042 C 
ENDROOT
BRANCH   1   2
ATOM      2  C   UNL A   1      32.744  27.448  26.134  1.00  0.00     0.117 C 
BRANCH   2   3
ATOM      3  N   UNL A   1      31.964  26.388  26.750  1.00  0.00    -0.354 N 
ATOM      4  C   UNL A   1      32.149  25.036  26.677  1.00  0.00     0.240 C 
ATOM      5  O   UNL A   1      31.349  24.293  27.251  1.00  0.00    -0.273 OA
ATOM      6  H   UNL A   1      31.199  26.683  27.294  1.00  0.00     0.163 HD
BRANCH   4   7
ATOM      7  C   UNL A   1      33.322  24.459  25.913  1.00  0.00     0.226 C 
BRANCH   7   8
ATOM      8  N   UNL A   1      32.942  23.335  25.083  1.00  0.00    -0.295 N 
ATOM      9  C   UNL A   1      32.247  19.263  23.026  1.00  0.00     0.157 C 
ATOM     10  N   UNL A   1      32.584  19.963  24.249  1.00  0.00    -0.279 N 
ATOM     11  C   UNL A   1      32.889  19.242  25.396  1.00  0.00     0.329 A 
ATOM     12  C   UNL A   1      32.599  21.340  24.308  1.00  0.00     0.170 A 
ATOM     13  O   UNL A   1      32.900  18.012  25.453  1.00  0.00    -0.248 OA
ATOM     14  N   UNL A   1      33.189  19.966  26.533  1.00  0.00    -0.272 N 
ATOM     15  C   UNL A   1      32.917  22.012  25.450  1.00  0.00     0.154 A 
ATOM     16  N   UNL A   1      32.355  22.182  23.279  1.00  0.00    -0.194 NA
ATOM     17  C   UNL A   1      33.212  21.339  26.672  1.00  0.00     0.279 A 
ATOM     18  H   UNL A   1      33.413  19.443  27.336  1.00  0.00     0.175 HD
ATOM     19  C   UNL A   1      32.584  23.392  23.745  1.00  0.00     0.206 A 
ATOM     20  O   UNL A   1      33.479  21.872  27.733  1.00  0.00    -0.267 OA
BRANCH  19  21
ATOM     21  N   UNL A   1      32.529  24.557  23.066  1.00  0.00    -0.353 N 
ATOM     22  H   UNL A   1      33.365  24.925  22.697  1.00  0.00     0.163 HD
BRANCH  21  23
ATOM     23  C   UNL A   1      31.292  25.295  22.854  1.00  0.00     0.082 C 
ATOM     24  C   UNL A   1      30.218  25.054  23.910  1.00  0.00     0.025 C 
ATOM     25  C   UNL A   1      31.478  26.810  22.824  1.00  0.00     0.025 C 
ATOM     26  C   UNL A   1      29.270  26.231  23.729  1.00  0.00     0.002 C 
ATOM     27  C   UNL A   1      30.129  27.394  23.237  1.00  0.00     0.002 C 
ENDBRANCH  21  23
ENDBRANCH  19  21
ENDBRANCH   7   8
ENDBRANCH   4   7
ENDBRANCH   2   3
ENDBRANCH   1   2
BRANCH   1  28
ATOM     28  C   UNL A   1      33.593  29.388  27.518  1.00  0.00     0.118 C 
BRANCH  28  29
ATOM     29  N   UNL A   1      33.816  30.813  27.258  1.00  0.00    -0.352 N 
ATOM     30  C   UNL A   1      34.879  31.595  27.662  1.00  0.00     0.251 C 
ATOM     31  H   UNL A   1      33.121  31.268  26.730  1.00  0.00     0.163 HD
ATOM     32  O   UNL A   1      34.798  32.818  27.643  1.00  0.00    -0.269 OA
BRANCH  30  33
ATOM     33  C   UNL A   1      36.107  30.926  28.122  1.00  0.00     0.039 A 
ATOM     34  C   UNL A   1      36.454  29.650  27.671  1.00  0.00     0.014 A 
ATOM     35  C   UNL A   1      36.942  31.633  28.980  1.00  0.00     0.014 A 
ATOM     36  C   UNL A   1      37.696  29.126  28.022  1.00  0.00     0.010 A 
ATOM     37  C   UNL A   1      38.221  31.191  29.189  1.00  0.00     0.010 A 
ATOM     38  C   UNL A   1      38.584  29.913  28.767  1.00  0.00    -0.014 A 
BRANCH  38  39
ATOM     39  C   UNL A   1      39.938  29.460  29.070  1.00  0.00     0.031 A 
ATOM     40  C   UNL A   1      40.274  29.318  30.519  1.00  0.00     0.074 A 
ATOM     41  C   UNL A   1      40.728  28.949  28.101  1.00  0.00     0.049 A 
ATOM     42  N   UNL A   1      41.213  29.913  31.180  1.00  0.00    -0.248 NA
ATOM     43  C   UNL A   1      39.399  28.485  31.363  1.00  0.00     0.031 C 
ATOM     44  C   UNL A   1      40.413  28.748  26.678  1.00  0.00     0.029 A 
ATOM     45  N   UNL A   1      41.946  28.362  28.214  1.00  0.00    -0.354 N 
ATOM     46  C   UNL A   1      41.169  29.403  32.478  1.00  0.00     0.074 A 
ATOM     47  C   UNL A   1      39.949  28.644  32.570  1.00  0.00     0.031 C 
ATOM     48  C   UNL A   1      41.289  27.872  26.141  1.00  0.00     0.029 A 
ATOM     49  C   UNL A   1      42.318  27.589  27.121  1.00  0.00     0.049 A 
ATOM     50  H   UNL A   1      42.521  28.477  29.006  1.00  0.00     0.167 HD
ATOM     51  C   UNL A   1      42.230  29.497  33.330  1.00  0.00     0.037 A 
ATOM     52  C   UNL A   1      43.377  26.745  27.048  1.00  0.00     0.037 A 
ATOM     53  C   UNL A   1      43.227  30.405  32.827  1.00  0.00     0.049 A 
ATOM     54  C   UNL A   1      44.323  27.157  28.120  1.00  0.00     0.074 A 
ATOM     55  C   UNL A   1      43.247  31.757  32.548  1.00  0.00     0.029 A 
ATOM     56  N   UNL A   1      44.305  29.865  32.164  1.00  0.00    -0.354 N 
ATOM     57  N   UNL A   1      44.958  28.299  28.123  1.00  0.00    -0.248 NA
ATOM     58  C   UNL A   1      44.194  26.520  29.424  1.00  0.00     0.031 C 
ATOM     59  C   UNL A   1      44.024  31.875  31.360  1.00  0.00     0.029 A 
ATOM     60  C   UNL A   1      44.485  30.601  31.020  1.00  0.00     0.049 A 
ATOM     61  H   UNL A   1      44.846  29.096  32.456  1.00  0.00     0.167 HD
ATOM     62  C   UNL A   1      44.934  28.723  29.445  1.00  0.00     0.074 A 
ATOM     63  C   UNL A   1      44.533  27.546  30.212  1.00  0.00     0.031 C 
ATOM     64  C   UNL A   1      44.957  30.052  29.766  1.00  0.00     0.037 A 
BRANCH  51  65
ATOM     65  C   UNL A   1      42.524  28.560  34.473  1.00  0.00     0.058 A 
ATOM     66  C   UNL A   1      42.602  29.060  35.791  1.00  0.00     0.135 A 
ATOM     67  C   UNL A   1      42.993  27.242  34.291  1.00  0.00     0.135 A 
ATOM     68  F   UNL A   1      42.189  30.306  36.074  1.00  0.00    -0.206 F 
ATOM     69  C   UNL A   1      43.166  28.327  36.836  1.00  0.00     0.059 A 
ATOM     70  C   UNL A   1      43.511  26.475  35.330  1.00  0.00     0.059 A 
ATOM     71  F   UNL A   1      43.063  26.680  33.078  1.00  0.00    -0.206 F 
ATOM     72  C   UNL A   1      43.633  27.040  36.590  1.00  0.00     0.060 A 
BRANCH  72  73
ATOM     73  S   UNL A   1      44.467  26.137  37.909  1.00  0.00     0.124 S 
ATOM     74  O   UNL A   1      45.854  26.543  37.709  1.00  0.00    -0.237 OA
ATOM     75  O   UNL A   1      43.812  26.665  39.101  1.00  0.00    -0.237 OA
ATOM     76  O   UNL A   1      44.169  24.741  37.603  1.00  0.00    -0.744 OA
ENDBRANCH  72  73
ENDBRANCH  51  65
BRANCH  52  77
ATOM     77  C   UNL A   1      43.478  25.458  26.309  1.00  0.00     0.058 A 
ATOM     78  C   UNL A   1      44.430  25.271  25.293  1.00  0.00     0.135 A 
ATOM     79  C   UNL A   1      42.816  24.295  26.758  1.00  0.00     0.135 A 
ATOM     80  F   UNL A   1      45.123  26.317  24.818  1.00  0.00    -0.206 F 
ATOM     81  C   UNL A   1      44.743  24.004  24.786  1.00  0.00     0.059 A 
ATOM     82  C   UNL A   1      43.101  23.024  26.259  1.00  0.00     0.059 A 
ATOM     83  F   UNL A   1      41.932  24.345  27.765  1.00  0.00    -0.206 F 
ATOM     84  C   UNL A   1      44.088  22.882  25.294  1.00  0.00     0.060 A 
BRANCH  84  85
ATOM     85  S   UNL A   1      44.619  21.231  24.777  1.00  0.00     0.124 S 
ATOM     86  O   UNL A   1      44.641  21.359  23.325  1.00  0.00    -0.237 OA
ATOM     87  O   UNL A   1      45.921  21.113  25.427  1.00  0.00    -0.237 OA
ATOM     88  O   UNL A   1      43.579  20.357  25.312  1.00  0.00    -0.744 OA
ENDBRANCH  84  85
ENDBRANCH  52  77
BRANCH  64  89
ATOM     89  C   UNL A   1      45.249  31.048  28.670  1.00  0.00     0.058 A 
ATOM     90  C   UNL A   1      44.264  31.619  27.842  1.00  0.00     0.135 A 
ATOM     91  C   UNL A   1      46.541  31.585  28.579  1.00  0.00     0.135 A 
ATOM     92  F   UNL A   1      42.982  31.247  27.940  1.00  0.00    -0.206 F 
ATOM     93  C   UNL A   1      44.554  32.646  26.944  1.00  0.00     0.059 A 
ATOM     94  C   UNL A   1      46.848  32.632  27.713  1.00  0.00     0.059 A 
ATOM     95  F   UNL A   1      47.513  31.134  29.389  1.00  0.00    -0.206 F 
ATOM     96  C   UNL A   1      45.851  33.150  26.888  1.00  0.00     0.060 A 
BRANCH  96  97
ATOM     97  S   UNL A   1      46.203  34.538  25.788  1.00  0.00     0.124 S 
ATOM     98  O   UNL A   1      45.898  35.685  26.637  1.00  0.00    -0.237 OA
ATOM     99  O   UNL A   1      47.614  34.342  25.469  1.00  0.00    -0.237 OA
ATOM    100  O   UNL A   1      45.286  34.327  24.671  1.00  0.00    -0.744 OA
ENDBRANCH  96  97
ENDBRANCH  64  89
ENDBRANCH  38  39
ENDBRANCH  30  33
ENDBRANCH  28  29
ENDBRANCH   1  28
TORSDOF 16
ENDMDL
