MODEL 1
REMARK VINA RESULT:     -13.1      0.000      0.000
REMARK SMILES CCn1nc(C(=O)NCCCNC(=O)c2ccc(-c3c4nc(c(-c5c(F)cc(S(=O)(=O)[O-])cc5F)c5ccc([nH]5)c(-c5c(F)cc(S(=O)(=O)[O-])cc5F)c5nc(c(-c6c(F)cc(S(=O)(=O)[O-])cc6F)c6ccc3[nH]6)C=C5)C=C4)cc2)c2c1CC[C@H]([NH2+]Cc1nn(CC)c3ccccc13)C2
REMARK SMILES IDX 9 1 8 2 6 3 7 4 5 6 3 7 4 8 82 9 81 10 83 11 99 12 84 13
REMARK SMILES IDX 85 14 2 15 1 16 86 17 87 20 88 21 89 22 98 23 90 24 93 25
REMARK SMILES IDX 97 26 94 27 96 28 95 29 91 30 92 31 10 32 11 33 12 34 13 35
REMARK SMILES IDX 14 37 15 38 16 39 80 40 17 41 79 42 18 43 19 44 20 45 73 46
REMARK SMILES IDX 21 47 78 48 72 49 74 50 22 51 77 52 71 53 70 54 23 56 57 57
REMARK SMILES IDX 36 58 56 59 37 60 40 61 55 62 75 63 38 64 39 65 54 67 76 68
REMARK SMILES IDX 41 69 24 70 25 71 34 72 26 73 27 74 33 75 35 76 28 77 29 78
REMARK SMILES IDX 30 79 31 80 32 81 58 82 59 83 68 84 60 85 61 86 67 87 69 88
REMARK SMILES IDX 62 89 63 90 64 91 65 92 66 93 42 94 43 95 52 96 44 97 45 98
REMARK SMILES IDX 51 99 53 100 46 101 47 102 48 103 49 104 50 105
REMARK H PARENT 8 5 86 18 86 19 12 36 74 55 40 66
REMARK Flexibility Score: inf
ROOT
ATOM      1  C   UNL A   1      35.818  22.631  26.631  1.00  0.00     0.118 C 
ENDROOT
BRANCH   1   2
ATOM      2  N   UNL A   1      34.619  22.855  27.387  1.00  0.00    -0.351 N 
ATOM      3  C   UNL A   1      33.406  22.137  27.230  1.00  0.00     0.272 C 
ATOM      4  O   UNL A   1      32.568  22.298  28.124  1.00  0.00    -0.267 OA
ATOM      5  H   UNL A   1      34.639  23.564  28.071  1.00  0.00     0.163 HD
BRANCH   3   6
ATOM      6  C   UNL A   1      33.101  21.259  26.032  1.00  0.00     0.153 A 
ATOM      7  N   UNL A   1      32.894  19.412  24.908  1.00  0.00    -0.269 N 
ATOM      8  N   UNL A   1      33.286  19.917  26.104  1.00  0.00    -0.167 NA
ATOM      9  C   UNL A   1      32.463  20.379  24.046  1.00  0.00     0.043 A 
ATOM     10  C   UNL A   1      32.614  21.557  24.723  1.00  0.00     0.012 A 
ATOM     11  C   UNL A   1      31.867  20.324  22.685  1.00  0.00     0.062 C 
ATOM     12  C   UNL A   1      32.249  22.826  24.096  1.00  0.00     0.105 C 
ATOM     13  C   UNL A   1      32.264  21.597  21.850  1.00  0.00     0.072 C 
ATOM     14  C   UNL A   1      32.296  22.979  22.596  1.00  0.00     0.187 C 
BRANCH   7  15
ATOM     15  C   UNL A   1      32.859  17.968  24.759  1.00  0.00     0.141 C 
ATOM     16  C   UNL A   1      33.954  17.410  23.859  1.00  0.00     0.029 C 
ENDBRANCH   7  15
BRANCH  14  17
ATOM     17  N   UNL A   1      33.352  23.971  22.189  1.00  0.00    -0.338 N 
ATOM     18  H   UNL A   1      33.925  23.542  21.462  1.00  0.00     0.346 HD
ATOM     19  H   UNL A   1      33.869  24.196  23.039  1.00  0.00     0.346 HD
BRANCH  17  20
ATOM     20  C   UNL A   1      32.831  25.297  21.652  1.00  0.00     0.320 C 
BRANCH  20  21
ATOM     21  C   UNL A   1      32.117  26.215  22.673  1.00  0.00     0.124 A 
ATOM     22  N   UNL A   1      31.017  26.925  22.330  1.00  0.00    -0.171 NA
ATOM     23  C   UNL A   1      32.546  26.608  24.004  1.00  0.00     0.029 A 
ATOM     24  N   UNL A   1      30.725  27.655  23.427  1.00  0.00    -0.265 N 
ATOM     25  C   UNL A   1      31.461  27.301  24.527  1.00  0.00     0.069 A 
ATOM     26  C   UNL A   1      33.670  26.489  24.851  1.00  0.00     0.012 A 
ATOM     27  C   UNL A   1      31.348  27.686  25.867  1.00  0.00     0.028 A 
ATOM     28  C   UNL A   1      33.697  27.254  26.045  1.00  0.00     0.001 A 
ATOM     29  C   UNL A   1      32.545  27.844  26.546  1.00  0.00     0.002 A 
BRANCH  24  30
ATOM     30  C   UNL A   1      29.921  28.871  23.352  1.00  0.00     0.141 C 
ATOM     31  C   UNL A   1      30.206  29.757  22.130  1.00  0.00     0.029 C 
ENDBRANCH  24  30
ENDBRANCH  20  21
ENDBRANCH  17  20
ENDBRANCH  14  17
ENDBRANCH   3   6
ENDBRANCH   1   2
BRANCH   1  32
ATOM     32  C   UNL A   1      36.547  23.570  25.675  1.00  0.00     0.042 C 
BRANCH  32  33
ATOM     33  C   UNL A   1      38.061  23.388  25.576  1.00  0.00     0.118 C 
BRANCH  33  34
ATOM     34  N   UNL A   1      38.700  22.474  26.550  1.00  0.00    -0.352 N 
ATOM     35  C   UNL A   1      39.900  22.669  27.251  1.00  0.00     0.251 C 
ATOM     36  H   UNL A   1      38.226  21.629  26.729  1.00  0.00     0.163 HD
ATOM     37  O   UNL A   1      40.481  21.746  27.773  1.00  0.00    -0.269 OA
BRANCH  35  38
ATOM     38  C   UNL A   1      40.431  24.052  27.349  1.00  0.00     0.039 A 
ATOM     39  C   UNL A   1      39.795  25.156  26.777  1.00  0.00     0.014 A 
ATOM     40  C   UNL A   1      41.581  24.220  28.108  1.00  0.00     0.014 A 
ATOM     41  C   UNL A   1      40.211  26.431  27.167  1.00  0.00     0.010 A 
ATOM     42  C   UNL A   1      41.916  25.453  28.588  1.00  0.00     0.010 A 
ATOM     43  C   UNL A   1      41.215  26.562  28.144  1.00  0.00    -0.014 A 
BRANCH  43  44
ATOM     44  C   UNL A   1      41.285  27.752  28.988  1.00  0.00     0.031 A 
ATOM     45  C   UNL A   1      42.320  28.717  28.516  1.00  0.00     0.074 A 
ATOM     46  C   UNL A   1      40.309  28.154  29.828  1.00  0.00     0.049 A 
ATOM     47  N   UNL A   1      43.479  28.943  29.035  1.00  0.00    -0.248 NA
ATOM     48  C   UNL A   1      42.136  29.340  27.189  1.00  0.00     0.031 C 
ATOM     49  C   UNL A   1      39.014  27.516  30.088  1.00  0.00     0.029 A 
ATOM     50  N   UNL A   1      40.219  29.312  30.536  1.00  0.00    -0.354 N 
ATOM     51  C   UNL A   1      44.037  29.953  28.259  1.00  0.00     0.074 A 
ATOM     52  C   UNL A   1      43.316  29.940  27.014  1.00  0.00     0.031 C 
ATOM     53  C   UNL A   1      38.197  28.392  30.715  1.00  0.00     0.029 A 
ATOM     54  C   UNL A   1      38.956  29.584  31.050  1.00  0.00     0.049 A 
ATOM     55  H   UNL A   1      40.989  29.911  30.674  1.00  0.00     0.167 HD
ATOM     56  C   UNL A   1      44.814  30.923  28.820  1.00  0.00     0.037 A 
ATOM     57  C   UNL A   1      38.566  30.719  31.683  1.00  0.00     0.037 A 
ATOM     58  C   UNL A   1      45.187  30.565  30.171  1.00  0.00     0.049 A 
ATOM     59  C   UNL A   1      39.804  31.389  32.165  1.00  0.00     0.074 A 
ATOM     60  C   UNL A   1      45.805  29.475  30.751  1.00  0.00     0.029 A 
ATOM     61  N   UNL A   1      44.522  31.204  31.191  1.00  0.00    -0.354 N 
ATOM     62  N   UNL A   1      40.597  30.888  33.071  1.00  0.00    -0.248 NA
ATOM     63  C   UNL A   1      40.403  32.410  31.319  1.00  0.00     0.031 C 
ATOM     64  C   UNL A   1      45.084  29.244  31.963  1.00  0.00     0.029 A 
ATOM     65  C   UNL A   1      44.131  30.254  32.103  1.00  0.00     0.049 A 
ATOM     66  H   UNL A   1      44.355  32.173  31.258  1.00  0.00     0.167 HD
ATOM     67  C   UNL A   1      41.878  31.178  32.623  1.00  0.00     0.074 A 
ATOM     68  C   UNL A   1      41.692  32.218  31.613  1.00  0.00     0.031 C 
ATOM     69  C   UNL A   1      42.926  30.345  32.902  1.00  0.00     0.037 A 
BRANCH  56  70
ATOM     70  C   UNL A   1      44.899  32.347  28.314  1.00  0.00     0.058 A 
ATOM     71  C   UNL A   1      46.152  32.870  27.937  1.00  0.00     0.135 A 
ATOM     72  C   UNL A   1      43.856  33.297  28.425  1.00  0.00     0.135 A 
ATOM     73  F   UNL A   1      47.221  32.065  27.825  1.00  0.00    -0.206 F 
ATOM     74  C   UNL A   1      46.364  34.235  27.735  1.00  0.00     0.059 A 
ATOM     75  C   UNL A   1      44.031  34.650  28.168  1.00  0.00     0.059 A 
ATOM     76  F   UNL A   1      42.641  32.981  28.885  1.00  0.00    -0.206 F 
ATOM     77  C   UNL A   1      45.295  35.118  27.860  1.00  0.00     0.060 A 
BRANCH  77  78
ATOM     78  S   UNL A   1      45.575  36.886  27.672  1.00  0.00     0.124 S 
ATOM     79  O   UNL A   1      46.130  37.231  28.976  1.00  0.00    -0.237 OA
ATOM     80  O   UNL A   1      46.503  36.928  26.548  1.00  0.00    -0.237 OA
ATOM     81  O   UNL A   1      44.239  37.407  27.394  1.00  0.00    -0.744 OA
ENDBRANCH  77  78
ENDBRANCH  56  70
BRANCH  57  82
ATOM     82  C   UNL A   1      37.246  31.404  31.658  1.00  0.00     0.058 A 
ATOM     83  C   UNL A   1      36.587  31.744  32.854  1.00  0.00     0.135 A 
ATOM     84  C   UNL A   1      36.749  32.006  30.484  1.00  0.00     0.135 A 
ATOM     85  F   UNL A   1      36.996  31.225  34.021  1.00  0.00    -0.206 F 
ATOM     86  C   UNL A   1      35.550  32.682  32.896  1.00  0.00     0.059 A 
ATOM     87  C   UNL A   1      35.707  32.934  30.499  1.00  0.00     0.059 A 
ATOM     88  F   UNL A   1      37.327  31.785  29.294  1.00  0.00    -0.206 F 
ATOM     89  C   UNL A   1      35.136  33.293  31.714  1.00  0.00     0.060 A 
BRANCH  89  90
ATOM     90  S   UNL A   1      33.952  34.659  31.790  1.00  0.00     0.124 S 
ATOM     91  O   UNL A   1      34.810  35.783  32.149  1.00  0.00    -0.237 OA
ATOM     92  O   UNL A   1      33.414  34.677  30.434  1.00  0.00    -0.237 OA
ATOM     93  O   UNL A   1      33.013  34.235  32.824  1.00  0.00    -0.744 OA
ENDBRANCH  89  90
ENDBRANCH  57  82
BRANCH  69  94
ATOM     94  C   UNL A   1      42.739  29.317  33.995  1.00  0.00     0.058 A 
ATOM     95  C   UNL A   1      42.888  29.558  35.374  1.00  0.00     0.135 A 
ATOM     96  C   UNL A   1      42.300  28.037  33.625  1.00  0.00     0.135 A 
ATOM     97  F   UNL A   1      43.188  30.778  35.836  1.00  0.00    -0.206 F 
ATOM     98  C   UNL A   1      42.684  28.558  36.328  1.00  0.00     0.059 A 
ATOM     99  C   UNL A   1      42.054  27.034  34.560  1.00  0.00     0.059 A 
ATOM    100  F   UNL A   1      42.071  27.752  32.332  1.00  0.00    -0.206 F 
ATOM    101  C   UNL A   1      42.275  27.294  35.909  1.00  0.00     0.060 A 
BRANCH 101 102
ATOM    102  S   UNL A   1      41.995  26.006  37.143  1.00  0.00     0.124 S 
ATOM    103  O   UNL A   1      42.949  26.368  38.186  1.00  0.00    -0.237 OA
ATOM    104  O   UNL A   1      40.586  26.190  37.480  1.00  0.00    -0.237 OA
ATOM    105  O   UNL A   1      42.297  24.772  36.422  1.00  0.00    -0.744 OA
ENDBRANCH 101 102
ENDBRANCH  69  94
ENDBRANCH  43  44
ENDBRANCH  35  38
ENDBRANCH  33  34
ENDBRANCH  32  33
ENDBRANCH   1  32
TORSDOF 18
ENDMDL
MODEL 2
REMARK VINA RESULT:     -12.6      2.996      9.366
REMARK SMILES CCn1nc(C(=O)NCCCNC(=O)c2ccc(-c3c4nc(c(-c5c(F)cc(S(=O)(=O)[O-])cc5F)c5ccc([nH]5)c(-c5c(F)cc(S(=O)(=O)[O-])cc5F)c5nc(c(-c6c(F)cc(S(=O)(=O)[O-])cc6F)c6ccc3[nH]6)C=C5)C=C4)cc2)c2c1CC[C@H]([NH2+]Cc1nn(CC)c3ccccc13)C2
REMARK SMILES IDX 9 1 8 2 6 3 7 4 5 6 3 7 4 8 82 9 81 10 83 11 99 12 84 13
REMARK SMILES IDX 85 14 2 15 1 16 86 17 87 20 88 21 89 22 98 23 90 24 93 25
REMARK SMILES IDX 97 26 94 27 96 28 95 29 91 30 92 31 10 32 11 33 12 34 13 35
REMARK SMILES IDX 14 37 15 38 16 39 80 40 17 41 79 42 18 43 19 44 20 45 73 46
REMARK SMILES IDX 21 47 78 48 72 49 74 50 22 51 77 52 71 53 70 54 23 56 57 57
REMARK SMILES IDX 36 58 56 59 37 60 40 61 55 62 75 63 38 64 39 65 54 67 76 68
REMARK SMILES IDX 41 69 24 70 25 71 34 72 26 73 27 74 33 75 35 76 28 77 29 78
REMARK SMILES IDX 30 79 31 80 32 81 58 82 59 83 68 84 60 85 61 86 67 87 69 88
REMARK SMILES IDX 62 89 63 90 64 91 65 92 66 93 42 94 43 95 52 96 44 97 45 98
REMARK SMILES IDX 51 99 53 100 46 101 47 102 48 103 49 104 50 105
REMARK H PARENT 8 5 86 18 86 19 12 36 74 55 40 66
REMARK Flexibility Score: inf
ROOT
ATOM      1  C   UNL A   1      33.687  29.030  25.133  1.00  0.00     0.118 C 
ENDROOT
BRANCH   1   2
ATOM      2  N   UNL A   1      34.086  28.606  23.821  1.00  0.00    -0.351 N 
ATOM      3  C   UNL A   1      33.211  28.416  22.721  1.00  0.00     0.272 C 
ATOM      4  O   UNL A   1      33.755  28.289  21.618  1.00  0.00    -0.267 OA
ATOM      5  H   UNL A   1      35.044  28.432  23.672  1.00  0.00     0.163 HD
BRANCH   3   6
ATOM      6  C   UNL A   1      31.704  28.321  22.855  1.00  0.00     0.153 A 
ATOM      7  N   UNL A   1      29.632  28.930  22.617  1.00  0.00    -0.269 N 
ATOM      8  N   UNL A   1      30.912  29.320  22.391  1.00  0.00    -0.167 NA
ATOM      9  C   UNL A   1      29.555  27.710  23.223  1.00  0.00     0.043 A 
ATOM     10  C   UNL A   1      30.851  27.318  23.412  1.00  0.00     0.012 A 
ATOM     11  C   UNL A   1      28.409  26.837  23.589  1.00  0.00     0.062 C 
ATOM     12  C   UNL A   1      31.156  26.039  24.049  1.00  0.00     0.105 C 
ATOM     13  C   UNL A   1      28.735  25.999  24.880  1.00  0.00     0.072 C 
ATOM     14  C   UNL A   1      30.189  25.424  25.030  1.00  0.00     0.187 C 
BRANCH   7  15
ATOM     15  C   UNL A   1      28.566  29.762  22.087  1.00  0.00     0.141 C 
ATOM     16  C   UNL A   1      27.696  30.410  23.157  1.00  0.00     0.029 C 
ENDBRANCH   7  15
BRANCH  14  17
ATOM     17  N   UNL A   1      30.784  25.371  26.410  1.00  0.00    -0.338 N 
ATOM     18  H   UNL A   1      30.059  25.637  27.077  1.00  0.00     0.346 HD
ATOM     19  H   UNL A   1      31.582  26.006  26.398  1.00  0.00     0.346 HD
BRANCH  17  20
ATOM     20  C   UNL A   1      31.333  24.016  26.834  1.00  0.00     0.320 C 
BRANCH  20  21
ATOM     21  C   UNL A   1      32.142  23.241  25.766  1.00  0.00     0.124 A 
ATOM     22  N   UNL A   1      31.670  22.095  25.223  1.00  0.00    -0.171 NA
ATOM     23  C   UNL A   1      33.506  23.459  25.319  1.00  0.00     0.029 A 
ATOM     24  N   UNL A   1      32.658  21.670  24.408  1.00  0.00    -0.265 N 
ATOM     25  C   UNL A   1      33.661  22.589  24.245  1.00  0.00     0.069 A 
ATOM     26  C   UNL A   1      34.632  24.247  25.642  1.00  0.00     0.012 A 
ATOM     27  C   UNL A   1      34.754  22.607  23.373  1.00  0.00     0.028 A 
ATOM     28  C   UNL A   1      35.869  23.943  25.018  1.00  0.00     0.001 A 
ATOM     29  C   UNL A   1      35.926  23.132  23.893  1.00  0.00     0.002 A 
BRANCH  24  30
ATOM     30  C   UNL A   1      32.767  20.275  23.991  1.00  0.00     0.141 C 
ATOM     31  C   UNL A   1      33.311  19.323  25.067  1.00  0.00     0.029 C 
ENDBRANCH  24  30
ENDBRANCH  20  21
ENDBRANCH  17  20
ENDBRANCH  14  17
ENDBRANCH   3   6
ENDBRANCH   1   2
BRANCH   1  32
ATOM     32  C   UNL A   1      34.149  28.521  26.495  1.00  0.00     0.042 C 
BRANCH  32  33
ATOM     33  C   UNL A   1      35.209  29.363  27.204  1.00  0.00     0.118 C 
BRANCH  33  34
ATOM     34  N   UNL A   1      34.907  30.798  27.414  1.00  0.00    -0.352 N 
ATOM     35  C   UNL A   1      35.311  31.611  28.484  1.00  0.00     0.251 C 
ATOM     36  H   UNL A   1      34.359  31.232  26.722  1.00  0.00     0.163 HD
ATOM     37  O   UNL A   1      34.761  32.663  28.717  1.00  0.00    -0.269 OA
BRANCH  35  38
ATOM     38  C   UNL A   1      36.450  31.150  29.318  1.00  0.00     0.039 A 
ATOM     39  C   UNL A   1      36.520  29.872  29.874  1.00  0.00     0.014 A 
ATOM     40  C   UNL A   1      37.503  32.041  29.472  1.00  0.00     0.014 A 
ATOM     41  C   UNL A   1      37.746  29.442  30.389  1.00  0.00     0.010 A 
ATOM     42  C   UNL A   1      38.733  31.594  29.860  1.00  0.00     0.010 A 
ATOM     43  C   UNL A   1      38.868  30.285  30.292  1.00  0.00    -0.014 A 
BRANCH  43  44
ATOM     44  C   UNL A   1      40.218  29.729  30.258  1.00  0.00     0.031 A 
ATOM     45  C   UNL A   1      40.740  29.434  31.624  1.00  0.00     0.074 A 
ATOM     46  C   UNL A   1      40.787  29.163  29.173  1.00  0.00     0.049 A 
ATOM     47  N   UNL A   1      41.618  30.105  32.291  1.00  0.00    -0.248 NA
ATOM     48  C   UNL A   1      40.048  28.406  32.427  1.00  0.00     0.031 C 
ATOM     49  C   UNL A   1      40.215  28.993  27.833  1.00  0.00     0.029 A 
ATOM     50  N   UNL A   1      41.967  28.494  29.082  1.00  0.00    -0.354 N 
ATOM     51  C   UNL A   1      41.792  29.400  33.477  1.00  0.00     0.074 A 
ATOM     52  C   UNL A   1      40.626  28.569  33.619  1.00  0.00     0.031 C 
ATOM     53  C   UNL A   1      40.948  28.091  27.141  1.00  0.00     0.029 A 
ATOM     54  C   UNL A   1      42.126  27.749  27.918  1.00  0.00     0.049 A 
ATOM     55  H   UNL A   1      42.655  28.532  29.786  1.00  0.00     0.167 HD
ATOM     56  C   UNL A   1      43.017  29.313  34.070  1.00  0.00     0.037 A 
ATOM     57  C   UNL A   1      43.145  26.900  27.633  1.00  0.00     0.037 A 
ATOM     58  C   UNL A   1      43.940  30.259  33.483  1.00  0.00     0.049 A 
ATOM     59  C   UNL A   1      44.276  27.271  28.525  1.00  0.00     0.074 A 
ATOM     60  C   UNL A   1      43.932  31.625  33.279  1.00  0.00     0.029 A 
ATOM     61  N   UNL A   1      44.878  29.757  32.612  1.00  0.00    -0.354 N 
ATOM     62  N   UNL A   1      44.910  28.409  28.461  1.00  0.00    -0.248 NA
ATOM     63  C   UNL A   1      44.417  26.557  29.785  1.00  0.00     0.031 C 
ATOM     64  C   UNL A   1      44.490  31.806  31.976  1.00  0.00     0.029 A 
ATOM     65  C   UNL A   1      44.891  30.558  31.496  1.00  0.00     0.049 A 
ATOM     66  H   UNL A   1      45.441  28.962  32.760  1.00  0.00     0.167 HD
ATOM     67  C   UNL A   1      45.132  28.767  29.784  1.00  0.00     0.074 A 
ATOM     68  C   UNL A   1      44.920  27.536  30.543  1.00  0.00     0.031 C 
ATOM     69  C   UNL A   1      45.178  30.081  30.159  1.00  0.00     0.037 A 
BRANCH  56  70
ATOM     70  C   UNL A   1      43.491  28.123  34.878  1.00  0.00     0.058 A 
ATOM     71  C   UNL A   1      44.033  28.335  36.162  1.00  0.00     0.135 A 
ATOM     72  C   UNL A   1      43.673  26.823  34.352  1.00  0.00     0.135 A 
ATOM     73  F   UNL A   1      43.942  29.539  36.750  1.00  0.00    -0.206 F 
ATOM     74  C   UNL A   1      44.744  27.348  36.846  1.00  0.00     0.059 A 
ATOM     75  C   UNL A   1      44.323  25.808  35.042  1.00  0.00     0.059 A 
ATOM     76  F   UNL A   1      43.323  26.496  33.103  1.00  0.00    -0.206 F 
ATOM     77  C   UNL A   1      44.888  26.088  36.273  1.00  0.00     0.060 A 
BRANCH  77  78
ATOM     78  S   UNL A   1      45.864  24.833  37.116  1.00  0.00     0.124 S 
ATOM     79  O   UNL A   1      45.797  23.729  36.167  1.00  0.00    -0.237 OA
ATOM     80  O   UNL A   1      47.159  25.492  37.244  1.00  0.00    -0.237 OA
ATOM     81  O   UNL A   1      45.142  24.636  38.370  1.00  0.00    -0.744 OA
ENDBRANCH  77  78
ENDBRANCH  56  70
BRANCH  57  82
ATOM     82  C   UNL A   1      43.121  25.628  26.861  1.00  0.00     0.058 A 
ATOM     83  C   UNL A   1      43.617  25.575  25.545  1.00  0.00     0.135 A 
ATOM     84  C   UNL A   1      42.897  24.387  27.489  1.00  0.00     0.135 A 
ATOM     85  F   UNL A   1      43.868  26.708  24.871  1.00  0.00    -0.206 F 
ATOM     86  C   UNL A   1      43.944  24.369  24.918  1.00  0.00     0.059 A 
ATOM     87  C   UNL A   1      43.202  23.170  26.879  1.00  0.00     0.059 A 
ATOM     88  F   UNL A   1      42.463  24.320  28.757  1.00  0.00    -0.206 F 
ATOM     89  C   UNL A   1      43.759  23.171  25.606  1.00  0.00     0.060 A 
BRANCH  89  90
ATOM     90  S   UNL A   1      44.381  21.630  24.888  1.00  0.00     0.124 S 
ATOM     91  O   UNL A   1      44.564  22.001  23.490  1.00  0.00    -0.237 OA
ATOM     92  O   UNL A   1      45.604  21.406  25.652  1.00  0.00    -0.237 OA
ATOM     93  O   UNL A   1      43.305  20.678  25.147  1.00  0.00    -0.744 OA
ENDBRANCH  89  90
ENDBRANCH  57  82
BRANCH  69  94
ATOM     94  C   UNL A   1      45.346  31.120  29.072  1.00  0.00     0.058 A 
ATOM     95  C   UNL A   1      46.568  31.484  28.477  1.00  0.00     0.135 A 
ATOM     96  C   UNL A   1      44.189  31.715  28.549  1.00  0.00     0.135 A 
ATOM     97  F   UNL A   1      47.715  30.886  28.823  1.00  0.00    -0.206 F 
ATOM     98  C   UNL A   1      46.642  32.445  27.465  1.00  0.00     0.059 A 
ATOM     99  C   UNL A   1      44.233  32.648  27.515  1.00  0.00     0.059 A 
ATOM    100  F   UNL A   1      42.980  31.367  29.021  1.00  0.00    -0.206 F 
ATOM    101  C   UNL A   1      45.467  33.029  26.997  1.00  0.00     0.060 A 
BRANCH 101 102
ATOM    102  S   UNL A   1      45.561  34.259  25.678  1.00  0.00     0.124 S 
ATOM    103  O   UNL A   1      44.750  33.647  24.631  1.00  0.00    -0.237 OA
ATOM    104  O   UNL A   1      44.990  35.447  26.309  1.00  0.00    -0.237 OA
ATOM    105  O   UNL A   1      46.991  34.344  25.392  1.00  0.00    -0.744 OA
ENDBRANCH 101 102
ENDBRANCH  69  94
ENDBRANCH  43  44
ENDBRANCH  35  38
ENDBRANCH  33  34
ENDBRANCH  32  33
ENDBRANCH   1  32
TORSDOF 18
ENDMDL
MODEL 3
REMARK VINA RESULT:     -12.5      2.517      3.427
REMARK SMILES CCn1nc(C(=O)NCCCNC(=O)c2ccc(-c3c4nc(c(-c5c(F)cc(S(=O)(=O)[O-])cc5F)c5ccc([nH]5)c(-c5c(F)cc(S(=O)(=O)[O-])cc5F)c5nc(c(-c6c(F)cc(S(=O)(=O)[O-])cc6F)c6ccc3[nH]6)C=C5)C=C4)cc2)c2c1CC[C@H]([NH2+]Cc1nn(CC)c3ccccc13)C2
REMARK SMILES IDX 9 1 8 2 6 3 7 4 5 6 3 7 4 8 82 9 81 10 83 11 99 12 84 13
REMARK SMILES IDX 85 14 2 15 1 16 86 17 87 20 88 21 89 22 98 23 90 24 93 25
REMARK SMILES IDX 97 26 94 27 96 28 95 29 91 30 92 31 10 32 11 33 12 34 13 35
REMARK SMILES IDX 14 37 15 38 16 39 80 40 17 41 79 42 18 43 19 44 20 45 73 46
REMARK SMILES IDX 21 47 78 48 72 49 74 50 22 51 77 52 71 53 70 54 23 56 57 57
REMARK SMILES IDX 36 58 56 59 37 60 40 61 55 62 75 63 38 64 39 65 54 67 76 68
REMARK SMILES IDX 41 69 24 70 25 71 34 72 26 73 27 74 33 75 35 76 28 77 29 78
REMARK SMILES IDX 30 79 31 80 32 81 58 82 59 83 68 84 60 85 61 86 67 87 69 88
REMARK SMILES IDX 62 89 63 90 64 91 65 92 66 93 42 94 43 95 52 96 44 97 45 98
REMARK SMILES IDX 51 99 53 100 46 101 47 102 48 103 49 104 50 105
REMARK H PARENT 8 5 86 18 86 19 12 36 74 55 40 66
REMARK Flexibility Score: inf
ROOT
ATOM      1  C   UNL A   1      37.997  21.822  25.575  1.00  0.00     0.118 C 
ENDROOT
BRANCH   1   2
ATOM      2  N   UNL A   1      37.764  22.288  24.238  1.00  0.00    -0.351 N 
ATOM      3  C   UNL A   1      36.500  22.651  23.706  1.00  0.00     0.272 C 
ATOM      4  O   UNL A   1      36.525  23.256  22.628  1.00  0.00    -0.267 OA
ATOM      5  H   UNL A   1      38.544  22.362  23.640  1.00  0.00     0.163 HD
BRANCH   3   6
ATOM      6  C   UNL A   1      35.181  22.296  24.363  1.00  0.00     0.153 A 
ATOM      7  N   UNL A   1      33.637  21.003  25.178  1.00  0.00    -0.269 N 
ATOM      8  N   UNL A   1      34.832  20.996  24.538  1.00  0.00    -0.167 NA
ATOM      9  C   UNL A   1      33.182  22.266  25.424  1.00  0.00     0.043 A 
ATOM     10  C   UNL A   1      34.125  23.100  24.892  1.00  0.00     0.012 A 
ATOM     11  C   UNL A   1      31.997  22.786  26.158  1.00  0.00     0.062 C 
ATOM     12  C   UNL A   1      33.964  24.550  24.969  1.00  0.00     0.105 C 
ATOM     13  C   UNL A   1      31.500  24.139  25.528  1.00  0.00     0.072 C 
ATOM     14  C   UNL A   1      32.588  25.164  25.046  1.00  0.00     0.187 C 
BRANCH   7  15
ATOM     15  C   UNL A   1      33.093  19.729  25.614  1.00  0.00     0.141 C 
ATOM     16  C   UNL A   1      33.431  18.563  24.694  1.00  0.00     0.029 C 
ENDBRANCH   7  15
BRANCH  14  17
ATOM     17  N   UNL A   1      32.291  25.975  23.814  1.00  0.00    -0.338 N 
ATOM     18  H   UNL A   1      31.341  25.756  23.514  1.00  0.00     0.346 HD
ATOM     19  H   UNL A   1      33.005  25.721  23.131  1.00  0.00     0.346 HD
BRANCH  17  20
ATOM     20  C   UNL A   1      32.392  27.484  23.985  1.00  0.00     0.320 C 
BRANCH  20  21
ATOM     21  C   UNL A   1      31.093  28.289  23.742  1.00  0.00     0.124 A 
ATOM     22  N   UNL A   1      31.102  29.641  23.697  1.00  0.00    -0.171 NA
ATOM     23  C   UNL A   1      29.720  27.817  23.708  1.00  0.00     0.029 A 
ATOM     24  N   UNL A   1      29.806  29.988  23.551  1.00  0.00    -0.265 N 
ATOM     25  C   UNL A   1      28.984  28.922  23.297  1.00  0.00     0.069 A 
ATOM     26  C   UNL A   1      28.980  26.639  23.955  1.00  0.00     0.012 A 
ATOM     27  C   UNL A   1      27.636  28.872  22.925  1.00  0.00     0.028 A 
ATOM     28  C   UNL A   1      27.565  26.727  23.986  1.00  0.00     0.001 A 
ATOM     29  C   UNL A   1      26.902  27.834  23.473  1.00  0.00     0.002 A 
BRANCH  24  30
ATOM     30  C   UNL A   1      29.318  31.315  23.913  1.00  0.00     0.141 C 
ATOM     31  C   UNL A   1      28.656  32.093  22.766  1.00  0.00     0.029 C 
ENDBRANCH  24  30
ENDBRANCH  20  21
ENDBRANCH  17  20
ENDBRANCH  14  17
ENDBRANCH   3   6
ENDBRANCH   1   2
BRANCH   1  32
ATOM     32  C   UNL A   1      38.927  20.717  26.064  1.00  0.00     0.042 C 
BRANCH  32  33
ATOM     33  C   UNL A   1      40.358  21.139  26.396  1.00  0.00     0.118 C 
BRANCH  33  34
ATOM     34  N   UNL A   1      41.443  20.195  26.041  1.00  0.00    -0.352 N 
ATOM     35  C   UNL A   1      42.741  20.503  25.607  1.00  0.00     0.251 C 
ATOM     36  H   UNL A   1      41.228  19.237  26.120  1.00  0.00     0.163 HD
ATOM     37  O   UNL A   1      43.432  19.679  25.054  1.00  0.00    -0.269 OA
BRANCH  35  38
ATOM     38  C   UNL A   1      43.252  21.874  25.862  1.00  0.00     0.039 A 
ATOM     39  C   UNL A   1      42.984  22.957  25.022  1.00  0.00     0.014 A 
ATOM     40  C   UNL A   1      43.972  22.057  27.034  1.00  0.00     0.014 A 
ATOM     41  C   UNL A   1      43.259  24.242  25.495  1.00  0.00     0.010 A 
ATOM     42  C   UNL A   1      44.135  23.308  27.555  1.00  0.00     0.010 A 
ATOM     43  C   UNL A   1      43.752  24.406  26.802  1.00  0.00    -0.014 A 
BRANCH  43  44
ATOM     44  C   UNL A   1      43.517  25.645  27.539  1.00  0.00     0.031 A 
ATOM     45  C   UNL A   1      44.500  26.708  27.181  1.00  0.00     0.074 A 
ATOM     46  C   UNL A   1      42.357  25.965  28.150  1.00  0.00     0.049 A 
ATOM     47  N   UNL A   1      45.503  27.120  27.880  1.00  0.00    -0.248 NA
ATOM     48  C   UNL A   1      44.500  27.217  25.794  1.00  0.00     0.031 C 
ATOM     49  C   UNL A   1      41.123  25.177  28.225  1.00  0.00     0.029 A 
ATOM     50  N   UNL A   1      41.997  27.142  28.728  1.00  0.00    -0.354 N 
ATOM     51  C   UNL A   1      46.074  28.145  27.134  1.00  0.00     0.074 A 
ATOM     52  C   UNL A   1      45.611  27.958  25.785  1.00  0.00     0.031 C 
ATOM     53  C   UNL A   1      40.102  25.973  28.615  1.00  0.00     0.029 A 
ATOM     54  C   UNL A   1      40.635  27.275  28.978  1.00  0.00     0.049 A 
ATOM     55  H   UNL A   1      42.648  27.846  28.950  1.00  0.00     0.167 HD
ATOM     56  C   UNL A   1      46.608  29.242  27.741  1.00  0.00     0.037 A 
ATOM     57  C   UNL A   1      39.999  28.385  29.430  1.00  0.00     0.037 A 
ATOM     58  C   UNL A   1      46.756  29.023  29.162  1.00  0.00     0.049 A 
ATOM     59  C   UNL A   1      41.033  29.243  30.068  1.00  0.00     0.074 A 
ATOM     60  C   UNL A   1      47.378  28.063  29.938  1.00  0.00     0.029 A 
ATOM     61  N   UNL A   1      45.838  29.630  29.987  1.00  0.00    -0.354 N 
ATOM     62  N   UNL A   1      41.692  28.910  31.143  1.00  0.00    -0.248 NA
ATOM     63  C   UNL A   1      41.656  30.280  29.260  1.00  0.00     0.031 C 
ATOM     64  C   UNL A   1      46.472  27.814  31.014  1.00  0.00     0.029 A 
ATOM     65  C   UNL A   1      45.396  28.695  30.890  1.00  0.00     0.049 A 
ATOM     66  H   UNL A   1      45.546  30.569  29.938  1.00  0.00     0.167 HD
ATOM     67  C   UNL A   1      42.991  29.340  30.911  1.00  0.00     0.074 A 
ATOM     68  C   UNL A   1      42.878  30.280  29.798  1.00  0.00     0.031 C 
ATOM     69  C   UNL A   1      44.058  28.673  31.447  1.00  0.00     0.037 A 
BRANCH  56  70
ATOM     70  C   UNL A   1      46.617  30.631  27.138  1.00  0.00     0.058 A 
ATOM     71  C   UNL A   1      47.816  31.374  27.138  1.00  0.00     0.135 A 
ATOM     72  C   UNL A   1      45.455  31.360  26.795  1.00  0.00     0.135 A 
ATOM     73  F   UNL A   1      48.978  30.791  27.472  1.00  0.00    -0.206 F 
ATOM     74  C   UNL A   1      47.847  32.743  26.868  1.00  0.00     0.059 A 
ATOM     75  C   UNL A   1      45.473  32.708  26.463  1.00  0.00     0.059 A 
ATOM     76  F   UNL A   1      44.227  30.832  26.863  1.00  0.00    -0.206 F 
ATOM     77  C   UNL A   1      46.667  33.402  26.537  1.00  0.00     0.060 A 
BRANCH  77  78
ATOM     78  S   UNL A   1      46.688  35.180  26.259  1.00  0.00     0.124 S 
ATOM     79  O   UNL A   1      45.280  35.448  25.995  1.00  0.00    -0.237 OA
ATOM     80  O   UNL A   1      47.210  35.679  27.527  1.00  0.00    -0.237 OA
ATOM     81  O   UNL A   1      47.586  35.328  25.117  1.00  0.00    -0.744 OA
ENDBRANCH  77  78
ENDBRANCH  56  70
BRANCH  57  82
ATOM     82  C   UNL A   1      38.635  28.885  29.106  1.00  0.00     0.058 A 
ATOM     83  C   UNL A   1      37.671  29.054  30.117  1.00  0.00     0.135 A 
ATOM     84  C   UNL A   1      38.345  29.487  27.865  1.00  0.00     0.135 A 
ATOM     85  F   UNL A   1      37.866  28.523  31.333  1.00  0.00    -0.206 F 
ATOM     86  C   UNL A   1      36.528  29.838  29.934  1.00  0.00     0.059 A 
ATOM     87  C   UNL A   1      37.204  30.262  27.656  1.00  0.00     0.059 A 
ATOM     88  F   UNL A   1      39.212  29.422  26.844  1.00  0.00    -0.206 F 
ATOM     89  C   UNL A   1      36.317  30.462  28.706  1.00  0.00     0.060 A 
BRANCH  89  90
ATOM     90  S   UNL A   1      34.961  31.647  28.533  1.00  0.00     0.124 S 
ATOM     91  O   UNL A   1      35.516  32.605  27.584  1.00  0.00    -0.237 OA
ATOM     92  O   UNL A   1      33.879  30.807  28.032  1.00  0.00    -0.237 OA
ATOM     93  O   UNL A   1      34.777  32.150  29.892  1.00  0.00    -0.744 OA
ENDBRANCH  89  90
ENDBRANCH  57  82
BRANCH  69  94
ATOM     94  C   UNL A   1      43.791  27.700  32.573  1.00  0.00     0.058 A 
ATOM     95  C   UNL A   1      43.484  28.055  33.900  1.00  0.00     0.135 A 
ATOM     96  C   UNL A   1      43.759  26.332  32.264  1.00  0.00     0.135 A 
ATOM     97  F   UNL A   1      43.372  29.337  34.267  1.00  0.00    -0.206 F 
ATOM     98  C   UNL A   1      43.234  27.096  34.885  1.00  0.00     0.059 A 
ATOM     99  C   UNL A   1      43.475  25.359  33.220  1.00  0.00     0.059 A 
ATOM    100  F   UNL A   1      43.975  25.921  31.003  1.00  0.00    -0.206 F 
ATOM    101  C   UNL A   1      43.241  25.747  34.536  1.00  0.00     0.060 A 
BRANCH 101 102
ATOM    102  S   UNL A   1      42.901  24.508  35.804  1.00  0.00     0.124 S 
ATOM    103  O   UNL A   1      43.153  25.251  37.034  1.00  0.00    -0.237 OA
ATOM    104  O   UNL A   1      41.506  24.162  35.545  1.00  0.00    -0.237 OA
ATOM    105  O   UNL A   1      43.861  23.446  35.509  1.00  0.00    -0.744 OA
ENDBRANCH 101 102
ENDBRANCH  69  94
ENDBRANCH  43  44
ENDBRANCH  35  38
ENDBRANCH  33  34
ENDBRANCH  32  33
ENDBRANCH   1  32
TORSDOF 18
ENDMDL
