MODEL 1
REMARK VINA RESULT:     -12.7      0.000      0.000
REMARK SMILES CCc1ccc(-c2cc(Cl)cc3c2O[C@H](C(F)(F)F)C(C(=O)NCCCNC(=O)c2ccc(-c4c5nc(c(-c6c(F)cc(S(=O)(=O)[O-])cc6F)c6ccc([nH]6)c(-c6c(F)cc(S(=O)(=O)[O-])cc6F)c6nc(c(-c7c(F)cc(S(=O)(=O)[O-])cc7F)c7ccc4[nH]7)C=C6)C=C5)cc2)=C3)cc1
REMARK SMILES IDX 25 1 24 2 23 3 21 4 22 5 20 7 7 8 8 9 13 10 9 11 12 12 14 13
REMARK SMILES IDX 10 14 11 15 96 16 15 17 6 18 3 19 4 20 98 21 5 22 97 23 2 24
REMARK SMILES IDX 1 25 16 26 17 27 18 28 19 29 26 30 27 31 28 32 29 34 30 35
REMARK SMILES IDX 31 36 95 37 32 38 94 39 33 40 34 41 35 42 88 43 36 44 93 45
REMARK SMILES IDX 87 46 89 47 37 48 92 49 86 50 85 51 38 53 72 54 51 55 71 56
REMARK SMILES IDX 52 57 55 58 70 59 90 60 53 61 54 62 69 64 91 65 56 66 39 67
REMARK SMILES IDX 40 68 49 69 41 70 42 71 48 72 50 73 43 74 44 75 45 76 46 77
REMARK SMILES IDX 47 78 73 79 74 80 83 81 75 82 76 83 82 84 84 85 77 86 78 87
REMARK SMILES IDX 79 88 80 89 81 90 57 91 58 92 67 93 59 94 60 95 66 96 68 97
REMARK SMILES IDX 61 98 62 99 63 100 64 101 65 102
REMARK H PARENT 23 6 27 33 89 52 55 63
REMARK Flexibility Score: inf
ROOT
ATOM      1  C   UNL A   1      32.789  28.297  25.955  1.00  0.00     0.042 C 
ENDROOT
BRANCH   1   2
ATOM      2  C   UNL A   1      33.463  27.435  24.885  1.00  0.00     0.118 C 
BRANCH   2   3
ATOM      3  N   UNL A   1      34.168  26.331  25.506  1.00  0.00    -0.352 N 
ATOM      4  C   UNL A   1      33.800  25.027  25.499  1.00  0.00     0.251 C 
ATOM      5  O   UNL A   1      33.935  24.347  26.509  1.00  0.00    -0.270 OA
ATOM      6  H   UNL A   1      35.000  26.552  25.983  1.00  0.00     0.163 HD
BRANCH   4   7
ATOM      7  C   UNL A   1      33.390  24.445  24.185  1.00  0.00     0.067 C 
ATOM      8  C   UNL A   1      34.680  20.610  24.676  1.00  0.00     0.026 A 
ATOM      9  C   UNL A   1      35.986  20.664  25.227  1.00  0.00     0.033 A 
ATOM     10  C   UNL A   1      34.166  21.816  24.171  1.00  0.00     0.135 A 
ATOM     11  C   UNL A   1      36.794  21.794  25.126  1.00  0.00     0.042 A 
ATOM     12  C   UNL A   1      35.037  22.914  23.972  1.00  0.00     0.019 A 
ATOM     13  O   UNL A   1      32.821  22.004  23.886  1.00  0.00    -0.475 OA
ATOM     14  Cl  UNL A   1      38.365  21.785  25.822  1.00  0.00    -0.084 Cl
ATOM     15  C   UNL A   1      36.350  22.905  24.435  1.00  0.00     0.032 A 
ATOM     16  C   UNL A   1      34.459  24.158  23.416  1.00  0.00     0.025 C 
ATOM     17  C   UNL A   1      32.324  23.358  24.271  1.00  0.00     0.314 C 
BRANCH   8  18
ATOM     18  C   UNL A   1      34.135  19.241  24.476  1.00  0.00    -0.015 A 
ATOM     19  C   UNL A   1      33.478  16.564  25.217  1.00  0.00    -0.048 A 
ATOM     20  C   UNL A   1      32.524  17.582  25.302  1.00  0.00     0.004 A 
ATOM     21  C   UNL A   1      34.703  16.869  24.605  1.00  0.00     0.004 A 
ATOM     22  C   UNL A   1      32.844  18.898  24.927  1.00  0.00     0.009 A 
ATOM     23  C   UNL A   1      35.025  18.185  24.235  1.00  0.00     0.009 A 
BRANCH  19  24
ATOM     24  C   UNL A   1      33.238  15.161  25.733  1.00  0.00     0.032 C 
ATOM     25  C   UNL A   1      31.782  14.780  26.005  1.00  0.00     0.009 C 
ENDBRANCH  19  24
ENDBRANCH   8  18
BRANCH  17  26
ATOM     26  C   UNL A   1      31.118  23.787  23.407  1.00  0.00     0.429 C 
ATOM     27  F   UNL A   1      30.534  22.744  22.773  1.00  0.00    -0.167 F 
ATOM     28  F   UNL A   1      30.167  24.393  24.157  1.00  0.00    -0.167 F 
ATOM     29  F   UNL A   1      31.461  24.678  22.438  1.00  0.00    -0.167 F 
ENDBRANCH  17  26
ENDBRANCH   4   7
ENDBRANCH   2   3
ENDBRANCH   1   2
BRANCH   1  30
ATOM     30  C   UNL A   1      33.648  28.576  27.187  1.00  0.00     0.118 C 
BRANCH  30  31
ATOM     31  N   UNL A   1      33.568  29.954  27.642  1.00  0.00    -0.352 N 
ATOM     32  C   UNL A   1      34.517  30.708  28.291  1.00  0.00     0.251 C 
ATOM     33  H   UNL A   1      32.715  30.413  27.461  1.00  0.00     0.163 HD
ATOM     34  O   UNL A   1      34.223  31.817  28.731  1.00  0.00    -0.269 OA
BRANCH  32  35
ATOM     35  C   UNL A   1      35.879  30.166  28.482  1.00  0.00     0.039 A 
ATOM     36  C   UNL A   1      36.776  30.202  27.414  1.00  0.00     0.014 A 
ATOM     37  C   UNL A   1      36.275  29.648  29.718  1.00  0.00     0.014 A 
ATOM     38  C   UNL A   1      38.096  29.786  27.606  1.00  0.00     0.010 A 
ATOM     39  C   UNL A   1      37.609  29.309  29.929  1.00  0.00     0.010 A 
ATOM     40  C   UNL A   1      38.535  29.376  28.876  1.00  0.00    -0.014 A 
BRANCH  40  41
ATOM     41  C   UNL A   1      39.958  29.020  29.125  1.00  0.00     0.031 A 
ATOM     42  C   UNL A   1      40.905  30.046  29.689  1.00  0.00     0.074 A 
ATOM     43  C   UNL A   1      40.412  27.798  28.780  1.00  0.00     0.049 A 
ATOM     44  N   UNL A   1      42.193  29.952  29.900  1.00  0.00    -0.248 NA
ATOM     45  C   UNL A   1      40.337  31.359  30.033  1.00  0.00     0.031 C 
ATOM     46  C   UNL A   1      39.605  26.735  28.175  1.00  0.00     0.029 A 
ATOM     47  N   UNL A   1      41.665  27.246  28.875  1.00  0.00    -0.354 N 
ATOM     48  C   UNL A   1      42.590  31.194  30.384  1.00  0.00     0.074 A 
ATOM     49  C   UNL A   1      41.418  32.041  30.382  1.00  0.00     0.031 C 
ATOM     50  C   UNL A   1      40.377  25.654  27.976  1.00  0.00     0.029 A 
ATOM     51  C   UNL A   1      41.740  25.957  28.400  1.00  0.00     0.049 A 
ATOM     52  H   UNL A   1      42.438  27.727  29.249  1.00  0.00     0.167 HD
ATOM     53  C   UNL A   1      43.813  31.585  30.813  1.00  0.00     0.037 A 
ATOM     54  C   UNL A   1      42.789  25.117  28.306  1.00  0.00     0.037 A 
ATOM     55  C   UNL A   1      44.969  30.726  30.841  1.00  0.00     0.049 A 
ATOM     56  C   UNL A   1      44.139  25.573  28.795  1.00  0.00     0.074 A 
ATOM     57  C   UNL A   1      46.237  31.008  31.317  1.00  0.00     0.029 A 
ATOM     58  N   UNL A   1      44.997  29.420  30.377  1.00  0.00    -0.354 N 
ATOM     59  N   UNL A   1      44.480  26.731  29.310  1.00  0.00    -0.248 NA
ATOM     60  C   UNL A   1      45.243  24.609  28.697  1.00  0.00     0.031 C 
ATOM     61  C   UNL A   1      47.046  29.887  31.098  1.00  0.00     0.029 A 
ATOM     62  C   UNL A   1      46.267  28.889  30.536  1.00  0.00     0.049 A 
ATOM     63  H   UNL A   1      44.230  28.940  29.991  1.00  0.00     0.167 HD
ATOM     64  C   UNL A   1      45.831  26.623  29.623  1.00  0.00     0.074 A 
ATOM     65  C   UNL A   1      46.240  25.284  29.251  1.00  0.00     0.031 C 
ATOM     66  C   UNL A   1      46.656  27.549  30.170  1.00  0.00     0.037 A 
BRANCH  53  67
ATOM     67  C   UNL A   1      43.966  33.002  31.297  1.00  0.00     0.058 A 
ATOM     68  C   UNL A   1      43.753  33.348  32.642  1.00  0.00     0.135 A 
ATOM     69  C   UNL A   1      44.369  34.019  30.417  1.00  0.00     0.135 A 
ATOM     70  F   UNL A   1      43.352  32.419  33.523  1.00  0.00    -0.206 F 
ATOM     71  C   UNL A   1      43.908  34.655  33.090  1.00  0.00     0.059 A 
ATOM     72  C   UNL A   1      44.560  35.328  30.850  1.00  0.00     0.059 A 
ATOM     73  F   UNL A   1      44.586  33.744  29.121  1.00  0.00    -0.206 F 
ATOM     74  C   UNL A   1      44.314  35.639  32.186  1.00  0.00     0.060 A 
BRANCH  74  75
ATOM     75  S   UNL A   1      44.522  37.327  32.789  1.00  0.00     0.124 S 
ATOM     76  O   UNL A   1      43.909  38.099  31.711  1.00  0.00    -0.237 OA
ATOM     77  O   UNL A   1      43.785  37.302  34.048  1.00  0.00    -0.237 OA
ATOM     78  O   UNL A   1      45.969  37.467  32.916  1.00  0.00    -0.744 OA
ENDBRANCH  74  75
ENDBRANCH  53  67
BRANCH  54  79
ATOM     79  C   UNL A   1      42.604  23.751  27.746  1.00  0.00     0.058 A 
ATOM     80  C   UNL A   1      42.463  22.638  28.588  1.00  0.00     0.135 A 
ATOM     81  C   UNL A   1      42.561  23.529  26.360  1.00  0.00     0.135 A 
ATOM     82  F   UNL A   1      42.505  22.796  29.920  1.00  0.00    -0.206 F 
ATOM     83  C   UNL A   1      42.305  21.353  28.080  1.00  0.00     0.059 A 
ATOM     84  C   UNL A   1      42.377  22.256  25.827  1.00  0.00     0.059 A 
ATOM     85  F   UNL A   1      42.674  24.562  25.510  1.00  0.00    -0.206 F 
ATOM     86  C   UNL A   1      42.262  21.172  26.697  1.00  0.00     0.060 A 
BRANCH  86  87
ATOM     87  S   UNL A   1      42.015  19.505  26.047  1.00  0.00     0.124 S 
ATOM     88  O   UNL A   1      40.575  19.490  25.815  1.00  0.00    -0.237 OA
ATOM     89  O   UNL A   1      42.854  19.516  24.852  1.00  0.00    -0.237 OA
ATOM     90  O   UNL A   1      42.491  18.650  27.128  1.00  0.00    -0.744 OA
ENDBRANCH  86  87
ENDBRANCH  54  79
BRANCH  66  91
ATOM     91  C   UNL A   1      48.079  27.138  30.438  1.00  0.00     0.058 A 
ATOM     92  C   UNL A   1      49.095  27.331  29.491  1.00  0.00     0.135 A 
ATOM     93  C   UNL A   1      48.436  26.595  31.684  1.00  0.00     0.135 A 
ATOM     94  F   UNL A   1      48.806  27.841  28.283  1.00  0.00    -0.206 F 
ATOM     95  C   UNL A   1      50.413  26.979  29.760  1.00  0.00     0.059 A 
ATOM     96  C   UNL A   1      49.753  26.264  31.984  1.00  0.00     0.059 A 
ATOM     97  F   UNL A   1      47.504  26.400  32.629  1.00  0.00    -0.206 F 
ATOM     98  C   UNL A   1      50.734  26.448  31.011  1.00  0.00     0.060 A 
BRANCH  98  99
ATOM     99  S   UNL A   1      52.455  26.028  31.359  1.00  0.00     0.124 S 
ATOM    100  O   UNL A   1      52.827  27.075  32.303  1.00  0.00    -0.237 OA
ATOM    101  O   UNL A   1      52.340  24.683  31.918  1.00  0.00    -0.237 OA
ATOM    102  O   UNL A   1      53.096  26.103  30.050  1.00  0.00    -0.744 OA
ENDBRANCH  98  99
ENDBRANCH  66  91
ENDBRANCH  40  41
ENDBRANCH  32  35
ENDBRANCH  30  31
ENDBRANCH   1  30
TORSDOF 16
ENDMDL
MODEL 2
REMARK VINA RESULT:     -12.5      2.638      3.671
REMARK SMILES CCc1ccc(-c2cc(Cl)cc3c2O[C@H](C(F)(F)F)C(C(=O)NCCCNC(=O)c2ccc(-c4c5nc(c(-c6c(F)cc(S(=O)(=O)[O-])cc6F)c6ccc([nH]6)c(-c6c(F)cc(S(=O)(=O)[O-])cc6F)c6nc(c(-c7c(F)cc(S(=O)(=O)[O-])cc7F)c7ccc4[nH]7)C=C6)C=C5)cc2)=C3)cc1
REMARK SMILES IDX 25 1 24 2 23 3 21 4 22 5 20 7 7 8 8 9 13 10 9 11 12 12 14 13
REMARK SMILES IDX 10 14 11 15 96 16 15 17 6 18 3 19 4 20 98 21 5 22 97 23 2 24
REMARK SMILES IDX 1 25 16 26 17 27 18 28 19 29 26 30 27 31 28 32 29 34 30 35
REMARK SMILES IDX 31 36 95 37 32 38 94 39 33 40 34 41 35 42 88 43 36 44 93 45
REMARK SMILES IDX 87 46 89 47 37 48 92 49 86 50 85 51 38 53 72 54 51 55 71 56
REMARK SMILES IDX 52 57 55 58 70 59 90 60 53 61 54 62 69 64 91 65 56 66 39 67
REMARK SMILES IDX 40 68 49 69 41 70 42 71 48 72 50 73 43 74 44 75 45 76 46 77
REMARK SMILES IDX 47 78 73 79 74 80 83 81 75 82 76 83 82 84 84 85 77 86 78 87
REMARK SMILES IDX 79 88 80 89 81 90 57 91 58 92 67 93 59 94 60 95 66 96 68 97
REMARK SMILES IDX 61 98 62 99 63 100 64 101 65 102
REMARK H PARENT 23 6 27 33 89 52 55 63
REMARK Flexibility Score: inf
ROOT
ATOM      1  C   UNL A   1      34.111  30.335  26.889  1.00  0.00     0.042 C 
ENDROOT
BRANCH   1   2
ATOM      2  C   UNL A   1      33.458  29.308  25.961  1.00  0.00     0.118 C 
BRANCH   2   3
ATOM      3  N   UNL A   1      33.300  28.042  26.650  1.00  0.00    -0.352 N 
ATOM      4  C   UNL A   1      32.277  27.165  26.511  1.00  0.00     0.251 C 
ATOM      5  O   UNL A   1      31.822  26.595  27.496  1.00  0.00    -0.270 OA
ATOM      6  H   UNL A   1      34.010  27.795  27.285  1.00  0.00     0.163 HD
BRANCH   4   7
ATOM      7  C   UNL A   1      31.860  26.824  25.118  1.00  0.00     0.067 C 
ATOM      8  C   UNL A   1      33.070  22.936  24.949  1.00  0.00     0.026 A 
ATOM      9  C   UNL A   1      34.375  22.868  25.502  1.00  0.00     0.033 A 
ATOM     10  C   UNL A   1      32.582  24.221  24.657  1.00  0.00     0.135 A 
ATOM     11  C   UNL A   1      35.206  23.982  25.596  1.00  0.00     0.042 A 
ATOM     12  C   UNL A   1      33.477  25.318  24.648  1.00  0.00     0.019 A 
ATOM     13  O   UNL A   1      31.243  24.482  24.408  1.00  0.00    -0.475 OA
ATOM     14  Cl  UNL A   1      36.773  23.822  26.280  1.00  0.00    -0.084 Cl
ATOM     15  C   UNL A   1      34.787  25.204  25.104  1.00  0.00     0.032 A 
ATOM     16  C   UNL A   1      32.926  26.650  24.311  1.00  0.00     0.025 C 
ATOM     17  C   UNL A   1      30.771  25.761  25.017  1.00  0.00     0.314 C 
BRANCH   8  18
ATOM     18  C   UNL A   1      32.498  21.633  24.519  1.00  0.00    -0.015 A 
ATOM     19  C   UNL A   1      32.551  19.005  23.405  1.00  0.00    -0.048 A 
ATOM     20  C   UNL A   1      32.633  19.196  24.787  1.00  0.00     0.004 A 
ATOM     21  C   UNL A   1      32.277  20.126  22.609  1.00  0.00     0.004 A 
ATOM     22  C   UNL A   1      32.596  20.489  25.337  1.00  0.00     0.009 A 
ATOM     23  C   UNL A   1      32.246  21.419  23.156  1.00  0.00     0.009 A 
BRANCH  19  24
ATOM     24  C   UNL A   1      32.722  17.652  22.746  1.00  0.00     0.032 C 
ATOM     25  C   UNL A   1      33.911  16.815  23.218  1.00  0.00     0.009 C 
ENDBRANCH  19  24
ENDBRANCH   8  18
BRANCH  17  26
ATOM     26  C   UNL A   1      29.578  26.355  24.238  1.00  0.00     0.429 C 
ATOM     27  F   UNL A   1      29.742  27.667  23.953  1.00  0.00    -0.167 F 
ATOM     28  F   UNL A   1      29.384  25.703  23.067  1.00  0.00    -0.167 F 
ATOM     29  F   UNL A   1      28.407  26.258  24.924  1.00  0.00    -0.167 F 
ENDBRANCH  17  26
ENDBRANCH   4   7
ENDBRANCH   2   3
ENDBRANCH   1   2
BRANCH   1  30
ATOM     30  C   UNL A   1      35.143  29.759  27.857  1.00  0.00     0.118 C 
BRANCH  30  31
ATOM     31  N   UNL A   1      35.238  30.500  29.103  1.00  0.00    -0.352 N 
ATOM     32  C   UNL A   1      36.301  30.607  29.968  1.00  0.00     0.251 C 
ATOM     33  H   UNL A   1      34.428  30.995  29.366  1.00  0.00     0.163 HD
ATOM     34  O   UNL A   1      36.155  31.163  31.053  1.00  0.00    -0.269 OA
BRANCH  32  35
ATOM     35  C   UNL A   1      37.608  30.024  29.597  1.00  0.00     0.039 A 
ATOM     36  C   UNL A   1      38.005  30.052  28.260  1.00  0.00     0.014 A 
ATOM     37  C   UNL A   1      38.449  29.478  30.570  1.00  0.00     0.014 A 
ATOM     38  C   UNL A   1      39.278  29.597  27.908  1.00  0.00     0.010 A 
ATOM     39  C   UNL A   1      39.745  29.099  30.230  1.00  0.00     0.010 A 
ATOM     40  C   UNL A   1      40.175  29.156  28.896  1.00  0.00    -0.014 A 
BRANCH  40  41
ATOM     41  C   UNL A   1      41.567  28.758  28.554  1.00  0.00     0.031 A 
ATOM     42  C   UNL A   1      42.660  29.793  28.512  1.00  0.00     0.074 A 
ATOM     43  C   UNL A   1      41.833  27.480  28.216  1.00  0.00     0.049 A 
ATOM     44  N   UNL A   1      43.913  29.656  28.160  1.00  0.00    -0.248 NA
ATOM     45  C   UNL A   1      42.290  31.168  28.885  1.00  0.00     0.031 C 
ATOM     46  C   UNL A   1      40.849  26.395  28.166  1.00  0.00     0.029 A 
ATOM     47  N   UNL A   1      43.006  26.876  27.837  1.00  0.00    -0.354 N 
ATOM     48  C   UNL A   1      44.474  30.925  28.252  1.00  0.00     0.074 A 
ATOM     49  C   UNL A   1      43.412  31.828  28.640  1.00  0.00     0.031 C 
ATOM     50  C   UNL A   1      41.464  25.257  27.804  1.00  0.00     0.029 A 
ATOM     51  C   UNL A   1      42.875  25.536  27.555  1.00  0.00     0.049 A 
ATOM     52  H   UNL A   1      43.863  27.358  27.773  1.00  0.00     0.167 HD
ATOM     53  C   UNL A   1      45.760  31.300  28.057  1.00  0.00     0.037 A 
ATOM     54  C   UNL A   1      43.785  24.636  27.134  1.00  0.00     0.037 A 
ATOM     55  C   UNL A   1      46.818  30.390  27.702  1.00  0.00     0.049 A 
ATOM     56  C   UNL A   1      45.210  25.076  26.929  1.00  0.00     0.074 A 
ATOM     57  C   UNL A   1      48.166  30.660  27.543  1.00  0.00     0.029 A 
ATOM     58  N   UNL A   1      46.649  29.037  27.452  1.00  0.00    -0.354 N 
ATOM     59  N   UNL A   1      45.735  26.268  27.086  1.00  0.00    -0.248 NA
ATOM     60  C   UNL A   1      46.168  24.048  26.497  1.00  0.00     0.031 C 
ATOM     61  C   UNL A   1      48.806  29.479  27.152  1.00  0.00     0.029 A 
ATOM     62  C   UNL A   1      47.865  28.462  27.120  1.00  0.00     0.049 A 
ATOM     63  H   UNL A   1      45.793  28.556  27.502  1.00  0.00     0.167 HD
ATOM     64  C   UNL A   1      47.089  26.128  26.799  1.00  0.00     0.074 A 
ATOM     65  C   UNL A   1      47.303  24.733  26.473  1.00  0.00     0.031 C 
ATOM     66  C   UNL A   1      48.065  27.068  26.807  1.00  0.00     0.037 A 
BRANCH  53  67
ATOM     67  C   UNL A   1      46.100  32.756  28.232  1.00  0.00     0.058 A 
ATOM     68  C   UNL A   1      45.993  33.670  27.172  1.00  0.00     0.135 A 
ATOM     69  C   UNL A   1      46.497  33.251  29.485  1.00  0.00     0.135 A 
ATOM     70  F   UNL A   1      45.633  33.249  25.950  1.00  0.00    -0.206 F 
ATOM     71  C   UNL A   1      46.295  35.018  27.340  1.00  0.00     0.059 A 
ATOM     72  C   UNL A   1      46.775  34.601  29.683  1.00  0.00     0.059 A 
ATOM     73  F   UNL A   1      46.617  32.421  30.534  1.00  0.00    -0.206 F 
ATOM     74  C   UNL A   1      46.684  35.474  28.600  1.00  0.00     0.060 A 
BRANCH  74  75
ATOM     75  S   UNL A   1      47.059  37.228  28.802  1.00  0.00     0.124 S 
ATOM     76  O   UNL A   1      48.498  37.248  28.556  1.00  0.00    -0.237 OA
ATOM     77  O   UNL A   1      46.231  37.844  27.770  1.00  0.00    -0.237 OA
ATOM     78  O   UNL A   1      46.653  37.507  30.176  1.00  0.00    -0.744 OA
ENDBRANCH  74  75
ENDBRANCH  53  67
BRANCH  54  79
ATOM     79  C   UNL A   1      43.382  23.223  26.898  1.00  0.00     0.058 A 
ATOM     80  C   UNL A   1      43.270  22.711  25.596  1.00  0.00     0.135 A 
ATOM     81  C   UNL A   1      43.104  22.354  27.965  1.00  0.00     0.135 A 
ATOM     82  F   UNL A   1      43.518  23.504  24.542  1.00  0.00    -0.206 F 
ATOM     83  C   UNL A   1      42.880  21.398  25.359  1.00  0.00     0.059 A 
ATOM     84  C   UNL A   1      42.737  21.028  27.754  1.00  0.00     0.059 A 
ATOM     85  F   UNL A   1      43.213  22.788  29.231  1.00  0.00    -0.206 F 
ATOM     86  C   UNL A   1      42.616  20.563  26.446  1.00  0.00     0.060 A 
BRANCH  86  87
ATOM     87  S   UNL A   1      42.150  18.847  26.128  1.00  0.00     0.124 S 
ATOM     88  O   UNL A   1      42.397  18.230  27.427  1.00  0.00    -0.237 OA
ATOM     89  O   UNL A   1      40.749  18.978  25.739  1.00  0.00    -0.237 OA
ATOM     90  O   UNL A   1      43.054  18.446  25.056  1.00  0.00    -0.744 OA
ENDBRANCH  86  87
ENDBRANCH  54  79
BRANCH  66  91
ATOM     91  C   UNL A   1      49.465  26.618  26.491  1.00  0.00     0.058 A 
ATOM     92  C   UNL A   1      50.282  26.012  27.458  1.00  0.00     0.135 A 
ATOM     93  C   UNL A   1      49.973  26.744  25.188  1.00  0.00     0.135 A 
ATOM     94  F   UNL A   1      49.847  25.872  28.720  1.00  0.00    -0.206 F 
ATOM     95  C   UNL A   1      51.564  25.568  27.149  1.00  0.00     0.059 A 
ATOM     96  C   UNL A   1      51.240  26.281  24.850  1.00  0.00     0.059 A 
ATOM     97  F   UNL A   1      49.228  27.306  24.223  1.00  0.00    -0.206 F 
ATOM     98  C   UNL A   1      52.034  25.705  25.842  1.00  0.00     0.060 A 
BRANCH  98  99
ATOM     99  S   UNL A   1      53.686  25.093  25.446  1.00  0.00     0.124 S 
ATOM    100  O   UNL A   1      53.448  23.659  25.334  1.00  0.00    -0.237 OA
ATOM    101  O   UNL A   1      53.984  25.786  24.196  1.00  0.00    -0.237 OA
ATOM    102  O   UNL A   1      54.487  25.510  26.593  1.00  0.00    -0.744 OA
ENDBRANCH  98  99
ENDBRANCH  66  91
ENDBRANCH  40  41
ENDBRANCH  32  35
ENDBRANCH  30  31
ENDBRANCH   1  30
TORSDOF 16
ENDMDL
MODEL 3
REMARK VINA RESULT:     -12.3      5.111     10.739
REMARK SMILES CCc1ccc(-c2cc(Cl)cc3c2O[C@H](C(F)(F)F)C(C(=O)NCCCNC(=O)c2ccc(-c4c5nc(c(-c6c(F)cc(S(=O)(=O)[O-])cc6F)c6ccc([nH]6)c(-c6c(F)cc(S(=O)(=O)[O-])cc6F)c6nc(c(-c7c(F)cc(S(=O)(=O)[O-])cc7F)c7ccc4[nH]7)C=C6)C=C5)cc2)=C3)cc1
REMARK SMILES IDX 25 1 24 2 23 3 21 4 22 5 20 7 7 8 8 9 13 10 9 11 12 12 14 13
REMARK SMILES IDX 10 14 11 15 96 16 15 17 6 18 3 19 4 20 98 21 5 22 97 23 2 24
REMARK SMILES IDX 1 25 16 26 17 27 18 28 19 29 26 30 27 31 28 32 29 34 30 35
REMARK SMILES IDX 31 36 95 37 32 38 94 39 33 40 34 41 35 42 88 43 36 44 93 45
REMARK SMILES IDX 87 46 89 47 37 48 92 49 86 50 85 51 38 53 72 54 51 55 71 56
REMARK SMILES IDX 52 57 55 58 70 59 90 60 53 61 54 62 69 64 91 65 56 66 39 67
REMARK SMILES IDX 40 68 49 69 41 70 42 71 48 72 50 73 43 74 44 75 45 76 46 77
REMARK SMILES IDX 47 78 73 79 74 80 83 81 75 82 76 83 82 84 84 85 77 86 78 87
REMARK SMILES IDX 79 88 80 89 81 90 57 91 58 92 67 93 59 94 60 95 66 96 68 97
REMARK SMILES IDX 61 98 62 99 63 100 64 101 65 102
REMARK H PARENT 23 6 27 33 89 52 55 63
REMARK Flexibility Score: inf
ROOT
ATOM      1  C   UNL A   1      37.500  22.895  25.970  1.00  0.00     0.042 C 
ENDROOT
BRANCH   1   2
ATOM      2  C   UNL A   1      35.998  23.175  25.884  1.00  0.00     0.118 C 
BRANCH   2   3
ATOM      3  N   UNL A   1      35.753  24.320  25.029  1.00  0.00    -0.352 N 
ATOM      4  C   UNL A   1      34.706  24.494  24.186  1.00  0.00     0.251 C 
ATOM      5  O   UNL A   1      34.885  24.994  23.082  1.00  0.00    -0.270 OA
ATOM      6  H   UNL A   1      36.416  25.046  25.064  1.00  0.00     0.163 HD
BRANCH   4   7
ATOM      7  C   UNL A   1      33.344  24.201  24.727  1.00  0.00     0.067 C 
ATOM      8  C   UNL A   1      31.749  27.952  24.690  1.00  0.00     0.026 A 
ATOM      9  C   UNL A   1      32.720  28.837  25.225  1.00  0.00     0.033 A 
ATOM     10  C   UNL A   1      31.989  26.579  24.871  1.00  0.00     0.135 A 
ATOM     11  C   UNL A   1      33.765  28.398  26.035  1.00  0.00     0.042 A 
ATOM     12  C   UNL A   1      32.982  26.162  25.789  1.00  0.00     0.019 A 
ATOM     13  O   UNL A   1      31.317  25.595  24.159  1.00  0.00    -0.475 OA
ATOM     14  Cl  UNL A   1      34.905  29.530  26.645  1.00  0.00    -0.084 Cl
ATOM     15  C   UNL A   1      33.862  27.063  26.380  1.00  0.00     0.032 A 
ATOM     16  C   UNL A   1      33.185  24.707  25.967  1.00  0.00     0.025 C 
ATOM     17  C   UNL A   1      32.199  24.461  23.754  1.00  0.00     0.314 C 
BRANCH   8  18
ATOM     18  C   UNL A   1      30.488  28.597  24.237  1.00  0.00    -0.015 A 
ATOM     19  C   UNL A   1      28.804  30.060  22.456  1.00  0.00    -0.048 A 
ATOM     20  C   UNL A   1      28.793  28.662  22.462  1.00  0.00     0.004 A 
ATOM     21  C   UNL A   1      29.540  30.709  23.457  1.00  0.00     0.004 A 
ATOM     22  C   UNL A   1      29.614  27.942  23.346  1.00  0.00     0.009 A 
ATOM     23  C   UNL A   1      30.365  29.991  24.338  1.00  0.00     0.009 A 
BRANCH  19  24
ATOM     24  C   UNL A   1      28.049  30.888  21.437  1.00  0.00     0.032 C 
ATOM     25  C   UNL A   1      28.267  32.400  21.498  1.00  0.00     0.009 C 
ENDBRANCH  19  24
ENDBRANCH   8  18
BRANCH  17  26
ATOM     26  C   UNL A   1      31.397  23.152  23.582  1.00  0.00     0.429 C 
ATOM     27  F   UNL A   1      30.159  23.361  23.079  1.00  0.00    -0.167 F 
ATOM     28  F   UNL A   1      32.035  22.291  22.753  1.00  0.00    -0.167 F 
ATOM     29  F   UNL A   1      31.225  22.489  24.757  1.00  0.00    -0.167 F 
ENDBRANCH  17  26
ENDBRANCH   4   7
ENDBRANCH   2   3
ENDBRANCH   1   2
BRANCH   1  30
ATOM     30  C   UNL A   1      38.345  24.076  26.443  1.00  0.00     0.118 C 
BRANCH  30  31
ATOM     31  N   UNL A   1      39.756  23.936  26.123  1.00  0.00    -0.352 N 
ATOM     32  C   UNL A   1      40.814  24.723  26.513  1.00  0.00     0.251 C 
ATOM     33  H   UNL A   1      39.987  23.173  25.546  1.00  0.00     0.163 HD
ATOM     34  O   UNL A   1      41.927  24.539  26.026  1.00  0.00    -0.269 OA
BRANCH  32  35
ATOM     35  C   UNL A   1      40.598  25.807  27.495  1.00  0.00     0.039 A 
ATOM     36  C   UNL A   1      39.666  25.618  28.516  1.00  0.00     0.014 A 
ATOM     37  C   UNL A   1      41.332  26.994  27.422  1.00  0.00     0.014 A 
ATOM     38  C   UNL A   1      39.523  26.590  29.509  1.00  0.00     0.010 A 
ATOM     39  C   UNL A   1      41.245  27.924  28.454  1.00  0.00     0.010 A 
ATOM     40  C   UNL A   1      40.341  27.733  29.510  1.00  0.00    -0.014 A 
BRANCH  40  41
ATOM     41  C   UNL A   1      40.271  28.732  30.609  1.00  0.00     0.031 A 
ATOM     42  C   UNL A   1      41.157  28.589  31.819  1.00  0.00     0.074 A 
ATOM     43  C   UNL A   1      39.364  29.729  30.550  1.00  0.00     0.049 A 
ATOM     44  N   UNL A   1      41.186  29.309  32.910  1.00  0.00    -0.248 NA
ATOM     45  C   UNL A   1      42.115  27.471  31.813  1.00  0.00     0.031 C 
ATOM     46  C   UNL A   1      38.412  29.943  29.457  1.00  0.00     0.029 A 
ATOM     47  N   UNL A   1      39.083  30.741  31.434  1.00  0.00    -0.354 N 
ATOM     48  C   UNL A   1      42.149  28.724  33.726  1.00  0.00     0.074 A 
ATOM     49  C   UNL A   1      42.641  27.558  33.026  1.00  0.00     0.031 C 
ATOM     50  C   UNL A   1      37.671  31.031  29.724  1.00  0.00     0.029 A 
ATOM     51  C   UNL A   1      38.064  31.569  31.023  1.00  0.00     0.049 A 
ATOM     52  H   UNL A   1      39.566  30.863  32.283  1.00  0.00     0.167 HD
ATOM     53  C   UNL A   1      42.599  29.135  34.934  1.00  0.00     0.037 A 
ATOM     54  C   UNL A   1      37.502  32.634  31.627  1.00  0.00     0.037 A 
ATOM     55  C   UNL A   1      42.128  30.316  35.610  1.00  0.00     0.049 A 
ATOM     56  C   UNL A   1      38.024  33.075  32.968  1.00  0.00     0.074 A 
ATOM     57  C   UNL A   1      42.565  30.853  36.808  1.00  0.00     0.029 A 
ATOM     58  N   UNL A   1      41.114  31.142  35.149  1.00  0.00    -0.354 N 
ATOM     59  N   UNL A   1      38.981  32.546  33.694  1.00  0.00    -0.248 NA
ATOM     60  C   UNL A   1      37.396  34.259  33.570  1.00  0.00     0.031 C 
ATOM     61  C   UNL A   1      41.785  31.978  37.094  1.00  0.00     0.029 A 
ATOM     62  C   UNL A   1      40.898  32.174  36.048  1.00  0.00     0.049 A 
ATOM     63  H   UNL A   1      40.621  31.015  34.307  1.00  0.00     0.167 HD
ATOM     64  C   UNL A   1      39.089  33.350  34.824  1.00  0.00     0.074 A 
ATOM     65  C   UNL A   1      38.108  34.407  34.679  1.00  0.00     0.031 C 
ATOM     66  C   UNL A   1      39.924  33.225  35.884  1.00  0.00     0.037 A 
BRANCH  53  67
ATOM     67  C   UNL A   1      43.665  28.309  35.603  1.00  0.00     0.058 A 
ATOM     68  C   UNL A   1      43.344  27.269  36.490  1.00  0.00     0.135 A 
ATOM     69  C   UNL A   1      45.023  28.532  35.322  1.00  0.00     0.135 A 
ATOM     70  F   UNL A   1      42.063  27.022  36.806  1.00  0.00    -0.206 F 
ATOM     71  C   UNL A   1      44.330  26.498  37.096  1.00  0.00     0.059 A 
ATOM     72  C   UNL A   1      46.026  27.752  35.894  1.00  0.00     0.059 A 
ATOM     73  F   UNL A   1      45.388  29.513  34.482  1.00  0.00    -0.206 F 
ATOM     74  C   UNL A   1      45.669  26.746  36.790  1.00  0.00     0.060 A 
BRANCH  74  75
ATOM     75  S   UNL A   1      46.934  25.727  37.576  1.00  0.00     0.124 S 
ATOM     76  O   UNL A   1      46.468  25.700  38.959  1.00  0.00    -0.237 OA
ATOM     77  O   UNL A   1      46.820  24.469  36.844  1.00  0.00    -0.237 OA
ATOM     78  O   UNL A   1      48.167  26.474  37.343  1.00  0.00    -0.744 OA
ENDBRANCH  74  75
ENDBRANCH  53  67
BRANCH  54  79
ATOM     79  C   UNL A   1      36.395  33.372  30.960  1.00  0.00     0.058 A 
ATOM     80  C   UNL A   1      35.079  33.287  31.438  1.00  0.00     0.135 A 
ATOM     81  C   UNL A   1      36.629  34.179  29.835  1.00  0.00     0.135 A 
ATOM     82  F   UNL A   1      34.803  32.523  32.507  1.00  0.00    -0.206 F 
ATOM     83  C   UNL A   1      34.031  33.958  30.817  1.00  0.00     0.059 A 
ATOM     84  C   UNL A   1      35.601  34.882  29.211  1.00  0.00     0.059 A 
ATOM     85  F   UNL A   1      37.873  34.309  29.347  1.00  0.00    -0.206 F 
ATOM     86  C   UNL A   1      34.303  34.755  29.704  1.00  0.00     0.060 A 
BRANCH  86  87
ATOM     87  S   UNL A   1      32.943  35.655  28.928  1.00  0.00     0.124 S 
ATOM     88  O   UNL A   1      32.356  34.625  28.078  1.00  0.00    -0.237 OA
ATOM     89  O   UNL A   1      32.147  36.060  30.082  1.00  0.00    -0.237 OA
ATOM     90  O   UNL A   1      33.617  36.744  28.229  1.00  0.00    -0.744 OA
ENDBRANCH  86  87
ENDBRANCH  54  79
BRANCH  66  91
ATOM     91  C   UNL A   1      39.846  34.277  36.957  1.00  0.00     0.058 A 
ATOM     92  C   UNL A   1      40.479  35.522  36.818  1.00  0.00     0.135 A 
ATOM     93  C   UNL A   1      39.081  34.054  38.114  1.00  0.00     0.135 A 
ATOM     94  F   UNL A   1      41.228  35.783  35.735  1.00  0.00    -0.206 F 
ATOM     95  C   UNL A   1      40.375  36.501  37.800  1.00  0.00     0.059 A 
ATOM     96  C   UNL A   1      38.939  35.031  39.094  1.00  0.00     0.059 A 
ATOM     97  F   UNL A   1      38.447  32.885  38.290  1.00  0.00    -0.206 F 
ATOM     98  C   UNL A   1      39.601  36.248  38.934  1.00  0.00     0.060 A 
BRANCH  98  99
ATOM     99  S   UNL A   1      39.446  37.541  40.184  1.00  0.00     0.124 S 
ATOM    100  O   UNL A   1      38.467  38.429  39.568  1.00  0.00    -0.237 OA
ATOM    101  O   UNL A   1      38.978  36.794  41.349  1.00  0.00    -0.237 OA
ATOM    102  O   UNL A   1      40.800  38.074  40.292  1.00  0.00    -0.744 OA
ENDBRANCH  98  99
ENDBRANCH  66  91
ENDBRANCH  40  41
ENDBRANCH  32  35
ENDBRANCH  30  31
ENDBRANCH   1  30
TORSDOF 16
ENDMDL
