MODEL 1
REMARK VINA RESULT:     -11.4      0.000      0.000
REMARK SMILES CCc1cc(OC(F)(F)F)cc2c1O[C@@H](C(F)(F)F)C(C(=O)NCCCNC(=O)c1ccc(-c3c4nc(c(-c5c(F)cc(S(=O)(=O)[O-])cc5F)c5ccc([nH]5)c(-c5c(F)cc(S(=O)(=O)[O-])cc5F)c5nc(c(-c6c(F)cc(S(=O)(=O)[O-])cc6F)c6ccc3[nH]6)C=C5)C=C4)cc1)=C2
REMARK SMILES IDX 25 1 24 2 23 3 21 4 22 5 20 7 3 8 4 9 13 10 5 11 12 12 14 13
REMARK SMILES IDX 11 14 96 15 15 16 2 17 1 18 6 19 7 20 8 21 9 22 10 23 16 24
REMARK SMILES IDX 17 25 18 26 19 27 26 28 27 29 28 30 29 32 30 33 31 34 95 35
REMARK SMILES IDX 32 36 94 37 33 38 34 39 35 40 88 41 36 42 93 43 87 44 89 45
REMARK SMILES IDX 37 46 92 47 86 48 85 49 38 51 72 52 51 53 71 54 52 55 55 56
REMARK SMILES IDX 70 57 90 58 53 59 54 60 69 62 91 63 56 64 39 65 40 66 49 67
REMARK SMILES IDX 41 68 42 69 48 70 50 71 43 72 44 73 45 74 46 75 47 76 73 77
REMARK SMILES IDX 74 78 83 79 75 80 76 81 82 82 84 83 77 84 78 85 79 86 80 87
REMARK SMILES IDX 81 88 57 89 58 90 67 91 59 92 60 93 66 94 68 95 61 96 62 97
REMARK SMILES IDX 63 98 64 99 65 100
REMARK H PARENT 23 6 27 31 89 50 55 61
REMARK Flexibility Score: inf
ROOT
ATOM      1  C   UNL A   1      33.849  28.051  25.511  1.00  0.00     0.042 C 
ENDROOT
BRANCH   1   2
ATOM      2  C   UNL A   1      32.534  27.567  24.893  1.00  0.00     0.118 C 
BRANCH   2   3
ATOM      3  N   UNL A   1      32.662  27.440  23.449  1.00  0.00    -0.352 N 
ATOM      4  C   UNL A   1      33.201  26.492  22.641  1.00  0.00     0.251 C 
ATOM      5  O   UNL A   1      33.276  26.741  21.440  1.00  0.00    -0.270 OA
ATOM      6  H   UNL A   1      32.276  28.200  22.956  1.00  0.00     0.163 HD
BRANCH   4   7
ATOM      7  C   UNL A   1      33.631  25.153  23.126  1.00  0.00     0.067 C 
ATOM      8  C   UNL A   1      34.537  21.329  24.655  1.00  0.00    -0.002 A 
ATOM      9  C   UNL A   1      35.852  21.077  25.098  1.00  0.00     0.054 A 
ATOM     10  C   UNL A   1      34.227  22.595  24.129  1.00  0.00     0.131 A 
ATOM     11  C   UNL A   1      36.833  22.068  25.038  1.00  0.00     0.130 A 
ATOM     12  C   UNL A   1      35.213  23.576  24.037  1.00  0.00     0.021 A 
ATOM     13  O   UNL A   1      32.931  22.841  23.782  1.00  0.00    -0.475 OA
ATOM     14  C   UNL A   1      36.508  23.310  24.495  1.00  0.00     0.058 A 
ATOM     15  C   UNL A   1      34.881  24.899  23.537  1.00  0.00     0.025 C 
ATOM     16  C   UNL A   1      32.623  24.017  22.977  1.00  0.00     0.314 C 
BRANCH   8  17
ATOM     17  C   UNL A   1      33.509  20.219  24.718  1.00  0.00     0.036 C 
ATOM     18  C   UNL A   1      34.099  18.831  24.512  1.00  0.00     0.009 C 
ENDBRANCH   8  17
BRANCH  11  19
ATOM     19  O   UNL A   1      38.123  21.966  25.469  1.00  0.00    -0.406 OA
BRANCH  19  20
ATOM     20  C   UNL A   1      38.615  22.969  26.340  1.00  0.00     0.573 C 
ATOM     21  F   UNL A   1      37.601  23.622  26.952  1.00  0.00    -0.132 F 
ATOM     22  F   UNL A   1      39.435  22.442  27.275  1.00  0.00    -0.132 F 
ATOM     23  F   UNL A   1      39.316  23.870  25.619  1.00  0.00    -0.132 F 
ENDBRANCH  19  20
ENDBRANCH  11  19
BRANCH  16  24
ATOM     24  C   UNL A   1      31.140  24.364  23.247  1.00  0.00     0.429 C 
ATOM     25  F   UNL A   1      30.646  25.287  22.394  1.00  0.00    -0.167 F 
ATOM     26  F   UNL A   1      30.349  23.267  23.081  1.00  0.00    -0.167 F 
ATOM     27  F   UNL A   1      30.931  24.798  24.512  1.00  0.00    -0.167 F 
ENDBRANCH  16  24
ENDBRANCH   4   7
ENDBRANCH   2   3
ENDBRANCH   1   2
BRANCH   1  28
ATOM     28  C   UNL A   1      33.758  28.268  27.020  1.00  0.00     0.118 C 
BRANCH  28  29
ATOM     29  N   UNL A   1      33.634  29.680  27.354  1.00  0.00    -0.352 N 
ATOM     30  C   UNL A   1      34.496  30.498  28.043  1.00  0.00     0.251 C 
ATOM     31  H   UNL A   1      32.809  30.113  27.039  1.00  0.00     0.163 HD
ATOM     32  O   UNL A   1      34.101  31.589  28.440  1.00  0.00    -0.269 OA
BRANCH  30  33
ATOM     33  C   UNL A   1      35.885  30.066  28.311  1.00  0.00     0.039 A 
ATOM     34  C   UNL A   1      36.821  30.110  27.272  1.00  0.00     0.014 A 
ATOM     35  C   UNL A   1      36.257  29.581  29.568  1.00  0.00     0.014 A 
ATOM     36  C   UNL A   1      38.141  29.718  27.511  1.00  0.00     0.010 A 
ATOM     37  C   UNL A   1      37.587  29.257  29.821  1.00  0.00     0.010 A 
ATOM     38  C   UNL A   1      38.543  29.318  28.795  1.00  0.00    -0.014 A 
BRANCH  38  39
ATOM     39  C   UNL A   1      39.953  28.960  29.092  1.00  0.00     0.031 A 
ATOM     40  C   UNL A   1      40.896  30.001  29.635  1.00  0.00     0.074 A 
ATOM     41  C   UNL A   1      40.404  27.725  28.793  1.00  0.00     0.049 A 
ATOM     42  N   UNL A   1      42.184  29.918  29.844  1.00  0.00    -0.248 NA
ATOM     43  C   UNL A   1      40.319  31.315  29.962  1.00  0.00     0.031 C 
ATOM     44  C   UNL A   1      39.595  26.645  28.221  1.00  0.00     0.029 A 
ATOM     45  N   UNL A   1      41.656  27.174  28.905  1.00  0.00    -0.354 N 
ATOM     46  C   UNL A   1      42.576  31.173  30.301  1.00  0.00     0.074 A 
ATOM     47  C   UNL A   1      41.396  32.008  30.302  1.00  0.00     0.031 C 
ATOM     48  C   UNL A   1      40.369  25.564  28.038  1.00  0.00     0.029 A 
ATOM     49  C   UNL A   1      41.736  25.882  28.438  1.00  0.00     0.049 A 
ATOM     50  H   UNL A   1      42.425  27.658  29.285  1.00  0.00     0.167 HD
ATOM     51  C   UNL A   1      43.805  31.581  30.699  1.00  0.00     0.037 A 
ATOM     52  C   UNL A   1      42.794  25.056  28.325  1.00  0.00     0.037 A 
ATOM     53  C   UNL A   1      44.964  30.729  30.728  1.00  0.00     0.049 A 
ATOM     54  C   UNL A   1      44.147  25.533  28.781  1.00  0.00     0.074 A 
ATOM     55  C   UNL A   1      46.237  31.027  31.182  1.00  0.00     0.029 A 
ATOM     56  N   UNL A   1      44.996  29.414  30.286  1.00  0.00    -0.354 N 
ATOM     57  N   UNL A   1      44.484  26.701  29.275  1.00  0.00    -0.248 NA
ATOM     58  C   UNL A   1      45.262  24.582  28.672  1.00  0.00     0.031 C 
ATOM     59  C   UNL A   1      47.051  29.910  30.970  1.00  0.00     0.029 A 
ATOM     60  C   UNL A   1      46.271  28.896  30.436  1.00  0.00     0.049 A 
ATOM     61  H   UNL A   1      44.226  28.923  29.919  1.00  0.00     0.167 HD
ATOM     62  C   UNL A   1      45.842  26.613  29.564  1.00  0.00     0.074 A 
ATOM     63  C   UNL A   1      46.262  25.277  29.199  1.00  0.00     0.031 C 
ATOM     64  C   UNL A   1      46.667  27.555  30.084  1.00  0.00     0.037 A 
BRANCH  51  65
ATOM     65  C   UNL A   1      43.966  33.009  31.144  1.00  0.00     0.058 A 
ATOM     66  C   UNL A   1      43.780  33.390  32.482  1.00  0.00     0.135 A 
ATOM     67  C   UNL A   1      44.378  33.995  30.234  1.00  0.00     0.135 A 
ATOM     68  F   UNL A   1      43.371  32.492  33.392  1.00  0.00    -0.206 F 
ATOM     69  C   UNL A   1      43.983  34.702  32.899  1.00  0.00     0.059 A 
ATOM     70  C   UNL A   1      44.614  35.308  30.634  1.00  0.00     0.059 A 
ATOM     71  F   UNL A   1      44.569  33.685  28.941  1.00  0.00    -0.206 F 
ATOM     72  C   UNL A   1      44.405  35.653  31.968  1.00  0.00     0.060 A 
BRANCH  72  73
ATOM     73  S   UNL A   1      44.694  37.343  32.534  1.00  0.00     0.124 S 
ATOM     74  O   UNL A   1      46.136  37.470  32.344  1.00  0.00    -0.237 OA
ATOM     75  O   UNL A   1      43.865  38.123  31.620  1.00  0.00    -0.237 OA
ATOM     76  O   UNL A   1      44.244  37.320  33.921  1.00  0.00    -0.744 OA
ENDBRANCH  72  73
ENDBRANCH  51  65
BRANCH  52  77
ATOM     77  C   UNL A   1      42.620  23.693  27.756  1.00  0.00     0.058 A 
ATOM     78  C   UNL A   1      42.493  22.570  28.588  1.00  0.00     0.135 A 
ATOM     79  C   UNL A   1      42.582  23.482  26.368  1.00  0.00     0.135 A 
ATOM     80  F   UNL A   1      42.528  22.718  29.921  1.00  0.00    -0.206 F 
ATOM     81  C   UNL A   1      42.365  21.286  28.068  1.00  0.00     0.059 A 
ATOM     82  C   UNL A   1      42.426  22.211  25.824  1.00  0.00     0.059 A 
ATOM     83  F   UNL A   1      42.678  24.523  25.526  1.00  0.00    -0.206 F 
ATOM     84  C   UNL A   1      42.334  21.117  26.683  1.00  0.00     0.060 A 
BRANCH  84  85
ATOM     85  S   UNL A   1      42.141  19.450  26.017  1.00  0.00     0.124 S 
ATOM     86  O   UNL A   1      42.641  18.635  27.116  1.00  0.00    -0.237 OA
ATOM     87  O   UNL A   1      40.702  19.383  25.774  1.00  0.00    -0.237 OA
ATOM     88  O   UNL A   1      42.970  19.471  24.815  1.00  0.00    -0.744 OA
ENDBRANCH  84  85
ENDBRANCH  52  77
BRANCH  64  89
ATOM     89  C   UNL A   1      48.097  27.166  30.337  1.00  0.00     0.058 A 
ATOM     90  C   UNL A   1      49.092  27.331  29.362  1.00  0.00     0.135 A 
ATOM     91  C   UNL A   1      48.487  26.688  31.600  1.00  0.00     0.135 A 
ATOM     92  F   UNL A   1      48.771  27.777  28.137  1.00  0.00    -0.206 F 
ATOM     93  C   UNL A   1      50.423  27.021  29.624  1.00  0.00     0.059 A 
ATOM     94  C   UNL A   1      49.816  26.399  31.891  1.00  0.00     0.059 A 
ATOM     95  F   UNL A   1      47.576  26.522  32.570  1.00  0.00    -0.206 F 
ATOM     96  C   UNL A   1      50.776  26.561  30.894  1.00  0.00     0.060 A 
BRANCH  96  97
ATOM     97  S   UNL A   1      52.513  26.211  31.235  1.00  0.00     0.124 S 
ATOM     98  O   UNL A   1      52.430  24.903  31.875  1.00  0.00    -0.237 OA
ATOM     99  O   UNL A   1      53.103  26.229  29.899  1.00  0.00    -0.237 OA
ATOM    100  O   UNL A   1      52.917  27.311  32.106  1.00  0.00    -0.744 OA
ENDBRANCH  96  97
ENDBRANCH  64  89
ENDBRANCH  38  39
ENDBRANCH  30  33
ENDBRANCH  28  29
ENDBRANCH   1  28
TORSDOF 17
ENDMDL
MODEL 2
REMARK VINA RESULT:     -11.3      4.964     10.416
REMARK SMILES CCc1cc(OC(F)(F)F)cc2c1O[C@@H](C(F)(F)F)C(C(=O)NCCCNC(=O)c1ccc(-c3c4nc(c(-c5c(F)cc(S(=O)(=O)[O-])cc5F)c5ccc([nH]5)c(-c5c(F)cc(S(=O)(=O)[O-])cc5F)c5nc(c(-c6c(F)cc(S(=O)(=O)[O-])cc6F)c6ccc3[nH]6)C=C5)C=C4)cc1)=C2
REMARK SMILES IDX 25 1 24 2 23 3 21 4 22 5 20 7 3 8 4 9 13 10 5 11 12 12 14 13
REMARK SMILES IDX 11 14 96 15 15 16 2 17 1 18 6 19 7 20 8 21 9 22 10 23 16 24
REMARK SMILES IDX 17 25 18 26 19 27 26 28 27 29 28 30 29 32 30 33 31 34 95 35
REMARK SMILES IDX 32 36 94 37 33 38 34 39 35 40 88 41 36 42 93 43 87 44 89 45
REMARK SMILES IDX 37 46 92 47 86 48 85 49 38 51 72 52 51 53 71 54 52 55 55 56
REMARK SMILES IDX 70 57 90 58 53 59 54 60 69 62 91 63 56 64 39 65 40 66 49 67
REMARK SMILES IDX 41 68 42 69 48 70 50 71 43 72 44 73 45 74 46 75 47 76 73 77
REMARK SMILES IDX 74 78 83 79 75 80 76 81 82 82 84 83 77 84 78 85 79 86 80 87
REMARK SMILES IDX 81 88 57 89 58 90 67 91 59 92 60 93 66 94 68 95 61 96 62 97
REMARK SMILES IDX 63 98 64 99 65 100
REMARK H PARENT 23 6 27 31 89 50 55 61
REMARK Flexibility Score: inf
ROOT
ATOM      1  C   UNL A   1      37.512  23.132  25.750  1.00  0.00     0.042 C 
ENDROOT
BRANCH   1   2
ATOM      2  C   UNL A   1      36.362  23.804  24.993  1.00  0.00     0.118 C 
BRANCH   2   3
ATOM      3  N   UNL A   1      35.125  23.062  25.176  1.00  0.00    -0.352 N 
ATOM      4  C   UNL A   1      33.834  23.436  25.370  1.00  0.00     0.251 C 
ATOM      5  O   UNL A   1      33.017  22.555  25.630  1.00  0.00    -0.270 OA
ATOM      6  H   UNL A   1      35.248  22.085  25.154  1.00  0.00     0.163 HD
BRANCH   4   7
ATOM      7  C   UNL A   1      33.355  24.836  25.209  1.00  0.00     0.067 C 
ATOM      8  C   UNL A   1      32.096  28.781  24.419  1.00  0.00    -0.002 A 
ATOM      9  C   UNL A   1      32.296  29.762  25.412  1.00  0.00     0.054 A 
ATOM     10  C   UNL A   1      32.497  27.459  24.677  1.00  0.00     0.131 A 
ATOM     11  C   UNL A   1      32.901  29.441  26.628  1.00  0.00     0.130 A 
ATOM     12  C   UNL A   1      33.072  27.129  25.903  1.00  0.00     0.021 A 
ATOM     13  O   UNL A   1      32.367  26.546  23.673  1.00  0.00    -0.475 OA
ATOM     14  C   UNL A   1      33.274  28.119  26.870  1.00  0.00     0.058 A 
ATOM     15  C   UNL A   1      33.529  25.772  26.152  1.00  0.00     0.025 C 
ATOM     16  C   UNL A   1      32.496  25.127  23.982  1.00  0.00     0.314 C 
BRANCH   8  17
ATOM     17  C   UNL A   1      31.416  29.168  23.122  1.00  0.00     0.036 C 
ATOM     18  C   UNL A   1      29.913  28.923  23.126  1.00  0.00     0.009 C 
ENDBRANCH   8  17
BRANCH  11  19
ATOM     19  O   UNL A   1      33.189  30.299  27.648  1.00  0.00    -0.406 OA
BRANCH  19  20
ATOM     20  C   UNL A   1      34.487  30.862  27.699  1.00  0.00     0.573 C 
ATOM     21  F   UNL A   1      34.483  32.140  27.257  1.00  0.00    -0.132 F 
ATOM     22  F   UNL A   1      34.985  30.825  28.953  1.00  0.00    -0.132 F 
ATOM     23  F   UNL A   1      35.306  30.147  26.896  1.00  0.00    -0.132 F 
ENDBRANCH  19  20
ENDBRANCH  11  19
BRANCH  16  24
ATOM     24  C   UNL A   1      32.902  24.421  22.667  1.00  0.00     0.429 C 
ATOM     25  F   UNL A   1      32.450  25.054  21.562  1.00  0.00    -0.167 F 
ATOM     26  F   UNL A   1      34.257  24.392  22.531  1.00  0.00    -0.167 F 
ATOM     27  F   UNL A   1      32.485  23.134  22.619  1.00  0.00    -0.167 F 
ENDBRANCH  16  24
ENDBRANCH   4   7
ENDBRANCH   2   3
ENDBRANCH   1   2
BRANCH   1  28
ATOM     28  C   UNL A   1      38.406  24.127  26.488  1.00  0.00     0.118 C 
BRANCH  28  29
ATOM     29  N   UNL A   1      39.816  23.893  26.207  1.00  0.00    -0.352 N 
ATOM     30  C   UNL A   1      40.915  24.640  26.553  1.00  0.00     0.251 C 
ATOM     31  H   UNL A   1      40.010  23.077  25.694  1.00  0.00     0.163 HD
ATOM     32  O   UNL A   1      41.991  24.413  26.010  1.00  0.00    -0.269 OA
BRANCH  30  33
ATOM     33  C   UNL A   1      40.803  25.714  27.564  1.00  0.00     0.039 A 
ATOM     34  C   UNL A   1      39.778  25.649  28.512  1.00  0.00     0.014 A 
ATOM     35  C   UNL A   1      41.679  26.803  27.554  1.00  0.00     0.014 A 
ATOM     36  C   UNL A   1      39.665  26.647  29.483  1.00  0.00     0.010 A 
ATOM     37  C   UNL A   1      41.608  27.760  28.563  1.00  0.00     0.010 A 
ATOM     38  C   UNL A   1      40.598  27.695  29.536  1.00  0.00    -0.014 A 
BRANCH  38  39
ATOM     39  C   UNL A   1      40.541  28.734  30.596  1.00  0.00     0.031 A 
ATOM     40  C   UNL A   1      41.428  28.621  31.808  1.00  0.00     0.074 A 
ATOM     41  C   UNL A   1      39.634  29.727  30.507  1.00  0.00     0.049 A 
ATOM     42  N   UNL A   1      41.441  29.354  32.891  1.00  0.00    -0.248 NA
ATOM     43  C   UNL A   1      42.410  27.524  31.814  1.00  0.00     0.031 C 
ATOM     44  C   UNL A   1      38.691  29.915  29.402  1.00  0.00     0.029 A 
ATOM     45  N   UNL A   1      39.339  30.753  31.370  1.00  0.00    -0.354 N 
ATOM     46  C   UNL A   1      42.411  28.794  33.716  1.00  0.00     0.074 A 
ATOM     47  C   UNL A   1      42.937  27.639  33.025  1.00  0.00     0.031 C 
ATOM     48  C   UNL A   1      37.928  30.991  29.652  1.00  0.00     0.029 A 
ATOM     49  C   UNL A   1      38.295  31.545  30.950  1.00  0.00     0.049 A 
ATOM     50  H   UNL A   1      39.829  30.908  32.210  1.00  0.00     0.167 HD
ATOM     51  C   UNL A   1      42.834  29.219  34.931  1.00  0.00     0.037 A 
ATOM     52  C   UNL A   1      37.689  32.587  31.553  1.00  0.00     0.037 A 
ATOM     53  C   UNL A   1      42.329  30.393  35.593  1.00  0.00     0.049 A 
ATOM     54  C   UNL A   1      38.184  33.042  32.899  1.00  0.00     0.074 A 
ATOM     55  C   UNL A   1      42.743  30.948  36.792  1.00  0.00     0.029 A 
ATOM     56  N   UNL A   1      41.300  31.193  35.117  1.00  0.00    -0.354 N 
ATOM     57  N   UNL A   1      39.149  32.542  33.634  1.00  0.00    -0.248 NA
ATOM     58  C   UNL A   1      37.515  34.205  33.498  1.00  0.00     0.031 C 
ATOM     59  C   UNL A   1      41.933  32.054  37.065  1.00  0.00     0.029 A 
ATOM     60  C   UNL A   1      41.051  32.222  36.009  1.00  0.00     0.049 A 
ATOM     61  H   UNL A   1      40.818  31.049  34.270  1.00  0.00     0.167 HD
ATOM     62  C   UNL A   1      39.223  33.348  34.765  1.00  0.00     0.074 A 
ATOM     63  C   UNL A   1      38.212  34.373  34.614  1.00  0.00     0.031 C 
ATOM     64  C   UNL A   1      40.052  33.248  35.833  1.00  0.00     0.037 A 
BRANCH  51  65
ATOM     65  C   UNL A   1      43.902  28.420  35.627  1.00  0.00     0.058 A 
ATOM     66  C   UNL A   1      45.267  28.680  35.428  1.00  0.00     0.135 A 
ATOM     67  C   UNL A   1      43.554  27.428  36.558  1.00  0.00     0.135 A 
ATOM     68  F   UNL A   1      45.657  29.608  34.539  1.00  0.00    -0.206 F 
ATOM     69  C   UNL A   1      46.250  27.975  36.116  1.00  0.00     0.059 A 
ATOM     70  C   UNL A   1      44.520  26.728  37.277  1.00  0.00     0.059 A 
ATOM     71  F   UNL A   1      42.263  27.137  36.785  1.00  0.00    -0.206 F 
ATOM     72  C   UNL A   1      45.865  27.003  37.042  1.00  0.00     0.060 A 
BRANCH  72  73
ATOM     73  S   UNL A   1      47.154  26.120  37.948  1.00  0.00     0.124 S 
ATOM     74  O   UNL A   1      46.918  24.744  37.520  1.00  0.00    -0.237 OA
ATOM     75  O   UNL A   1      48.373  26.741  37.438  1.00  0.00    -0.237 OA
ATOM     76  O   UNL A   1      46.845  26.405  39.345  1.00  0.00    -0.744 OA
ENDBRANCH  72  73
ENDBRANCH  51  65
BRANCH  52  77
ATOM     77  C   UNL A   1      36.546  33.272  30.890  1.00  0.00     0.058 A 
ATOM     78  C   UNL A   1      36.740  34.067  29.751  1.00  0.00     0.135 A 
ATOM     79  C   UNL A   1      35.239  33.151  31.386  1.00  0.00     0.135 A 
ATOM     80  F   UNL A   1      37.972  34.218  29.241  1.00  0.00    -0.206 F 
ATOM     81  C   UNL A   1      35.685  34.741  29.143  1.00  0.00     0.059 A 
ATOM     82  C   UNL A   1      34.163  33.793  30.779  1.00  0.00     0.059 A 
ATOM     83  F   UNL A   1      34.993  32.387  32.462  1.00  0.00    -0.206 F 
ATOM     84  C   UNL A   1      34.400  34.599  29.666  1.00  0.00     0.060 A 
BRANCH  84  85
ATOM     85  S   UNL A   1      33.033  35.455  28.855  1.00  0.00     0.124 S 
ATOM     86  O   UNL A   1      32.473  34.395  28.027  1.00  0.00    -0.237 OA
ATOM     87  O   UNL A   1      32.219  35.876  29.992  1.00  0.00    -0.237 OA
ATOM     88  O   UNL A   1      33.696  36.538  28.135  1.00  0.00    -0.744 OA
ENDBRANCH  84  85
ENDBRANCH  52  77
BRANCH  64  89
ATOM     89  C   UNL A   1      39.940  34.296  36.904  1.00  0.00     0.058 A 
ATOM     90  C   UNL A   1      40.658  35.500  36.839  1.00  0.00     0.135 A 
ATOM     91  C   UNL A   1      39.046  34.121  37.974  1.00  0.00     0.135 A 
ATOM     92  F   UNL A   1      41.531  35.713  35.841  1.00  0.00    -0.206 F 
ATOM     93  C   UNL A   1      40.506  36.488  37.806  1.00  0.00     0.059 A 
ATOM     94  C   UNL A   1      38.858  35.108  38.936  1.00  0.00     0.059 A 
ATOM     95  F   UNL A   1      38.328  32.992  38.077  1.00  0.00    -0.206 F 
ATOM     96  C   UNL A   1      39.599  36.285  38.847  1.00  0.00     0.060 A 
BRANCH  96  97
ATOM     97  S   UNL A   1      39.375  37.597  40.067  1.00  0.00     0.124 S 
ATOM     98  O   UNL A   1      39.161  36.830  41.289  1.00  0.00    -0.237 OA
ATOM     99  O   UNL A   1      40.640  38.320  39.983  1.00  0.00    -0.237 OA
ATOM    100  O   UNL A   1      38.210  38.326  39.572  1.00  0.00    -0.744 OA
ENDBRANCH  96  97
ENDBRANCH  64  89
ENDBRANCH  38  39
ENDBRANCH  30  33
ENDBRANCH  28  29
ENDBRANCH   1  28
TORSDOF 17
ENDMDL
MODEL 3
REMARK VINA RESULT:     -10.9      2.617      3.706
REMARK SMILES CCc1cc(OC(F)(F)F)cc2c1O[C@@H](C(F)(F)F)C(C(=O)NCCCNC(=O)c1ccc(-c3c4nc(c(-c5c(F)cc(S(=O)(=O)[O-])cc5F)c5ccc([nH]5)c(-c5c(F)cc(S(=O)(=O)[O-])cc5F)c5nc(c(-c6c(F)cc(S(=O)(=O)[O-])cc6F)c6ccc3[nH]6)C=C5)C=C4)cc1)=C2
REMARK SMILES IDX 25 1 24 2 23 3 21 4 22 5 20 7 3 8 4 9 13 10 5 11 12 12 14 13
REMARK SMILES IDX 11 14 96 15 15 16 2 17 1 18 6 19 7 20 8 21 9 22 10 23 16 24
REMARK SMILES IDX 17 25 18 26 19 27 26 28 27 29 28 30 29 32 30 33 31 34 95 35
REMARK SMILES IDX 32 36 94 37 33 38 34 39 35 40 88 41 36 42 93 43 87 44 89 45
REMARK SMILES IDX 37 46 92 47 86 48 85 49 38 51 72 52 51 53 71 54 52 55 55 56
REMARK SMILES IDX 70 57 90 58 53 59 54 60 69 62 91 63 56 64 39 65 40 66 49 67
REMARK SMILES IDX 41 68 42 69 48 70 50 71 43 72 44 73 45 74 46 75 47 76 73 77
REMARK SMILES IDX 74 78 83 79 75 80 76 81 82 82 84 83 77 84 78 85 79 86 80 87
REMARK SMILES IDX 81 88 57 89 58 90 67 91 59 92 60 93 66 94 68 95 61 96 62 97
REMARK SMILES IDX 63 98 64 99 65 100
REMARK H PARENT 23 6 27 31 89 50 55 61
REMARK Flexibility Score: inf
ROOT
ATOM      1  C   UNL A   1      35.008  29.661  27.280  1.00  0.00     0.042 C 
ENDROOT
BRANCH   1   2
ATOM      2  C   UNL A   1      33.682  29.869  26.544  1.00  0.00     0.118 C 
BRANCH   2   3
ATOM      3  N   UNL A   1      32.601  29.175  27.228  1.00  0.00    -0.352 N 
ATOM      4  C   UNL A   1      31.975  27.989  27.016  1.00  0.00     0.251 C 
ATOM      5  O   UNL A   1      30.986  27.736  27.702  1.00  0.00    -0.270 OA
ATOM      6  H   UNL A   1      32.253  29.666  28.006  1.00  0.00     0.163 HD
BRANCH   4   7
ATOM      7  C   UNL A   1      32.466  26.964  26.057  1.00  0.00     0.067 C 
ATOM      8  C   UNL A   1      33.534  24.045  23.208  1.00  0.00    -0.002 A 
ATOM      9  C   UNL A   1      34.455  23.045  23.584  1.00  0.00     0.054 A 
ATOM     10  C   UNL A   1      33.183  25.032  24.144  1.00  0.00     0.131 A 
ATOM     11  C   UNL A   1      34.998  23.014  24.869  1.00  0.00     0.130 A 
ATOM     12  C   UNL A   1      33.749  25.023  25.417  1.00  0.00     0.021 A 
ATOM     13  O   UNL A   1      32.232  25.941  23.785  1.00  0.00    -0.475 OA
ATOM     14  C   UNL A   1      34.650  24.015  25.775  1.00  0.00     0.058 A 
ATOM     15  C   UNL A   1      33.350  26.017  26.400  1.00  0.00     0.025 C 
ATOM     16  C   UNL A   1      32.048  27.136  24.599  1.00  0.00     0.314 C 
BRANCH   8  17
ATOM     17  C   UNL A   1      32.985  24.053  21.797  1.00  0.00     0.036 C 
ATOM     18  C   UNL A   1      32.951  25.439  21.165  1.00  0.00     0.009 C 
ENDBRANCH   8  17
BRANCH  11  19
ATOM     19  O   UNL A   1      35.861  22.082  25.368  1.00  0.00    -0.406 OA
BRANCH  19  20
ATOM     20  C   UNL A   1      37.234  22.204  25.042  1.00  0.00     0.573 C 
ATOM     21  F   UNL A   1      38.014  21.979  26.123  1.00  0.00    -0.132 F 
ATOM     22  F   UNL A   1      37.577  21.346  24.057  1.00  0.00    -0.132 F 
ATOM     23  F   UNL A   1      37.472  23.462  24.611  1.00  0.00    -0.132 F 
ENDBRANCH  19  20
ENDBRANCH  11  19
BRANCH  16  24
ATOM     24  C   UNL A   1      30.604  27.629  24.345  1.00  0.00     0.429 C 
ATOM     25  F   UNL A   1      30.430  28.937  24.635  1.00  0.00    -0.167 F 
ATOM     26  F   UNL A   1      30.278  27.511  23.027  1.00  0.00    -0.167 F 
ATOM     27  F   UNL A   1      29.683  26.915  25.032  1.00  0.00    -0.167 F 
ENDBRANCH  16  24
ENDBRANCH   4   7
ENDBRANCH   2   3
ENDBRANCH   1   2
BRANCH   1  28
ATOM     28  C   UNL A   1      35.566  30.947  27.887  1.00  0.00     0.118 C 
BRANCH  28  29
ATOM     29  N   UNL A   1      35.435  30.957  29.337  1.00  0.00    -0.352 N 
ATOM     30  C   UNL A   1      36.300  30.496  30.299  1.00  0.00     0.251 C 
ATOM     31  H   UNL A   1      34.603  31.355  29.679  1.00  0.00     0.163 HD
ATOM     32  O   UNL A   1      35.902  30.364  31.452  1.00  0.00    -0.269 OA
BRANCH  30  33
ATOM     33  C   UNL A   1      37.696  30.152  29.949  1.00  0.00     0.039 A 
ATOM     34  C   UNL A   1      38.585  29.807  30.971  1.00  0.00     0.014 A 
ATOM     35  C   UNL A   1      38.139  30.210  28.625  1.00  0.00     0.014 A 
ATOM     36  C   UNL A   1      39.904  29.467  30.658  1.00  0.00     0.010 A 
ATOM     37  C   UNL A   1      39.434  29.805  28.308  1.00  0.00     0.010 A 
ATOM     38  C   UNL A   1      40.331  29.433  29.321  1.00  0.00    -0.014 A 
BRANCH  38  39
ATOM     39  C   UNL A   1      41.707  29.012  28.955  1.00  0.00     0.031 A 
ATOM     40  C   UNL A   1      42.816  30.029  28.899  1.00  0.00     0.074 A 
ATOM     41  C   UNL A   1      41.938  27.735  28.592  1.00  0.00     0.049 A 
ATOM     42  N   UNL A   1      44.048  29.884  28.487  1.00  0.00    -0.248 NA
ATOM     43  C   UNL A   1      42.488  31.396  29.338  1.00  0.00     0.031 C 
ATOM     44  C   UNL A   1      40.934  26.668  28.564  1.00  0.00     0.029 A 
ATOM     45  N   UNL A   1      43.084  27.118  28.155  1.00  0.00    -0.354 N 
ATOM     46  C   UNL A   1      44.635  31.141  28.594  1.00  0.00     0.074 A 
ATOM     47  C   UNL A   1      43.613  32.045  29.071  1.00  0.00     0.031 C 
ATOM     48  C   UNL A   1      41.508  25.532  28.138  1.00  0.00     0.029 A 
ATOM     49  C   UNL A   1      42.908  25.795  27.823  1.00  0.00     0.049 A 
ATOM     50  H   UNL A   1      43.951  27.580  28.086  1.00  0.00     0.167 HD
ATOM     51  C   UNL A   1      45.915  31.501  28.332  1.00  0.00     0.037 A 
ATOM     52  C   UNL A   1      43.771  24.900  27.302  1.00  0.00     0.037 A 
ATOM     53  C   UNL A   1      46.933  30.585  27.892  1.00  0.00     0.049 A 
ATOM     54  C   UNL A   1      45.189  25.326  27.028  1.00  0.00     0.074 A 
ATOM     55  C   UNL A   1      48.276  30.837  27.670  1.00  0.00     0.029 A 
ATOM     56  N   UNL A   1      46.726  29.243  27.606  1.00  0.00    -0.354 N 
ATOM     57  N   UNL A   1      45.743  26.502  27.200  1.00  0.00    -0.248 NA
ATOM     58  C   UNL A   1      46.101  24.304  26.496  1.00  0.00     0.031 C 
ATOM     59  C   UNL A   1      48.871  29.660  27.202  1.00  0.00     0.029 A 
ATOM     60  C   UNL A   1      47.911  28.661  27.188  1.00  0.00     0.049 A 
ATOM     61  H   UNL A   1      45.864  28.775  27.688  1.00  0.00     0.167 HD
ATOM     62  C   UNL A   1      47.075  26.353  26.826  1.00  0.00     0.074 A 
ATOM     63  C   UNL A   1      47.245  24.972  26.429  1.00  0.00     0.031 C 
ATOM     64  C   UNL A   1      48.067  27.277  26.814  1.00  0.00     0.037 A 
BRANCH  51  65
ATOM     65  C   UNL A   1      46.296  32.944  28.520  1.00  0.00     0.058 A 
ATOM     66  C   UNL A   1      46.188  33.878  27.477  1.00  0.00     0.135 A 
ATOM     67  C   UNL A   1      46.708  33.413  29.778  1.00  0.00     0.135 A 
ATOM     68  F   UNL A   1      45.813  33.483  26.250  1.00  0.00    -0.206 F 
ATOM     69  C   UNL A   1      46.490  35.223  27.672  1.00  0.00     0.059 A 
ATOM     70  C   UNL A   1      46.989  34.758  30.002  1.00  0.00     0.059 A 
ATOM     71  F   UNL A   1      46.831  32.562  30.809  1.00  0.00    -0.206 F 
ATOM     72  C   UNL A   1      46.885  35.654  28.939  1.00  0.00     0.060 A 
BRANCH  72  73
ATOM     73  S   UNL A   1      47.242  37.407  29.180  1.00  0.00     0.124 S 
ATOM     74  O   UNL A   1      48.698  37.397  29.277  1.00  0.00    -0.237 OA
ATOM     75  O   UNL A   1      46.693  38.005  27.967  1.00  0.00    -0.237 OA
ATOM     76  O   UNL A   1      46.533  37.734  30.413  1.00  0.00    -0.744 OA
ENDBRANCH  72  73
ENDBRANCH  51  65
BRANCH  52  77
ATOM     77  C   UNL A   1      43.321  23.513  27.005  1.00  0.00     0.058 A 
ATOM     78  C   UNL A   1      43.136  22.576  28.032  1.00  0.00     0.135 A 
ATOM     79  C   UNL A   1      43.074  23.095  25.688  1.00  0.00     0.135 A 
ATOM     80  F   UNL A   1      43.363  22.926  29.308  1.00  0.00    -0.206 F 
ATOM     81  C   UNL A   1      42.749  21.267  27.764  1.00  0.00     0.059 A 
ATOM     82  C   UNL A   1      42.660  21.798  25.397  1.00  0.00     0.059 A 
ATOM     83  F   UNL A   1      43.216  23.957  24.669  1.00  0.00    -0.206 F 
ATOM     84  C   UNL A   1      42.515  20.887  26.442  1.00  0.00     0.060 A 
BRANCH  84  85
ATOM     85  S   UNL A   1      41.988  19.193  26.106  1.00  0.00     0.124 S 
ATOM     86  O   UNL A   1      42.805  18.856  24.948  1.00  0.00    -0.237 OA
ATOM     87  O   UNL A   1      42.332  18.512  27.351  1.00  0.00    -0.237 OA
ATOM     88  O   UNL A   1      40.557  19.331  25.853  1.00  0.00    -0.744 OA
ENDBRANCH  84  85
ENDBRANCH  52  77
BRANCH  64  89
ATOM     89  C   UNL A   1      49.439  26.822  26.402  1.00  0.00     0.058 A 
ATOM     90  C   UNL A   1      50.311  26.193  27.303  1.00  0.00     0.135 A 
ATOM     91  C   UNL A   1      49.857  26.954  25.067  1.00  0.00     0.135 A 
ATOM     92  F   UNL A   1      49.963  26.048  28.592  1.00  0.00    -0.206 F 
ATOM     93  C   UNL A   1      51.557  25.725  26.900  1.00  0.00     0.059 A 
ATOM     94  C   UNL A   1      51.086  26.468  24.636  1.00  0.00     0.059 A 
ATOM     95  F   UNL A   1      49.056  27.539  24.163  1.00  0.00    -0.206 F 
ATOM     96  C   UNL A   1      51.934  25.862  25.562  1.00  0.00     0.060 A 
BRANCH  96  97
ATOM     97  S   UNL A   1      53.532  25.205  25.042  1.00  0.00     0.124 S 
ATOM     98  O   UNL A   1      53.559  25.579  23.632  1.00  0.00    -0.237 OA
ATOM     99  O   UNL A   1      54.462  25.923  25.908  1.00  0.00    -0.237 OA
ATOM    100  O   UNL A   1      53.415  23.774  25.309  1.00  0.00    -0.744 OA
ENDBRANCH  96  97
ENDBRANCH  64  89
ENDBRANCH  38  39
ENDBRANCH  30  33
ENDBRANCH  28  29
ENDBRANCH   1  28
TORSDOF 17
ENDMDL
