MODEL 1
REMARK VINA RESULT:     -12.8      0.000      0.000
REMARK SMILES O=C(NCCCNC(=O)c1cccc(NC(=O)c2ccc(N3C(=O)CCC3=O)cc2)c1)c1ccc(-c2c3nc(c(-c4c(F)cc(S(=O)(=O)[O-])cc4F)c4ccc([nH]4)c(-c4c(F)cc(S(=O)(=O)[O-])cc4F)c4nc(c(-c5c(F)cc(S(=O)(=O)[O-])cc5F)c5ccc2[nH]5)C=C4)C=C3)cc1
REMARK SMILES IDX 5 1 4 2 3 3 1 4 2 5 32 7 33 8 97 9 34 10 96 11 35 12 36 13
REMARK SMILES IDX 37 14 90 15 38 16 95 17 89 18 91 19 39 20 94 21 88 22 87 23
REMARK SMILES IDX 40 25 74 26 53 27 73 28 54 29 57 30 72 31 92 32 55 33 56 34
REMARK SMILES IDX 71 36 93 37 58 38 41 39 42 40 51 41 43 42 44 43 50 44 52 45
REMARK SMILES IDX 45 46 46 47 47 48 48 49 49 50 75 51 76 52 85 53 77 54 78 55
REMARK SMILES IDX 84 56 86 57 79 58 80 59 81 60 82 61 83 62 59 63 60 64 69 65
REMARK SMILES IDX 61 66 62 67 68 68 70 69 63 70 64 71 65 72 66 73 67 74 6 75
REMARK SMILES IDX 7 76 8 77 9 79 10 80 11 81 31 82 12 83 14 84 13 85 15 86
REMARK SMILES IDX 16 87 17 89 18 90 19 91 30 92 20 93 29 94 21 95 22 96 23 97
REMARK SMILES IDX 27 98 24 99 25 100 26 101 28 102
REMARK H PARENT 3 6 91 24 57 35 7 78 15 88
REMARK Flexibility Score: inf
ROOT
ATOM      1  C   UNL A   1      37.511  23.237  26.232  1.00  0.00     0.042 C 
ENDROOT
BRANCH   1   2
ATOM      2  C   UNL A   1      38.372  24.468  26.481  1.00  0.00     0.118 C 
BRANCH   2   3
ATOM      3  N   UNL A   1      39.764  24.267  26.106  1.00  0.00    -0.352 N 
ATOM      4  O   UNL A   1      41.949  24.754  25.912  1.00  0.00    -0.269 OA
ATOM      5  C   UNL A   1      40.888  24.953  26.495  1.00  0.00     0.251 C 
ATOM      6  H   UNL A   1      39.923  23.526  25.479  1.00  0.00     0.163 HD
BRANCH   5   7
ATOM      7  C   UNL A   1      40.813  25.941  27.591  1.00  0.00     0.039 A 
ATOM      8  C   UNL A   1      39.898  25.786  28.636  1.00  0.00     0.014 A 
ATOM      9  C   UNL A   1      41.691  27.028  27.584  1.00  0.00     0.014 A 
ATOM     10  C   UNL A   1      39.760  26.787  29.593  1.00  0.00     0.010 A 
ATOM     11  C   UNL A   1      41.613  27.985  28.597  1.00  0.00     0.010 A 
ATOM     12  C   UNL A   1      40.628  27.887  29.594  1.00  0.00    -0.014 A 
BRANCH  12  13
ATOM     13  C   UNL A   1      40.550  28.899  30.677  1.00  0.00     0.031 A 
ATOM     14  C   UNL A   1      41.411  28.780  31.901  1.00  0.00     0.074 A 
ATOM     15  C   UNL A   1      39.662  29.905  30.566  1.00  0.00     0.049 A 
ATOM     16  N   UNL A   1      41.402  29.505  32.990  1.00  0.00    -0.248 NA
ATOM     17  C   UNL A   1      42.404  27.694  31.910  1.00  0.00     0.031 C 
ATOM     18  C   UNL A   1      38.772  30.118  29.423  1.00  0.00     0.029 A 
ATOM     19  N   UNL A   1      39.344  30.922  31.429  1.00  0.00    -0.354 N 
ATOM     20  C   UNL A   1      42.365  28.951  33.825  1.00  0.00     0.074 A 
ATOM     21  C   UNL A   1      42.922  27.812  33.124  1.00  0.00     0.031 C 
ATOM     22  C   UNL A   1      38.010  31.195  29.654  1.00  0.00     0.029 A 
ATOM     23  C   UNL A   1      38.306  31.706  30.987  1.00  0.00     0.049 A 
ATOM     24  H   UNL A   1      39.814  31.075  32.281  1.00  0.00     0.167 HD
ATOM     25  C   UNL A   1      42.744  29.358  35.061  1.00  0.00     0.037 A 
ATOM     26  C   UNL A   1      37.630  32.696  31.601  1.00  0.00     0.037 A 
ATOM     27  C   UNL A   1      42.173  30.492  35.742  1.00  0.00     0.049 A 
ATOM     28  C   UNL A   1      38.034  33.106  32.986  1.00  0.00     0.074 A 
ATOM     29  C   UNL A   1      42.513  31.014  36.978  1.00  0.00     0.029 A 
ATOM     30  N   UNL A   1      41.127  31.266  35.257  1.00  0.00    -0.354 N 
ATOM     31  N   UNL A   1      38.974  32.601  33.748  1.00  0.00    -0.248 NA
ATOM     32  C   UNL A   1      37.294  34.218  33.596  1.00  0.00     0.031 C 
ATOM     33  C   UNL A   1      41.631  32.059  37.268  1.00  0.00     0.029 A 
ATOM     34  C   UNL A   1      40.788  32.240  36.182  1.00  0.00     0.049 A 
ATOM     35  H   UNL A   1      40.689  31.142  34.384  1.00  0.00     0.167 HD
ATOM     36  C   UNL A   1      38.960  33.351  34.918  1.00  0.00     0.074 A 
ATOM     37  C   UNL A   1      37.915  34.342  34.764  1.00  0.00     0.031 C 
ATOM     38  C   UNL A   1      39.750  33.231  36.013  1.00  0.00     0.037 A 
BRANCH  25  39
ATOM     39  C   UNL A   1      43.793  28.542  35.771  1.00  0.00     0.058 A 
ATOM     40  C   UNL A   1      43.461  27.481  36.630  1.00  0.00     0.135 A 
ATOM     41  C   UNL A   1      45.157  28.829  35.591  1.00  0.00     0.135 A 
ATOM     42  F   UNL A   1      42.175  27.162  36.846  1.00  0.00    -0.206 F 
ATOM     43  C   UNL A   1      44.437  26.776  37.328  1.00  0.00     0.059 A 
ATOM     44  C   UNL A   1      46.152  28.114  36.252  1.00  0.00     0.059 A 
ATOM     45  F   UNL A   1      45.537  29.825  34.774  1.00  0.00    -0.206 F 
ATOM     46  C   UNL A   1      45.779  27.108  37.141  1.00  0.00     0.060 A 
BRANCH  46  47
ATOM     47  S   UNL A   1      47.029  26.223  38.098  1.00  0.00     0.124 S 
ATOM     48  O   UNL A   1      46.615  24.837  37.900  1.00  0.00    -0.237 OA
ATOM     49  O   UNL A   1      48.267  26.615  37.432  1.00  0.00    -0.237 OA
ATOM     50  O   UNL A   1      46.855  26.742  39.450  1.00  0.00    -0.744 OA
ENDBRANCH  46  47
ENDBRANCH  25  39
BRANCH  26  51
ATOM     51  C   UNL A   1      36.492  33.334  30.890  1.00  0.00     0.058 A 
ATOM     52  C   UNL A   1      35.175  33.179  31.343  1.00  0.00     0.135 A 
ATOM     53  C   UNL A   1      36.713  34.194  29.801  1.00  0.00     0.135 A 
ATOM     54  F   UNL A   1      34.913  32.365  32.377  1.00  0.00    -0.206 F 
ATOM     55  C   UNL A   1      34.119  33.861  30.750  1.00  0.00     0.059 A 
ATOM     56  C   UNL A   1      35.677  34.908  29.209  1.00  0.00     0.059 A 
ATOM     57  F   UNL A   1      37.960  34.391  29.344  1.00  0.00    -0.206 F 
ATOM     58  C   UNL A   1      34.382  34.735  29.693  1.00  0.00     0.060 A 
BRANCH  58  59
ATOM     59  S   UNL A   1      33.016  35.693  29.002  1.00  0.00     0.124 S 
ATOM     60  O   UNL A   1      32.359  34.701  28.157  1.00  0.00    -0.237 OA
ATOM     61  O   UNL A   1      32.287  36.093  30.202  1.00  0.00    -0.237 OA
ATOM     62  O   UNL A   1      33.689  36.779  28.295  1.00  0.00    -0.744 OA
ENDBRANCH  58  59
ENDBRANCH  26  51
BRANCH  38  63
ATOM     63  C   UNL A   1      39.565  34.225  37.126  1.00  0.00     0.058 A 
ATOM     64  C   UNL A   1      38.798  33.934  38.263  1.00  0.00     0.135 A 
ATOM     65  C   UNL A   1      40.261  35.445  37.098  1.00  0.00     0.135 A 
ATOM     66  F   UNL A   1      38.101  32.788  38.335  1.00  0.00    -0.206 F 
ATOM     67  C   UNL A   1      38.735  34.813  39.340  1.00  0.00     0.059 A 
ATOM     68  C   UNL A   1      40.235  36.327  38.174  1.00  0.00     0.059 A 
ATOM     69  F   UNL A   1      41.011  35.771  36.034  1.00  0.00    -0.206 F 
ATOM     70  C   UNL A   1      39.469  36.001  39.292  1.00  0.00     0.060 A 
BRANCH  70  71
ATOM     71  S   UNL A   1      39.454  37.087  40.734  1.00  0.00     0.124 S 
ATOM     72  O   UNL A   1      38.647  38.205  40.253  1.00  0.00    -0.237 OA
ATOM     73  O   UNL A   1      38.833  36.246  41.751  1.00  0.00    -0.237 OA
ATOM     74  O   UNL A   1      40.867  37.383  40.951  1.00  0.00    -0.744 OA
ENDBRANCH  70  71
ENDBRANCH  38  63
ENDBRANCH  12  13
ENDBRANCH   5   7
ENDBRANCH   2   3
ENDBRANCH   1   2
BRANCH   1  75
ATOM     75  C   UNL A   1      37.030  23.089  24.796  1.00  0.00     0.118 C 
BRANCH  75  76
ATOM     76  N   UNL A   1      36.522  21.753  24.524  1.00  0.00    -0.352 N 
ATOM     77  C   UNL A   1      35.412  21.105  24.994  1.00  0.00     0.251 C 
ATOM     78  H   UNL A   1      37.068  21.227  23.896  1.00  0.00     0.163 HD
ATOM     79  O   UNL A   1      35.314  19.892  24.828  1.00  0.00    -0.269 OA
BRANCH  77  80
ATOM     80  C   UNL A   1      34.322  21.831  25.675  1.00  0.00     0.041 A 
ATOM     81  C   UNL A   1      34.279  21.783  27.070  1.00  0.00     0.014 A 
ATOM     82  C   UNL A   1      33.290  22.457  24.962  1.00  0.00     0.040 A 
ATOM     83  C   UNL A   1      33.196  22.335  27.739  1.00  0.00     0.003 A 
ATOM     84  C   UNL A   1      32.241  23.095  25.631  1.00  0.00     0.042 A 
ATOM     85  C   UNL A   1      32.175  22.962  27.019  1.00  0.00     0.026 A 
BRANCH  84  86
ATOM     86  N   UNL A   1      31.333  23.817  24.827  1.00  0.00    -0.322 N 
ATOM     87  C   UNL A   1      31.052  25.157  24.685  1.00  0.00     0.255 C 
ATOM     88  H   UNL A   1      30.784  23.241  24.248  1.00  0.00     0.170 HD
ATOM     89  O   UNL A   1      30.130  25.525  23.960  1.00  0.00    -0.269 OA
BRANCH  87  90
ATOM     90  C   UNL A   1      31.821  26.178  25.404  1.00  0.00     0.040 A 
ATOM     91  C   UNL A   1      32.917  26.739  24.755  1.00  0.00     0.016 A 
ATOM     92  C   UNL A   1      31.419  26.644  26.657  1.00  0.00     0.016 A 
ATOM     93  C   UNL A   1      33.533  27.865  25.303  1.00  0.00     0.027 A 
ATOM     94  C   UNL A   1      32.056  27.764  27.208  1.00  0.00     0.027 A 
ATOM     95  C   UNL A   1      33.087  28.423  26.515  1.00  0.00     0.052 A 
BRANCH  95  96
ATOM     96  N   UNL A   1      33.640  29.646  26.988  1.00  0.00    -0.251 N 
ATOM     97  C   UNL A   1      34.907  29.784  27.503  1.00  0.00     0.234 C 
ATOM     98  C   UNL A   1      32.939  30.830  27.040  1.00  0.00     0.234 C 
ATOM     99  O   UNL A   1      35.783  28.938  27.636  1.00  0.00    -0.274 OA
ATOM    100  C   UNL A   1      35.143  31.225  27.842  1.00  0.00     0.111 C 
ATOM    101  C   UNL A   1      33.806  31.892  27.640  1.00  0.00     0.111 C 
ATOM    102  O   UNL A   1      31.771  31.048  26.744  1.00  0.00    -0.274 OA
ENDBRANCH  95  96
ENDBRANCH  87  90
ENDBRANCH  84  86
ENDBRANCH  77  80
ENDBRANCH  75  76
ENDBRANCH   1  75
TORSDOF 16
ENDMDL
MODEL 2
REMARK VINA RESULT:     -12.7      1.199      1.777
REMARK SMILES O=C(NCCCNC(=O)c1cccc(NC(=O)c2ccc(N3C(=O)CCC3=O)cc2)c1)c1ccc(-c2c3nc(c(-c4c(F)cc(S(=O)(=O)[O-])cc4F)c4ccc([nH]4)c(-c4c(F)cc(S(=O)(=O)[O-])cc4F)c4nc(c(-c5c(F)cc(S(=O)(=O)[O-])cc5F)c5ccc2[nH]5)C=C4)C=C3)cc1
REMARK SMILES IDX 5 1 4 2 3 3 1 4 2 5 32 7 33 8 97 9 34 10 96 11 35 12 36 13
REMARK SMILES IDX 37 14 90 15 38 16 95 17 89 18 91 19 39 20 94 21 88 22 87 23
REMARK SMILES IDX 40 25 74 26 53 27 73 28 54 29 57 30 72 31 92 32 55 33 56 34
REMARK SMILES IDX 71 36 93 37 58 38 41 39 42 40 51 41 43 42 44 43 50 44 52 45
REMARK SMILES IDX 45 46 46 47 47 48 48 49 49 50 75 51 76 52 85 53 77 54 78 55
REMARK SMILES IDX 84 56 86 57 79 58 80 59 81 60 82 61 83 62 59 63 60 64 69 65
REMARK SMILES IDX 61 66 62 67 68 68 70 69 63 70 64 71 65 72 66 73 67 74 6 75
REMARK SMILES IDX 7 76 8 77 9 79 10 80 11 81 31 82 12 83 14 84 13 85 15 86
REMARK SMILES IDX 16 87 17 89 18 90 19 91 30 92 20 93 29 94 21 95 22 96 23 97
REMARK SMILES IDX 27 98 24 99 25 100 26 101 28 102
REMARK H PARENT 3 6 91 24 57 35 7 78 15 88
REMARK Flexibility Score: inf
ROOT
ATOM      1  C   UNL A   1      37.288  23.701  25.463  1.00  0.00     0.042 C 
ENDROOT
BRANCH   1   2
ATOM      2  C   UNL A   1      38.261  24.226  26.510  1.00  0.00     0.118 C 
BRANCH   2   3
ATOM      3  N   UNL A   1      39.653  24.023  26.136  1.00  0.00    -0.352 N 
ATOM      4  O   UNL A   1      41.832  24.525  25.902  1.00  0.00    -0.269 OA
ATOM      5  C   UNL A   1      40.771  24.741  26.482  1.00  0.00     0.251 C 
ATOM      6  H   UNL A   1      39.818  23.253  25.546  1.00  0.00     0.163 HD
BRANCH   5   7
ATOM      7  C   UNL A   1      40.692  25.783  27.527  1.00  0.00     0.039 A 
ATOM      8  C   UNL A   1      41.551  26.885  27.508  1.00  0.00     0.014 A 
ATOM      9  C   UNL A   1      39.724  25.666  28.527  1.00  0.00     0.014 A 
ATOM     10  C   UNL A   1      41.541  27.791  28.565  1.00  0.00     0.010 A 
ATOM     11  C   UNL A   1      39.655  26.626  29.537  1.00  0.00     0.010 A 
ATOM     12  C   UNL A   1      40.582  27.681  29.579  1.00  0.00    -0.014 A 
BRANCH  12  13
ATOM     13  C   UNL A   1      40.504  28.709  30.647  1.00  0.00     0.031 A 
ATOM     14  C   UNL A   1      41.351  28.599  31.882  1.00  0.00     0.074 A 
ATOM     15  C   UNL A   1      39.626  29.721  30.514  1.00  0.00     0.049 A 
ATOM     16  N   UNL A   1      41.338  29.339  32.960  1.00  0.00    -0.248 NA
ATOM     17  C   UNL A   1      42.333  27.504  31.916  1.00  0.00     0.031 C 
ATOM     18  C   UNL A   1      38.750  29.927  29.359  1.00  0.00     0.029 A 
ATOM     19  N   UNL A   1      39.310  30.754  31.359  1.00  0.00    -0.354 N 
ATOM     20  C   UNL A   1      42.287  28.787  33.813  1.00  0.00     0.074 A 
ATOM     21  C   UNL A   1      42.840  27.633  33.133  1.00  0.00     0.031 C 
ATOM     22  C   UNL A   1      37.996  31.015  29.567  1.00  0.00     0.029 A 
ATOM     23  C   UNL A   1      38.284  31.541  30.897  1.00  0.00     0.049 A 
ATOM     24  H   UNL A   1      39.773  30.914  32.214  1.00  0.00     0.167 HD
ATOM     25  C   UNL A   1      42.659  29.208  35.046  1.00  0.00     0.037 A 
ATOM     26  C   UNL A   1      37.611  32.547  31.489  1.00  0.00     0.037 A 
ATOM     27  C   UNL A   1      42.092  30.357  35.706  1.00  0.00     0.049 A 
ATOM     28  C   UNL A   1      38.006  32.972  32.872  1.00  0.00     0.074 A 
ATOM     29  C   UNL A   1      42.424  30.893  36.938  1.00  0.00     0.029 A 
ATOM     30  N   UNL A   1      41.058  31.135  35.200  1.00  0.00    -0.354 N 
ATOM     31  N   UNL A   1      38.933  32.468  33.651  1.00  0.00    -0.248 NA
ATOM     32  C   UNL A   1      37.270  34.099  33.460  1.00  0.00     0.031 C 
ATOM     33  C   UNL A   1      41.550  31.951  37.205  1.00  0.00     0.029 A 
ATOM     34  C   UNL A   1      40.720  32.124  36.108  1.00  0.00     0.049 A 
ATOM     35  H   UNL A   1      40.628  31.002  34.324  1.00  0.00     0.167 HD
ATOM     36  C   UNL A   1      38.915  33.235  34.810  1.00  0.00     0.074 A 
ATOM     37  C   UNL A   1      37.881  34.234  34.632  1.00  0.00     0.031 C 
ATOM     38  C   UNL A   1      39.693  33.123  35.914  1.00  0.00     0.037 A 
BRANCH  25  39
ATOM     39  C   UNL A   1      43.692  28.392  35.778  1.00  0.00     0.058 A 
ATOM     40  C   UNL A   1      43.341  27.339  36.639  1.00  0.00     0.135 A 
ATOM     41  C   UNL A   1      45.060  28.672  35.618  1.00  0.00     0.135 A 
ATOM     42  F   UNL A   1      42.051  27.027  36.838  1.00  0.00    -0.206 F 
ATOM     43  C   UNL A   1      44.303  26.633  37.357  1.00  0.00     0.059 A 
ATOM     44  C   UNL A   1      46.041  27.957  36.299  1.00  0.00     0.059 A 
ATOM     45  F   UNL A   1      45.457  29.660  34.801  1.00  0.00    -0.206 F 
ATOM     46  C   UNL A   1      45.650  26.958  37.189  1.00  0.00     0.060 A 
BRANCH  46  47
ATOM     47  S   UNL A   1      46.881  26.074  38.171  1.00  0.00     0.124 S 
ATOM     48  O   UNL A   1      46.389  26.307  39.526  1.00  0.00    -0.237 OA
ATOM     49  O   UNL A   1      46.751  24.708  37.677  1.00  0.00    -0.237 OA
ATOM     50  O   UNL A   1      48.132  26.745  37.835  1.00  0.00    -0.744 OA
ENDBRANCH  46  47
ENDBRANCH  25  39
BRANCH  26  51
ATOM     51  C   UNL A   1      36.487  33.185  30.758  1.00  0.00     0.058 A 
ATOM     52  C   UNL A   1      35.157  32.965  31.139  1.00  0.00     0.135 A 
ATOM     53  C   UNL A   1      36.729  34.108  29.727  1.00  0.00     0.135 A 
ATOM     54  F   UNL A   1      34.874  32.090  32.116  1.00  0.00    -0.206 F 
ATOM     55  C   UNL A   1      34.106  33.645  30.532  1.00  0.00     0.059 A 
ATOM     56  C   UNL A   1      35.698  34.820  29.123  1.00  0.00     0.059 A 
ATOM     57  F   UNL A   1      37.989  34.368  29.341  1.00  0.00    -0.206 F 
ATOM     58  C   UNL A   1      34.388  34.581  29.535  1.00  0.00     0.060 A 
BRANCH  58  59
ATOM     59  S   UNL A   1      33.025  35.531  28.829  1.00  0.00     0.124 S 
ATOM     60  O   UNL A   1      32.288  35.922  30.026  1.00  0.00    -0.237 OA
ATOM     61  O   UNL A   1      33.730  36.605  28.135  1.00  0.00    -0.237 OA
ATOM     62  O   UNL A   1      32.355  34.568  27.961  1.00  0.00    -0.744 OA
ENDBRANCH  58  59
ENDBRANCH  26  51
BRANCH  38  63
ATOM     63  C   UNL A   1      39.506  34.134  37.012  1.00  0.00     0.058 A 
ATOM     64  C   UNL A   1      38.776  33.845  38.173  1.00  0.00     0.135 A 
ATOM     65  C   UNL A   1      40.167  35.373  36.943  1.00  0.00     0.135 A 
ATOM     66  F   UNL A   1      38.114  32.682  38.285  1.00  0.00    -0.206 F 
ATOM     67  C   UNL A   1      38.714  34.744  39.233  1.00  0.00     0.059 A 
ATOM     68  C   UNL A   1      40.141  36.275  38.001  1.00  0.00     0.059 A 
ATOM     69  F   UNL A   1      40.882  35.697  35.853  1.00  0.00    -0.206 F 
ATOM     70  C   UNL A   1      39.412  35.952  39.143  1.00  0.00     0.060 A 
BRANCH  70  71
ATOM     71  S   UNL A   1      39.401  37.066  40.563  1.00  0.00     0.124 S 
ATOM     72  O   UNL A   1      40.829  37.278  40.783  1.00  0.00    -0.237 OA
ATOM     73  O   UNL A   1      38.660  38.215  40.051  1.00  0.00    -0.237 OA
ATOM     74  O   UNL A   1      38.716  36.295  41.596  1.00  0.00    -0.744 OA
ENDBRANCH  70  71
ENDBRANCH  38  63
ENDBRANCH  12  13
ENDBRANCH   5   7
ENDBRANCH   2   3
ENDBRANCH   1   2
BRANCH   1  75
ATOM     75  C   UNL A   1      35.963  23.212  26.028  1.00  0.00     0.118 C 
BRANCH  75  76
ATOM     76  N   UNL A   1      35.660  21.852  25.614  1.00  0.00    -0.352 N 
ATOM     77  C   UNL A   1      34.526  21.314  25.069  1.00  0.00     0.251 C 
ATOM     78  H   UNL A   1      36.393  21.209  25.747  1.00  0.00     0.163 HD
ATOM     79  O   UNL A   1      34.402  20.092  25.031  1.00  0.00    -0.269 OA
BRANCH  77  80
ATOM     80  C   UNL A   1      33.459  22.165  24.506  1.00  0.00     0.041 A 
ATOM     81  C   UNL A   1      32.308  22.361  25.272  1.00  0.00     0.014 A 
ATOM     82  C   UNL A   1      33.529  22.674  23.201  1.00  0.00     0.040 A 
ATOM     83  C   UNL A   1      31.229  23.039  24.722  1.00  0.00     0.003 A 
ATOM     84  C   UNL A   1      32.483  23.436  22.672  1.00  0.00     0.042 A 
ATOM     85  C   UNL A   1      31.311  23.548  23.424  1.00  0.00     0.026 A 
BRANCH  84  86
ATOM     86  N   UNL A   1      32.711  24.023  21.408  1.00  0.00    -0.322 N 
ATOM     87  C   UNL A   1      32.787  25.325  20.968  1.00  0.00     0.255 C 
ATOM     88  H   UNL A   1      32.842  23.361  20.691  1.00  0.00     0.170 HD
ATOM     89  O   UNL A   1      32.913  25.568  19.770  1.00  0.00    -0.269 OA
BRANCH  87  90
ATOM     90  C   UNL A   1      32.699  26.452  21.902  1.00  0.00     0.040 A 
ATOM     91  C   UNL A   1      31.489  26.655  22.559  1.00  0.00     0.016 A 
ATOM     92  C   UNL A   1      33.813  27.239  22.200  1.00  0.00     0.016 A 
ATOM     93  C   UNL A   1      31.430  27.563  23.616  1.00  0.00     0.027 A 
ATOM     94  C   UNL A   1      33.738  28.161  23.252  1.00  0.00     0.027 A 
ATOM     95  C   UNL A   1      32.561  28.299  24.010  1.00  0.00     0.052 A 
BRANCH  95  96
ATOM     96  N   UNL A   1      32.516  29.119  25.173  1.00  0.00    -0.251 N 
ATOM     97  C   UNL A   1      33.355  28.990  26.254  1.00  0.00     0.234 C 
ATOM     98  C   UNL A   1      31.576  30.104  25.374  1.00  0.00     0.234 C 
ATOM     99  O   UNL A   1      34.278  28.203  26.425  1.00  0.00    -0.274 OA
ATOM    100  C   UNL A   1      33.035  30.062  27.251  1.00  0.00     0.111 C 
ATOM    101  C   UNL A   1      31.790  30.725  26.719  1.00  0.00     0.111 C 
ATOM    102  O   UNL A   1      30.635  30.430  24.661  1.00  0.00    -0.274 OA
ENDBRANCH  95  96
ENDBRANCH  87  90
ENDBRANCH  84  86
ENDBRANCH  77  80
ENDBRANCH  75  76
ENDBRANCH   1  75
TORSDOF 16
ENDMDL
MODEL 3
REMARK VINA RESULT:     -12.6      6.419     12.104
REMARK SMILES O=C(NCCCNC(=O)c1cccc(NC(=O)c2ccc(N3C(=O)CCC3=O)cc2)c1)c1ccc(-c2c3nc(c(-c4c(F)cc(S(=O)(=O)[O-])cc4F)c4ccc([nH]4)c(-c4c(F)cc(S(=O)(=O)[O-])cc4F)c4nc(c(-c5c(F)cc(S(=O)(=O)[O-])cc5F)c5ccc2[nH]5)C=C4)C=C3)cc1
REMARK SMILES IDX 5 1 4 2 3 3 1 4 2 5 32 7 33 8 97 9 34 10 96 11 35 12 36 13
REMARK SMILES IDX 37 14 90 15 38 16 95 17 89 18 91 19 39 20 94 21 88 22 87 23
REMARK SMILES IDX 40 25 74 26 53 27 73 28 54 29 57 30 72 31 92 32 55 33 56 34
REMARK SMILES IDX 71 36 93 37 58 38 41 39 42 40 51 41 43 42 44 43 50 44 52 45
REMARK SMILES IDX 45 46 46 47 47 48 48 49 49 50 75 51 76 52 85 53 77 54 78 55
REMARK SMILES IDX 84 56 86 57 79 58 80 59 81 60 82 61 83 62 59 63 60 64 69 65
REMARK SMILES IDX 61 66 62 67 68 68 70 69 63 70 64 71 65 72 66 73 67 74 6 75
REMARK SMILES IDX 7 76 8 77 9 79 10 80 11 81 31 82 12 83 14 84 13 85 15 86
REMARK SMILES IDX 16 87 17 89 18 90 19 91 30 92 20 93 29 94 21 95 22 96 23 97
REMARK SMILES IDX 27 98 24 99 25 100 26 101 28 102
REMARK H PARENT 3 6 91 24 57 35 7 78 15 88
REMARK Flexibility Score: inf
ROOT
ATOM      1  C   UNL A   1      34.181  29.910  26.885  1.00  0.00     0.042 C 
ENDROOT
BRANCH   1   2
ATOM      2  C   UNL A   1      35.364  29.535  27.767  1.00  0.00     0.118 C 
BRANCH   2   3
ATOM      3  N   UNL A   1      35.291  30.135  29.091  1.00  0.00    -0.352 N 
ATOM      4  O   UNL A   1      35.938  30.609  31.191  1.00  0.00    -0.269 OA
ATOM      5  C   UNL A   1      36.255  30.243  30.063  1.00  0.00     0.251 C 
ATOM      6  H   UNL A   1      34.417  30.523  29.325  1.00  0.00     0.163 HD
BRANCH   5   7
ATOM      7  C   UNL A   1      37.659  29.896  29.759  1.00  0.00     0.039 A 
ATOM      8  C   UNL A   1      38.163  30.019  28.462  1.00  0.00     0.014 A 
ATOM      9  C   UNL A   1      38.490  29.465  30.796  1.00  0.00     0.014 A 
ATOM     10  C   UNL A   1      39.449  29.575  28.171  1.00  0.00     0.010 A 
ATOM     11  C   UNL A   1      39.809  29.106  30.519  1.00  0.00     0.010 A 
ATOM     12  C   UNL A   1      40.291  29.132  29.200  1.00  0.00    -0.014 A 
BRANCH  12  13
ATOM     13  C   UNL A   1      41.698  28.760  28.905  1.00  0.00     0.031 A 
ATOM     14  C   UNL A   1      42.779  29.802  28.888  1.00  0.00     0.074 A 
ATOM     15  C   UNL A   1      41.985  27.478  28.609  1.00  0.00     0.049 A 
ATOM     16  N   UNL A   1      44.036  29.680  28.547  1.00  0.00    -0.248 NA
ATOM     17  C   UNL A   1      42.394  31.163  29.292  1.00  0.00     0.031 C 
ATOM     18  C   UNL A   1      41.014  26.382  28.594  1.00  0.00     0.029 A 
ATOM     19  N   UNL A   1      43.165  26.882  28.247  1.00  0.00    -0.354 N 
ATOM     20  C   UNL A   1      44.588  30.950  28.669  1.00  0.00     0.074 A 
ATOM     21  C   UNL A   1      43.520  31.833  29.091  1.00  0.00     0.031 C 
ATOM     22  C   UNL A   1      41.636  25.250  28.239  1.00  0.00     0.029 A 
ATOM     23  C   UNL A   1      43.030  25.551  27.935  1.00  0.00     0.049 A 
ATOM     24  H   UNL A   1      44.025  27.362  28.213  1.00  0.00     0.167 HD
ATOM     25  C   UNL A   1      45.868  31.338  28.447  1.00  0.00     0.037 A 
ATOM     26  C   UNL A   1      43.912  24.676  27.416  1.00  0.00     0.037 A 
ATOM     27  C   UNL A   1      46.915  30.444  28.022  1.00  0.00     0.049 A 
ATOM     28  C   UNL A   1      45.313  25.132  27.135  1.00  0.00     0.074 A 
ATOM     29  C   UNL A   1      48.252  30.725  27.807  1.00  0.00     0.029 A 
ATOM     30  N   UNL A   1      46.738  29.098  27.723  1.00  0.00    -0.354 N 
ATOM     31  N   UNL A   1      45.833  26.326  27.294  1.00  0.00    -0.248 NA
ATOM     32  C   UNL A   1      46.249  24.131  26.608  1.00  0.00     0.031 C 
ATOM     33  C   UNL A   1      48.870  29.570  27.317  1.00  0.00     0.029 A 
ATOM     34  C   UNL A   1      47.935  28.546  27.296  1.00  0.00     0.049 A 
ATOM     35  H   UNL A   1      45.888  28.609  27.803  1.00  0.00     0.167 HD
ATOM     36  C   UNL A   1      47.165  26.214  26.915  1.00  0.00     0.074 A 
ATOM     37  C   UNL A   1      47.370  24.837  26.515  1.00  0.00     0.031 C 
ATOM     38  C   UNL A   1      48.130  27.167  26.911  1.00  0.00     0.037 A 
BRANCH  25  39
ATOM     39  C   UNL A   1      46.191  32.801  28.613  1.00  0.00     0.058 A 
ATOM     40  C   UNL A   1      46.608  33.339  29.842  1.00  0.00     0.135 A 
ATOM     41  C   UNL A   1      46.076  33.680  27.524  1.00  0.00     0.135 A 
ATOM     42  F   UNL A   1      46.730  32.550  30.921  1.00  0.00    -0.206 F 
ATOM     43  C   UNL A   1      46.843  34.702  29.997  1.00  0.00     0.059 A 
ATOM     44  C   UNL A   1      46.339  35.042  27.648  1.00  0.00     0.059 A 
ATOM     45  F   UNL A   1      45.692  33.222  26.321  1.00  0.00    -0.206 F 
ATOM     46  C   UNL A   1      46.694  35.547  28.897  1.00  0.00     0.060 A 
BRANCH  46  47
ATOM     47  S   UNL A   1      46.945  37.320  29.129  1.00  0.00     0.124 S 
ATOM     48  O   UNL A   1      48.036  37.582  28.194  1.00  0.00    -0.237 OA
ATOM     49  O   UNL A   1      45.646  37.871  28.756  1.00  0.00    -0.237 OA
ATOM     50  O   UNL A   1      47.290  37.434  30.542  1.00  0.00    -0.744 OA
ENDBRANCH  46  47
ENDBRANCH  25  39
BRANCH  26  51
ATOM     51  C   UNL A   1      43.459  23.292  27.120  1.00  0.00     0.058 A 
ATOM     52  C   UNL A   1      43.284  22.853  25.801  1.00  0.00     0.135 A 
ATOM     53  C   UNL A   1      43.289  22.353  28.152  1.00  0.00     0.135 A 
ATOM     54  F   UNL A   1      43.431  23.714  24.782  1.00  0.00    -0.206 F 
ATOM     55  C   UNL A   1      42.968  21.530  25.513  1.00  0.00     0.059 A 
ATOM     56  C   UNL A   1      43.001  21.019  27.888  1.00  0.00     0.059 A 
ATOM     57  F   UNL A   1      43.467  22.722  29.431  1.00  0.00    -0.206 F 
ATOM     58  C   UNL A   1      42.843  20.617  26.562  1.00  0.00     0.060 A 
BRANCH  58  59
ATOM     59  S   UNL A   1      42.536  18.882  26.168  1.00  0.00     0.124 S 
ATOM     60  O   UNL A   1      42.595  18.265  27.489  1.00  0.00    -0.237 OA
ATOM     61  O   UNL A   1      41.216  18.940  25.549  1.00  0.00    -0.237 OA
ATOM     62  O   UNL A   1      43.631  18.542  25.264  1.00  0.00    -0.744 OA
ENDBRANCH  58  59
ENDBRANCH  26  51
BRANCH  38  63
ATOM     63  C   UNL A   1      49.521  26.758  26.510  1.00  0.00     0.058 A 
ATOM     64  C   UNL A   1      50.409  26.158  27.413  1.00  0.00     0.135 A 
ATOM     65  C   UNL A   1      49.923  26.871  25.168  1.00  0.00     0.135 A 
ATOM     66  F   UNL A   1      50.079  26.039  28.710  1.00  0.00    -0.206 F 
ATOM     67  C   UNL A   1      51.646  25.674  26.999  1.00  0.00     0.059 A 
ATOM     68  C   UNL A   1      51.143  26.369  24.727  1.00  0.00     0.059 A 
ATOM     69  F   UNL A   1      49.108  27.436  24.264  1.00  0.00    -0.206 F 
ATOM     70  C   UNL A   1      51.998  25.771  25.650  1.00  0.00     0.060 A 
BRANCH  70  71
ATOM     71  S   UNL A   1      53.564  25.053  25.110  1.00  0.00     0.124 S 
ATOM     72  O   UNL A   1      53.281  23.624  25.203  1.00  0.00    -0.237 OA
ATOM     73  O   UNL A   1      53.701  25.587  23.759  1.00  0.00    -0.237 OA
ATOM     74  O   UNL A   1      54.526  25.566  26.081  1.00  0.00    -0.744 OA
ENDBRANCH  70  71
ENDBRANCH  38  63
ENDBRANCH  12  13
ENDBRANCH   5   7
ENDBRANCH   2   3
ENDBRANCH   1   2
BRANCH   1  75
ATOM     75  C   UNL A   1      32.959  29.022  27.064  1.00  0.00     0.118 C 
BRANCH  75  76
ATOM     76  N   UNL A   1      31.812  29.512  26.317  1.00  0.00    -0.352 N 
ATOM     77  C   UNL A   1      31.511  29.432  24.984  1.00  0.00     0.251 C 
ATOM     78  H   UNL A   1      31.137  29.980  26.860  1.00  0.00     0.163 HD
ATOM     79  O   UNL A   1      30.612  30.136  24.531  1.00  0.00    -0.269 OA
BRANCH  77  80
ATOM     80  C   UNL A   1      32.226  28.505  24.084  1.00  0.00     0.041 A 
ATOM     81  C   UNL A   1      33.312  29.005  23.363  1.00  0.00     0.014 A 
ATOM     82  C   UNL A   1      31.777  27.196  23.860  1.00  0.00     0.040 A 
ATOM     83  C   UNL A   1      33.922  28.206  22.406  1.00  0.00     0.003 A 
ATOM     84  C   UNL A   1      32.441  26.354  22.964  1.00  0.00     0.042 A 
ATOM     85  C   UNL A   1      33.470  26.901  22.194  1.00  0.00     0.026 A 
BRANCH  84  86
ATOM     86  N   UNL A   1      31.999  25.014  22.917  1.00  0.00    -0.322 N 
ATOM     87  C   UNL A   1      32.602  23.807  23.189  1.00  0.00     0.255 C 
ATOM     88  H   UNL A   1      31.062  24.924  22.628  1.00  0.00     0.170 HD
ATOM     89  O   UNL A   1      32.005  22.753  22.980  1.00  0.00    -0.269 OA
BRANCH  87  90
ATOM     90  C   UNL A   1      33.972  23.740  23.711  1.00  0.00     0.040 A 
ATOM     91  C   UNL A   1      34.179  24.118  25.034  1.00  0.00     0.016 A 
ATOM     92  C   UNL A   1      35.018  23.224  22.944  1.00  0.00     0.016 A 
ATOM     93  C   UNL A   1      35.410  23.854  25.634  1.00  0.00     0.027 A 
ATOM     94  C   UNL A   1      36.257  22.980  23.551  1.00  0.00     0.027 A 
ATOM     95  C   UNL A   1      36.455  23.242  24.919  1.00  0.00     0.052 A 
BRANCH  95  96
ATOM     96  N   UNL A   1      37.654  22.861  25.585  1.00  0.00    -0.251 N 
ATOM     97  C   UNL A   1      38.466  23.719  26.287  1.00  0.00     0.234 C 
ATOM     98  C   UNL A   1      38.173  21.586  25.548  1.00  0.00     0.234 C 
ATOM     99  O   UNL A   1      38.326  24.919  26.493  1.00  0.00    -0.274 OA
ATOM    100  C   UNL A   1      39.598  22.941  26.886  1.00  0.00     0.111 C 
ATOM    101  C   UNL A   1      39.464  21.556  26.306  1.00  0.00     0.111 C 
ATOM    102  O   UNL A   1      37.758  20.601  24.951  1.00  0.00    -0.274 OA
ENDBRANCH  95  96
ENDBRANCH  87  90
ENDBRANCH  84  86
ENDBRANCH  77  80
ENDBRANCH  75  76
ENDBRANCH   1  75
TORSDOF 16
ENDMDL
