MODEL 1
REMARK VINA RESULT:     -11.2      0.000      0.000
REMARK SMILES CCCc1cc(OC(F)(F)F)cc2c1O[C@@H](C(F)(F)F)C(C(=O)NCCCNC(=O)c1ccc(-c3c4nc(c(-c5c(F)cc(S(=O)(=O)[O-])cc5F)c5ccc([nH]5)c(-c5c(F)cc(S(=O)(=O)[O-])cc5F)c5nc(c(-c6c(F)cc(S(=O)(=O)[O-])cc6F)c6ccc3[nH]6)C=C5)C=C4)cc1)=C2
REMARK SMILES IDX 26 1 25 2 24 3 22 4 23 5 21 7 4 8 5 9 14 10 6 11 13 12 15 13
REMARK SMILES IDX 12 14 97 15 16 16 3 17 2 18 1 19 7 20 8 21 9 22 10 23 11 24
REMARK SMILES IDX 17 25 18 26 19 27 20 28 27 29 28 30 29 31 30 33 31 34 32 35
REMARK SMILES IDX 96 36 33 37 95 38 34 39 35 40 36 41 89 42 37 43 94 44 88 45
REMARK SMILES IDX 90 46 38 47 93 48 87 49 86 50 39 52 73 53 52 54 72 55 53 56
REMARK SMILES IDX 56 57 71 58 91 59 54 60 55 61 70 63 92 64 57 65 40 66 41 67
REMARK SMILES IDX 50 68 42 69 43 70 49 71 51 72 44 73 45 74 46 75 47 76 48 77
REMARK SMILES IDX 74 78 75 79 84 80 76 81 77 82 83 83 85 84 78 85 79 86 80 87
REMARK SMILES IDX 81 88 82 89 58 90 59 91 68 92 60 93 61 94 67 95 69 96 62 97
REMARK SMILES IDX 63 98 64 99 65 100 66 101
REMARK H PARENT 24 6 28 32 90 51 56 62
REMARK Flexibility Score: inf
ROOT
ATOM      1  C   UNL A   1      33.956  28.022  25.097  1.00  0.00     0.042 C 
ENDROOT
BRANCH   1   2
ATOM      2  C   UNL A   1      32.673  27.408  24.526  1.00  0.00     0.118 C 
BRANCH   2   3
ATOM      3  N   UNL A   1      32.802  27.165  23.097  1.00  0.00    -0.352 N 
ATOM      4  C   UNL A   1      33.312  26.132  22.377  1.00  0.00     0.251 C 
ATOM      5  O   UNL A   1      33.372  26.256  21.156  1.00  0.00    -0.270 OA
ATOM      6  H   UNL A   1      32.450  27.896  22.540  1.00  0.00     0.163 HD
BRANCH   4   7
ATOM      7  C   UNL A   1      33.735  24.848  22.992  1.00  0.00     0.067 C 
ATOM      8  C   UNL A   1      34.635  21.202  24.907  1.00  0.00    -0.002 A 
ATOM      9  C   UNL A   1      35.978  20.937  25.230  1.00  0.00     0.054 A 
ATOM     10  C   UNL A   1      34.333  22.419  24.268  1.00  0.00     0.131 A 
ATOM     11  C   UNL A   1      36.985  21.875  24.986  1.00  0.00     0.130 A 
ATOM     12  C   UNL A   1      35.339  23.340  23.975  1.00  0.00     0.021 A 
ATOM     13  O   UNL A   1      33.017  22.694  24.014  1.00  0.00    -0.475 OA
ATOM     14  C   UNL A   1      36.659  23.067  24.340  1.00  0.00     0.058 A 
ATOM     15  C   UNL A   1      34.999  24.616  23.369  1.00  0.00     0.025 C 
ATOM     16  C   UNL A   1      32.714  23.716  23.016  1.00  0.00     0.314 C 
BRANCH   8  17
ATOM     17  C   UNL A   1      33.509  20.233  25.219  1.00  0.00     0.039 C 
BRANCH  17  18
ATOM     18  C   UNL A   1      33.146  19.165  24.177  1.00  0.00     0.001 C 
ATOM     19  C   UNL A   1      34.056  17.943  24.210  1.00  0.00     0.004 C 
ENDBRANCH  17  18
ENDBRANCH   8  17
BRANCH  11  20
ATOM     20  O   UNL A   1      38.301  21.758  25.327  1.00  0.00    -0.406 OA
BRANCH  20  21
ATOM     21  C   UNL A   1      38.810  22.654  26.302  1.00  0.00     0.573 C 
ATOM     22  F   UNL A   1      37.822  23.382  26.867  1.00  0.00    -0.132 F 
ATOM     23  F   UNL A   1      39.479  21.985  27.265  1.00  0.00    -0.132 F 
ATOM     24  F   UNL A   1      39.668  23.509  25.705  1.00  0.00    -0.132 F 
ENDBRANCH  20  21
ENDBRANCH  11  20
BRANCH  16  25
ATOM     25  C   UNL A   1      31.234  24.113  23.218  1.00  0.00     0.429 C 
ATOM     26  F   UNL A   1      30.391  23.057  23.170  1.00  0.00    -0.167 F 
ATOM     27  F   UNL A   1      31.047  24.661  24.452  1.00  0.00    -0.167 F 
ATOM     28  F   UNL A   1      30.816  25.035  22.320  1.00  0.00    -0.167 F 
ENDBRANCH  16  25
ENDBRANCH   4   7
ENDBRANCH   2   3
ENDBRANCH   1   2
BRANCH   1  29
ATOM     29  C   UNL A   1      33.948  28.145  26.618  1.00  0.00     0.118 C 
BRANCH  29  30
ATOM     30  N   UNL A   1      33.704  29.514  27.047  1.00  0.00    -0.352 N 
ATOM     31  C   UNL A   1      34.465  30.334  27.841  1.00  0.00     0.251 C 
ATOM     32  H   UNL A   1      32.866  29.911  26.716  1.00  0.00     0.163 HD
ATOM     33  O   UNL A   1      33.966  31.366  28.284  1.00  0.00    -0.269 OA
BRANCH  31  34
ATOM     34  C   UNL A   1      35.867  29.988  28.172  1.00  0.00     0.039 A 
ATOM     35  C   UNL A   1      36.842  30.115  27.178  1.00  0.00     0.014 A 
ATOM     36  C   UNL A   1      36.214  29.483  29.428  1.00  0.00     0.014 A 
ATOM     37  C   UNL A   1      38.170  29.776  27.456  1.00  0.00     0.010 A 
ATOM     38  C   UNL A   1      37.548  29.207  29.725  1.00  0.00     0.010 A 
ATOM     39  C   UNL A   1      38.537  29.340  28.739  1.00  0.00    -0.014 A 
BRANCH  39  40
ATOM     40  C   UNL A   1      39.948  29.002  29.063  1.00  0.00     0.031 A 
ATOM     41  C   UNL A   1      40.844  30.029  29.703  1.00  0.00     0.074 A 
ATOM     42  C   UNL A   1      40.437  27.792  28.728  1.00  0.00     0.049 A 
ATOM     43  N   UNL A   1      42.118  29.953  29.989  1.00  0.00    -0.248 NA
ATOM     44  C   UNL A   1      40.230  31.323  30.044  1.00  0.00     0.031 C 
ATOM     45  C   UNL A   1      39.678  26.725  28.070  1.00  0.00     0.029 A 
ATOM     46  N   UNL A   1      41.690  27.257  28.886  1.00  0.00    -0.354 N 
ATOM     47  C   UNL A   1      42.462  31.188  30.526  1.00  0.00     0.074 A 
ATOM     48  C   UNL A   1      41.273  32.012  30.482  1.00  0.00     0.031 C 
ATOM     49  C   UNL A   1      40.477  25.659  27.896  1.00  0.00     0.029 A 
ATOM     50  C   UNL A   1      41.811  25.977  28.396  1.00  0.00     0.049 A 
ATOM     51  H   UNL A   1      42.434  27.743  29.308  1.00  0.00     0.167 HD
ATOM     52  C   UNL A   1      43.653  31.590  31.032  1.00  0.00     0.037 A 
ATOM     53  C   UNL A   1      42.878  25.155  28.347  1.00  0.00     0.037 A 
ATOM     54  C   UNL A   1      44.824  30.755  31.096  1.00  0.00     0.049 A 
ATOM     55  C   UNL A   1      44.189  25.625  28.915  1.00  0.00     0.074 A 
ATOM     56  C   UNL A   1      46.066  31.051  31.632  1.00  0.00     0.029 A 
ATOM     57  N   UNL A   1      44.899  29.456  30.611  1.00  0.00    -0.354 N 
ATOM     58  N   UNL A   1      44.484  26.779  29.465  1.00  0.00    -0.248 NA
ATOM     59  C   UNL A   1      45.313  24.679  28.862  1.00  0.00     0.031 C 
ATOM     60  C   UNL A   1      46.901  29.945  31.438  1.00  0.00     0.029 A 
ATOM     61  C   UNL A   1      46.167  28.943  30.823  1.00  0.00     0.049 A 
ATOM     62  H   UNL A   1      44.159  28.972  30.181  1.00  0.00     0.167 HD
ATOM     63  C   UNL A   1      45.817  26.687  29.850  1.00  0.00     0.074 A 
ATOM     64  C   UNL A   1      46.268  25.362  29.478  1.00  0.00     0.031 C 
ATOM     65  C   UNL A   1      46.596  27.616  30.458  1.00  0.00     0.037 A 
BRANCH  52  66
ATOM     66  C   UNL A   1      43.746  32.996  31.561  1.00  0.00     0.058 A 
ATOM     67  C   UNL A   1      43.477  33.295  32.906  1.00  0.00     0.135 A 
ATOM     68  C   UNL A   1      44.140  34.052  30.724  1.00  0.00     0.135 A 
ATOM     69  F   UNL A   1      43.083  32.325  33.748  1.00  0.00    -0.206 F 
ATOM     70  C   UNL A   1      43.561  34.595  33.395  1.00  0.00     0.059 A 
ATOM     71  C   UNL A   1      44.258  35.356  31.197  1.00  0.00     0.059 A 
ATOM     72  F   UNL A   1      44.411  33.824  29.429  1.00  0.00    -0.206 F 
ATOM     73  C   UNL A   1      43.951  35.620  32.532  1.00  0.00     0.060 A 
BRANCH  73  74
ATOM     74  S   UNL A   1      44.053  37.301  33.180  1.00  0.00     0.124 S 
ATOM     75  O   UNL A   1      43.931  38.092  31.959  1.00  0.00    -0.237 OA
ATOM     76  O   UNL A   1      42.911  37.357  34.086  1.00  0.00    -0.237 OA
ATOM     77  O   UNL A   1      45.362  37.338  33.824  1.00  0.00    -0.744 OA
ENDBRANCH  73  74
ENDBRANCH  52  66
BRANCH  53  78
ATOM     78  C   UNL A   1      42.743  23.796  27.759  1.00  0.00     0.058 A 
ATOM     79  C   UNL A   1      42.532  22.676  28.578  1.00  0.00     0.135 A 
ATOM     80  C   UNL A   1      42.809  23.589  26.373  1.00  0.00     0.135 A 
ATOM     81  F   UNL A   1      42.467  22.824  29.910  1.00  0.00    -0.206 F 
ATOM     82  C   UNL A   1      42.411  21.397  28.047  1.00  0.00     0.059 A 
ATOM     83  C   UNL A   1      42.666  22.322  25.816  1.00  0.00     0.059 A 
ATOM     84  F   UNL A   1      42.989  24.630  25.545  1.00  0.00    -0.206 F 
ATOM     85  C   UNL A   1      42.478  21.230  26.662  1.00  0.00     0.060 A 
BRANCH  85  86
ATOM     86  S   UNL A   1      42.274  19.571  25.979  1.00  0.00     0.124 S 
ATOM     87  O   UNL A   1      40.850  19.554  25.669  1.00  0.00    -0.237 OA
ATOM     88  O   UNL A   1      43.177  19.597  24.832  1.00  0.00    -0.237 OA
ATOM     89  O   UNL A   1      42.693  18.704  27.077  1.00  0.00    -0.744 OA
ENDBRANCH  85  86
ENDBRANCH  53  78
BRANCH  65  90
ATOM     90  C   UNL A   1      48.005  27.219  30.797  1.00  0.00     0.058 A 
ATOM     91  C   UNL A   1      48.312  26.518  31.973  1.00  0.00     0.135 A 
ATOM     92  C   UNL A   1      49.054  27.500  29.907  1.00  0.00     0.135 A 
ATOM     93  F   UNL A   1      47.347  26.231  32.861  1.00  0.00    -0.206 F 
ATOM     94  C   UNL A   1      49.615  26.129  32.267  1.00  0.00     0.059 A 
ATOM     95  C   UNL A   1      50.360  27.097  30.167  1.00  0.00     0.059 A 
ATOM     96  F   UNL A   1      48.811  28.158  28.762  1.00  0.00    -0.206 F 
ATOM     97  C   UNL A   1      50.632  26.423  31.356  1.00  0.00     0.060 A 
BRANCH  97  98
ATOM     98  S   UNL A   1      52.314  25.882  31.732  1.00  0.00     0.124 S 
ATOM     99  O   UNL A   1      52.721  26.864  32.731  1.00  0.00    -0.237 OA
ATOM    100  O   UNL A   1      52.104  24.524  32.224  1.00  0.00    -0.237 OA
ATOM    101  O   UNL A   1      52.995  25.976  30.444  1.00  0.00    -0.744 OA
ENDBRANCH  97  98
ENDBRANCH  65  90
ENDBRANCH  39  40
ENDBRANCH  31  34
ENDBRANCH  29  30
ENDBRANCH   1  29
TORSDOF 18
ENDMDL
MODEL 2
REMARK VINA RESULT:     -11.2      3.267      9.374
REMARK SMILES CCCc1cc(OC(F)(F)F)cc2c1O[C@@H](C(F)(F)F)C(C(=O)NCCCNC(=O)c1ccc(-c3c4nc(c(-c5c(F)cc(S(=O)(=O)[O-])cc5F)c5ccc([nH]5)c(-c5c(F)cc(S(=O)(=O)[O-])cc5F)c5nc(c(-c6c(F)cc(S(=O)(=O)[O-])cc6F)c6ccc3[nH]6)C=C5)C=C4)cc1)=C2
REMARK SMILES IDX 26 1 25 2 24 3 22 4 23 5 21 7 4 8 5 9 14 10 6 11 13 12 15 13
REMARK SMILES IDX 12 14 97 15 16 16 3 17 2 18 1 19 7 20 8 21 9 22 10 23 11 24
REMARK SMILES IDX 17 25 18 26 19 27 20 28 27 29 28 30 29 31 30 33 31 34 32 35
REMARK SMILES IDX 96 36 33 37 95 38 34 39 35 40 36 41 89 42 37 43 94 44 88 45
REMARK SMILES IDX 90 46 38 47 93 48 87 49 86 50 39 52 73 53 52 54 72 55 53 56
REMARK SMILES IDX 56 57 71 58 91 59 54 60 55 61 70 63 92 64 57 65 40 66 41 67
REMARK SMILES IDX 50 68 42 69 43 70 49 71 51 72 44 73 45 74 46 75 47 76 48 77
REMARK SMILES IDX 74 78 75 79 84 80 76 81 77 82 83 83 85 84 78 85 79 86 80 87
REMARK SMILES IDX 81 88 82 89 58 90 59 91 68 92 60 93 61 94 67 95 69 96 62 97
REMARK SMILES IDX 63 98 64 99 65 100 66 101
REMARK H PARENT 24 6 28 32 90 51 56 62
REMARK Flexibility Score: inf
ROOT
ATOM      1  C   UNL A   1      35.126  23.584  26.415  1.00  0.00     0.042 C 
ENDROOT
BRANCH   1   2
ATOM      2  C   UNL A   1      34.023  23.038  25.502  1.00  0.00     0.118 C 
BRANCH   2   3
ATOM      3  N   UNL A   1      32.798  22.797  26.251  1.00  0.00    -0.352 N 
ATOM      4  C   UNL A   1      31.782  23.608  26.646  1.00  0.00     0.251 C 
ATOM      5  O   UNL A   1      30.909  23.128  27.365  1.00  0.00    -0.270 OA
ATOM      6  H   UNL A   1      32.683  21.860  26.526  1.00  0.00     0.163 HD
BRANCH   4   7
ATOM      7  C   UNL A   1      31.648  25.017  26.195  1.00  0.00     0.067 C 
ATOM      8  C   UNL A   1      31.322  28.904  24.596  1.00  0.00    -0.002 A 
ATOM      9  C   UNL A   1      31.785  29.981  25.373  1.00  0.00     0.054 A 
ATOM     10  C   UNL A   1      31.431  27.606  25.129  1.00  0.00     0.131 A 
ATOM     11  C   UNL A   1      32.395  29.775  26.613  1.00  0.00     0.130 A 
ATOM     12  C   UNL A   1      31.994  27.396  26.387  1.00  0.00     0.021 A 
ATOM     13  O   UNL A   1      31.035  26.560  24.340  1.00  0.00    -0.475 OA
ATOM     14  C   UNL A   1      32.478  28.480  27.122  1.00  0.00     0.058 A 
ATOM     15  C   UNL A   1      32.152  26.043  26.895  1.00  0.00     0.025 C 
ATOM     16  C   UNL A   1      30.753  25.284  24.991  1.00  0.00     0.314 C 
BRANCH   8  17
ATOM     17  C   UNL A   1      30.714  29.087  23.217  1.00  0.00     0.039 C 
BRANCH  17  18
ATOM     18  C   UNL A   1      29.405  29.879  23.087  1.00  0.00     0.001 C 
ATOM     19  C   UNL A   1      28.165  29.000  22.986  1.00  0.00     0.004 C 
ENDBRANCH  17  18
ENDBRANCH   8  17
BRANCH  11  20
ATOM     20  O   UNL A   1      32.949  30.734  27.412  1.00  0.00    -0.406 OA
BRANCH  20  21
ATOM     21  C   UNL A   1      34.362  30.759  27.525  1.00  0.00     0.573 C 
ATOM     22  F   UNL A   1      34.941  29.859  26.699  1.00  0.00    -0.132 F 
ATOM     23  F   UNL A   1      34.843  31.991  27.251  1.00  0.00    -0.132 F 
ATOM     24  F   UNL A   1      34.707  30.442  28.792  1.00  0.00    -0.132 F 
ENDBRANCH  20  21
ENDBRANCH  11  20
BRANCH  16  25
ATOM     25  C   UNL A   1      30.738  24.209  23.879  1.00  0.00     0.429 C 
ATOM     26  F   UNL A   1      29.921  24.525  22.849  1.00  0.00    -0.167 F 
ATOM     27  F   UNL A   1      31.974  24.074  23.324  1.00  0.00    -0.167 F 
ATOM     28  F   UNL A   1      30.388  22.988  24.343  1.00  0.00    -0.167 F 
ENDBRANCH  16  25
ENDBRANCH   4   7
ENDBRANCH   2   3
ENDBRANCH   1   2
BRANCH   1  29
ATOM     29  C   UNL A   1      36.367  24.052  25.660  1.00  0.00     0.118 C 
BRANCH  29  30
ATOM     30  N   UNL A   1      37.428  23.057  25.698  1.00  0.00    -0.352 N 
ATOM     31  C   UNL A   1      38.728  23.176  26.122  1.00  0.00     0.251 C 
ATOM     32  H   UNL A   1      37.175  22.165  25.368  1.00  0.00     0.163 HD
ATOM     33  O   UNL A   1      39.529  22.287  25.843  1.00  0.00    -0.269 OA
BRANCH  31  34
ATOM     34  C   UNL A   1      39.171  24.356  26.900  1.00  0.00     0.039 A 
ATOM     35  C   UNL A   1      39.965  25.317  26.268  1.00  0.00     0.014 A 
ATOM     36  C   UNL A   1      38.862  24.490  28.256  1.00  0.00     0.014 A 
ATOM     37  C   UNL A   1      40.415  26.430  26.983  1.00  0.00     0.010 A 
ATOM     38  C   UNL A   1      39.255  25.632  28.951  1.00  0.00     0.010 A 
ATOM     39  C   UNL A   1      40.045  26.608  28.326  1.00  0.00    -0.014 A 
BRANCH  39  40
ATOM     40  C   UNL A   1      40.488  27.800  29.096  1.00  0.00     0.031 A 
ATOM     41  C   UNL A   1      41.833  27.805  29.773  1.00  0.00     0.074 A 
ATOM     42  C   UNL A   1      39.658  28.852  29.231  1.00  0.00     0.049 A 
ATOM     43  N   UNL A   1      42.363  28.713  30.552  1.00  0.00    -0.248 NA
ATOM     44  C   UNL A   1      42.682  26.620  29.570  1.00  0.00     0.031 C 
ATOM     45  C   UNL A   1      38.315  28.950  28.653  1.00  0.00     0.029 A 
ATOM     46  N   UNL A   1      39.814  30.037  29.905  1.00  0.00    -0.354 N 
ATOM     47  C   UNL A   1      43.597  28.205  30.942  1.00  0.00     0.074 A 
ATOM     48  C   UNL A   1      43.716  26.888  30.354  1.00  0.00     0.031 C 
ATOM     49  C   UNL A   1      37.779  30.137  28.983  1.00  0.00     0.029 A 
ATOM     50  C   UNL A   1      38.721  30.868  29.825  1.00  0.00     0.049 A 
ATOM     51  H   UNL A   1      40.631  30.269  30.402  1.00  0.00     0.167 HD
ATOM     52  C   UNL A   1      44.554  28.792  31.702  1.00  0.00     0.037 A 
ATOM     53  C   UNL A   1      38.500  32.078  30.373  1.00  0.00     0.037 A 
ATOM     54  C   UNL A   1      44.439  30.114  32.261  1.00  0.00     0.049 A 
ATOM     55  C   UNL A   1      39.577  32.709  31.212  1.00  0.00     0.074 A 
ATOM     56  C   UNL A   1      45.370  30.818  33.005  1.00  0.00     0.029 A 
ATOM     57  N   UNL A   1      43.326  30.933  32.136  1.00  0.00    -0.354 N 
ATOM     58  N   UNL A   1      40.759  32.236  31.530  1.00  0.00    -0.248 NA
ATOM     59  C   UNL A   1      39.295  34.043  31.763  1.00  0.00     0.031 C 
ATOM     60  C   UNL A   1      44.805  32.048  33.360  1.00  0.00     0.029 A 
ATOM     61  C   UNL A   1      43.541  32.129  32.800  1.00  0.00     0.049 A 
ATOM     62  H   UNL A   1      42.505  30.698  31.647  1.00  0.00     0.167 HD
ATOM     63  C   UNL A   1      41.372  33.224  32.292  1.00  0.00     0.074 A 
ATOM     64  C   UNL A   1      40.435  34.325  32.380  1.00  0.00     0.031 C 
ATOM     65  C   UNL A   1      42.601  33.220  32.865  1.00  0.00     0.037 A 
BRANCH  52  66
ATOM     66  C   UNL A   1      45.811  28.009  31.966  1.00  0.00     0.058 A 
ATOM     67  C   UNL A   1      46.944  28.138  31.146  1.00  0.00     0.135 A 
ATOM     68  C   UNL A   1      45.898  27.144  33.068  1.00  0.00     0.135 A 
ATOM     69  F   UNL A   1      46.912  28.941  30.070  1.00  0.00    -0.206 F 
ATOM     70  C   UNL A   1      48.106  27.412  31.390  1.00  0.00     0.059 A 
ATOM     71  C   UNL A   1      47.060  26.429  33.347  1.00  0.00     0.059 A 
ATOM     72  F   UNL A   1      44.846  26.982  33.887  1.00  0.00    -0.206 F 
ATOM     73  C   UNL A   1      48.154  26.558  32.492  1.00  0.00     0.060 A 
BRANCH  73  74
ATOM     74  S   UNL A   1      49.668  25.623  32.793  1.00  0.00     0.124 S 
ATOM     75  O   UNL A   1      49.311  24.869  33.992  1.00  0.00    -0.237 OA
ATOM     76  O   UNL A   1      49.799  24.838  31.570  1.00  0.00    -0.237 OA
ATOM     77  O   UNL A   1      50.677  26.659  32.982  1.00  0.00    -0.744 OA
ENDBRANCH  73  74
ENDBRANCH  52  66
BRANCH  53  78
ATOM     78  C   UNL A   1      37.214  32.783  30.126  1.00  0.00     0.058 A 
ATOM     79  C   UNL A   1      37.104  33.743  29.109  1.00  0.00     0.135 A 
ATOM     80  C   UNL A   1      36.069  32.504  30.888  1.00  0.00     0.135 A 
ATOM     81  F   UNL A   1      38.173  34.047  28.356  1.00  0.00    -0.206 F 
ATOM     82  C   UNL A   1      35.911  34.417  28.868  1.00  0.00     0.059 A 
ATOM     83  C   UNL A   1      34.858  33.147  30.650  1.00  0.00     0.059 A 
ATOM     84  F   UNL A   1      36.117  31.580  31.860  1.00  0.00    -0.206 F 
ATOM     85  C   UNL A   1      34.792  34.110  29.644  1.00  0.00     0.060 A 
BRANCH  85  86
ATOM     86  S   UNL A   1      33.236  34.957  29.294  1.00  0.00     0.124 S 
ATOM     87  O   UNL A   1      33.708  36.243  28.796  1.00  0.00    -0.237 OA
ATOM     88  O   UNL A   1      32.621  34.075  28.307  1.00  0.00    -0.237 OA
ATOM     89  O   UNL A   1      32.573  34.988  30.595  1.00  0.00    -0.744 OA
ENDBRANCH  85  86
ENDBRANCH  53  78
BRANCH  65  90
ATOM     90  C   UNL A   1      43.021  34.460  33.605  1.00  0.00     0.058 A 
ATOM     91  C   UNL A   1      42.853  34.585  34.992  1.00  0.00     0.135 A 
ATOM     92  C   UNL A   1      43.645  35.515  32.921  1.00  0.00     0.135 A 
ATOM     93  F   UNL A   1      42.256  33.607  35.692  1.00  0.00    -0.206 F 
ATOM     94  C   UNL A   1      43.269  35.724  35.674  1.00  0.00     0.059 A 
ATOM     95  C   UNL A   1      44.093  36.653  33.586  1.00  0.00     0.059 A 
ATOM     96  F   UNL A   1      43.839  35.441  31.594  1.00  0.00    -0.206 F 
ATOM     97  C   UNL A   1      43.890  36.752  34.961  1.00  0.00     0.060 A 
BRANCH  97  98
ATOM     98  S   UNL A   1      44.457  38.210  35.862  1.00  0.00     0.124 S 
ATOM     99  O   UNL A   1      45.897  37.979  35.918  1.00  0.00    -0.237 OA
ATOM    100  O   UNL A   1      44.023  39.303  34.997  1.00  0.00    -0.237 OA
ATOM    101  O   UNL A   1      43.755  38.114  37.139  1.00  0.00    -0.744 OA
ENDBRANCH  97  98
ENDBRANCH  65  90
ENDBRANCH  39  40
ENDBRANCH  31  34
ENDBRANCH  29  30
ENDBRANCH   1  29
TORSDOF 18
ENDMDL
MODEL 3
REMARK VINA RESULT:     -11.1      4.729     10.251
REMARK SMILES CCCc1cc(OC(F)(F)F)cc2c1O[C@@H](C(F)(F)F)C(C(=O)NCCCNC(=O)c1ccc(-c3c4nc(c(-c5c(F)cc(S(=O)(=O)[O-])cc5F)c5ccc([nH]5)c(-c5c(F)cc(S(=O)(=O)[O-])cc5F)c5nc(c(-c6c(F)cc(S(=O)(=O)[O-])cc6F)c6ccc3[nH]6)C=C5)C=C4)cc1)=C2
REMARK SMILES IDX 26 1 25 2 24 3 22 4 23 5 21 7 4 8 5 9 14 10 6 11 13 12 15 13
REMARK SMILES IDX 12 14 97 15 16 16 3 17 2 18 1 19 7 20 8 21 9 22 10 23 11 24
REMARK SMILES IDX 17 25 18 26 19 27 20 28 27 29 28 30 29 31 30 33 31 34 32 35
REMARK SMILES IDX 96 36 33 37 95 38 34 39 35 40 36 41 89 42 37 43 94 44 88 45
REMARK SMILES IDX 90 46 38 47 93 48 87 49 86 50 39 52 73 53 52 54 72 55 53 56
REMARK SMILES IDX 56 57 71 58 91 59 54 60 55 61 70 63 92 64 57 65 40 66 41 67
REMARK SMILES IDX 50 68 42 69 43 70 49 71 51 72 44 73 45 74 46 75 47 76 48 77
REMARK SMILES IDX 74 78 75 79 84 80 76 81 77 82 83 83 85 84 78 85 79 86 80 87
REMARK SMILES IDX 81 88 82 89 58 90 59 91 68 92 60 93 61 94 67 95 69 96 62 97
REMARK SMILES IDX 63 98 64 99 65 100 66 101
REMARK H PARENT 24 6 28 32 90 51 56 62
REMARK Flexibility Score: inf
ROOT
ATOM      1  C   UNL A   1      37.866  24.107  25.798  1.00  0.00     0.042 C 
ENDROOT
BRANCH   1   2
ATOM      2  C   UNL A   1      37.236  22.989  24.961  1.00  0.00     0.118 C 
BRANCH   2   3
ATOM      3  N   UNL A   1      36.193  22.302  25.711  1.00  0.00    -0.352 N 
ATOM      4  C   UNL A   1      34.930  22.651  26.069  1.00  0.00     0.251 C 
ATOM      5  O   UNL A   1      34.307  21.885  26.800  1.00  0.00    -0.270 OA
ATOM      6  H   UNL A   1      36.456  21.406  26.019  1.00  0.00     0.163 HD
BRANCH   4   7
ATOM      7  C   UNL A   1      34.255  23.875  25.567  1.00  0.00     0.067 C 
ATOM      8  C   UNL A   1      32.380  27.224  23.823  1.00  0.00    -0.002 A 
ATOM      9  C   UNL A   1      32.544  28.474  24.447  1.00  0.00     0.054 A 
ATOM     10  C   UNL A   1      33.006  26.105  24.404  1.00  0.00     0.131 A 
ATOM     11  C   UNL A   1      33.354  28.625  25.575  1.00  0.00     0.130 A 
ATOM     12  C   UNL A   1      33.776  26.239  25.559  1.00  0.00     0.021 A 
ATOM     13  O   UNL A   1      32.892  24.905  23.755  1.00  0.00    -0.475 OA
ATOM     14  C   UNL A   1      33.952  27.498  26.137  1.00  0.00     0.058 A 
ATOM     15  C   UNL A   1      34.463  25.082  26.110  1.00  0.00     0.025 C 
ATOM     16  C   UNL A   1      33.164  23.690  24.518  1.00  0.00     0.314 C 
BRANCH   8  17
ATOM     17  C   UNL A   1      31.561  27.038  22.558  1.00  0.00     0.039 C 
BRANCH  17  18
ATOM     18  C   UNL A   1      30.313  27.908  22.354  1.00  0.00     0.001 C 
ATOM     19  C   UNL A   1      29.157  27.548  23.280  1.00  0.00     0.004 C 
ENDBRANCH  17  18
ENDBRANCH   8  17
BRANCH  11  20
ATOM     20  O   UNL A   1      33.646  29.797  26.211  1.00  0.00    -0.406 OA
BRANCH  20  21
ATOM     21  C   UNL A   1      32.626  30.390  26.998  1.00  0.00     0.573 C 
ATOM     22  F   UNL A   1      31.846  31.211  26.259  1.00  0.00    -0.132 F 
ATOM     23  F   UNL A   1      31.856  29.444  27.577  1.00  0.00    -0.132 F 
ATOM     24  F   UNL A   1      33.198  31.127  27.975  1.00  0.00    -0.132 F 
ENDBRANCH  20  21
ENDBRANCH  11  20
BRANCH  16  25
ATOM     25  C   UNL A   1      33.368  22.554  23.489  1.00  0.00     0.429 C 
ATOM     26  F   UNL A   1      32.615  22.707  22.377  1.00  0.00    -0.167 F 
ATOM     27  F   UNL A   1      34.656  22.531  23.047  1.00  0.00    -0.167 F 
ATOM     28  F   UNL A   1      33.117  21.331  24.010  1.00  0.00    -0.167 F 
ENDBRANCH  16  25
ENDBRANCH   4   7
ENDBRANCH   2   3
ENDBRANCH   1   2
BRANCH   1  29
ATOM     29  C   UNL A   1      38.945  23.614  26.759  1.00  0.00     0.118 C 
BRANCH  29  30
ATOM     30  N   UNL A   1      40.279  23.767  26.197  1.00  0.00    -0.352 N 
ATOM     31  C   UNL A   1      41.205  24.761  26.392  1.00  0.00     0.251 C 
ATOM     32  H   UNL A   1      40.558  23.048  25.585  1.00  0.00     0.163 HD
ATOM     33  O   UNL A   1      42.171  24.831  25.636  1.00  0.00    -0.269 OA
BRANCH  31  34
ATOM     34  C   UNL A   1      41.048  25.743  27.489  1.00  0.00     0.039 A 
ATOM     35  C   UNL A   1      41.992  26.768  27.611  1.00  0.00     0.014 A 
ATOM     36  C   UNL A   1      40.021  25.627  28.428  1.00  0.00     0.014 A 
ATOM     37  C   UNL A   1      41.881  27.698  28.649  1.00  0.00     0.010 A 
ATOM     38  C   UNL A   1      39.873  26.592  29.423  1.00  0.00     0.010 A 
ATOM     39  C   UNL A   1      40.807  27.630  29.551  1.00  0.00    -0.014 A 
BRANCH  39  40
ATOM     40  C   UNL A   1      40.655  28.626  30.644  1.00  0.00     0.031 A 
ATOM     41  C   UNL A   1      41.501  28.522  31.885  1.00  0.00     0.074 A 
ATOM     42  C   UNL A   1      39.718  29.589  30.543  1.00  0.00     0.049 A 
ATOM     43  N   UNL A   1      41.462  29.243  32.976  1.00  0.00    -0.248 NA
ATOM     44  C   UNL A   1      42.506  27.447  31.914  1.00  0.00     0.031 C 
ATOM     45  C   UNL A   1      38.811  29.770  29.406  1.00  0.00     0.029 A 
ATOM     46  N   UNL A   1      39.363  30.590  31.411  1.00  0.00    -0.354 N 
ATOM     47  C   UNL A   1      42.422  28.703  33.824  1.00  0.00     0.074 A 
ATOM     48  C   UNL A   1      42.994  27.562  33.140  1.00  0.00     0.031 C 
ATOM     49  C   UNL A   1      38.018  30.828  29.640  1.00  0.00     0.029 A 
ATOM     50  C   UNL A   1      38.332  31.378  30.955  1.00  0.00     0.049 A 
ATOM     51  H   UNL A   1      39.804  30.730  32.279  1.00  0.00     0.167 HD
ATOM     52  C   UNL A   1      42.808  29.131  35.050  1.00  0.00     0.037 A 
ATOM     53  C   UNL A   1      37.705  32.420  31.535  1.00  0.00     0.037 A 
ATOM     54  C   UNL A   1      42.252  30.283  35.713  1.00  0.00     0.049 A 
ATOM     55  C   UNL A   1      38.152  32.877  32.897  1.00  0.00     0.074 A 
ATOM     56  C   UNL A   1      42.606  30.828  36.935  1.00  0.00     0.029 A 
ATOM     57  N   UNL A   1      41.226  31.069  35.207  1.00  0.00    -0.354 N 
ATOM     58  N   UNL A   1      39.095  32.385  33.664  1.00  0.00    -0.248 NA
ATOM     59  C   UNL A   1      37.453  34.036  33.471  1.00  0.00     0.031 C 
ATOM     60  C   UNL A   1      41.770  31.922  37.184  1.00  0.00     0.029 A 
ATOM     61  C   UNL A   1      40.925  32.086  36.098  1.00  0.00     0.049 A 
ATOM     62  H   UNL A   1      40.778  30.925  34.343  1.00  0.00     0.167 HD
ATOM     63  C   UNL A   1      39.124  33.191  34.796  1.00  0.00     0.074 A 
ATOM     64  C   UNL A   1      38.110  34.208  34.610  1.00  0.00     0.031 C 
ATOM     65  C   UNL A   1      39.921  33.098  35.890  1.00  0.00     0.037 A 
BRANCH  52  66
ATOM     66  C   UNL A   1      43.888  28.353  35.752  1.00  0.00     0.058 A 
ATOM     67  C   UNL A   1      43.583  27.298  36.629  1.00  0.00     0.135 A 
ATOM     68  C   UNL A   1      45.242  28.641  35.525  1.00  0.00     0.135 A 
ATOM     69  F   UNL A   1      42.304  26.988  36.894  1.00  0.00    -0.206 F 
ATOM     70  C   UNL A   1      44.582  26.581  37.279  1.00  0.00     0.059 A 
ATOM     71  C   UNL A   1      46.259  27.919  36.143  1.00  0.00     0.059 A 
ATOM     72  F   UNL A   1      45.592  29.638  34.695  1.00  0.00    -0.206 F 
ATOM     73  C   UNL A   1      45.918  26.899  37.032  1.00  0.00     0.060 A 
BRANCH  73  74
ATOM     74  S   UNL A   1      47.201  25.960  37.885  1.00  0.00     0.124 S 
ATOM     75  O   UNL A   1      46.528  24.684  38.107  1.00  0.00    -0.237 OA
ATOM     76  O   UNL A   1      48.280  25.942  36.904  1.00  0.00    -0.237 OA
ATOM     77  O   UNL A   1      47.460  26.750  39.084  1.00  0.00    -0.744 OA
ENDBRANCH  73  74
ENDBRANCH  52  66
BRANCH  53  78
ATOM     78  C   UNL A   1      36.603  33.117  30.819  1.00  0.00     0.058 A 
ATOM     79  C   UNL A   1      35.265  32.916  31.188  1.00  0.00     0.135 A 
ATOM     80  C   UNL A   1      36.864  34.002  29.762  1.00  0.00     0.135 A 
ATOM     81  F   UNL A   1      34.966  32.074  32.190  1.00  0.00    -0.206 F 
ATOM     82  C   UNL A   1      34.222  33.553  30.525  1.00  0.00     0.059 A 
ATOM     83  C   UNL A   1      35.839  34.671  29.099  1.00  0.00     0.059 A 
ATOM     84  F   UNL A   1      38.129  34.244  29.383  1.00  0.00    -0.206 F 
ATOM     85  C   UNL A   1      34.520  34.431  29.481  1.00  0.00     0.060 A 
BRANCH  85  86
ATOM     86  S   UNL A   1      33.162  35.288  28.655  1.00  0.00     0.124 S 
ATOM     87  O   UNL A   1      33.882  36.213  27.789  1.00  0.00    -0.237 OA
ATOM     88  O   UNL A   1      32.468  34.192  27.985  1.00  0.00    -0.237 OA
ATOM     89  O   UNL A   1      32.430  35.898  29.762  1.00  0.00    -0.744 OA
ENDBRANCH  85  86
ENDBRANCH  53  78
BRANCH  65  90
ATOM     90  C   UNL A   1      39.755  34.147  36.954  1.00  0.00     0.058 A 
ATOM     91  C   UNL A   1      39.030  33.899  38.129  1.00  0.00     0.135 A 
ATOM     92  C   UNL A   1      40.375  35.399  36.816  1.00  0.00     0.135 A 
ATOM     93  F   UNL A   1      38.412  32.720  38.307  1.00  0.00    -0.206 F 
ATOM     94  C   UNL A   1      38.905  34.865  39.122  1.00  0.00     0.059 A 
ATOM     95  C   UNL A   1      40.286  36.371  37.808  1.00  0.00     0.059 A 
ATOM     96  F   UNL A   1      41.090  35.683  35.716  1.00  0.00    -0.206 F 
ATOM     97  C   UNL A   1      39.538  36.098  38.952  1.00  0.00     0.060 A 
BRANCH  97  98
ATOM     98  S   UNL A   1      39.397  37.332  40.264  1.00  0.00     0.124 S 
ATOM     99  O   UNL A   1      38.587  36.623  41.248  1.00  0.00    -0.237 OA
ATOM    100  O   UNL A   1      40.792  37.557  40.633  1.00  0.00    -0.237 OA
ATOM    101  O   UNL A   1      38.742  38.456  39.602  1.00  0.00    -0.744 OA
ENDBRANCH  97  98
ENDBRANCH  65  90
ENDBRANCH  39  40
ENDBRANCH  31  34
ENDBRANCH  29  30
ENDBRANCH   1  29
TORSDOF 18
ENDMDL
