MODEL 1
REMARK VINA RESULT:     -10.6      0.000      0.000
REMARK SMILES CCC(CC)C[N@H+]1[C@@H]2CC[C@H]1C[C@H](CC(=O)NCCCNC(=O)c1ccc(-c3c4nc(c(-c5c(F)cc(S(=O)(=O)[O-])cc5F)c5ccc([nH]5)c(-c5c(F)cc(S(=O)(=O)[O-])cc5F)c5nc(c(-c6c(F)cc(S(=O)(=O)[O-])cc6F)c6ccc3[nH]6)C=C5)C=C4)cc1)C2
REMARK SMILES IDX 18 1 17 2 15 3 16 4 14 6 13 7 7 8 8 9 11 10 9 12 90 13 10 14
REMARK SMILES IDX 12 15 6 16 3 17 2 18 1 19 4 20 5 21 19 22 20 23 21 24 22 25
REMARK SMILES IDX 23 27 24 28 25 29 89 30 26 31 88 32 27 33 28 34 29 35 82 36
REMARK SMILES IDX 30 37 87 38 81 39 83 40 31 41 86 42 80 43 79 44 32 46 66 47
REMARK SMILES IDX 45 48 65 49 46 50 49 51 64 52 84 53 47 54 48 55 63 57 85 58
REMARK SMILES IDX 50 59 33 60 34 61 43 62 35 63 36 64 42 65 44 66 37 67 38 68
REMARK SMILES IDX 39 69 40 70 41 71 67 72 68 73 77 74 69 75 70 76 76 77 78 78
REMARK SMILES IDX 71 79 72 80 73 81 74 82 75 83 51 84 52 85 61 86 53 87 54 88
REMARK SMILES IDX 60 89 62 90 55 91 56 92 57 93 58 94 59 95
REMARK H PARENT 17 5 7 11 21 26 83 45 49 56
REMARK Flexibility Score: inf
ROOT
ATOM      1  C   UNL A   1      31.375  27.708  26.150  1.00  0.00     0.117 C 
ENDROOT
BRANCH   1   2
ATOM      2  N   UNL A   1      32.025  28.055  24.890  1.00  0.00    -0.356 N 
ATOM      3  C   UNL A   1      32.508  27.288  23.870  1.00  0.00     0.220 C 
ATOM      4  O   UNL A   1      32.970  27.867  22.885  1.00  0.00    -0.275 OA
ATOM      5  H   UNL A   1      32.134  29.023  24.749  1.00  0.00     0.163 HD
BRANCH   3   6
ATOM      6  C   UNL A   1      32.492  25.769  23.928  1.00  0.00     0.104 C 
BRANCH   6   7
ATOM      7  C   UNL A   1      33.880  25.155  24.224  1.00  0.00     0.010 C 
ATOM      8  N   UNL A   1      34.587  22.342  24.924  1.00  0.00    -0.330 N 
ATOM      9  C   UNL A   1      35.122  22.937  23.687  1.00  0.00     0.184 C 
ATOM     10  C   UNL A   1      34.823  23.403  25.909  1.00  0.00     0.184 C 
ATOM     11  H   UNL A   1      35.050  21.462  25.152  1.00  0.00     0.348 HD
ATOM     12  C   UNL A   1      36.486  23.452  24.173  1.00  0.00     0.071 C 
ATOM     13  C   UNL A   1      34.255  24.100  23.155  1.00  0.00     0.069 C 
ATOM     14  C   UNL A   1      36.284  23.755  25.656  1.00  0.00     0.071 C 
ATOM     15  C   UNL A   1      33.903  24.593  25.650  1.00  0.00     0.069 C 
BRANCH   8  16
ATOM     16  C   UNL A   1      33.205  21.853  24.867  1.00  0.00     0.266 C 
BRANCH  16  17
ATOM     17  C   UNL A   1      33.128  20.312  24.805  1.00  0.00     0.044 C 
BRANCH  17  18
ATOM     18  C   UNL A   1      32.337  19.882  23.549  1.00  0.00     0.006 C 
ATOM     19  C   UNL A   1      32.126  20.993  22.533  1.00  0.00     0.004 C 
ENDBRANCH  17  18
BRANCH  17  20
ATOM     20  C   UNL A   1      34.547  19.700  24.883  1.00  0.00     0.006 C 
ATOM     21  C   UNL A   1      34.663  18.254  24.416  1.00  0.00     0.004 C 
ENDBRANCH  17  20
ENDBRANCH  16  17
ENDBRANCH   8  16
ENDBRANCH   6   7
ENDBRANCH   3   6
ENDBRANCH   1   2
BRANCH   1  22
ATOM     22  C   UNL A   1      32.329  27.744  27.349  1.00  0.00     0.042 C 
BRANCH  22  23
ATOM     23  C   UNL A   1      33.650  28.457  27.097  1.00  0.00     0.118 C 
BRANCH  23  24
ATOM     24  N   UNL A   1      33.583  29.855  27.480  1.00  0.00    -0.352 N 
ATOM     25  C   UNL A   1      34.493  30.624  28.166  1.00  0.00     0.251 C 
ATOM     26  H   UNL A   1      32.760  30.323  27.208  1.00  0.00     0.163 HD
ATOM     27  O   UNL A   1      34.125  31.703  28.625  1.00  0.00    -0.269 OA
BRANCH  25  28
ATOM     28  C   UNL A   1      35.899  30.180  28.364  1.00  0.00     0.039 A 
ATOM     29  C   UNL A   1      36.287  29.723  29.630  1.00  0.00     0.014 A 
ATOM     30  C   UNL A   1      36.857  30.285  27.353  1.00  0.00     0.014 A 
ATOM     31  C   UNL A   1      37.615  29.348  29.869  1.00  0.00     0.010 A 
ATOM     32  C   UNL A   1      38.162  29.838  27.569  1.00  0.00     0.010 A 
ATOM     33  C   UNL A   1      38.563  29.387  28.836  1.00  0.00    -0.014 A 
BRANCH  33  34
ATOM     34  C   UNL A   1      39.989  29.020  29.065  1.00  0.00     0.031 A 
ATOM     35  C   UNL A   1      40.951  30.053  29.598  1.00  0.00     0.074 A 
ATOM     36  C   UNL A   1      40.439  27.792  28.741  1.00  0.00     0.049 A 
ATOM     37  N   UNL A   1      42.249  29.980  29.747  1.00  0.00    -0.248 NA
ATOM     38  C   UNL A   1      40.377  31.353  29.987  1.00  0.00     0.031 C 
ATOM     39  C   UNL A   1      39.621  26.708  28.194  1.00  0.00     0.029 A 
ATOM     40  N   UNL A   1      41.701  27.253  28.809  1.00  0.00    -0.354 N 
ATOM     41  C   UNL A   1      42.650  31.225  30.217  1.00  0.00     0.074 A 
ATOM     42  C   UNL A   1      41.463  32.050  30.292  1.00  0.00     0.031 C 
ATOM     43  C   UNL A   1      40.399  25.633  27.986  1.00  0.00     0.029 A 
ATOM     44  C   UNL A   1      41.776  25.960  28.346  1.00  0.00     0.049 A 
ATOM     45  H   UNL A   1      42.478  27.747  29.156  1.00  0.00     0.167 HD
ATOM     46  C   UNL A   1      43.889  31.642  30.574  1.00  0.00     0.037 A 
ATOM     47  C   UNL A   1      42.835  25.136  28.211  1.00  0.00     0.037 A 
ATOM     48  C   UNL A   1      45.061  30.808  30.541  1.00  0.00     0.049 A 
ATOM     49  C   UNL A   1      44.200  25.615  28.625  1.00  0.00     0.074 A 
ATOM     50  C   UNL A   1      46.353  31.122  30.928  1.00  0.00     0.029 A 
ATOM     51  N   UNL A   1      45.085  29.492  30.103  1.00  0.00    -0.354 N 
ATOM     52  N   UNL A   1      44.554  26.786  29.100  1.00  0.00    -0.248 NA
ATOM     53  C   UNL A   1      45.311  24.662  28.492  1.00  0.00     0.031 C 
ATOM     54  C   UNL A   1      47.164  30.006  30.696  1.00  0.00     0.029 A 
ATOM     55  C   UNL A   1      46.370  28.983  30.204  1.00  0.00     0.049 A 
ATOM     56  H   UNL A   1      44.304  28.994  29.770  1.00  0.00     0.167 HD
ATOM     57  C   UNL A   1      45.918  26.698  29.352  1.00  0.00     0.074 A 
ATOM     58  C   UNL A   1      46.328  25.359  28.979  1.00  0.00     0.031 C 
ATOM     59  C   UNL A   1      46.756  27.640  29.852  1.00  0.00     0.037 A 
BRANCH  46  60
ATOM     60  C   UNL A   1      44.042  33.066  31.035  1.00  0.00     0.058 A 
ATOM     61  C   UNL A   1      44.226  34.119  30.125  1.00  0.00     0.135 A 
ATOM     62  C   UNL A   1      43.974  33.386  32.401  1.00  0.00     0.135 A 
ATOM     63  F   UNL A   1      44.313  33.869  28.810  1.00  0.00    -0.206 F 
ATOM     64  C   UNL A   1      44.369  35.435  30.555  1.00  0.00     0.059 A 
ATOM     65  C   UNL A   1      44.087  34.698  32.851  1.00  0.00     0.059 A 
ATOM     66  F   UNL A   1      43.797  32.417  33.314  1.00  0.00    -0.206 F 
ATOM     67  C   UNL A   1      44.301  35.714  31.922  1.00  0.00     0.060 A 
BRANCH  67  68
ATOM     68  S   UNL A   1      44.491  37.426  32.463  1.00  0.00     0.124 S 
ATOM     69  O   UNL A   1      45.935  37.509  32.659  1.00  0.00    -0.237 OA
ATOM     70  O   UNL A   1      43.963  38.176  31.329  1.00  0.00    -0.237 OA
ATOM     71  O   UNL A   1      43.687  37.487  33.681  1.00  0.00    -0.744 OA
ENDBRANCH  67  68
ENDBRANCH  46  60
BRANCH  47  72
ATOM     72  C   UNL A   1      42.641  23.762  27.677  1.00  0.00     0.058 A 
ATOM     73  C   UNL A   1      42.509  22.666  28.542  1.00  0.00     0.135 A 
ATOM     74  C   UNL A   1      42.571  23.519  26.296  1.00  0.00     0.135 A 
ATOM     75  F   UNL A   1      42.577  22.848  29.869  1.00  0.00    -0.206 F 
ATOM     76  C   UNL A   1      42.327  21.374  28.058  1.00  0.00     0.059 A 
ATOM     77  C   UNL A   1      42.367  22.240  25.790  1.00  0.00     0.059 A 
ATOM     78  F   UNL A   1      42.677  24.537  25.428  1.00  0.00    -0.206 F 
ATOM     79  C   UNL A   1      42.256  21.171  26.680  1.00  0.00     0.060 A 
BRANCH  79  80
ATOM     80  S   UNL A   1      41.970  19.498  26.063  1.00  0.00     0.124 S 
ATOM     81  O   UNL A   1      42.842  19.462  24.895  1.00  0.00    -0.237 OA
ATOM     82  O   UNL A   1      42.386  18.677  27.196  1.00  0.00    -0.237 OA
ATOM     83  O   UNL A   1      40.538  19.484  25.783  1.00  0.00    -0.744 OA
ENDBRANCH  79  80
ENDBRANCH  47  72
BRANCH  59  84
ATOM     84  C   UNL A   1      48.190  27.251  30.077  1.00  0.00     0.058 A 
ATOM     85  C   UNL A   1      49.190  27.537  29.137  1.00  0.00     0.135 A 
ATOM     86  C   UNL A   1      48.576  26.649  31.287  1.00  0.00     0.135 A 
ATOM     87  F   UNL A   1      48.873  28.106  27.964  1.00  0.00    -0.206 F 
ATOM     88  C   UNL A   1      50.525  27.230  29.384  1.00  0.00     0.059 A 
ATOM     89  C   UNL A   1      49.907  26.355  31.562  1.00  0.00     0.059 A 
ATOM     90  F   UNL A   1      47.656  26.363  32.222  1.00  0.00    -0.206 F 
ATOM     91  C   UNL A   1      50.874  26.643  30.601  1.00  0.00     0.060 A 
BRANCH  91  92
ATOM     92  S   UNL A   1      52.615  26.298  30.932  1.00  0.00     0.124 S 
ATOM     93  O   UNL A   1      53.122  26.024  29.591  1.00  0.00    -0.237 OA
ATOM     94  O   UNL A   1      53.072  27.544  31.539  1.00  0.00    -0.237 OA
ATOM     95  O   UNL A   1      52.569  25.150  31.832  1.00  0.00    -0.744 OA
ENDBRANCH  91  92
ENDBRANCH  59  84
ENDBRANCH  33  34
ENDBRANCH  25  28
ENDBRANCH  23  24
ENDBRANCH  22  23
ENDBRANCH   1  22
TORSDOF 18
ENDMDL
MODEL 2
REMARK VINA RESULT:     -10.4      3.203      9.489
REMARK SMILES CCC(CC)C[N@H+]1[C@@H]2CC[C@H]1C[C@H](CC(=O)NCCCNC(=O)c1ccc(-c3c4nc(c(-c5c(F)cc(S(=O)(=O)[O-])cc5F)c5ccc([nH]5)c(-c5c(F)cc(S(=O)(=O)[O-])cc5F)c5nc(c(-c6c(F)cc(S(=O)(=O)[O-])cc6F)c6ccc3[nH]6)C=C5)C=C4)cc1)C2
REMARK SMILES IDX 18 1 17 2 15 3 16 4 14 6 13 7 7 8 8 9 11 10 9 12 90 13 10 14
REMARK SMILES IDX 12 15 6 16 3 17 2 18 1 19 4 20 5 21 19 22 20 23 21 24 22 25
REMARK SMILES IDX 23 27 24 28 25 29 89 30 26 31 88 32 27 33 28 34 29 35 82 36
REMARK SMILES IDX 30 37 87 38 81 39 83 40 31 41 86 42 80 43 79 44 32 46 66 47
REMARK SMILES IDX 45 48 65 49 46 50 49 51 64 52 84 53 47 54 48 55 63 57 85 58
REMARK SMILES IDX 50 59 33 60 34 61 43 62 35 63 36 64 42 65 44 66 37 67 38 68
REMARK SMILES IDX 39 69 40 70 41 71 67 72 68 73 77 74 69 75 70 76 76 77 78 78
REMARK SMILES IDX 71 79 72 80 73 81 74 82 75 83 51 84 52 85 61 86 53 87 54 88
REMARK SMILES IDX 60 89 62 90 55 91 56 92 57 93 58 94 59 95
REMARK H PARENT 17 5 7 11 21 26 83 45 49 56
REMARK Flexibility Score: inf
ROOT
ATOM      1  C   UNL A   1      34.205  24.044  25.274  1.00  0.00     0.117 C 
ENDROOT
BRANCH   1   2
ATOM      2  N   UNL A   1      33.170  24.308  26.268  1.00  0.00    -0.356 N 
ATOM      3  C   UNL A   1      31.811  24.200  26.221  1.00  0.00     0.220 C 
ATOM      4  O   UNL A   1      31.179  24.449  27.251  1.00  0.00    -0.275 OA
ATOM      5  H   UNL A   1      33.517  24.622  27.134  1.00  0.00     0.163 HD
BRANCH   3   6
ATOM      6  C   UNL A   1      31.078  23.795  24.953  1.00  0.00     0.104 C 
BRANCH   6   7
ATOM      7  C   UNL A   1      30.670  24.999  24.072  1.00  0.00     0.010 C 
ATOM      8  N   UNL A   1      31.595  27.833  24.205  1.00  0.00    -0.330 N 
ATOM      9  C   UNL A   1      31.855  27.042  22.990  1.00  0.00     0.184 C 
ATOM     10  C   UNL A   1      30.186  27.529  24.480  1.00  0.00     0.184 C 
ATOM     11  H   UNL A   1      31.776  28.825  24.058  1.00  0.00     0.348 HD
ATOM     12  C   UNL A   1      30.647  27.426  22.123  1.00  0.00     0.071 C 
ATOM     13  C   UNL A   1      31.878  25.520  23.256  1.00  0.00     0.069 C 
ATOM     14  C   UNL A   1      29.538  27.756  23.120  1.00  0.00     0.071 C 
ATOM     15  C   UNL A   1      30.028  26.083  24.945  1.00  0.00     0.069 C 
BRANCH   8  16
ATOM     16  C   UNL A   1      32.502  27.610  25.335  1.00  0.00     0.266 C 
BRANCH  16  17
ATOM     17  C   UNL A   1      32.868  28.921  26.064  1.00  0.00     0.044 C 
BRANCH  17  18
ATOM     18  C   UNL A   1      31.859  29.180  27.206  1.00  0.00     0.006 C 
ATOM     19  C   UNL A   1      31.404  27.925  27.934  1.00  0.00     0.004 C 
ENDBRANCH  17  18
BRANCH  17  20
ATOM     20  C   UNL A   1      34.341  28.879  26.537  1.00  0.00     0.006 C 
ATOM     21  C   UNL A   1      34.710  29.885  27.622  1.00  0.00     0.004 C 
ENDBRANCH  17  20
ENDBRANCH  16  17
ENDBRANCH   8  16
ENDBRANCH   6   7
ENDBRANCH   3   6
ENDBRANCH   1   2
BRANCH   1  22
ATOM     22  C   UNL A   1      35.530  23.585  25.891  1.00  0.00     0.042 C 
BRANCH  22  23
ATOM     23  C   UNL A   1      36.750  23.762  24.997  1.00  0.00     0.118 C 
BRANCH  23  24
ATOM     24  N   UNL A   1      37.771  22.773  25.286  1.00  0.00    -0.352 N 
ATOM     25  C   UNL A   1      38.984  22.920  25.918  1.00  0.00     0.251 C 
ATOM     26  H   UNL A   1      37.566  21.860  24.982  1.00  0.00     0.163 HD
ATOM     27  O   UNL A   1      39.815  22.019  25.815  1.00  0.00    -0.269 OA
BRANCH  25  28
ATOM     28  C   UNL A   1      39.309  24.134  26.713  1.00  0.00     0.039 A 
ATOM     29  C   UNL A   1      40.121  25.118  26.136  1.00  0.00     0.014 A 
ATOM     30  C   UNL A   1      38.899  24.279  28.041  1.00  0.00     0.014 A 
ATOM     31  C   UNL A   1      40.493  26.250  26.873  1.00  0.00     0.010 A 
ATOM     32  C   UNL A   1      39.206  25.443  28.750  1.00  0.00     0.010 A 
ATOM     33  C   UNL A   1      40.025  26.431  28.184  1.00  0.00    -0.014 A 
BRANCH  33  34
ATOM     34  C   UNL A   1      40.425  27.609  29.004  1.00  0.00     0.031 A 
ATOM     35  C   UNL A   1      41.721  27.580  29.774  1.00  0.00     0.074 A 
ATOM     36  C   UNL A   1      39.607  28.675  29.111  1.00  0.00     0.049 A 
ATOM     37  N   UNL A   1      42.191  28.440  30.641  1.00  0.00    -0.248 NA
ATOM     38  C   UNL A   1      42.592  26.411  29.560  1.00  0.00     0.031 C 
ATOM     39  C   UNL A   1      38.314  28.821  28.440  1.00  0.00     0.029 A 
ATOM     40  N   UNL A   1      39.734  29.832  29.840  1.00  0.00    -0.354 N 
ATOM     41  C   UNL A   1      43.391  27.906  31.096  1.00  0.00     0.074 A 
ATOM     42  C   UNL A   1      43.560  26.628  30.440  1.00  0.00     0.031 C 
ATOM     43  C   UNL A   1      37.773  30.002  28.780  1.00  0.00     0.029 A 
ATOM     44  C   UNL A   1      38.658  30.681  29.723  1.00  0.00     0.049 A 
ATOM     45  H   UNL A   1      40.521  30.034  30.395  1.00  0.00     0.167 HD
ATOM     46  C   UNL A   1      44.283  28.437  31.968  1.00  0.00     0.037 A 
ATOM     47  C   UNL A   1      38.405  31.864  30.319  1.00  0.00     0.037 A 
ATOM     48  C   UNL A   1      44.135  29.727  32.587  1.00  0.00     0.049 A 
ATOM     49  C   UNL A   1      39.415  32.441  31.273  1.00  0.00     0.074 A 
ATOM     50  C   UNL A   1      45.008  30.375  33.446  1.00  0.00     0.029 A 
ATOM     51  N   UNL A   1      43.050  30.572  32.410  1.00  0.00    -0.354 N 
ATOM     52  N   UNL A   1      40.561  31.936  31.665  1.00  0.00    -0.248 NA
ATOM     53  C   UNL A   1      39.104  33.751  31.863  1.00  0.00     0.031 C 
ATOM     54  C   UNL A   1      44.435  31.598  33.811  1.00  0.00     0.029 A 
ATOM     55  C   UNL A   1      43.226  31.731  33.147  1.00  0.00     0.049 A 
ATOM     56  H   UNL A   1      42.269  30.376  31.843  1.00  0.00     0.167 HD
ATOM     57  C   UNL A   1      41.120  32.881  32.519  1.00  0.00     0.074 A 
ATOM     58  C   UNL A   1      40.189  33.988  32.587  1.00  0.00     0.031 C 
ATOM     59  C   UNL A   1      42.301  32.835  33.185  1.00  0.00     0.037 A 
BRANCH  46  60
ATOM     60  C   UNL A   1      45.503  27.623  32.302  1.00  0.00     0.058 A 
ATOM     61  C   UNL A   1      46.694  27.745  31.570  1.00  0.00     0.135 A 
ATOM     62  C   UNL A   1      45.491  26.730  33.386  1.00  0.00     0.135 A 
ATOM     63  F   UNL A   1      46.757  28.572  30.514  1.00  0.00    -0.206 F 
ATOM     64  C   UNL A   1      47.821  26.990  31.881  1.00  0.00     0.059 A 
ATOM     65  C   UNL A   1      46.615  25.984  33.732  1.00  0.00     0.059 A 
ATOM     66  F   UNL A   1      44.379  26.575  34.122  1.00  0.00    -0.206 F 
ATOM     67  C   UNL A   1      47.770  26.109  32.963  1.00  0.00     0.060 A 
BRANCH  67  68
ATOM     68  S   UNL A   1      49.238  25.133  33.351  1.00  0.00     0.124 S 
ATOM     69  O   UNL A   1      48.648  23.962  33.992  1.00  0.00    -0.237 OA
ATOM     70  O   UNL A   1      49.823  24.906  32.035  1.00  0.00    -0.237 OA
ATOM     71  O   UNL A   1      50.005  26.011  34.232  1.00  0.00    -0.744 OA
ENDBRANCH  67  68
ENDBRANCH  46  60
BRANCH  47  72
ATOM     72  C   UNL A   1      37.145  32.593  30.012  1.00  0.00     0.058 A 
ATOM     73  C   UNL A   1      35.962  32.309  30.710  1.00  0.00     0.135 A 
ATOM     74  C   UNL A   1      37.102  33.594  29.029  1.00  0.00     0.135 A 
ATOM     75  F   UNL A   1      35.953  31.355  31.653  1.00  0.00    -0.206 F 
ATOM     76  C   UNL A   1      34.776  32.981  30.435  1.00  0.00     0.059 A 
ATOM     77  C   UNL A   1      35.933  34.296  28.753  1.00  0.00     0.059 A 
ATOM     78  F   UNL A   1      38.212  33.913  28.344  1.00  0.00    -0.206 F 
ATOM     79  C   UNL A   1      34.771  33.975  29.456  1.00  0.00     0.060 A 
BRANCH  79  80
ATOM     80  S   UNL A   1      33.239  34.877  29.142  1.00  0.00     0.124 S 
ATOM     81  O   UNL A   1      32.662  34.950  30.480  1.00  0.00    -0.237 OA
ATOM     82  O   UNL A   1      33.730  36.136  28.589  1.00  0.00    -0.237 OA
ATOM     83  O   UNL A   1      32.532  34.020  28.196  1.00  0.00    -0.744 OA
ENDBRANCH  79  80
ENDBRANCH  47  72
BRANCH  59  84
ATOM     84  C   UNL A   1      42.687  34.034  34.005  1.00  0.00     0.058 A 
ATOM     85  C   UNL A   1      42.307  34.164  35.348  1.00  0.00     0.135 A 
ATOM     86  C   UNL A   1      43.513  35.029  33.455  1.00  0.00     0.135 A 
ATOM     87  F   UNL A   1      41.514  33.244  35.919  1.00  0.00    -0.206 F 
ATOM     88  C   UNL A   1      42.723  35.247  36.117  1.00  0.00     0.059 A 
ATOM     89  C   UNL A   1      43.958  36.107  34.212  1.00  0.00     0.059 A 
ATOM     90  F   UNL A   1      43.911  34.945  32.175  1.00  0.00    -0.206 F 
ATOM     91  C   UNL A   1      43.552  36.211  35.541  1.00  0.00     0.060 A 
BRANCH  91  92
ATOM     92  S   UNL A   1      44.130  37.583  36.563  1.00  0.00     0.124 S 
ATOM     93  O   UNL A   1      45.500  37.177  36.855  1.00  0.00    -0.237 OA
ATOM     94  O   UNL A   1      43.984  38.726  35.667  1.00  0.00    -0.237 OA
ATOM     95  O   UNL A   1      43.215  37.568  37.700  1.00  0.00    -0.744 OA
ENDBRANCH  91  92
ENDBRANCH  59  84
ENDBRANCH  33  34
ENDBRANCH  25  28
ENDBRANCH  23  24
ENDBRANCH  22  23
ENDBRANCH   1  22
TORSDOF 18
ENDMDL
MODEL 3
REMARK VINA RESULT:     -10.1      4.982     10.613
REMARK SMILES CCC(CC)C[N@H+]1[C@@H]2CC[C@H]1C[C@H](CC(=O)NCCCNC(=O)c1ccc(-c3c4nc(c(-c5c(F)cc(S(=O)(=O)[O-])cc5F)c5ccc([nH]5)c(-c5c(F)cc(S(=O)(=O)[O-])cc5F)c5nc(c(-c6c(F)cc(S(=O)(=O)[O-])cc6F)c6ccc3[nH]6)C=C5)C=C4)cc1)C2
REMARK SMILES IDX 18 1 17 2 15 3 16 4 14 6 13 7 7 8 8 9 11 10 9 12 90 13 10 14
REMARK SMILES IDX 12 15 6 16 3 17 2 18 1 19 4 20 5 21 19 22 20 23 21 24 22 25
REMARK SMILES IDX 23 27 24 28 25 29 89 30 26 31 88 32 27 33 28 34 29 35 82 36
REMARK SMILES IDX 30 37 87 38 81 39 83 40 31 41 86 42 80 43 79 44 32 46 66 47
REMARK SMILES IDX 45 48 65 49 46 50 49 51 64 52 84 53 47 54 48 55 63 57 85 58
REMARK SMILES IDX 50 59 33 60 34 61 43 62 35 63 36 64 42 65 44 66 37 67 38 68
REMARK SMILES IDX 39 69 40 70 41 71 67 72 68 73 77 74 69 75 70 76 76 77 78 78
REMARK SMILES IDX 71 79 72 80 73 81 74 82 75 83 51 84 52 85 61 86 53 87 54 88
REMARK SMILES IDX 60 89 62 90 55 91 56 92 57 93 58 94 59 95
REMARK H PARENT 17 5 7 11 21 26 83 45 49 56
REMARK Flexibility Score: inf
ROOT
ATOM      1  C   UNL A   1      39.582  22.373  26.554  1.00  0.00     0.117 C 
ENDROOT
BRANCH   1   2
ATOM      2  N   UNL A   1      39.007  21.305  25.742  1.00  0.00    -0.356 N 
ATOM      3  C   UNL A   1      37.757  21.123  25.227  1.00  0.00     0.220 C 
ATOM      4  O   UNL A   1      37.567  20.129  24.522  1.00  0.00    -0.275 OA
ATOM      5  H   UNL A   1      39.639  20.583  25.526  1.00  0.00     0.163 HD
BRANCH   3   6
ATOM      6  C   UNL A   1      36.622  22.094  25.505  1.00  0.00     0.104 C 
BRANCH   6   7
ATOM      7  C   UNL A   1      35.257  21.611  24.961  1.00  0.00     0.010 C 
ATOM      8  N   UNL A   1      32.569  22.881  25.215  1.00  0.00    -0.330 N 
ATOM      9  C   UNL A   1      33.159  22.694  23.879  1.00  0.00     0.184 C 
ATOM     10  C   UNL A   1      32.804  21.577  25.846  1.00  0.00     0.184 C 
ATOM     11  H   UNL A   1      31.583  23.137  25.162  1.00  0.00     0.348 HD
ATOM     12  C   UNL A   1      32.539  21.350  23.467  1.00  0.00     0.071 C 
ATOM     13  C   UNL A   1      34.701  22.600  23.909  1.00  0.00     0.069 C 
ATOM     14  C   UNL A   1      32.298  20.612  24.782  1.00  0.00     0.071 C 
ATOM     15  C   UNL A   1      34.291  21.376  26.128  1.00  0.00     0.069 C 
BRANCH   8  16
ATOM     16  C   UNL A   1      33.053  24.031  25.986  1.00  0.00     0.266 C 
BRANCH  16  17
ATOM     17  C   UNL A   1      31.902  24.936  26.477  1.00  0.00     0.044 C 
BRANCH  17  18
ATOM     18  C   UNL A   1      32.321  26.419  26.361  1.00  0.00     0.006 C 
ATOM     19  C   UNL A   1      33.666  26.637  25.687  1.00  0.00     0.004 C 
ENDBRANCH  17  18
BRANCH  17  20
ATOM     20  C   UNL A   1      30.595  24.601  25.719  1.00  0.00     0.006 C 
ATOM     21  C   UNL A   1      30.402  25.327  24.393  1.00  0.00     0.004 C 
ENDBRANCH  17  20
ENDBRANCH  16  17
ENDBRANCH   8  16
ENDBRANCH   6   7
ENDBRANCH   3   6
ENDBRANCH   1   2
BRANCH   1  22
ATOM     22  C   UNL A   1      40.756  21.906  27.421  1.00  0.00     0.042 C 
BRANCH  22  23
ATOM     23  C   UNL A   1      41.883  22.917  27.574  1.00  0.00     0.118 C 
BRANCH  23  24
ATOM     24  N   UNL A   1      42.035  23.731  26.382  1.00  0.00    -0.352 N 
ATOM     25  C   UNL A   1      41.810  25.076  26.201  1.00  0.00     0.251 C 
ATOM     26  H   UNL A   1      42.344  23.248  25.583  1.00  0.00     0.163 HD
ATOM     27  O   UNL A   1      41.733  25.511  25.054  1.00  0.00    -0.269 OA
BRANCH  25  28
ATOM     28  C   UNL A   1      41.656  26.004  27.353  1.00  0.00     0.039 A 
ATOM     29  C   UNL A   1      40.537  25.866  28.184  1.00  0.00     0.014 A 
ATOM     30  C   UNL A   1      42.546  27.057  27.578  1.00  0.00     0.014 A 
ATOM     31  C   UNL A   1      40.330  26.755  29.246  1.00  0.00     0.010 A 
ATOM     32  C   UNL A   1      42.382  27.897  28.682  1.00  0.00     0.010 A 
ATOM     33  C   UNL A   1      41.260  27.771  29.515  1.00  0.00    -0.014 A 
BRANCH  33  34
ATOM     34  C   UNL A   1      41.054  28.750  30.619  1.00  0.00     0.031 A 
ATOM     35  C   UNL A   1      41.901  28.663  31.864  1.00  0.00     0.074 A 
ATOM     36  C   UNL A   1      40.075  29.673  30.539  1.00  0.00     0.049 A 
ATOM     37  N   UNL A   1      41.800  29.329  32.985  1.00  0.00    -0.248 NA
ATOM     38  C   UNL A   1      42.990  27.671  31.855  1.00  0.00     0.031 C 
ATOM     39  C   UNL A   1      39.169  29.851  29.404  1.00  0.00     0.029 A 
ATOM     40  N   UNL A   1      39.668  30.627  31.440  1.00  0.00    -0.354 N 
ATOM     41  C   UNL A   1      42.787  28.821  33.822  1.00  0.00     0.074 A 
ATOM     42  C   UNL A   1      43.452  27.762  33.094  1.00  0.00     0.031 C 
ATOM     43  C   UNL A   1      38.320  30.856  29.672  1.00  0.00     0.029 A 
ATOM     44  C   UNL A   1      38.593  31.370  31.011  1.00  0.00     0.049 A 
ATOM     45  H   UNL A   1      40.105  30.765  32.312  1.00  0.00     0.167 HD
ATOM     46  C   UNL A   1      43.124  29.210  35.075  1.00  0.00     0.037 A 
ATOM     47  C   UNL A   1      37.897  32.344  31.631  1.00  0.00     0.037 A 
ATOM     48  C   UNL A   1      42.491  30.292  35.782  1.00  0.00     0.049 A 
ATOM     49  C   UNL A   1      38.296  32.770  33.018  1.00  0.00     0.074 A 
ATOM     50  C   UNL A   1      42.793  30.795  37.036  1.00  0.00     0.029 A 
ATOM     51  N   UNL A   1      41.433  31.045  35.294  1.00  0.00    -0.354 N 
ATOM     52  N   UNL A   1      39.255  32.300  33.780  1.00  0.00    -0.248 NA
ATOM     53  C   UNL A   1      37.525  33.862  33.629  1.00  0.00     0.031 C 
ATOM     54  C   UNL A   1      41.898  31.833  37.319  1.00  0.00     0.029 A 
ATOM     55  C   UNL A   1      41.066  32.003  36.225  1.00  0.00     0.049 A 
ATOM     56  H   UNL A   1      41.006  30.917  34.417  1.00  0.00     0.167 HD
ATOM     57  C   UNL A   1      39.223  33.060  34.944  1.00  0.00     0.074 A 
ATOM     58  C   UNL A   1      38.151  34.021  34.787  1.00  0.00     0.031 C 
ATOM     59  C   UNL A   1      40.013  32.970  36.043  1.00  0.00     0.037 A 
BRANCH  46  60
ATOM     60  C   UNL A   1      44.232  28.463  35.765  1.00  0.00     0.058 A 
ATOM     61  C   UNL A   1      43.973  27.357  36.590  1.00  0.00     0.135 A 
ATOM     62  C   UNL A   1      45.573  28.837  35.576  1.00  0.00     0.135 A 
ATOM     63  F   UNL A   1      42.710  26.965  36.819  1.00  0.00    -0.206 F 
ATOM     64  C   UNL A   1      45.001  26.668  37.228  1.00  0.00     0.059 A 
ATOM     65  C   UNL A   1      46.618  28.146  36.182  1.00  0.00     0.059 A 
ATOM     66  F   UNL A   1      45.878  29.886  34.795  1.00  0.00    -0.206 F 
ATOM     67  C   UNL A   1      46.321  27.073  37.020  1.00  0.00     0.060 A 
BRANCH  67  68
ATOM     68  S   UNL A   1      47.642  26.171  37.858  1.00  0.00     0.124 S 
ATOM     69  O   UNL A   1      48.818  26.637  37.130  1.00  0.00    -0.237 OA
ATOM     70  O   UNL A   1      47.521  26.641  39.233  1.00  0.00    -0.237 OA
ATOM     71  O   UNL A   1      47.285  24.771  37.643  1.00  0.00    -0.744 OA
ENDBRANCH  67  68
ENDBRANCH  46  60
BRANCH  47  72
ATOM     72  C   UNL A   1      36.758  32.999  30.933  1.00  0.00     0.058 A 
ATOM     73  C   UNL A   1      35.434  32.744  31.320  1.00  0.00     0.135 A 
ATOM     74  C   UNL A   1      36.969  33.901  29.879  1.00  0.00     0.135 A 
ATOM     75  F   UNL A   1      35.182  31.882  32.317  1.00  0.00    -0.206 F 
ATOM     76  C   UNL A   1      34.358  33.347  30.678  1.00  0.00     0.059 A 
ATOM     77  C   UNL A   1      35.911  34.535  29.237  1.00  0.00     0.059 A 
ATOM     78  F   UNL A   1      38.219  34.191  29.482  1.00  0.00    -0.206 F 
ATOM     79  C   UNL A   1      34.606  34.244  29.638  1.00  0.00     0.060 A 
BRANCH  79  80
ATOM     80  S   UNL A   1      33.205  35.061  28.844  1.00  0.00     0.124 S 
ATOM     81  O   UNL A   1      32.371  35.396  29.993  1.00  0.00    -0.237 OA
ATOM     82  O   UNL A   1      33.847  36.187  28.172  1.00  0.00    -0.237 OA
ATOM     83  O   UNL A   1      32.675  34.032  27.956  1.00  0.00    -0.744 OA
ENDBRANCH  79  80
ENDBRANCH  47  72
BRANCH  59  84
ATOM     84  C   UNL A   1      39.791  33.968  37.145  1.00  0.00     0.058 A 
ATOM     85  C   UNL A   1      39.052  33.648  38.293  1.00  0.00     0.135 A 
ATOM     86  C   UNL A   1      40.392  35.236  37.081  1.00  0.00     0.135 A 
ATOM     87  F   UNL A   1      38.453  32.452  38.401  1.00  0.00    -0.206 F 
ATOM     88  C   UNL A   1      38.907  34.557  39.337  1.00  0.00     0.059 A 
ATOM     89  C   UNL A   1      40.278  36.151  38.122  1.00  0.00     0.059 A 
ATOM     90  F   UNL A   1      41.117  35.586  36.006  1.00  0.00    -0.206 F 
ATOM     91  C   UNL A   1      39.527  35.805  39.244  1.00  0.00     0.060 A 
BRANCH  91  92
ATOM     92  S   UNL A   1      39.376  36.955  40.627  1.00  0.00     0.124 S 
ATOM     93  O   UNL A   1      40.750  37.014  41.113  1.00  0.00    -0.237 OA
ATOM     94  O   UNL A   1      38.882  38.165  39.976  1.00  0.00    -0.237 OA
ATOM     95  O   UNL A   1      38.423  36.296  41.514  1.00  0.00    -0.744 OA
ENDBRANCH  91  92
ENDBRANCH  59  84
ENDBRANCH  33  34
ENDBRANCH  25  28
ENDBRANCH  23  24
ENDBRANCH  22  23
ENDBRANCH   1  22
TORSDOF 18
ENDMDL
