MODEL 1
REMARK VINA RESULT:     -12.0      0.000      0.000
REMARK SMILES CC(=O)Nc1nc(C[N@@H+]2CCO[C@@H](CC(=O)NCCCNC(=O)c3ccc(-c4c5nc(c(-c6c(F)cc(S(=O)(=O)[O-])cc6F)c6ccc([nH]6)c(-c6c(F)cc(S(=O)(=O)[O-])cc6F)c6nc(c(-c7c(F)cc(S(=O)(=O)[O-])cc7F)c7ccc4[nH]7)C=C6)C=C5)cc3)C2)cs1
REMARK SMILES IDX 18 1 17 2 15 3 16 4 14 6 13 7 9 8 10 9 90 10 11 12 12 13
REMARK SMILES IDX 8 14 7 15 5 16 6 17 92 18 91 19 4 20 1 21 2 22 3 23 19 25
REMARK SMILES IDX 20 26 21 27 22 28 23 30 24 31 25 32 89 33 26 34 88 35 27 36
REMARK SMILES IDX 28 37 29 38 82 39 30 40 87 41 81 42 83 43 31 44 86 45 80 46
REMARK SMILES IDX 79 47 32 49 66 50 45 51 65 52 46 53 49 54 64 55 84 56 47 57
REMARK SMILES IDX 48 58 63 60 85 61 50 62 33 63 34 64 43 65 35 66 36 67 42 68
REMARK SMILES IDX 44 69 37 70 38 71 39 72 40 73 41 74 67 75 68 76 77 77 69 78
REMARK SMILES IDX 70 79 76 80 78 81 71 82 72 83 73 84 74 85 75 86 51 87 52 88
REMARK SMILES IDX 61 89 53 90 54 91 60 92 62 93 55 94 56 95 57 96 58 97 59 98
REMARK H PARENT 17 5 9 11 4 24 21 29 83 48 49 59
REMARK Flexibility Score: inf
ROOT
ATOM      1  C   UNL A   1      39.796  21.606  26.475  1.00  0.00     0.117 C 
ENDROOT
BRANCH   1   2
ATOM      2  N   UNL A   1      39.066  22.640  25.750  1.00  0.00    -0.356 N 
ATOM      3  C   UNL A   1      37.749  22.717  25.400  1.00  0.00     0.222 C 
ATOM      4  O   UNL A   1      37.363  23.708  24.778  1.00  0.00    -0.275 OA
ATOM      5  H   UNL A   1      39.613  23.407  25.466  1.00  0.00     0.163 HD
BRANCH   3   6
ATOM      6  C   UNL A   1      36.793  21.603  25.752  1.00  0.00     0.138 C 
BRANCH   6   7
ATOM      7  C   UNL A   1      35.323  22.026  25.675  1.00  0.00     0.182 C 
ATOM      8  N   UNL A   1      32.957  21.248  26.251  1.00  0.00    -0.326 N 
ATOM      9  C   UNL A   1      32.810  22.505  26.981  1.00  0.00     0.291 C 
ATOM     10  C   UNL A   1      34.363  20.886  26.069  1.00  0.00     0.295 C 
ATOM     11  H   UNL A   1      32.559  20.550  26.879  1.00  0.00     0.348 HD
ATOM     12  C   UNL A   1      33.817  23.605  26.605  1.00  0.00     0.222 C 
ATOM     13  O   UNL A   1      35.168  23.130  26.592  1.00  0.00    -0.366 OA
BRANCH   8  14
ATOM     14  C   UNL A   1      32.074  21.011  25.107  1.00  0.00     0.320 C 
BRANCH  14  15
ATOM     15  C   UNL A   1      32.224  19.650  24.497  1.00  0.00     0.108 A 
ATOM     16  C   UNL A   1      32.384  17.454  24.614  1.00  0.00     0.189 A 
ATOM     17  N   UNL A   1      32.083  18.523  25.304  1.00  0.00    -0.219 NA
ATOM     18  S   UNL A   1      32.832  17.696  22.988  1.00  0.00    -0.105 S 
ATOM     19  C   UNL A   1      32.487  19.365  23.168  1.00  0.00     0.098 A 
BRANCH  16  20
ATOM     20  N   UNL A   1      32.405  16.153  25.014  1.00  0.00    -0.302 N 
ATOM     21  C   UNL A   1      34.870  16.069  25.294  1.00  0.00     0.114 C 
ATOM     22  C   UNL A   1      33.521  15.401  25.220  1.00  0.00     0.223 C 
ATOM     23  O   UNL A   1      33.398  14.192  25.431  1.00  0.00    -0.275 OA
ATOM     24  H   UNL A   1      31.537  15.717  25.168  1.00  0.00     0.172 HD
ENDBRANCH  16  20
ENDBRANCH  14  15
ENDBRANCH   8  14
ENDBRANCH   6   7
ENDBRANCH   3   6
ENDBRANCH   1   2
BRANCH   1  25
ATOM     25  C   UNL A   1      41.307  21.838  26.468  1.00  0.00     0.042 C 
BRANCH  25  26
ATOM     26  C   UNL A   1      41.733  23.186  27.030  1.00  0.00     0.118 C 
BRANCH  26  27
ATOM     27  N   UNL A   1      42.046  24.128  25.969  1.00  0.00    -0.352 N 
ATOM     28  C   UNL A   1      41.932  25.498  25.949  1.00  0.00     0.251 C 
ATOM     29  H   UNL A   1      42.391  23.725  25.141  1.00  0.00     0.163 HD
ATOM     30  O   UNL A   1      41.976  26.078  24.867  1.00  0.00    -0.269 OA
BRANCH  28  31
ATOM     31  C   UNL A   1      41.754  26.281  27.199  1.00  0.00     0.039 A 
ATOM     32  C   UNL A   1      40.685  25.963  28.046  1.00  0.00     0.014 A 
ATOM     33  C   UNL A   1      42.570  27.372  27.508  1.00  0.00     0.014 A 
ATOM     34  C   UNL A   1      40.459  26.712  29.208  1.00  0.00     0.010 A 
ATOM     35  C   UNL A   1      42.393  28.068  28.703  1.00  0.00     0.010 A 
ATOM     36  C   UNL A   1      41.323  27.762  29.557  1.00  0.00    -0.014 A 
BRANCH  36  37
ATOM     37  C   UNL A   1      41.095  28.590  30.773  1.00  0.00     0.031 A 
ATOM     38  C   UNL A   1      39.984  29.609  30.788  1.00  0.00     0.074 A 
ATOM     39  C   UNL A   1      41.915  28.474  31.837  1.00  0.00     0.049 A 
ATOM     40  N   UNL A   1      39.696  30.507  31.696  1.00  0.00    -0.248 NA
ATOM     41  C   UNL A   1      39.096  29.642  29.614  1.00  0.00     0.031 C 
ATOM     42  C   UNL A   1      43.045  27.548  31.939  1.00  0.00     0.029 A 
ATOM     43  N   UNL A   1      41.933  29.151  33.031  1.00  0.00    -0.354 N 
ATOM     44  C   UNL A   1      38.618  31.226  31.191  1.00  0.00     0.074 A 
ATOM     45  C   UNL A   1      38.326  30.687  29.882  1.00  0.00     0.031 C 
ATOM     46  C   UNL A   1      43.639  27.709  33.134  1.00  0.00     0.029 A 
ATOM     47  C   UNL A   1      42.958  28.773  33.867  1.00  0.00     0.049 A 
ATOM     48  H   UNL A   1      41.273  29.842  33.268  1.00  0.00     0.167 HD
ATOM     49  C   UNL A   1      37.921  32.232  31.773  1.00  0.00     0.037 A 
ATOM     50  C   UNL A   1      43.318  29.239  35.079  1.00  0.00     0.037 A 
ATOM     51  C   UNL A   1      38.180  32.734  33.096  1.00  0.00     0.049 A 
ATOM     52  C   UNL A   1      42.516  30.344  35.714  1.00  0.00     0.074 A 
ATOM     53  C   UNL A   1      37.493  33.712  33.796  1.00  0.00     0.029 A 
ATOM     54  N   UNL A   1      39.201  32.293  33.925  1.00  0.00    -0.354 N 
ATOM     55  N   UNL A   1      41.475  30.983  35.237  1.00  0.00    -0.248 NA
ATOM     56  C   UNL A   1      42.931  30.787  37.053  1.00  0.00     0.031 C 
ATOM     57  C   UNL A   1      38.117  33.882  35.037  1.00  0.00     0.029 A 
ATOM     58  C   UNL A   1      39.167  32.983  35.124  1.00  0.00     0.049 A 
ATOM     59  H   UNL A   1      39.853  31.592  33.694  1.00  0.00     0.167 HD
ATOM     60  C   UNL A   1      41.093  31.880  36.229  1.00  0.00     0.074 A 
ATOM     61  C   UNL A   1      42.010  31.697  37.334  1.00  0.00     0.031 C 
ATOM     62  C   UNL A   1      40.073  32.772  36.225  1.00  0.00     0.037 A 
BRANCH  49  63
ATOM     63  C   UNL A   1      36.799  32.854  30.989  1.00  0.00     0.058 A 
ATOM     64  C   UNL A   1      35.457  32.530  31.240  1.00  0.00     0.135 A 
ATOM     65  C   UNL A   1      37.066  33.826  30.010  1.00  0.00     0.135 A 
ATOM     66  F   UNL A   1      35.146  31.597  32.155  1.00  0.00    -0.206 F 
ATOM     67  C   UNL A   1      34.419  33.131  30.535  1.00  0.00     0.059 A 
ATOM     68  C   UNL A   1      36.043  34.458  29.309  1.00  0.00     0.059 A 
ATOM     69  F   UNL A   1      38.332  34.171  29.729  1.00  0.00    -0.206 F 
ATOM     70  C   UNL A   1      34.722  34.095  29.571  1.00  0.00     0.060 A 
BRANCH  70  71
ATOM     71  S   UNL A   1      33.363  34.879  28.678  1.00  0.00     0.124 S 
ATOM     72  O   UNL A   1      32.425  35.155  29.762  1.00  0.00    -0.237 OA
ATOM     73  O   UNL A   1      34.008  36.045  28.085  1.00  0.00    -0.237 OA
ATOM     74  O   UNL A   1      32.942  33.849  27.732  1.00  0.00    -0.744 OA
ENDBRANCH  70  71
ENDBRANCH  49  63
BRANCH  50  75
ATOM     75  C   UNL A   1      44.491  28.654  35.785  1.00  0.00     0.058 A 
ATOM     76  C   UNL A   1      44.332  27.600  36.697  1.00  0.00     0.135 A 
ATOM     77  C   UNL A   1      45.789  29.140  35.565  1.00  0.00     0.135 A 
ATOM     78  F   UNL A   1      43.109  27.107  36.945  1.00  0.00    -0.206 F 
ATOM     79  C   UNL A   1      45.415  27.062  37.385  1.00  0.00     0.059 A 
ATOM     80  C   UNL A   1      46.891  28.601  36.224  1.00  0.00     0.059 A 
ATOM     81  F   UNL A   1      45.996  30.136  34.691  1.00  0.00    -0.206 F 
ATOM     82  C   UNL A   1      46.691  27.571  37.141  1.00  0.00     0.060 A 
BRANCH  82  83
ATOM     83  S   UNL A   1      48.098  26.842  38.009  1.00  0.00     0.124 S 
ATOM     84  O   UNL A   1      47.789  27.172  39.396  1.00  0.00    -0.237 OA
ATOM     85  O   UNL A   1      47.989  25.433  37.647  1.00  0.00    -0.237 OA
ATOM     86  O   UNL A   1      49.243  27.542  37.433  1.00  0.00    -0.744 OA
ENDBRANCH  82  83
ENDBRANCH  50  75
BRANCH  62  87
ATOM     87  C   UNL A   1      39.855  33.587  37.469  1.00  0.00     0.058 A 
ATOM     88  C   UNL A   1      40.531  34.797  37.686  1.00  0.00     0.135 A 
ATOM     89  C   UNL A   1      38.909  33.181  38.424  1.00  0.00     0.135 A 
ATOM     90  F   UNL A   1      41.449  35.225  36.805  1.00  0.00    -0.206 F 
ATOM     91  C   UNL A   1      40.286  35.570  38.816  1.00  0.00     0.059 A 
ATOM     92  C   UNL A   1      38.632  33.950  39.549  1.00  0.00     0.059 A 
ATOM     93  F   UNL A   1      38.229  32.034  38.257  1.00  0.00    -0.206 F 
ATOM     94  C   UNL A   1      39.332  35.139  39.741  1.00  0.00     0.060 A 
BRANCH  94  95
ATOM     95  S   UNL A   1      38.990  36.174  41.180  1.00  0.00     0.124 S 
ATOM     96  O   UNL A   1      38.750  37.472  40.558  1.00  0.00    -0.237 OA
ATOM     97  O   UNL A   1      37.821  35.525  41.765  1.00  0.00    -0.237 OA
ATOM     98  O   UNL A   1      40.215  36.072  41.969  1.00  0.00    -0.744 OA
ENDBRANCH  94  95
ENDBRANCH  62  87
ENDBRANCH  36  37
ENDBRANCH  28  31
ENDBRANCH  26  27
ENDBRANCH  25  26
ENDBRANCH   1  25
TORSDOF 17
ENDMDL
MODEL 2
REMARK VINA RESULT:     -11.8      2.506      9.286
REMARK SMILES CC(=O)Nc1nc(C[N@@H+]2CCO[C@@H](CC(=O)NCCCNC(=O)c3ccc(-c4c5nc(c(-c6c(F)cc(S(=O)(=O)[O-])cc6F)c6ccc([nH]6)c(-c6c(F)cc(S(=O)(=O)[O-])cc6F)c6nc(c(-c7c(F)cc(S(=O)(=O)[O-])cc7F)c7ccc4[nH]7)C=C6)C=C5)cc3)C2)cs1
REMARK SMILES IDX 18 1 17 2 15 3 16 4 14 6 13 7 9 8 10 9 90 10 11 12 12 13
REMARK SMILES IDX 8 14 7 15 5 16 6 17 92 18 91 19 4 20 1 21 2 22 3 23 19 25
REMARK SMILES IDX 20 26 21 27 22 28 23 30 24 31 25 32 89 33 26 34 88 35 27 36
REMARK SMILES IDX 28 37 29 38 82 39 30 40 87 41 81 42 83 43 31 44 86 45 80 46
REMARK SMILES IDX 79 47 32 49 66 50 45 51 65 52 46 53 49 54 64 55 84 56 47 57
REMARK SMILES IDX 48 58 63 60 85 61 50 62 33 63 34 64 43 65 35 66 36 67 42 68
REMARK SMILES IDX 44 69 37 70 38 71 39 72 40 73 41 74 67 75 68 76 77 77 69 78
REMARK SMILES IDX 70 79 76 80 78 81 71 82 72 83 73 84 74 85 75 86 51 87 52 88
REMARK SMILES IDX 61 89 53 90 54 91 60 92 62 93 55 94 56 95 57 96 58 97 59 98
REMARK H PARENT 17 5 9 11 4 24 21 29 83 48 49 59
REMARK Flexibility Score: inf
ROOT
ATOM      1  C   UNL A   1      37.781  22.441  25.629  1.00  0.00     0.117 C 
ENDROOT
BRANCH   1   2
ATOM      2  N   UNL A   1      37.423  22.760  24.252  1.00  0.00    -0.356 N 
ATOM      3  C   UNL A   1      36.236  22.632  23.591  1.00  0.00     0.222 C 
ATOM      4  O   UNL A   1      36.180  22.976  22.409  1.00  0.00    -0.275 OA
ATOM      5  H   UNL A   1      38.158  23.127  23.711  1.00  0.00     0.163 HD
BRANCH   3   6
ATOM      6  C   UNL A   1      35.023  22.065  24.290  1.00  0.00     0.138 C 
BRANCH   6   7
ATOM      7  C   UNL A   1      34.348  23.066  25.232  1.00  0.00     0.182 C 
ATOM      8  N   UNL A   1      32.831  25.123  25.253  1.00  0.00    -0.326 N 
ATOM      9  C   UNL A   1      31.969  24.376  26.165  1.00  0.00     0.291 C 
ATOM     10  C   UNL A   1      33.694  24.237  24.472  1.00  0.00     0.295 C 
ATOM     11  H   UNL A   1      32.181  25.548  24.592  1.00  0.00     0.348 HD
ATOM     12  C   UNL A   1      32.635  23.181  26.868  1.00  0.00     0.222 C 
ATOM     13  O   UNL A   1      33.338  22.331  25.954  1.00  0.00    -0.366 OA
BRANCH   8  14
ATOM     14  C   UNL A   1      33.446  26.357  25.746  1.00  0.00     0.320 C 
BRANCH  14  15
ATOM     15  C   UNL A   1      32.667  27.596  25.419  1.00  0.00     0.108 A 
ATOM     16  C   UNL A   1      31.720  29.003  24.010  1.00  0.00     0.189 A 
ATOM     17  N   UNL A   1      32.258  27.815  24.105  1.00  0.00    -0.219 NA
ATOM     18  S   UNL A   1      31.645  29.924  25.441  1.00  0.00    -0.105 S 
ATOM     19  C   UNL A   1      32.280  28.586  26.305  1.00  0.00     0.098 A 
BRANCH  16  20
ATOM     20  N   UNL A   1      31.212  29.629  22.913  1.00  0.00    -0.302 N 
ATOM     21  C   UNL A   1      28.976  28.567  23.092  1.00  0.00     0.114 C 
ATOM     22  C   UNL A   1      29.999  29.385  22.347  1.00  0.00     0.223 C 
ATOM     23  O   UNL A   1      29.725  29.915  21.267  1.00  0.00    -0.275 OA
ATOM     24  H   UNL A   1      31.771  30.322  22.493  1.00  0.00     0.172 HD
ENDBRANCH  16  20
ENDBRANCH  14  15
ENDBRANCH   8  14
ENDBRANCH   6   7
ENDBRANCH   3   6
ENDBRANCH   1   2
BRANCH   1  25
ATOM     25  C   UNL A   1      38.388  23.633  26.370  1.00  0.00     0.042 C 
BRANCH  25  26
ATOM     26  C   UNL A   1      39.690  23.320  27.093  1.00  0.00     0.118 C 
BRANCH  26  27
ATOM     27  N   UNL A   1      40.842  23.761  26.326  1.00  0.00    -0.352 N 
ATOM     28  C   UNL A   1      41.477  24.981  26.318  1.00  0.00     0.251 C 
ATOM     29  H   UNL A   1      41.226  23.086  25.723  1.00  0.00     0.163 HD
ATOM     30  O   UNL A   1      42.247  25.239  25.396  1.00  0.00    -0.269 OA
BRANCH  28  31
ATOM     31  C   UNL A   1      41.246  25.983  27.389  1.00  0.00     0.039 A 
ATOM     32  C   UNL A   1      42.055  27.126  27.429  1.00  0.00     0.014 A 
ATOM     33  C   UNL A   1      40.305  25.777  28.401  1.00  0.00     0.014 A 
ATOM     34  C   UNL A   1      41.898  28.066  28.454  1.00  0.00     0.010 A 
ATOM     35  C   UNL A   1      40.094  26.752  29.377  1.00  0.00     0.010 A 
ATOM     36  C   UNL A   1      40.902  27.897  29.429  1.00  0.00    -0.014 A 
BRANCH  36  37
ATOM     37  C   UNL A   1      40.725  28.869  30.543  1.00  0.00     0.031 A 
ATOM     38  C   UNL A   1      41.570  28.745  31.786  1.00  0.00     0.074 A 
ATOM     39  C   UNL A   1      39.773  29.820  30.470  1.00  0.00     0.049 A 
ATOM     40  N   UNL A   1      41.491  29.410  32.910  1.00  0.00    -0.248 NA
ATOM     41  C   UNL A   1      42.626  27.718  31.772  1.00  0.00     0.031 C 
ATOM     42  C   UNL A   1      38.869  30.029  29.337  1.00  0.00     0.029 A 
ATOM     43  N   UNL A   1      39.397  30.781  31.375  1.00  0.00    -0.354 N 
ATOM     44  C   UNL A   1      42.462  28.865  33.744  1.00  0.00     0.074 A 
ATOM     45  C   UNL A   1      43.092  27.789  33.011  1.00  0.00     0.031 C 
ATOM     46  C   UNL A   1      38.051  31.059  29.612  1.00  0.00     0.029 A 
ATOM     47  C   UNL A   1      38.344  31.560  30.952  1.00  0.00     0.049 A 
ATOM     48  H   UNL A   1      39.839  30.903  32.246  1.00  0.00     0.167 HD
ATOM     49  C   UNL A   1      42.811  29.238  34.999  1.00  0.00     0.037 A 
ATOM     50  C   UNL A   1      37.681  32.553  31.576  1.00  0.00     0.037 A 
ATOM     51  C   UNL A   1      42.218  30.340  35.708  1.00  0.00     0.049 A 
ATOM     52  C   UNL A   1      38.101  32.963  32.963  1.00  0.00     0.074 A 
ATOM     53  C   UNL A   1      42.542  30.832  36.961  1.00  0.00     0.029 A 
ATOM     54  N   UNL A   1      41.184  31.129  35.224  1.00  0.00    -0.354 N 
ATOM     55  N   UNL A   1      39.048  32.461  33.718  1.00  0.00    -0.248 NA
ATOM     56  C   UNL A   1      37.368  34.078  33.580  1.00  0.00     0.031 C 
ATOM     57  C   UNL A   1      41.685  31.900  37.247  1.00  0.00     0.029 A 
ATOM     58  C   UNL A   1      40.854  32.098  36.157  1.00  0.00     0.049 A 
ATOM     59  H   UNL A   1      40.750  31.016  34.348  1.00  0.00     0.167 HD
ATOM     60  C   UNL A   1      39.045  33.218  34.885  1.00  0.00     0.074 A 
ATOM     61  C   UNL A   1      38.006  34.215  34.734  1.00  0.00     0.031 C 
ATOM     62  C   UNL A   1      39.833  33.099  35.980  1.00  0.00     0.037 A 
BRANCH  49  63
ATOM     63  C   UNL A   1      43.895  28.456  35.688  1.00  0.00     0.058 A 
ATOM     64  C   UNL A   1      45.245  28.823  35.588  1.00  0.00     0.135 A 
ATOM     65  C   UNL A   1      43.574  27.356  36.502  1.00  0.00     0.135 A 
ATOM     66  F   UNL A   1      45.609  29.857  34.811  1.00  0.00    -0.206 F 
ATOM     67  C   UNL A   1      46.243  28.117  36.252  1.00  0.00     0.059 A 
ATOM     68  C   UNL A   1      44.553  26.651  37.196  1.00  0.00     0.059 A 
ATOM     69  F   UNL A   1      42.297  26.962  36.632  1.00  0.00    -0.206 F 
ATOM     70  C   UNL A   1      45.886  27.032  37.056  1.00  0.00     0.060 A 
BRANCH  70  71
ATOM     71  S   UNL A   1      47.191  26.138  37.926  1.00  0.00     0.124 S 
ATOM     72  O   UNL A   1      46.918  26.503  39.312  1.00  0.00    -0.237 OA
ATOM     73  O   UNL A   1      46.913  24.751  37.569  1.00  0.00    -0.237 OA
ATOM     74  O   UNL A   1      48.418  26.694  37.361  1.00  0.00    -0.744 OA
ENDBRANCH  70  71
ENDBRANCH  49  63
BRANCH  50  75
ATOM     75  C   UNL A   1      36.556  33.244  30.891  1.00  0.00     0.058 A 
ATOM     76  C   UNL A   1      36.793  34.152  29.849  1.00  0.00     0.135 A 
ATOM     77  C   UNL A   1      35.224  33.014  31.268  1.00  0.00     0.135 A 
ATOM     78  F   UNL A   1      38.050  34.409  29.458  1.00  0.00    -0.206 F 
ATOM     79  C   UNL A   1      35.752  34.826  29.217  1.00  0.00     0.059 A 
ATOM     80  C   UNL A   1      34.164  33.658  30.635  1.00  0.00     0.059 A 
ATOM     81  F   UNL A   1      34.942  32.142  32.248  1.00  0.00    -0.206 F 
ATOM     82  C   UNL A   1      34.440  34.572  29.619  1.00  0.00     0.060 A 
BRANCH  82  83
ATOM     83  S   UNL A   1      33.091  35.422  28.771  1.00  0.00     0.124 S 
ATOM     84  O   UNL A   1      32.317  35.938  29.894  1.00  0.00    -0.237 OA
ATOM     85  O   UNL A   1      33.803  36.416  27.975  1.00  0.00    -0.237 OA
ATOM     86  O   UNL A   1      32.456  34.355  28.003  1.00  0.00    -0.744 OA
ENDBRANCH  82  83
ENDBRANCH  50  75
BRANCH  62  87
ATOM     87  C   UNL A   1      39.645  34.100  37.086  1.00  0.00     0.058 A 
ATOM     88  C   UNL A   1      38.850  33.819  38.207  1.00  0.00     0.135 A 
ATOM     89  C   UNL A   1      40.322  35.329  37.050  1.00  0.00     0.135 A 
ATOM     90  F   UNL A   1      38.177  32.660  38.286  1.00  0.00    -0.206 F 
ATOM     91  C   UNL A   1      38.721  34.731  39.250  1.00  0.00     0.059 A 
ATOM     92  C   UNL A   1      40.226  36.245  38.093  1.00  0.00     0.059 A 
ATOM     93  F   UNL A   1      41.103  35.641  36.003  1.00  0.00    -0.206 F 
ATOM     94  C   UNL A   1      39.416  35.941  39.185  1.00  0.00     0.060 A 
BRANCH  94  95
ATOM     95  S   UNL A   1      39.278  37.096  40.565  1.00  0.00     0.124 S 
ATOM     96  O   UNL A   1      38.744  36.235  41.616  1.00  0.00    -0.237 OA
ATOM     97  O   UNL A   1      40.657  37.538  40.746  1.00  0.00    -0.237 OA
ATOM     98  O   UNL A   1      38.361  38.115  40.063  1.00  0.00    -0.744 OA
ENDBRANCH  94  95
ENDBRANCH  62  87
ENDBRANCH  36  37
ENDBRANCH  28  31
ENDBRANCH  26  27
ENDBRANCH  25  26
ENDBRANCH   1  25
TORSDOF 17
ENDMDL
MODEL 3
REMARK VINA RESULT:     -11.7      4.816      9.726
REMARK SMILES CC(=O)Nc1nc(C[N@@H+]2CCO[C@@H](CC(=O)NCCCNC(=O)c3ccc(-c4c5nc(c(-c6c(F)cc(S(=O)(=O)[O-])cc6F)c6ccc([nH]6)c(-c6c(F)cc(S(=O)(=O)[O-])cc6F)c6nc(c(-c7c(F)cc(S(=O)(=O)[O-])cc7F)c7ccc4[nH]7)C=C6)C=C5)cc3)C2)cs1
REMARK SMILES IDX 18 1 17 2 15 3 16 4 14 6 13 7 9 8 10 9 90 10 11 12 12 13
REMARK SMILES IDX 8 14 7 15 5 16 6 17 92 18 91 19 4 20 1 21 2 22 3 23 19 25
REMARK SMILES IDX 20 26 21 27 22 28 23 30 24 31 25 32 89 33 26 34 88 35 27 36
REMARK SMILES IDX 28 37 29 38 82 39 30 40 87 41 81 42 83 43 31 44 86 45 80 46
REMARK SMILES IDX 79 47 32 49 66 50 45 51 65 52 46 53 49 54 64 55 84 56 47 57
REMARK SMILES IDX 48 58 63 60 85 61 50 62 33 63 34 64 43 65 35 66 36 67 42 68
REMARK SMILES IDX 44 69 37 70 38 71 39 72 40 73 41 74 67 75 68 76 77 77 69 78
REMARK SMILES IDX 70 79 76 80 78 81 71 82 72 83 73 84 74 85 75 86 51 87 52 88
REMARK SMILES IDX 61 89 53 90 54 91 60 92 62 93 55 94 56 95 57 96 58 97 59 98
REMARK H PARENT 17 5 9 11 4 24 21 29 83 48 49 59
REMARK Flexibility Score: inf
ROOT
ATOM      1  C   UNL A   1      32.175  28.033  25.115  1.00  0.00     0.117 C 
ENDROOT
BRANCH   1   2
ATOM      2  N   UNL A   1      30.910  27.574  24.555  1.00  0.00    -0.356 N 
ATOM      3  C   UNL A   1      30.180  26.450  24.812  1.00  0.00     0.222 C 
ATOM      4  O   UNL A   1      29.124  26.281  24.200  1.00  0.00    -0.275 OA
ATOM      5  H   UNL A   1      30.518  28.174  23.880  1.00  0.00     0.163 HD
BRANCH   3   6
ATOM      6  C   UNL A   1      30.668  25.428  25.812  1.00  0.00     0.138 C 
BRANCH   6   7
ATOM      7  C   UNL A   1      31.668  24.434  25.216  1.00  0.00     0.182 C 
ATOM      8  N   UNL A   1      31.834  22.112  24.160  1.00  0.00    -0.326 N 
ATOM      9  C   UNL A   1      32.501  22.761  23.034  1.00  0.00     0.291 C 
ATOM     10  C   UNL A   1      31.032  23.058  24.936  1.00  0.00     0.295 C 
ATOM     11  H   UNL A   1      31.176  21.470  23.719  1.00  0.00     0.348 HD
ATOM     12  C   UNL A   1      33.079  24.157  23.330  1.00  0.00     0.222 C 
ATOM     13  O   UNL A   1      32.134  25.015  23.979  1.00  0.00    -0.366 OA
BRANCH   8  14
ATOM     14  C   UNL A   1      32.591  21.121  24.928  1.00  0.00     0.320 C 
BRANCH  14  15
ATOM     15  C   UNL A   1      32.480  19.725  24.392  1.00  0.00     0.108 A 
ATOM     16  C   UNL A   1      32.437  17.533  24.623  1.00  0.00     0.189 A 
ATOM     17  N   UNL A   1      32.386  18.659  25.285  1.00  0.00    -0.219 NA
ATOM     18  S   UNL A   1      32.582  17.648  22.928  1.00  0.00    -0.105 S 
ATOM     19  C   UNL A   1      32.450  19.352  23.060  1.00  0.00     0.098 A 
BRANCH  16  20
ATOM     20  N   UNL A   1      32.404  16.257  25.096  1.00  0.00    -0.302 N 
ATOM     21  C   UNL A   1      34.872  16.017  25.202  1.00  0.00     0.114 C 
ATOM     22  C   UNL A   1      33.481  15.442  25.265  1.00  0.00     0.223 C 
ATOM     23  O   UNL A   1      33.295  14.258  25.557  1.00  0.00    -0.275 OA
ATOM     24  H   UNL A   1      31.523  15.891  25.338  1.00  0.00     0.172 HD
ENDBRANCH  16  20
ENDBRANCH  14  15
ENDBRANCH   8  14
ENDBRANCH   6   7
ENDBRANCH   3   6
ENDBRANCH   1   2
BRANCH   1  25
ATOM     25  C   UNL A   1      32.212  27.939  26.641  1.00  0.00     0.042 C 
BRANCH  25  26
ATOM     26  C   UNL A   1      33.500  28.455  27.265  1.00  0.00     0.118 C 
BRANCH  26  27
ATOM     27  N   UNL A   1      33.444  29.890  27.486  1.00  0.00    -0.352 N 
ATOM     28  C   UNL A   1      34.354  30.720  28.098  1.00  0.00     0.251 C 
ATOM     29  H   UNL A   1      32.635  30.334  27.146  1.00  0.00     0.163 HD
ATOM     30  O   UNL A   1      33.991  31.845  28.435  1.00  0.00    -0.269 OA
BRANCH  28  31
ATOM     31  C   UNL A   1      35.749  30.286  28.360  1.00  0.00     0.039 A 
ATOM     32  C   UNL A   1      36.081  29.820  29.639  1.00  0.00     0.014 A 
ATOM     33  C   UNL A   1      36.751  30.406  27.395  1.00  0.00     0.014 A 
ATOM     34  C   UNL A   1      37.398  29.449  29.934  1.00  0.00     0.010 A 
ATOM     35  C   UNL A   1      38.047  29.962  27.664  1.00  0.00     0.010 A 
ATOM     36  C   UNL A   1      38.391  29.499  28.943  1.00  0.00    -0.014 A 
BRANCH  36  37
ATOM     37  C   UNL A   1      39.804  29.131  29.233  1.00  0.00     0.031 A 
ATOM     38  C   UNL A   1      40.735  30.152  29.837  1.00  0.00     0.074 A 
ATOM     39  C   UNL A   1      40.270  27.910  28.902  1.00  0.00     0.049 A 
ATOM     40  N   UNL A   1      42.023  30.073  30.054  1.00  0.00    -0.248 NA
ATOM     41  C   UNL A   1      40.144  31.445  30.222  1.00  0.00     0.031 C 
ATOM     42  C   UNL A   1      39.483  26.841  28.284  1.00  0.00     0.029 A 
ATOM     43  N   UNL A   1      41.525  27.367  29.025  1.00  0.00    -0.354 N 
ATOM     44  C   UNL A   1      42.399  31.307  30.572  1.00  0.00     0.074 A 
ATOM     45  C   UNL A   1      41.212  32.132  30.601  1.00  0.00     0.031 C 
ATOM     46  C   UNL A   1      40.270  25.770  28.092  1.00  0.00     0.029 A 
ATOM     47  C   UNL A   1      41.625  26.085  28.536  1.00  0.00     0.049 A 
ATOM     48  H   UNL A   1      42.284  27.851  29.426  1.00  0.00     0.167 HD
ATOM     49  C   UNL A   1      43.619  31.713  31.003  1.00  0.00     0.037 A 
ATOM     50  C   UNL A   1      42.688  25.262  28.443  1.00  0.00     0.037 A 
ATOM     51  C   UNL A   1      44.788  30.875  31.020  1.00  0.00     0.049 A 
ATOM     52  C   UNL A   1      44.029  25.728  28.946  1.00  0.00     0.074 A 
ATOM     53  C   UNL A   1      46.055  31.175  31.490  1.00  0.00     0.029 A 
ATOM     54  N   UNL A   1      44.834  29.568  30.556  1.00  0.00    -0.354 N 
ATOM     55  N   UNL A   1      44.354  26.886  29.469  1.00  0.00    -0.248 NA
ATOM     56  C   UNL A   1      45.144  24.775  28.854  1.00  0.00     0.031 C 
ATOM     57  C   UNL A   1      46.875  30.060  31.283  1.00  0.00     0.029 A 
ATOM     58  C   UNL A   1      46.108  29.053  30.721  1.00  0.00     0.049 A 
ATOM     59  H   UNL A   1      44.072  29.080  30.167  1.00  0.00     0.167 HD
ATOM     60  C   UNL A   1      45.703  26.789  29.796  1.00  0.00     0.074 A 
ATOM     61  C   UNL A   1      46.131  25.458  29.418  1.00  0.00     0.031 C 
ATOM     62  C   UNL A   1      46.512  27.717  30.362  1.00  0.00     0.037 A 
BRANCH  49  63
ATOM     63  C   UNL A   1      43.753  33.124  31.503  1.00  0.00     0.058 A 
ATOM     64  C   UNL A   1      44.080  34.182  30.642  1.00  0.00     0.135 A 
ATOM     65  C   UNL A   1      43.500  33.430  32.851  1.00  0.00     0.135 A 
ATOM     66  F   UNL A   1      44.346  33.944  29.348  1.00  0.00    -0.206 F 
ATOM     67  C   UNL A   1      44.172  35.493  31.101  1.00  0.00     0.059 A 
ATOM     68  C   UNL A   1      43.562  34.737  33.327  1.00  0.00     0.059 A 
ATOM     69  F   UNL A   1      43.185  32.455  33.717  1.00  0.00    -0.206 F 
ATOM     70  C   UNL A   1      43.910  35.760  32.447  1.00  0.00     0.060 A 
BRANCH  70  71
ATOM     71  S   UNL A   1      44.016  37.467  33.023  1.00  0.00     0.124 S 
ATOM     72  O   UNL A   1      45.354  37.495  33.606  1.00  0.00    -0.237 OA
ATOM     73  O   UNL A   1      43.847  38.226  31.788  1.00  0.00    -0.237 OA
ATOM     74  O   UNL A   1      42.914  37.572  33.976  1.00  0.00    -0.744 OA
ENDBRANCH  70  71
ENDBRANCH  49  63
BRANCH  50  75
ATOM     75  C   UNL A   1      42.530  23.903  27.859  1.00  0.00     0.058 A 
ATOM     76  C   UNL A   1      42.423  22.772  28.682  1.00  0.00     0.135 A 
ATOM     77  C   UNL A   1      42.488  23.708  26.470  1.00  0.00     0.135 A 
ATOM     78  F   UNL A   1      42.465  22.908  30.016  1.00  0.00    -0.206 F 
ATOM     79  C   UNL A   1      42.302  21.492  28.150  1.00  0.00     0.059 A 
ATOM     80  C   UNL A   1      42.344  22.439  25.915  1.00  0.00     0.059 A 
ATOM     81  F   UNL A   1      42.570  24.758  25.640  1.00  0.00    -0.206 F 
ATOM     82  C   UNL A   1      42.265  21.336  26.764  1.00  0.00     0.060 A 
BRANCH  82  83
ATOM     83  S   UNL A   1      42.070  19.676  26.081  1.00  0.00     0.124 S 
ATOM     84  O   UNL A   1      42.981  19.719  24.942  1.00  0.00    -0.237 OA
ATOM     85  O   UNL A   1      42.483  18.831  27.197  1.00  0.00    -0.237 OA
ATOM     86  O   UNL A   1      40.649  19.615  25.752  1.00  0.00    -0.744 OA
ENDBRANCH  82  83
ENDBRANCH  50  75
BRANCH  62  87
ATOM     87  C   UNL A   1      47.931  27.318  30.657  1.00  0.00     0.058 A 
ATOM     88  C   UNL A   1      48.295  26.745  31.884  1.00  0.00     0.135 A 
ATOM     89  C   UNL A   1      48.922  27.454  29.672  1.00  0.00     0.135 A 
ATOM     90  F   UNL A   1      47.385  26.600  32.859  1.00  0.00    -0.206 F 
ATOM     91  C   UNL A   1      49.601  26.333  32.130  1.00  0.00     0.059 A 
ATOM     92  C   UNL A   1      50.228  27.027  29.889  1.00  0.00     0.059 A 
ATOM     93  F   UNL A   1      48.620  27.988  28.477  1.00  0.00    -0.206 F 
ATOM     94  C   UNL A   1      50.561  26.476  31.124  1.00  0.00     0.060 A 
BRANCH  94  95
ATOM     95  S   UNL A   1      52.240  25.895  31.440  1.00  0.00     0.124 S 
ATOM     96  O   UNL A   1      52.000  24.519  31.863  1.00  0.00    -0.237 OA
ATOM     97  O   UNL A   1      52.879  26.055  30.137  1.00  0.00    -0.237 OA
ATOM     98  O   UNL A   1      52.721  26.798  32.481  1.00  0.00    -0.744 OA
ENDBRANCH  94  95
ENDBRANCH  62  87
ENDBRANCH  36  37
ENDBRANCH  28  31
ENDBRANCH  26  27
ENDBRANCH  25  26
ENDBRANCH   1  25
TORSDOF 17
ENDMDL
