MODEL 1
REMARK VINA RESULT:     -11.8      0.000      0.000
REMARK SMILES Cc1cc(C(=O)NCCCNC(=O)c2ccc(-c3c4nc(c(-c5c(F)cc(S(=O)(=O)[O-])cc5F)c5ccc([nH]5)c(-c5c(F)cc(S(=O)(=O)[O-])cc5F)c5nc(c(-c6c(F)cc(S(=O)(=O)[O-])cc6F)c6ccc3[nH]6)C=C5)C=C4)cc2)c([N+](=O)[O-])cc1[N+](=O)[O-]
REMARK SMILES IDX 10 1 9 2 8 3 7 4 5 5 6 6 4 8 1 9 2 10 3 11 85 12 84 13 80 14
REMARK SMILES IDX 86 15 87 16 88 17 81 18 82 19 83 20 11 21 12 22 13 24 14 25
REMARK SMILES IDX 15 26 79 27 16 28 78 29 17 30 18 31 19 32 72 33 20 34 77 35
REMARK SMILES IDX 71 36 73 37 21 38 76 39 70 40 69 41 22 43 56 44 35 45 55 46
REMARK SMILES IDX 36 47 39 48 54 49 74 50 37 51 38 52 53 54 75 55 40 56 23 57
REMARK SMILES IDX 24 58 33 59 25 60 26 61 32 62 34 63 27 64 28 65 29 66 30 67
REMARK SMILES IDX 31 68 57 69 58 70 67 71 59 72 60 73 66 74 68 75 61 76 62 77
REMARK SMILES IDX 63 78 64 79 65 80 41 81 42 82 51 83 43 84 44 85 50 86 52 87
REMARK SMILES IDX 45 88 46 89 47 90 48 91 49 92
REMARK H PARENT 7 7 11 23 73 42 39 53
REMARK Flexibility Score: inf
ROOT
ATOM      1  C   UNL A   1      38.501  23.891  26.798  1.00  0.00     0.118 C 
ENDROOT
BRANCH   1   2
ATOM      2  C   UNL A   1      37.134  23.944  25.978  1.00  0.00     0.042 C 
BRANCH   2   3
ATOM      3  C   UNL A   1      36.347  22.539  25.790  1.00  0.00     0.118 C 
BRANCH   3   4
ATOM      4  N   UNL A   1      34.898  22.488  26.126  1.00  0.00    -0.352 N 
ATOM      5  C   UNL A   1      33.723  23.108  25.760  1.00  0.00     0.258 C 
ATOM      6  O   UNL A   1      32.628  22.591  25.987  1.00  0.00    -0.269 OA
ATOM      7  H   UNL A   1      34.728  21.809  26.817  1.00  0.00     0.163 HD
BRANCH   5   8
ATOM      8  C   UNL A   1      33.679  24.407  25.054  1.00  0.00     0.118 A 
ATOM      9  C   UNL A   1      34.012  28.067  26.093  1.00  0.00     0.052 C 
ATOM     10  C   UNL A   1      33.724  26.897  25.184  1.00  0.00     0.028 A 
ATOM     11  C   UNL A   1      33.754  25.611  25.797  1.00  0.00     0.031 A 
ATOM     12  C   UNL A   1      33.502  26.949  23.793  1.00  0.00     0.279 A 
ATOM     13  C   UNL A   1      33.507  25.759  23.046  1.00  0.00     0.172 A 
ATOM     14  C   UNL A   1      33.688  24.524  23.680  1.00  0.00     0.289 A 
BRANCH  12  15
ATOM     15  N   UNL A   1      33.296  28.195  23.020  1.00  0.00     0.063 N 
ATOM     16  O   UNL A   1      32.266  28.845  23.254  1.00  0.00    -0.258 OA
ATOM     17  O   UNL A   1      34.157  28.559  22.213  1.00  0.00    -0.258 OA
ENDBRANCH  12  15
BRANCH  14  18
ATOM     18  N   UNL A   1      34.156  23.444  22.840  1.00  0.00     0.063 N 
ATOM     19  O   UNL A   1      35.374  23.372  22.649  1.00  0.00    -0.258 OA
ATOM     20  O   UNL A   1      33.283  22.788  22.255  1.00  0.00    -0.258 OA
ENDBRANCH  14  18
ENDBRANCH   5   8
ENDBRANCH   3   4
ENDBRANCH   2   3
ENDBRANCH   1   2
BRANCH   1  21
ATOM     21  N   UNL A   1      39.466  25.098  27.102  1.00  0.00    -0.352 N 
ATOM     22  C   UNL A   1      39.864  25.877  28.274  1.00  0.00     0.251 C 
ATOM     23  H   UNL A   1      39.922  25.411  26.288  1.00  0.00     0.163 HD
ATOM     24  O   UNL A   1      41.052  25.699  28.601  1.00  0.00    -0.269 OA
BRANCH  22  25
ATOM     25  C   UNL A   1      39.131  26.973  29.167  1.00  0.00     0.039 A 
ATOM     26  C   UNL A   1      38.583  28.164  28.582  1.00  0.00     0.014 A 
ATOM     27  C   UNL A   1      39.030  26.977  30.553  1.00  0.00     0.014 A 
ATOM     28  C   UNL A   1      38.529  29.419  29.323  1.00  0.00     0.010 A 
ATOM     29  C   UNL A   1      38.990  28.211  31.285  1.00  0.00     0.010 A 
ATOM     30  C   UNL A   1      38.998  29.464  30.649  1.00  0.00    -0.014 A 
BRANCH  30  31
ATOM     31  C   UNL A   1      39.774  30.636  31.270  1.00  0.00     0.031 A 
ATOM     32  C   UNL A   1      40.957  30.403  32.090  1.00  0.00     0.074 A 
ATOM     33  C   UNL A   1      39.644  31.986  31.052  1.00  0.00     0.049 A 
ATOM     34  N   UNL A   1      41.170  30.923  33.255  1.00  0.00    -0.248 NA
ATOM     35  C   UNL A   1      42.060  29.631  31.550  1.00  0.00     0.031 C 
ATOM     36  C   UNL A   1      40.427  33.173  31.452  1.00  0.00     0.029 A 
ATOM     37  N   UNL A   1      38.717  32.636  30.271  1.00  0.00    -0.354 N 
ATOM     38  C   UNL A   1      42.532  30.823  33.451  1.00  0.00     0.074 A 
ATOM     39  C   UNL A   1      42.981  29.828  32.494  1.00  0.00     0.031 C 
ATOM     40  C   UNL A   1      39.699  34.299  31.242  1.00  0.00     0.029 A 
ATOM     41  C   UNL A   1      38.398  33.903  30.744  1.00  0.00     0.049 A 
ATOM     42  H   UNL A   1      38.321  32.243  29.460  1.00  0.00     0.167 HD
ATOM     43  C   UNL A   1      43.239  31.773  34.138  1.00  0.00     0.037 A 
ATOM     44  C   UNL A   1      37.133  34.125  31.235  1.00  0.00     0.037 A 
ATOM     45  C   UNL A   1      42.447  32.998  34.376  1.00  0.00     0.049 A 
ATOM     46  C   UNL A   1      37.201  34.220  32.739  1.00  0.00     0.074 A 
ATOM     47  C   UNL A   1      42.527  34.305  33.909  1.00  0.00     0.029 A 
ATOM     48  N   UNL A   1      41.201  32.916  34.976  1.00  0.00    -0.354 N 
ATOM     49  N   UNL A   1      38.315  34.425  33.379  1.00  0.00    -0.248 NA
ATOM     50  C   UNL A   1      36.077  34.007  33.649  1.00  0.00     0.031 C 
ATOM     51  C   UNL A   1      41.329  34.997  34.260  1.00  0.00     0.029 A 
ATOM     52  C   UNL A   1      40.521  34.123  34.960  1.00  0.00     0.049 A 
ATOM     53  H   UNL A   1      40.839  32.089  35.372  1.00  0.00     0.167 HD
ATOM     54  C   UNL A   1      38.135  34.213  34.710  1.00  0.00     0.074 A 
ATOM     55  C   UNL A   1      36.700  34.014  34.843  1.00  0.00     0.031 C 
ATOM     56  C   UNL A   1      39.195  34.178  35.570  1.00  0.00     0.037 A 
BRANCH  43  57
ATOM     57  C   UNL A   1      44.754  31.701  34.314  1.00  0.00     0.058 A 
ATOM     58  C   UNL A   1      45.359  30.887  35.294  1.00  0.00     0.135 A 
ATOM     59  C   UNL A   1      45.677  32.377  33.482  1.00  0.00     0.135 A 
ATOM     60  F   UNL A   1      44.639  30.053  36.056  1.00  0.00    -0.206 F 
ATOM     61  C   UNL A   1      46.740  30.845  35.507  1.00  0.00     0.059 A 
ATOM     62  C   UNL A   1      47.052  32.421  33.726  1.00  0.00     0.059 A 
ATOM     63  F   UNL A   1      45.292  32.956  32.335  1.00  0.00    -0.206 F 
ATOM     64  C   UNL A   1      47.580  31.640  34.739  1.00  0.00     0.060 A 
BRANCH  64  65
ATOM     65  S   UNL A   1      49.361  31.553  34.998  1.00  0.00     0.124 S 
ATOM     66  O   UNL A   1      49.732  30.372  34.225  1.00  0.00    -0.237 OA
ATOM     67  O   UNL A   1      49.807  32.833  34.459  1.00  0.00    -0.237 OA
ATOM     68  O   UNL A   1      49.489  31.409  36.447  1.00  0.00    -0.744 OA
ENDBRANCH  64  65
ENDBRANCH  43  57
BRANCH  44  69
ATOM     69  C   UNL A   1      35.964  33.466  30.446  1.00  0.00     0.058 A 
ATOM     70  C   UNL A   1      34.897  33.040  31.263  1.00  0.00     0.135 A 
ATOM     71  C   UNL A   1      35.545  34.245  29.385  1.00  0.00     0.135 A 
ATOM     72  F   UNL A   1      34.973  31.859  31.889  1.00  0.00    -0.206 F 
ATOM     73  C   UNL A   1      33.795  33.862  31.520  1.00  0.00     0.059 A 
ATOM     74  C   UNL A   1      34.472  35.102  29.659  1.00  0.00     0.059 A 
ATOM     75  F   UNL A   1      36.416  34.585  28.418  1.00  0.00    -0.206 F 
ATOM     76  C   UNL A   1      33.721  35.045  30.814  1.00  0.00     0.060 A 
BRANCH  76  77
ATOM     77  S   UNL A   1      32.963  36.669  31.661  1.00  0.00     0.124 S 
ATOM     78  O   UNL A   1      32.847  37.497  30.479  1.00  0.00    -0.237 OA
ATOM     79  O   UNL A   1      31.657  36.276  32.193  1.00  0.00    -0.237 OA
ATOM     80  O   UNL A   1      33.898  37.130  32.652  1.00  0.00    -0.744 OA
ENDBRANCH  76  77
ENDBRANCH  44  69
BRANCH  56  81
ATOM     81  C   UNL A   1      39.067  34.142  37.068  1.00  0.00     0.058 A 
ATOM     82  C   UNL A   1      38.591  33.015  37.759  1.00  0.00     0.135 A 
ATOM     83  C   UNL A   1      39.285  35.293  37.861  1.00  0.00     0.135 A 
ATOM     84  F   UNL A   1      38.191  31.915  37.104  1.00  0.00    -0.206 F 
ATOM     85  C   UNL A   1      38.467  32.992  39.147  1.00  0.00     0.059 A 
ATOM     86  C   UNL A   1      39.123  35.307  39.238  1.00  0.00     0.059 A 
ATOM     87  F   UNL A   1      39.666  36.465  37.340  1.00  0.00    -0.206 F 
ATOM     88  C   UNL A   1      38.752  34.140  39.879  1.00  0.00     0.060 A 
BRANCH  88  89
ATOM     89  S   UNL A   1      38.604  34.107  41.668  1.00  0.00     0.124 S 
ATOM     90  O   UNL A   1      37.476  35.001  41.905  1.00  0.00    -0.237 OA
ATOM     91  O   UNL A   1      38.352  32.690  41.911  1.00  0.00    -0.237 OA
ATOM     92  O   UNL A   1      39.897  34.604  42.128  1.00  0.00    -0.744 OA
ENDBRANCH  88  89
ENDBRANCH  56  81
ENDBRANCH  30  31
ENDBRANCH  22  25
ENDBRANCH   1  21
TORSDOF 15
ENDMDL
MODEL 2
REMARK VINA RESULT:     -11.8      1.311      2.232
REMARK SMILES Cc1cc(C(=O)NCCCNC(=O)c2ccc(-c3c4nc(c(-c5c(F)cc(S(=O)(=O)[O-])cc5F)c5ccc([nH]5)c(-c5c(F)cc(S(=O)(=O)[O-])cc5F)c5nc(c(-c6c(F)cc(S(=O)(=O)[O-])cc6F)c6ccc3[nH]6)C=C5)C=C4)cc2)c([N+](=O)[O-])cc1[N+](=O)[O-]
REMARK SMILES IDX 10 1 9 2 8 3 7 4 5 5 6 6 4 8 1 9 2 10 3 11 85 12 84 13 80 14
REMARK SMILES IDX 86 15 87 16 88 17 81 18 82 19 83 20 11 21 12 22 13 24 14 25
REMARK SMILES IDX 15 26 79 27 16 28 78 29 17 30 18 31 19 32 72 33 20 34 77 35
REMARK SMILES IDX 71 36 73 37 21 38 76 39 70 40 69 41 22 43 56 44 35 45 55 46
REMARK SMILES IDX 36 47 39 48 54 49 74 50 37 51 38 52 53 54 75 55 40 56 23 57
REMARK SMILES IDX 24 58 33 59 25 60 26 61 32 62 34 63 27 64 28 65 29 66 30 67
REMARK SMILES IDX 31 68 57 69 58 70 67 71 59 72 60 73 66 74 68 75 61 76 62 77
REMARK SMILES IDX 63 78 64 79 65 80 41 81 42 82 51 83 43 84 44 85 50 86 52 87
REMARK SMILES IDX 45 88 46 89 47 90 48 91 49 92
REMARK H PARENT 7 7 11 23 73 42 39 53
REMARK Flexibility Score: inf
ROOT
ATOM      1  C   UNL A   1      38.638  24.098  26.592  1.00  0.00     0.118 C 
ENDROOT
BRANCH   1   2
ATOM      2  C   UNL A   1      39.025  22.570  26.351  1.00  0.00     0.042 C 
BRANCH   2   3
ATOM      3  C   UNL A   1      37.879  21.626  25.700  1.00  0.00     0.118 C 
BRANCH   3   4
ATOM      4  N   UNL A   1      37.377  21.957  24.339  1.00  0.00    -0.352 N 
ATOM      5  C   UNL A   1      36.388  22.714  23.751  1.00  0.00     0.258 C 
ATOM      6  O   UNL A   1      36.454  23.048  22.568  1.00  0.00    -0.269 OA
ATOM      7  H   UNL A   1      37.913  21.498  23.653  1.00  0.00     0.163 HD
BRANCH   5   8
ATOM      8  C   UNL A   1      35.199  23.202  24.484  1.00  0.00     0.118 A 
ATOM      9  C   UNL A   1      33.725  26.636  25.273  1.00  0.00     0.052 C 
ATOM     10  C   UNL A   1      33.882  25.136  25.347  1.00  0.00     0.028 A 
ATOM     11  C   UNL A   1      35.006  24.595  24.658  1.00  0.00     0.031 A 
ATOM     12  C   UNL A   1      32.997  24.228  25.962  1.00  0.00     0.279 A 
ATOM     13  C   UNL A   1      33.143  22.851  25.724  1.00  0.00     0.172 A 
ATOM     14  C   UNL A   1      34.182  22.377  24.916  1.00  0.00     0.289 A 
BRANCH  12  15
ATOM     15  N   UNL A   1      31.867  24.616  26.836  1.00  0.00     0.063 N 
ATOM     16  O   UNL A   1      31.460  25.785  26.753  1.00  0.00    -0.258 OA
ATOM     17  O   UNL A   1      31.352  23.770  27.574  1.00  0.00    -0.258 OA
ENDBRANCH  12  15
BRANCH  14  18
ATOM     18  N   UNL A   1      33.987  21.065  24.338  1.00  0.00     0.063 N 
ATOM     19  O   UNL A   1      34.793  20.186  24.661  1.00  0.00    -0.258 OA
ATOM     20  O   UNL A   1      33.131  20.981  23.447  1.00  0.00    -0.258 OA
ENDBRANCH  14  18
ENDBRANCH   5   8
ENDBRANCH   3   4
ENDBRANCH   2   3
ENDBRANCH   1   2
BRANCH   1  21
ATOM     21  N   UNL A   1      39.606  25.258  27.037  1.00  0.00    -0.352 N 
ATOM     22  C   UNL A   1      39.959  25.936  28.284  1.00  0.00     0.251 C 
ATOM     23  H   UNL A   1      40.108  25.624  26.272  1.00  0.00     0.163 HD
ATOM     24  O   UNL A   1      41.126  25.709  28.654  1.00  0.00    -0.269 OA
BRANCH  22  25
ATOM     25  C   UNL A   1      39.201  26.974  29.224  1.00  0.00     0.039 A 
ATOM     26  C   UNL A   1      38.620  28.174  28.690  1.00  0.00     0.014 A 
ATOM     27  C   UNL A   1      39.104  26.918  30.608  1.00  0.00     0.014 A 
ATOM     28  C   UNL A   1      38.536  29.396  29.482  1.00  0.00     0.010 A 
ATOM     29  C   UNL A   1      39.035  28.119  31.391  1.00  0.00     0.010 A 
ATOM     30  C   UNL A   1      39.008  29.397  30.808  1.00  0.00    -0.014 A 
BRANCH  30  31
ATOM     31  C   UNL A   1      39.756  30.563  31.475  1.00  0.00     0.031 A 
ATOM     32  C   UNL A   1      40.882  30.319  32.368  1.00  0.00     0.074 A 
ATOM     33  C   UNL A   1      39.653  31.914  31.248  1.00  0.00     0.049 A 
ATOM     34  N   UNL A   1      41.028  30.839  33.544  1.00  0.00    -0.248 NA
ATOM     35  C   UNL A   1      42.009  29.535  31.898  1.00  0.00     0.031 C 
ATOM     36  C   UNL A   1      40.421  33.093  31.696  1.00  0.00     0.029 A 
ATOM     37  N   UNL A   1      38.783  32.571  30.411  1.00  0.00    -0.354 N 
ATOM     38  C   UNL A   1      42.374  30.725  33.824  1.00  0.00     0.074 A 
ATOM     39  C   UNL A   1      42.872  29.724  32.898  1.00  0.00     0.031 C 
ATOM     40  C   UNL A   1      39.719  34.226  31.440  1.00  0.00     0.029 A 
ATOM     41  C   UNL A   1      38.448  33.842  30.862  1.00  0.00     0.049 A 
ATOM     42  H   UNL A   1      38.434  32.182  29.577  1.00  0.00     0.167 HD
ATOM     43  C   UNL A   1      43.047  31.670  34.553  1.00  0.00     0.037 A 
ATOM     44  C   UNL A   1      37.157  34.078  31.273  1.00  0.00     0.037 A 
ATOM     45  C   UNL A   1      42.253  32.902  34.740  1.00  0.00     0.049 A 
ATOM     46  C   UNL A   1      37.131  34.174  32.779  1.00  0.00     0.074 A 
ATOM     47  C   UNL A   1      42.375  34.208  34.278  1.00  0.00     0.029 A 
ATOM     48  N   UNL A   1      40.971  32.834  35.262  1.00  0.00    -0.354 N 
ATOM     49  N   UNL A   1      38.206  34.369  33.486  1.00  0.00    -0.248 NA
ATOM     50  C   UNL A   1      35.951  33.973  33.617  1.00  0.00     0.031 C 
ATOM     51  C   UNL A   1      41.165  34.912  34.553  1.00  0.00     0.029 A 
ATOM     52  C   UNL A   1      40.306  34.047  35.202  1.00  0.00     0.049 A 
ATOM     53  H   UNL A   1      40.577  32.011  35.634  1.00  0.00     0.167 HD
ATOM     54  C   UNL A   1      37.941  34.161  34.804  1.00  0.00     0.074 A 
ATOM     55  C   UNL A   1      36.499  33.976  34.848  1.00  0.00     0.031 C 
ATOM     56  C   UNL A   1      38.946  34.116  35.728  1.00  0.00     0.037 A 
BRANCH  43  57
ATOM     57  C   UNL A   1      44.546  31.582  34.823  1.00  0.00     0.058 A 
ATOM     58  C   UNL A   1      45.506  31.980  33.869  1.00  0.00     0.135 A 
ATOM     59  C   UNL A   1      45.103  31.165  36.055  1.00  0.00     0.135 A 
ATOM     60  F   UNL A   1      45.150  32.556  32.713  1.00  0.00    -0.206 F 
ATOM     61  C   UNL A   1      46.884  31.860  34.075  1.00  0.00     0.059 A 
ATOM     62  C   UNL A   1      46.470  30.953  36.256  1.00  0.00     0.059 A 
ATOM     63  F   UNL A   1      44.346  31.029  37.154  1.00  0.00    -0.206 F 
ATOM     64  C   UNL A   1      47.358  31.315  35.260  1.00  0.00     0.060 A 
BRANCH  64  65
ATOM     65  S   UNL A   1      49.136  31.195  35.528  1.00  0.00     0.124 S 
ATOM     66  O   UNL A   1      49.673  31.505  34.207  1.00  0.00    -0.237 OA
ATOM     67  O   UNL A   1      49.355  32.205  36.558  1.00  0.00    -0.237 OA
ATOM     68  O   UNL A   1      49.324  29.813  35.963  1.00  0.00    -0.744 OA
ENDBRANCH  64  65
ENDBRANCH  43  57
BRANCH  44  69
ATOM     69  C   UNL A   1      36.033  33.429  30.414  1.00  0.00     0.058 A 
ATOM     70  C   UNL A   1      34.927  32.985  31.166  1.00  0.00     0.135 A 
ATOM     71  C   UNL A   1      35.665  34.226  29.346  1.00  0.00     0.135 A 
ATOM     72  F   UNL A   1      34.975  31.793  31.774  1.00  0.00    -0.206 F 
ATOM     73  C   UNL A   1      33.809  33.798  31.381  1.00  0.00     0.059 A 
ATOM     74  C   UNL A   1      34.576  35.074  29.580  1.00  0.00     0.059 A 
ATOM     75  F   UNL A   1      36.583  34.586  28.432  1.00  0.00    -0.206 F 
ATOM     76  C   UNL A   1      33.767  34.994  30.694  1.00  0.00     0.060 A 
BRANCH  76  77
ATOM     77  S   UNL A   1      32.960  36.600  31.530  1.00  0.00     0.124 S 
ATOM     78  O   UNL A   1      33.958  36.839  32.550  1.00  0.00    -0.237 OA
ATOM     79  O   UNL A   1      32.964  37.638  30.497  1.00  0.00    -0.237 OA
ATOM     80  O   UNL A   1      31.653  36.240  32.011  1.00  0.00    -0.744 OA
ENDBRANCH  76  77
ENDBRANCH  44  69
BRANCH  56  81
ATOM     81  C   UNL A   1      38.724  34.083  37.215  1.00  0.00     0.058 A 
ATOM     82  C   UNL A   1      39.085  35.148  38.057  1.00  0.00     0.135 A 
ATOM     83  C   UNL A   1      38.268  32.916  37.873  1.00  0.00     0.135 A 
ATOM     84  F   UNL A   1      39.684  36.246  37.573  1.00  0.00    -0.206 F 
ATOM     85  C   UNL A   1      38.884  35.106  39.436  1.00  0.00     0.059 A 
ATOM     86  C   UNL A   1      38.104  32.836  39.248  1.00  0.00     0.059 A 
ATOM     87  F   UNL A   1      37.957  31.793  37.215  1.00  0.00    -0.206 F 
ATOM     88  C   UNL A   1      38.377  33.950  40.020  1.00  0.00     0.060 A 
BRANCH  88  89
ATOM     89  S   UNL A   1      38.106  33.900  41.793  1.00  0.00     0.124 S 
ATOM     90  O   UNL A   1      39.383  33.397  42.290  1.00  0.00    -0.237 OA
ATOM     91  O   UNL A   1      37.822  35.303  42.082  1.00  0.00    -0.237 OA
ATOM     92  O   UNL A   1      36.978  32.986  41.943  1.00  0.00    -0.744 OA
ENDBRANCH  88  89
ENDBRANCH  56  81
ENDBRANCH  30  31
ENDBRANCH  22  25
ENDBRANCH   1  21
TORSDOF 15
ENDMDL
MODEL 3
REMARK VINA RESULT:     -11.7      6.570     12.346
REMARK SMILES Cc1cc(C(=O)NCCCNC(=O)c2ccc(-c3c4nc(c(-c5c(F)cc(S(=O)(=O)[O-])cc5F)c5ccc([nH]5)c(-c5c(F)cc(S(=O)(=O)[O-])cc5F)c5nc(c(-c6c(F)cc(S(=O)(=O)[O-])cc6F)c6ccc3[nH]6)C=C5)C=C4)cc2)c([N+](=O)[O-])cc1[N+](=O)[O-]
REMARK SMILES IDX 10 1 9 2 8 3 7 4 5 5 6 6 4 8 1 9 2 10 3 11 85 12 84 13 80 14
REMARK SMILES IDX 86 15 87 16 88 17 81 18 82 19 83 20 11 21 12 22 13 24 14 25
REMARK SMILES IDX 15 26 79 27 16 28 78 29 17 30 18 31 19 32 72 33 20 34 77 35
REMARK SMILES IDX 71 36 73 37 21 38 76 39 70 40 69 41 22 43 56 44 35 45 55 46
REMARK SMILES IDX 36 47 39 48 54 49 74 50 37 51 38 52 53 54 75 55 40 56 23 57
REMARK SMILES IDX 24 58 33 59 25 60 26 61 32 62 34 63 27 64 28 65 29 66 30 67
REMARK SMILES IDX 31 68 57 69 58 70 67 71 59 72 60 73 66 74 68 75 61 76 62 77
REMARK SMILES IDX 63 78 64 79 65 80 41 81 42 82 51 83 43 84 44 85 50 86 52 87
REMARK SMILES IDX 45 88 46 89 47 90 48 91 49 92
REMARK H PARENT 7 7 11 23 73 42 39 53
REMARK Flexibility Score: inf
ROOT
ATOM      1  C   UNL A   1      35.674  30.326  27.385  1.00  0.00     0.118 C 
ENDROOT
BRANCH   1   2
ATOM      2  C   UNL A   1      34.313  31.096  27.701  1.00  0.00     0.042 C 
BRANCH   2   3
ATOM      3  C   UNL A   1      33.042  30.739  26.760  1.00  0.00     0.118 C 
BRANCH   3   4
ATOM      4  N   UNL A   1      32.056  29.739  27.250  1.00  0.00    -0.352 N 
ATOM      5  C   UNL A   1      31.758  28.404  27.084  1.00  0.00     0.258 C 
ATOM      6  O   UNL A   1      31.077  27.792  27.907  1.00  0.00    -0.269 OA
ATOM      7  H   UNL A   1      31.428  30.155  27.883  1.00  0.00     0.163 HD
BRANCH   5   8
ATOM      8  C   UNL A   1      32.244  27.603  25.939  1.00  0.00     0.118 A 
ATOM      9  C   UNL A   1      34.384  24.464  25.543  1.00  0.00     0.052 C 
ATOM     10  C   UNL A   1      33.623  25.696  25.115  1.00  0.00     0.028 A 
ATOM     11  C   UNL A   1      33.121  26.514  26.167  1.00  0.00     0.031 A 
ATOM     12  C   UNL A   1      33.306  26.069  23.793  1.00  0.00     0.279 A 
ATOM     13  C   UNL A   1      32.374  27.097  23.569  1.00  0.00     0.172 A 
ATOM     14  C   UNL A   1      31.795  27.776  24.647  1.00  0.00     0.289 A 
BRANCH  12  15
ATOM     15  N   UNL A   1      33.859  25.424  22.581  1.00  0.00     0.063 N 
ATOM     16  O   UNL A   1      34.219  24.241  22.681  1.00  0.00    -0.258 OA
ATOM     17  O   UNL A   1      33.906  26.059  21.523  1.00  0.00    -0.258 OA
ENDBRANCH  12  15
BRANCH  14  18
ATOM     18  N   UNL A   1      30.542  28.445  24.373  1.00  0.00     0.063 N 
ATOM     19  O   UNL A   1      29.595  27.735  24.017  1.00  0.00    -0.258 OA
ATOM     20  O   UNL A   1      30.573  29.683  24.361  1.00  0.00    -0.258 OA
ENDBRANCH  14  18
ENDBRANCH   5   8
ENDBRANCH   3   4
ENDBRANCH   2   3
ENDBRANCH   1   2
BRANCH   1  21
ATOM     21  N   UNL A   1      36.818  29.974  28.408  1.00  0.00    -0.352 N 
ATOM     22  C   UNL A   1      38.281  29.940  28.405  1.00  0.00     0.251 C 
ATOM     23  H   UNL A   1      36.452  29.704  29.282  1.00  0.00     0.163 HD
ATOM     24  O   UNL A   1      38.793  30.807  29.137  1.00  0.00    -0.269 OA
BRANCH  22  25
ATOM     25  C   UNL A   1      39.357  28.976  27.737  1.00  0.00     0.039 A 
ATOM     26  C   UNL A   1      39.422  27.583  28.079  1.00  0.00     0.014 A 
ATOM     27  C   UNL A   1      40.381  29.350  26.875  1.00  0.00     0.014 A 
ATOM     28  C   UNL A   1      40.685  26.854  28.059  1.00  0.00     0.010 A 
ATOM     29  C   UNL A   1      41.629  28.643  26.863  1.00  0.00     0.010 A 
ATOM     30  C   UNL A   1      41.864  27.517  27.670  1.00  0.00    -0.014 A 
BRANCH  30  31
ATOM     31  C   UNL A   1      43.246  27.302  28.306  1.00  0.00     0.031 A 
ATOM     32  C   UNL A   1      44.095  28.434  28.658  1.00  0.00     0.074 A 
ATOM     33  C   UNL A   1      43.818  26.151  28.791  1.00  0.00     0.049 A 
ATOM     34  N   UNL A   1      45.344  28.556  28.342  1.00  0.00    -0.248 NA
ATOM     35  C   UNL A   1      43.577  29.471  29.530  1.00  0.00     0.031 C 
ATOM     36  C   UNL A   1      45.044  25.856  29.561  1.00  0.00     0.029 A 
ATOM     37  N   UNL A   1      43.317  24.871  28.751  1.00  0.00    -0.354 N 
ATOM     38  C   UNL A   1      45.850  29.487  29.225  1.00  0.00     0.074 A 
ATOM     39  C   UNL A   1      44.688  30.172  29.761  1.00  0.00     0.031 C 
ATOM     40  C   UNL A   1      45.310  24.527  29.514  1.00  0.00     0.029 A 
ATOM     41  C   UNL A   1      44.308  23.900  28.677  1.00  0.00     0.049 A 
ATOM     42  H   UNL A   1      42.355  24.664  28.774  1.00  0.00     0.167 HD
ATOM     43  C   UNL A   1      47.134  29.419  29.697  1.00  0.00     0.037 A 
ATOM     44  C   UNL A   1      44.423  23.160  27.523  1.00  0.00     0.037 A 
ATOM     45  C   UNL A   1      47.777  28.126  29.383  1.00  0.00     0.049 A 
ATOM     46  C   UNL A   1      45.640  23.626  26.762  1.00  0.00     0.074 A 
ATOM     47  C   UNL A   1      48.200  27.047  30.151  1.00  0.00     0.029 A 
ATOM     48  N   UNL A   1      47.806  27.661  28.079  1.00  0.00    -0.354 N 
ATOM     49  N   UNL A   1      46.583  24.333  27.313  1.00  0.00    -0.248 NA
ATOM     50  C   UNL A   1      45.865  23.431  25.331  1.00  0.00     0.031 C 
ATOM     51  C   UNL A   1      48.499  25.952  29.287  1.00  0.00     0.029 A 
ATOM     52  C   UNL A   1      48.281  26.363  27.986  1.00  0.00     0.049 A 
ATOM     53  H   UNL A   1      47.520  28.195  27.302  1.00  0.00     0.167 HD
ATOM     54  C   UNL A   1      47.417  24.825  26.358  1.00  0.00     0.074 A 
ATOM     55  C   UNL A   1      46.966  24.182  25.133  1.00  0.00     0.031 C 
ATOM     56  C   UNL A   1      48.372  25.752  26.663  1.00  0.00     0.037 A 
BRANCH  43  57
ATOM     57  C   UNL A   1      47.687  30.412  30.715  1.00  0.00     0.058 A 
ATOM     58  C   UNL A   1      48.223  31.660  30.335  1.00  0.00     0.135 A 
ATOM     59  C   UNL A   1      47.652  30.208  32.115  1.00  0.00     0.135 A 
ATOM     60  F   UNL A   1      48.180  32.084  29.065  1.00  0.00    -0.206 F 
ATOM     61  C   UNL A   1      48.782  32.562  31.245  1.00  0.00     0.059 A 
ATOM     62  C   UNL A   1      48.279  31.050  33.037  1.00  0.00     0.059 A 
ATOM     63  F   UNL A   1      46.925  29.221  32.660  1.00  0.00    -0.206 F 
ATOM     64  C   UNL A   1      48.835  32.236  32.593  1.00  0.00     0.060 A 
BRANCH  64  65
ATOM     65  S   UNL A   1      49.527  33.419  33.763  1.00  0.00     0.124 S 
ATOM     66  O   UNL A   1      50.821  33.730  33.163  1.00  0.00    -0.237 OA
ATOM     67  O   UNL A   1      48.537  34.490  33.730  1.00  0.00    -0.237 OA
ATOM     68  O   UNL A   1      49.590  32.668  35.014  1.00  0.00    -0.744 OA
ENDBRANCH  64  65
ENDBRANCH  43  57
BRANCH  44  69
ATOM     69  C   UNL A   1      43.089  22.710  26.860  1.00  0.00     0.058 A 
ATOM     70  C   UNL A   1      43.123  22.719  25.451  1.00  0.00     0.135 A 
ATOM     71  C   UNL A   1      42.628  21.513  27.373  1.00  0.00     0.135 A 
ATOM     72  F   UNL A   1      42.918  23.866  24.791  1.00  0.00    -0.206 F 
ATOM     73  C   UNL A   1      43.466  21.579  24.716  1.00  0.00     0.059 A 
ATOM     74  C   UNL A   1      43.012  20.370  26.663  1.00  0.00     0.059 A 
ATOM     75  F   UNL A   1      42.370  21.403  28.689  1.00  0.00    -0.206 F 
ATOM     76  C   UNL A   1      43.615  20.404  25.423  1.00  0.00     0.060 A 
BRANCH  76  77
ATOM     77  S   UNL A   1      44.976  19.072  24.874  1.00  0.00     0.124 S 
ATOM     78  O   UNL A   1      46.156  19.751  25.366  1.00  0.00    -0.237 OA
ATOM     79  O   UNL A   1      44.681  17.856  25.633  1.00  0.00    -0.237 OA
ATOM     80  O   UNL A   1      44.897  18.919  23.446  1.00  0.00    -0.744 OA
ENDBRANCH  76  77
ENDBRANCH  44  69
BRANCH  56  81
ATOM     81  C   UNL A   1      49.449  26.199  25.713  1.00  0.00     0.058 A 
ATOM     82  C   UNL A   1      49.176  26.968  24.570  1.00  0.00     0.135 A 
ATOM     83  C   UNL A   1      50.784  25.749  25.839  1.00  0.00     0.135 A 
ATOM     84  F   UNL A   1      47.922  27.317  24.248  1.00  0.00    -0.206 F 
ATOM     85  C   UNL A   1      50.179  27.371  23.689  1.00  0.00     0.059 A 
ATOM     86  C   UNL A   1      51.789  26.100  24.950  1.00  0.00     0.059 A 
ATOM     87  F   UNL A   1      51.184  24.947  26.833  1.00  0.00    -0.206 F 
ATOM     88  C   UNL A   1      51.486  26.944  23.898  1.00  0.00     0.060 A 
BRANCH  88  89
ATOM     89  S   UNL A   1      52.780  27.474  22.772  1.00  0.00     0.124 S 
ATOM     90  O   UNL A   1      52.021  28.112  21.702  1.00  0.00    -0.237 OA
ATOM     91  O   UNL A   1      53.554  28.372  23.624  1.00  0.00    -0.237 OA
ATOM     92  O   UNL A   1      53.445  26.228  22.403  1.00  0.00    -0.744 OA
ENDBRANCH  88  89
ENDBRANCH  56  81
ENDBRANCH  30  31
ENDBRANCH  22  25
ENDBRANCH   1  21
TORSDOF 15
ENDMDL
