MODEL 1
REMARK VINA RESULT:     -12.3      0.000      0.000
REMARK SMILES O=C(C[C@H]1C(=O)NCC[N@@H+]1Cc1ccc(Cl)c(F)c1)NCCCNC(=O)c1ccc(-c2c3nc(c(-c4c(F)cc(S(=O)(=O)[O-])cc4F)c4ccc([nH]4)c(-c4c(F)cc(S(=O)(=O)[O-])cc4F)c4nc(c(-c5c(F)cc(S(=O)(=O)[O-])cc5F)c5ccc2[nH]5)C=C4)C=C3)cc1
REMARK SMILES IDX 22 1 21 2 20 3 1 4 2 5 3 7 4 8 5 9 10 10 6 11 7 12 9 13 8 15
REMARK SMILES IDX 11 17 12 18 13 19 19 20 14 21 17 22 15 23 18 24 16 25 23 26
REMARK SMILES IDX 24 27 25 28 26 30 27 31 28 32 92 33 29 34 91 35 30 36 31 37
REMARK SMILES IDX 32 38 85 39 33 40 90 41 84 42 86 43 34 44 89 45 83 46 82 47
REMARK SMILES IDX 35 49 69 50 48 51 68 52 49 53 52 54 67 55 87 56 50 57 51 58
REMARK SMILES IDX 66 60 88 61 53 62 36 63 37 64 46 65 38 66 39 67 45 68 47 69
REMARK SMILES IDX 40 70 41 71 42 72 43 73 44 74 70 75 71 76 80 77 72 78 73 79
REMARK SMILES IDX 79 80 81 81 74 82 75 83 76 84 77 85 78 86 54 87 55 88 64 89
REMARK SMILES IDX 56 90 57 91 63 92 65 93 58 94 59 95 60 96 61 97 62 98
REMARK H PARENT 20 6 10 14 7 16 24 29 86 48 52 59
REMARK Flexibility Score: inf
ROOT
ATOM      1  C   UNL A   1      40.334  22.139  27.218  1.00  0.00     0.042 C 
ENDROOT
BRANCH   1   2
ATOM      2  C   UNL A   1      39.168  22.769  26.466  1.00  0.00     0.117 C 
BRANCH   2   3
ATOM      3  N   UNL A   1      38.100  21.825  26.210  1.00  0.00    -0.356 N 
ATOM      4  O   UNL A   1      37.251  22.927  24.385  1.00  0.00    -0.275 OA
ATOM      5  C   UNL A   1      37.239  21.964  25.148  1.00  0.00     0.226 C 
ATOM      6  H   UNL A   1      37.986  21.058  26.818  1.00  0.00     0.163 HD
BRANCH   5   7
ATOM      7  C   UNL A   1      36.220  20.859  25.003  1.00  0.00     0.175 C 
BRANCH   7   8
ATOM      8  C   UNL A   1      34.790  21.342  24.704  1.00  0.00     0.283 C 
ATOM      9  C   UNL A   1      33.847  20.238  25.210  1.00  0.00     0.279 C 
ATOM     10  N   UNL A   1      34.463  22.665  25.285  1.00  0.00    -0.319 N 
ATOM     11  O   UNL A   1      33.565  19.256  24.525  1.00  0.00    -0.268 OA
ATOM     12  N   UNL A   1      33.405  20.320  26.502  1.00  0.00    -0.345 N 
ATOM     13  C   UNL A   1      34.389  22.629  26.749  1.00  0.00     0.284 C 
ATOM     14  H   UNL A   1      35.268  23.258  25.082  1.00  0.00     0.349 HD
ATOM     15  C   UNL A   1      33.569  21.478  27.354  1.00  0.00     0.177 C 
ATOM     16  H   UNL A   1      32.942  19.536  26.878  1.00  0.00     0.163 HD
BRANCH  10  17
ATOM     17  C   UNL A   1      33.405  23.416  24.600  1.00  0.00     0.299 C 
BRANCH  17  18
ATOM     18  C   UNL A   1      32.965  24.713  25.238  1.00  0.00     0.009 A 
ATOM     19  C   UNL A   1      31.660  24.860  25.736  1.00  0.00     0.011 A 
ATOM     20  C   UNL A   1      33.867  25.774  25.390  1.00  0.00     0.050 A 
ATOM     21  C   UNL A   1      31.290  26.010  26.441  1.00  0.00     0.024 A 
ATOM     22  C   UNL A   1      33.497  26.910  26.105  1.00  0.00     0.142 A 
ATOM     23  C   UNL A   1      32.218  27.028  26.642  1.00  0.00     0.076 A 
ATOM     24  F   UNL A   1      34.412  27.875  26.290  1.00  0.00    -0.205 F 
ATOM     25  Cl  UNL A   1      31.779  28.409  27.568  1.00  0.00    -0.081 Cl
ENDBRANCH  17  18
ENDBRANCH  10  17
ENDBRANCH   7   8
ENDBRANCH   5   7
ENDBRANCH   2   3
ENDBRANCH   1   2
BRANCH   1  26
ATOM     26  C   UNL A   1      41.531  23.062  27.418  1.00  0.00     0.118 C 
BRANCH  26  27
ATOM     27  N   UNL A   1      41.807  23.901  26.260  1.00  0.00    -0.352 N 
ATOM     28  C   UNL A   1      41.731  25.262  26.109  1.00  0.00     0.251 C 
ATOM     29  H   UNL A   1      42.095  23.412  25.456  1.00  0.00     0.163 HD
ATOM     30  O   UNL A   1      41.879  25.738  24.983  1.00  0.00    -0.269 OA
BRANCH  28  31
ATOM     31  C   UNL A   1      41.461  26.157  27.258  1.00  0.00     0.039 A 
ATOM     32  C   UNL A   1      42.313  27.247  27.468  1.00  0.00     0.014 A 
ATOM     33  C   UNL A   1      40.422  25.911  28.159  1.00  0.00     0.014 A 
ATOM     34  C   UNL A   1      42.101  28.103  28.551  1.00  0.00     0.010 A 
ATOM     35  C   UNL A   1      40.165  26.809  29.196  1.00  0.00     0.010 A 
ATOM     36  C   UNL A   1      41.013  27.904  29.416  1.00  0.00    -0.014 A 
BRANCH  36  37
ATOM     37  C   UNL A   1      40.782  28.811  30.571  1.00  0.00     0.031 A 
ATOM     38  C   UNL A   1      41.617  28.681  31.819  1.00  0.00     0.074 A 
ATOM     39  C   UNL A   1      39.802  29.736  30.512  1.00  0.00     0.049 A 
ATOM     40  N   UNL A   1      41.558  29.372  32.930  1.00  0.00    -0.248 NA
ATOM     41  C   UNL A   1      42.637  27.619  31.829  1.00  0.00     0.031 C 
ATOM     42  C   UNL A   1      38.888  29.930  29.385  1.00  0.00     0.029 A 
ATOM     43  N   UNL A   1      39.409  30.685  31.423  1.00  0.00    -0.354 N 
ATOM     44  C   UNL A   1      42.519  28.822  33.771  1.00  0.00     0.074 A 
ATOM     45  C   UNL A   1      43.107  27.704  33.065  1.00  0.00     0.031 C 
ATOM     46  C   UNL A   1      38.063  30.953  29.659  1.00  0.00     0.029 A 
ATOM     47  C   UNL A   1      38.366  31.470  30.990  1.00  0.00     0.049 A 
ATOM     48  H   UNL A   1      39.834  30.794  32.305  1.00  0.00     0.167 HD
ATOM     49  C   UNL A   1      42.898  29.225  35.008  1.00  0.00     0.037 A 
ATOM     50  C   UNL A   1      37.730  32.492  31.594  1.00  0.00     0.037 A 
ATOM     51  C   UNL A   1      42.332  30.356  35.698  1.00  0.00     0.049 A 
ATOM     52  C   UNL A   1      38.187  32.941  32.957  1.00  0.00     0.074 A 
ATOM     53  C   UNL A   1      42.679  30.875  36.932  1.00  0.00     0.029 A 
ATOM     54  N   UNL A   1      41.302  31.146  35.209  1.00  0.00    -0.354 N 
ATOM     55  N   UNL A   1      39.137  32.445  33.712  1.00  0.00    -0.248 NA
ATOM     56  C   UNL A   1      37.496  34.098  33.540  1.00  0.00     0.031 C 
ATOM     57  C   UNL A   1      41.837  31.958  37.206  1.00  0.00     0.029 A 
ATOM     58  C   UNL A   1      40.996  32.143  36.121  1.00  0.00     0.049 A 
ATOM     59  H   UNL A   1      40.853  31.018  34.342  1.00  0.00     0.167 HD
ATOM     60  C   UNL A   1      39.184  33.253  34.844  1.00  0.00     0.074 A 
ATOM     61  C   UNL A   1      38.169  34.272  34.669  1.00  0.00     0.031 C 
ATOM     62  C   UNL A   1      39.994  33.161  35.927  1.00  0.00     0.037 A 
BRANCH  49  63
ATOM     63  C   UNL A   1      43.985  28.441  35.692  1.00  0.00     0.058 A 
ATOM     64  C   UNL A   1      45.344  28.735  35.489  1.00  0.00     0.135 A 
ATOM     65  C   UNL A   1      43.668  27.403  36.583  1.00  0.00     0.135 A 
ATOM     66  F   UNL A   1      45.706  29.707  34.636  1.00  0.00    -0.206 F 
ATOM     67  C   UNL A   1      46.349  28.005  36.116  1.00  0.00     0.059 A 
ATOM     68  C   UNL A   1      44.656  26.678  37.244  1.00  0.00     0.059 A 
ATOM     69  F   UNL A   1      42.387  27.080  36.817  1.00  0.00    -0.206 F 
ATOM     70  C   UNL A   1      45.994  26.976  36.990  1.00  0.00     0.060 A 
BRANCH  70  71
ATOM     71  S   UNL A   1      47.309  26.035  37.794  1.00  0.00     0.124 S 
ATOM     72  O   UNL A   1      48.364  26.092  36.786  1.00  0.00    -0.237 OA
ATOM     73  O   UNL A   1      47.553  26.811  39.006  1.00  0.00    -0.237 OA
ATOM     74  O   UNL A   1      46.710  24.722  38.004  1.00  0.00    -0.744 OA
ENDBRANCH  70  71
ENDBRANCH  49  63
BRANCH  50  75
ATOM     75  C   UNL A   1      36.620  33.193  30.895  1.00  0.00     0.058 A 
ATOM     76  C   UNL A   1      35.288  33.025  31.304  1.00  0.00     0.135 A 
ATOM     77  C   UNL A   1      36.867  34.050  29.812  1.00  0.00     0.135 A 
ATOM     78  F   UNL A   1      35.001  32.211  32.331  1.00  0.00    -0.206 F 
ATOM     79  C   UNL A   1      34.239  33.664  30.652  1.00  0.00     0.059 A 
ATOM     80  C   UNL A   1      35.837  34.721  29.160  1.00  0.00     0.059 A 
ATOM     81  F   UNL A   1      38.126  34.260  29.393  1.00  0.00    -0.206 F 
ATOM     82  C   UNL A   1      34.524  34.512  29.580  1.00  0.00     0.060 A 
BRANCH  82  83
ATOM     83  S   UNL A   1      33.159  35.372  28.769  1.00  0.00     0.124 S 
ATOM     84  O   UNL A   1      33.870  36.372  27.980  1.00  0.00    -0.237 OA
ATOM     85  O   UNL A   1      32.524  34.297  28.014  1.00  0.00    -0.237 OA
ATOM     86  O   UNL A   1      32.377  35.888  29.888  1.00  0.00    -0.744 OA
ENDBRANCH  82  83
ENDBRANCH  50  75
BRANCH  62  87
ATOM     87  C   UNL A   1      39.858  34.223  36.983  1.00  0.00     0.058 A 
ATOM     88  C   UNL A   1      40.463  35.483  36.855  1.00  0.00     0.135 A 
ATOM     89  C   UNL A   1      39.081  33.983  38.130  1.00  0.00     0.135 A 
ATOM     90  F   UNL A   1      41.217  35.764  35.780  1.00  0.00    -0.206 F 
ATOM     91  C   UNL A   1      40.333  36.455  37.842  1.00  0.00     0.059 A 
ATOM     92  C   UNL A   1      38.915  34.950  39.116  1.00  0.00     0.059 A 
ATOM     93  F   UNL A   1      38.469  32.800  38.295  1.00  0.00    -0.206 F 
ATOM     94  C   UNL A   1      39.561  36.177  38.971  1.00  0.00     0.060 A 
BRANCH  94  95
ATOM     95  S   UNL A   1      39.392  37.448  40.242  1.00  0.00     0.124 S 
ATOM     96  O   UNL A   1      38.824  36.684  41.347  1.00  0.00    -0.237 OA
ATOM     97  O   UNL A   1      40.769  37.898  40.424  1.00  0.00    -0.237 OA
ATOM     98  O   UNL A   1      38.497  38.425  39.628  1.00  0.00    -0.744 OA
ENDBRANCH  94  95
ENDBRANCH  62  87
ENDBRANCH  36  37
ENDBRANCH  28  31
ENDBRANCH  26  27
ENDBRANCH   1  26
TORSDOF 16
ENDMDL
MODEL 2
REMARK VINA RESULT:     -12.1      1.996      3.127
REMARK SMILES O=C(C[C@H]1C(=O)NCC[N@@H+]1Cc1ccc(Cl)c(F)c1)NCCCNC(=O)c1ccc(-c2c3nc(c(-c4c(F)cc(S(=O)(=O)[O-])cc4F)c4ccc([nH]4)c(-c4c(F)cc(S(=O)(=O)[O-])cc4F)c4nc(c(-c5c(F)cc(S(=O)(=O)[O-])cc5F)c5ccc2[nH]5)C=C4)C=C3)cc1
REMARK SMILES IDX 22 1 21 2 20 3 1 4 2 5 3 7 4 8 5 9 10 10 6 11 7 12 9 13 8 15
REMARK SMILES IDX 11 17 12 18 13 19 19 20 14 21 17 22 15 23 18 24 16 25 23 26
REMARK SMILES IDX 24 27 25 28 26 30 27 31 28 32 92 33 29 34 91 35 30 36 31 37
REMARK SMILES IDX 32 38 85 39 33 40 90 41 84 42 86 43 34 44 89 45 83 46 82 47
REMARK SMILES IDX 35 49 69 50 48 51 68 52 49 53 52 54 67 55 87 56 50 57 51 58
REMARK SMILES IDX 66 60 88 61 53 62 36 63 37 64 46 65 38 66 39 67 45 68 47 69
REMARK SMILES IDX 40 70 41 71 42 72 43 73 44 74 70 75 71 76 80 77 72 78 73 79
REMARK SMILES IDX 79 80 81 81 74 82 75 83 76 84 77 85 78 86 54 87 55 88 64 89
REMARK SMILES IDX 56 90 57 91 63 92 65 93 58 94 59 95 60 96 61 97 62 98
REMARK H PARENT 20 6 10 14 7 16 24 29 86 48 52 59
REMARK Flexibility Score: inf
ROOT
ATOM      1  C   UNL A   1      40.022  21.845  26.829  1.00  0.00     0.042 C 
ENDROOT
BRANCH   1   2
ATOM      2  C   UNL A   1      38.777  21.588  25.989  1.00  0.00     0.117 C 
BRANCH   2   3
ATOM      3  N   UNL A   1      37.834  22.686  26.046  1.00  0.00    -0.356 N 
ATOM      4  O   UNL A   1      36.961  22.349  23.950  1.00  0.00    -0.275 OA
ATOM      5  C   UNL A   1      36.962  22.955  25.019  1.00  0.00     0.226 C 
ATOM      6  H   UNL A   1      37.819  23.259  26.847  1.00  0.00     0.163 HD
BRANCH   5   7
ATOM      7  C   UNL A   1      36.015  24.105  25.271  1.00  0.00     0.175 C 
BRANCH   7   8
ATOM      8  C   UNL A   1      34.525  23.728  25.234  1.00  0.00     0.283 C 
ATOM      9  C   UNL A   1      33.743  25.047  25.348  1.00  0.00     0.279 C 
ATOM     10  N   UNL A   1      34.127  22.945  24.041  1.00  0.00    -0.319 N 
ATOM     11  O   UNL A   1      33.494  25.566  26.434  1.00  0.00    -0.268 OA
ATOM     12  N   UNL A   1      33.415  25.697  24.189  1.00  0.00    -0.345 N 
ATOM     13  C   UNL A   1      34.192  23.735  22.807  1.00  0.00     0.284 C 
ATOM     14  H   UNL A   1      34.849  22.233  23.930  1.00  0.00     0.349 HD
ATOM     15  C   UNL A   1      33.546  25.129  22.865  1.00  0.00     0.177 C 
ATOM     16  H   UNL A   1      33.067  26.615  24.262  1.00  0.00     0.163 HD
BRANCH  10  17
ATOM     17  C   UNL A   1      32.943  22.093  24.205  1.00  0.00     0.299 C 
BRANCH  17  18
ATOM     18  C   UNL A   1      33.163  20.600  24.144  1.00  0.00     0.009 A 
ATOM     19  C   UNL A   1      32.214  19.760  23.538  1.00  0.00     0.011 A 
ATOM     20  C   UNL A   1      34.341  20.032  24.645  1.00  0.00     0.050 A 
ATOM     21  C   UNL A   1      32.473  18.397  23.365  1.00  0.00     0.024 A 
ATOM     22  C   UNL A   1      34.601  18.677  24.457  1.00  0.00     0.142 A 
ATOM     23  C   UNL A   1      33.679  17.859  23.809  1.00  0.00     0.076 A 
ATOM     24  F   UNL A   1      35.772  18.185  24.888  1.00  0.00    -0.205 F 
ATOM     25  Cl  UNL A   1      34.023  16.197  23.533  1.00  0.00    -0.081 Cl
ENDBRANCH  17  18
ENDBRANCH  10  17
ENDBRANCH   7   8
ENDBRANCH   5   7
ENDBRANCH   2   3
ENDBRANCH   1   2
BRANCH   1  26
ATOM     26  C   UNL A   1      40.254  23.310  27.184  1.00  0.00     0.118 C 
BRANCH  26  27
ATOM     27  N   UNL A   1      40.924  24.057  26.130  1.00  0.00    -0.352 N 
ATOM     28  C   UNL A   1      41.266  25.382  26.057  1.00  0.00     0.251 C 
ATOM     29  H   UNL A   1      41.173  23.522  25.341  1.00  0.00     0.163 HD
ATOM     30  O   UNL A   1      41.706  25.820  24.993  1.00  0.00    -0.269 OA
BRANCH  28  31
ATOM     31  C   UNL A   1      41.100  26.291  27.214  1.00  0.00     0.039 A 
ATOM     32  C   UNL A   1      40.038  26.061  28.095  1.00  0.00     0.014 A 
ATOM     33  C   UNL A   1      41.935  27.394  27.415  1.00  0.00     0.014 A 
ATOM     34  C   UNL A   1      39.838  26.907  29.188  1.00  0.00     0.010 A 
ATOM     35  C   UNL A   1      41.781  28.193  28.549  1.00  0.00     0.010 A 
ATOM     36  C   UNL A   1      40.719  27.971  29.438  1.00  0.00    -0.014 A 
BRANCH  36  37
ATOM     37  C   UNL A   1      40.512  28.877  30.599  1.00  0.00     0.031 A 
ATOM     38  C   UNL A   1      41.353  28.726  31.841  1.00  0.00     0.074 A 
ATOM     39  C   UNL A   1      39.549  29.819  30.551  1.00  0.00     0.049 A 
ATOM     40  N   UNL A   1      41.313  29.412  32.955  1.00  0.00    -0.248 NA
ATOM     41  C   UNL A   1      42.354  27.646  31.839  1.00  0.00     0.031 C 
ATOM     42  C   UNL A   1      38.631  30.035  29.430  1.00  0.00     0.029 A 
ATOM     43  N   UNL A   1      39.179  30.770  31.469  1.00  0.00    -0.354 N 
ATOM     44  C   UNL A   1      42.270  28.841  33.788  1.00  0.00     0.074 A 
ATOM     45  C   UNL A   1      42.833  27.716  33.072  1.00  0.00     0.031 C 
ATOM     46  C   UNL A   1      37.826  31.071  29.715  1.00  0.00     0.029 A 
ATOM     47  C   UNL A   1      38.147  31.576  31.046  1.00  0.00     0.049 A 
ATOM     48  H   UNL A   1      39.611  30.868  32.348  1.00  0.00     0.167 HD
ATOM     49  C   UNL A   1      42.663  29.231  35.024  1.00  0.00     0.037 A 
ATOM     50  C   UNL A   1      37.533  32.606  31.659  1.00  0.00     0.037 A 
ATOM     51  C   UNL A   1      42.122  30.368  35.723  1.00  0.00     0.049 A 
ATOM     52  C   UNL A   1      38.006  33.040  33.021  1.00  0.00     0.074 A 
ATOM     53  C   UNL A   1      42.486  30.874  36.958  1.00  0.00     0.029 A 
ATOM     54  N   UNL A   1      41.103  31.179  35.244  1.00  0.00    -0.354 N 
ATOM     55  N   UNL A   1      38.953  32.524  33.768  1.00  0.00    -0.248 NA
ATOM     56  C   UNL A   1      37.340  34.207  33.615  1.00  0.00     0.031 C 
ATOM     57  C   UNL A   1      41.665  31.971  37.242  1.00  0.00     0.029 A 
ATOM     58  C   UNL A   1      40.821  32.177  36.164  1.00  0.00     0.049 A 
ATOM     59  H   UNL A   1      40.647  31.063  34.380  1.00  0.00     0.167 HD
ATOM     60  C   UNL A   1      39.021  33.325  34.903  1.00  0.00     0.074 A 
ATOM     61  C   UNL A   1      38.024  34.363  34.740  1.00  0.00     0.031 C 
ATOM     62  C   UNL A   1      39.837  33.214  35.980  1.00  0.00     0.037 A 
BRANCH  49  63
ATOM     63  C   UNL A   1      43.741  28.424  35.698  1.00  0.00     0.058 A 
ATOM     64  C   UNL A   1      45.104  28.692  35.484  1.00  0.00     0.135 A 
ATOM     65  C   UNL A   1      43.410  27.390  36.588  1.00  0.00     0.135 A 
ATOM     66  F   UNL A   1      45.477  29.660  34.632  1.00  0.00    -0.206 F 
ATOM     67  C   UNL A   1      46.099  27.942  36.101  1.00  0.00     0.059 A 
ATOM     68  C   UNL A   1      44.390  26.644  37.239  1.00  0.00     0.059 A 
ATOM     69  F   UNL A   1      42.125  27.091  36.831  1.00  0.00    -0.206 F 
ATOM     70  C   UNL A   1      45.732  26.917  36.975  1.00  0.00     0.060 A 
BRANCH  70  71
ATOM     71  S   UNL A   1      47.035  25.949  37.766  1.00  0.00     0.124 S 
ATOM     72  O   UNL A   1      48.149  26.157  36.845  1.00  0.00    -0.237 OA
ATOM     73  O   UNL A   1      47.162  26.600  39.067  1.00  0.00    -0.237 OA
ATOM     74  O   UNL A   1      46.486  24.598  37.795  1.00  0.00    -0.744 OA
ENDBRANCH  70  71
ENDBRANCH  49  63
BRANCH  50  75
ATOM     75  C   UNL A   1      36.431  33.330  30.971  1.00  0.00     0.058 A 
ATOM     76  C   UNL A   1      35.100  33.186  31.389  1.00  0.00     0.135 A 
ATOM     77  C   UNL A   1      36.686  34.186  29.889  1.00  0.00     0.135 A 
ATOM     78  F   UNL A   1      34.805  32.374  32.416  1.00  0.00    -0.206 F 
ATOM     79  C   UNL A   1      34.058  33.847  30.747  1.00  0.00     0.059 A 
ATOM     80  C   UNL A   1      35.664  34.878  29.247  1.00  0.00     0.059 A 
ATOM     81  F   UNL A   1      37.946  34.374  29.461  1.00  0.00    -0.206 F 
ATOM     82  C   UNL A   1      34.351  34.693  29.676  1.00  0.00     0.060 A 
BRANCH  82  83
ATOM     83  S   UNL A   1      32.996  35.581  28.878  1.00  0.00     0.124 S 
ATOM     84  O   UNL A   1      32.383  34.526  28.080  1.00  0.00    -0.237 OA
ATOM     85  O   UNL A   1      32.221  36.050  30.022  1.00  0.00    -0.237 OA
ATOM     86  O   UNL A   1      33.681  36.627  28.123  1.00  0.00    -0.744 OA
ENDBRANCH  82  83
ENDBRANCH  50  75
BRANCH  62  87
ATOM     87  C   UNL A   1      39.725  34.273  37.043  1.00  0.00     0.058 A 
ATOM     88  C   UNL A   1      38.927  34.101  38.184  1.00  0.00     0.135 A 
ATOM     89  C   UNL A   1      40.457  35.467  36.929  1.00  0.00     0.135 A 
ATOM     90  F   UNL A   1      38.205  32.979  38.341  1.00  0.00    -0.206 F 
ATOM     91  C   UNL A   1      38.827  35.091  39.157  1.00  0.00     0.059 A 
ATOM     92  C   UNL A   1      40.395  36.458  37.903  1.00  0.00     0.059 A 
ATOM     93  F   UNL A   1      41.248  35.676  35.864  1.00  0.00    -0.206 F 
ATOM     94  C   UNL A   1      39.562  36.268  39.006  1.00  0.00     0.060 A 
BRANCH  94  95
ATOM     95  S   UNL A   1      39.434  37.541  40.278  1.00  0.00     0.124 S 
ATOM     96  O   UNL A   1      40.761  38.145  40.223  1.00  0.00    -0.237 OA
ATOM     97  O   UNL A   1      38.339  38.372  39.784  1.00  0.00    -0.237 OA
ATOM     98  O   UNL A   1      39.138  36.783  41.489  1.00  0.00    -0.744 OA
ENDBRANCH  94  95
ENDBRANCH  62  87
ENDBRANCH  36  37
ENDBRANCH  28  31
ENDBRANCH  26  27
ENDBRANCH   1  26
TORSDOF 16
ENDMDL
MODEL 3
REMARK VINA RESULT:     -12.0      1.212      1.951
REMARK SMILES O=C(C[C@H]1C(=O)NCC[N@@H+]1Cc1ccc(Cl)c(F)c1)NCCCNC(=O)c1ccc(-c2c3nc(c(-c4c(F)cc(S(=O)(=O)[O-])cc4F)c4ccc([nH]4)c(-c4c(F)cc(S(=O)(=O)[O-])cc4F)c4nc(c(-c5c(F)cc(S(=O)(=O)[O-])cc5F)c5ccc2[nH]5)C=C4)C=C3)cc1
REMARK SMILES IDX 22 1 21 2 20 3 1 4 2 5 3 7 4 8 5 9 10 10 6 11 7 12 9 13 8 15
REMARK SMILES IDX 11 17 12 18 13 19 19 20 14 21 17 22 15 23 18 24 16 25 23 26
REMARK SMILES IDX 24 27 25 28 26 30 27 31 28 32 92 33 29 34 91 35 30 36 31 37
REMARK SMILES IDX 32 38 85 39 33 40 90 41 84 42 86 43 34 44 89 45 83 46 82 47
REMARK SMILES IDX 35 49 69 50 48 51 68 52 49 53 52 54 67 55 87 56 50 57 51 58
REMARK SMILES IDX 66 60 88 61 53 62 36 63 37 64 46 65 38 66 39 67 45 68 47 69
REMARK SMILES IDX 40 70 41 71 42 72 43 73 44 74 70 75 71 76 80 77 72 78 73 79
REMARK SMILES IDX 79 80 81 81 74 82 75 83 76 84 77 85 78 86 54 87 55 88 64 89
REMARK SMILES IDX 56 90 57 91 63 92 65 93 58 94 59 95 60 96 61 97 62 98
REMARK H PARENT 20 6 10 14 7 16 24 29 86 48 52 59
REMARK Flexibility Score: inf
ROOT
ATOM      1  C   UNL A   1      39.257  22.342  26.501  1.00  0.00     0.042 C 
ENDROOT
BRANCH   1   2
ATOM      2  C   UNL A   1      38.033  23.104  26.007  1.00  0.00     0.117 C 
BRANCH   2   3
ATOM      3  N   UNL A   1      36.817  22.326  26.114  1.00  0.00    -0.356 N 
ATOM      4  O   UNL A   1      36.437  22.179  23.855  1.00  0.00    -0.275 OA
ATOM      5  C   UNL A   1      36.129  21.887  25.008  1.00  0.00     0.226 C 
ATOM      6  H   UNL A   1      36.470  22.105  27.009  1.00  0.00     0.163 HD
BRANCH   5   7
ATOM      7  C   UNL A   1      34.911  21.045  25.307  1.00  0.00     0.175 C 
BRANCH   7   8
ATOM      8  C   UNL A   1      33.683  21.362  24.436  1.00  0.00     0.283 C 
ATOM      9  C   UNL A   1      32.473  20.740  25.153  1.00  0.00     0.279 C 
ATOM     10  N   UNL A   1      33.489  22.806  24.165  1.00  0.00    -0.319 N 
ATOM     11  O   UNL A   1      32.163  19.560  25.005  1.00  0.00    -0.268 OA
ATOM     12  N   UNL A   1      31.800  21.516  26.056  1.00  0.00    -0.345 N 
ATOM     13  C   UNL A   1      33.115  23.555  25.367  1.00  0.00     0.284 C 
ATOM     14  H   UNL A   1      34.413  23.162  23.916  1.00  0.00     0.349 HD
ATOM     15  C   UNL A   1      31.994  22.940  26.222  1.00  0.00     0.177 C 
ATOM     16  H   UNL A   1      31.136  21.074  26.634  1.00  0.00     0.163 HD
BRANCH  10  17
ATOM     17  C   UNL A   1      32.747  23.128  22.940  1.00  0.00     0.299 C 
BRANCH  17  18
ATOM     18  C   UNL A   1      32.372  24.577  22.730  1.00  0.00     0.009 A 
ATOM     19  C   UNL A   1      31.071  25.028  23.005  1.00  0.00     0.011 A 
ATOM     20  C   UNL A   1      33.331  25.506  22.306  1.00  0.00     0.050 A 
ATOM     21  C   UNL A   1      30.756  26.388  22.935  1.00  0.00     0.024 A 
ATOM     22  C   UNL A   1      33.015  26.862  22.252  1.00  0.00     0.142 A 
ATOM     23  C   UNL A   1      31.738  27.309  22.577  1.00  0.00     0.076 A 
ATOM     24  F   UNL A   1      33.980  27.729  21.910  1.00  0.00    -0.205 F 
ATOM     25  Cl  UNL A   1      31.364  28.988  22.559  1.00  0.00    -0.081 Cl
ENDBRANCH  17  18
ENDBRANCH  10  17
ENDBRANCH   7   8
ENDBRANCH   5   7
ENDBRANCH   2   3
ENDBRANCH   1   2
BRANCH   1  26
ATOM     26  C   UNL A   1      40.352  23.221  27.097  1.00  0.00     0.118 C 
BRANCH  26  27
ATOM     27  N   UNL A   1      41.126  23.933  26.090  1.00  0.00    -0.352 N 
ATOM     28  C   UNL A   1      41.546  25.237  26.047  1.00  0.00     0.251 C 
ATOM     29  H   UNL A   1      41.392  23.388  25.314  1.00  0.00     0.163 HD
ATOM     30  O   UNL A   1      42.074  25.653  25.015  1.00  0.00    -0.269 OA
BRANCH  28  31
ATOM     31  C   UNL A   1      41.361  26.150  27.199  1.00  0.00     0.039 A 
ATOM     32  C   UNL A   1      40.269  25.938  28.048  1.00  0.00     0.014 A 
ATOM     33  C   UNL A   1      42.208  27.239  27.424  1.00  0.00     0.014 A 
ATOM     34  C   UNL A   1      40.050  26.789  29.135  1.00  0.00     0.010 A 
ATOM     35  C   UNL A   1      42.033  28.041  28.553  1.00  0.00     0.010 A 
ATOM     36  C   UNL A   1      40.942  27.838  29.410  1.00  0.00    -0.014 A 
BRANCH  36  37
ATOM     37  C   UNL A   1      40.716  28.748  30.564  1.00  0.00     0.031 A 
ATOM     38  C   UNL A   1      41.546  28.611  31.814  1.00  0.00     0.074 A 
ATOM     39  C   UNL A   1      39.744  29.680  30.502  1.00  0.00     0.049 A 
ATOM     40  N   UNL A   1      41.490  29.303  32.925  1.00  0.00    -0.248 NA
ATOM     41  C   UNL A   1      42.558  27.541  31.828  1.00  0.00     0.031 C 
ATOM     42  C   UNL A   1      38.834  29.881  29.372  1.00  0.00     0.029 A 
ATOM     43  N   UNL A   1      39.356  30.633  31.411  1.00  0.00    -0.354 N 
ATOM     44  C   UNL A   1      42.444  28.746  33.769  1.00  0.00     0.074 A 
ATOM     45  C   UNL A   1      43.025  27.623  33.065  1.00  0.00     0.031 C 
ATOM     46  C   UNL A   1      38.016  30.911  29.644  1.00  0.00     0.029 A 
ATOM     47  C   UNL A   1      38.320  31.426  30.975  1.00  0.00     0.049 A 
ATOM     48  H   UNL A   1      39.780  30.739  32.294  1.00  0.00     0.167 HD
ATOM     49  C   UNL A   1      42.823  29.146  35.006  1.00  0.00     0.037 A 
ATOM     50  C   UNL A   1      37.691  32.453  31.577  1.00  0.00     0.037 A 
ATOM     51  C   UNL A   1      42.264  30.282  35.694  1.00  0.00     0.049 A 
ATOM     52  C   UNL A   1      38.148  32.899  32.941  1.00  0.00     0.074 A 
ATOM     53  C   UNL A   1      42.613  30.799  36.929  1.00  0.00     0.029 A 
ATOM     54  N   UNL A   1      41.242  31.081  35.202  1.00  0.00    -0.354 N 
ATOM     55  N   UNL A   1      39.092  32.397  33.699  1.00  0.00    -0.248 NA
ATOM     56  C   UNL A   1      37.465  34.062  33.522  1.00  0.00     0.031 C 
ATOM     57  C   UNL A   1      41.779  31.889  37.200  1.00  0.00     0.029 A 
ATOM     58  C   UNL A   1      40.942  32.081  36.113  1.00  0.00     0.049 A 
ATOM     59  H   UNL A   1      40.795  30.956  34.334  1.00  0.00     0.167 HD
ATOM     60  C   UNL A   1      39.142  33.204  34.830  1.00  0.00     0.074 A 
ATOM     61  C   UNL A   1      38.137  34.232  34.652  1.00  0.00     0.031 C 
ATOM     62  C   UNL A   1      39.949  33.107  35.915  1.00  0.00     0.037 A 
BRANCH  49  63
ATOM     63  C   UNL A   1      43.902  28.354  35.694  1.00  0.00     0.058 A 
ATOM     64  C   UNL A   1      43.597  27.297  36.568  1.00  0.00     0.135 A 
ATOM     65  C   UNL A   1      45.258  28.635  35.457  1.00  0.00     0.135 A 
ATOM     66  F   UNL A   1      42.318  26.995  36.843  1.00  0.00    -0.206 F 
ATOM     67  C   UNL A   1      44.594  26.571  37.210  1.00  0.00     0.059 A 
ATOM     68  C   UNL A   1      46.274  27.902  36.066  1.00  0.00     0.059 A 
ATOM     69  F   UNL A   1      45.608  29.632  34.631  1.00  0.00    -0.206 F 
ATOM     70  C   UNL A   1      45.931  26.883  36.954  1.00  0.00     0.060 A 
BRANCH  70  71
ATOM     71  S   UNL A   1      47.215  25.934  37.797  1.00  0.00     0.124 S 
ATOM     72  O   UNL A   1      48.371  26.190  36.943  1.00  0.00    -0.237 OA
ATOM     73  O   UNL A   1      47.253  26.560  39.115  1.00  0.00    -0.237 OA
ATOM     74  O   UNL A   1      46.703  24.569  37.770  1.00  0.00    -0.744 OA
ENDBRANCH  70  71
ENDBRANCH  49  63
BRANCH  50  75
ATOM     75  C   UNL A   1      36.589  33.163  30.875  1.00  0.00     0.058 A 
ATOM     76  C   UNL A   1      35.255  33.008  31.281  1.00  0.00     0.135 A 
ATOM     77  C   UNL A   1      36.845  34.016  29.791  1.00  0.00     0.135 A 
ATOM     78  F   UNL A   1      34.958  32.198  32.310  1.00  0.00    -0.206 F 
ATOM     79  C   UNL A   1      34.212  33.655  30.626  1.00  0.00     0.059 A 
ATOM     80  C   UNL A   1      35.822  34.695  29.136  1.00  0.00     0.059 A 
ATOM     81  F   UNL A   1      38.107  34.214  29.374  1.00  0.00    -0.206 F 
ATOM     82  C   UNL A   1      34.507  34.498  29.553  1.00  0.00     0.060 A 
BRANCH  82  83
ATOM     83  S   UNL A   1      33.151  35.369  28.738  1.00  0.00     0.124 S 
ATOM     84  O   UNL A   1      32.517  34.290  27.991  1.00  0.00    -0.237 OA
ATOM     85  O   UNL A   1      32.395  35.890  29.872  1.00  0.00    -0.237 OA
ATOM     86  O   UNL A   1      33.836  36.377  27.935  1.00  0.00    -0.744 OA
ENDBRANCH  82  83
ENDBRANCH  50  75
BRANCH  62  87
ATOM     87  C   UNL A   1      39.818  34.171  36.971  1.00  0.00     0.058 A 
ATOM     88  C   UNL A   1      39.054  33.976  38.131  1.00  0.00     0.135 A 
ATOM     89  C   UNL A   1      40.496  35.393  36.830  1.00  0.00     0.135 A 
ATOM     90  F   UNL A   1      38.385  32.827  38.316  1.00  0.00    -0.206 F 
ATOM     91  C   UNL A   1      38.936  34.970  39.099  1.00  0.00     0.059 A 
ATOM     92  C   UNL A   1      40.415  36.390  37.796  1.00  0.00     0.059 A 
ATOM     93  F   UNL A   1      41.253  35.625  35.745  1.00  0.00    -0.206 F 
ATOM     94  C   UNL A   1      39.617  36.176  38.920  1.00  0.00     0.060 A 
BRANCH  94  95
ATOM     95  S   UNL A   1      39.465  37.455  40.183  1.00  0.00     0.124 S 
ATOM     96  O   UNL A   1      40.845  37.910  40.308  1.00  0.00    -0.237 OA
ATOM     97  O   UNL A   1      38.539  38.401  39.565  1.00  0.00    -0.237 OA
ATOM     98  O   UNL A   1      38.934  36.733  41.336  1.00  0.00    -0.744 OA
ENDBRANCH  94  95
ENDBRANCH  62  87
ENDBRANCH  36  37
ENDBRANCH  28  31
ENDBRANCH  26  27
ENDBRANCH   1  26
TORSDOF 16
ENDMDL
