MODEL 1
REMARK VINA RESULT:     -13.2      0.000      0.000
REMARK SMILES N#Cc1cccnc1N1CC[NH+]([C@@H](C(=O)NCCCNC(=O)c2ccc(-c3c4nc(c(-c5c(F)cc(S(=O)(=O)[O-])cc5F)c5ccc([nH]5)c(-c5c(F)cc(S(=O)(=O)[O-])cc5F)c5nc(c(-c6c(F)cc(S(=O)(=O)[O-])cc6F)c6ccc3[nH]6)C=C5)C=C4)cc2)c2c[nH]c3cc(CO)ccc23)CC1
REMARK SMILES IDX 18 1 17 2 16 3 14 4 15 5 13 7 12 8 9 9 10 10 101 11 11 12
REMARK SMILES IDX 100 13 8 15 3 16 4 17 5 18 7 19 6 20 2 21 1 22 89 23 90 24
REMARK SMILES IDX 99 25 91 26 92 27 98 28 93 30 97 31 94 32 95 33 96 34 19 36
REMARK SMILES IDX 20 37 21 38 22 40 23 41 24 42 88 43 25 44 87 45 26 46 27 47
REMARK SMILES IDX 28 48 81 49 29 50 86 51 80 52 82 53 30 54 85 55 79 56 78 57
REMARK SMILES IDX 31 59 65 60 44 61 64 62 45 63 48 64 63 65 83 66 46 67 47 68
REMARK SMILES IDX 62 70 84 71 49 72 32 73 33 74 42 75 34 76 35 77 41 78 43 79
REMARK SMILES IDX 36 80 37 81 38 82 39 83 40 84 66 85 67 86 76 87 68 88 69 89
REMARK SMILES IDX 75 90 77 91 70 92 71 93 72 94 73 95 74 96 50 97 51 98 60 99
REMARK SMILES IDX 52 100 53 101 59 102 61 103 54 104 55 105 56 106 57 107
REMARK SMILES IDX 58 108
REMARK H PARENT 16 6 12 14 91 29 96 35 20 39 82 58 48 69
REMARK Flexibility Score: inf
ROOT
ATOM      1  C   UNL A   1      37.935  22.636  25.566  1.00  0.00     0.042 C 
ENDROOT
BRANCH   1   2
ATOM      2  C   UNL A   1      36.892  23.212  24.558  1.00  0.00     0.118 C 
BRANCH   2   3
ATOM      3  N   UNL A   1      35.770  23.974  25.114  1.00  0.00    -0.351 N 
ATOM      4  C   UNL A   1      34.405  24.064  24.940  1.00  0.00     0.283 C 
ATOM      5  O   UNL A   1      33.869  24.764  25.808  1.00  0.00    -0.268 OA
ATOM      6  H   UNL A   1      36.078  24.598  25.808  1.00  0.00     0.163 HD
BRANCH   4   7
ATOM      7  C   UNL A   1      33.574  23.315  23.840  1.00  0.00     0.307 C 
BRANCH   7   8
ATOM      8  N   UNL A   1      32.909  24.156  22.756  1.00  0.00    -0.318 N 
ATOM      9  N   UNL A   1      32.162  26.886  23.652  1.00  0.00    -0.344 N 
ATOM     10  C   UNL A   1      31.392  25.710  24.059  1.00  0.00     0.179 C 
ATOM     11  C   UNL A   1      33.527  26.606  23.190  1.00  0.00     0.179 C 
ATOM     12  C   UNL A   1      31.528  24.652  22.958  1.00  0.00     0.284 C 
ATOM     13  C   UNL A   1      33.632  25.340  22.285  1.00  0.00     0.284 C 
ATOM     14  H   UNL A   1      32.912  23.394  22.079  1.00  0.00     0.349 HD
BRANCH   9  15
ATOM     15  C   UNL A   1      32.053  27.983  24.511  1.00  0.00     0.146 A 
ATOM     16  C   UNL A   1      31.221  29.064  24.203  1.00  0.00     0.095 A 
ATOM     17  C   UNL A   1      31.131  30.130  25.101  1.00  0.00     0.025 A 
ATOM     18  C   UNL A   1      31.908  30.126  26.255  1.00  0.00     0.022 A 
ATOM     19  N   UNL A   1      32.795  27.972  25.649  1.00  0.00    -0.238 NA
ATOM     20  C   UNL A   1      32.722  29.034  26.481  1.00  0.00     0.113 A 
BRANCH  16  21
ATOM     21  C   UNL A   1      30.473  29.102  22.975  1.00  0.00     0.103 C 
ATOM     22  N   UNL A   1      29.921  29.067  21.967  1.00  0.00    -0.192 NA
ENDBRANCH  16  21
ENDBRANCH   9  15
ENDBRANCH   7   8
BRANCH   7  23
ATOM     23  C   UNL A   1      32.506  22.297  24.383  1.00  0.00     0.044 A 
ATOM     24  C   UNL A   1      31.872  22.345  25.622  1.00  0.00     0.094 A 
ATOM     25  C   UNL A   1      32.258  20.928  24.002  1.00  0.00     0.009 A 
ATOM     26  N   UNL A   1      32.223  21.134  26.195  1.00  0.00    -0.361 N 
ATOM     27  C   UNL A   1      32.444  20.217  25.192  1.00  0.00     0.046 A 
ATOM     28  C   UNL A   1      32.155  20.187  22.814  1.00  0.00     0.011 A 
ATOM     29  H   UNL A   1      32.303  20.958  27.160  1.00  0.00     0.166 HD
ATOM     30  C   UNL A   1      32.922  18.900  25.212  1.00  0.00     0.032 A 
ATOM     31  C   UNL A   1      32.477  18.827  22.830  1.00  0.00     0.007 A 
ATOM     32  C   UNL A   1      33.017  18.236  23.978  1.00  0.00    -0.021 A 
BRANCH  32  33
ATOM     33  C   UNL A   1      33.753  16.924  23.865  1.00  0.00     0.191 C 
BRANCH  33  34
ATOM     34  O   UNL A   1      34.008  16.588  22.502  1.00  0.00    -0.392 OA
ATOM     35  H   UNL A   1      34.368  17.362  22.041  1.00  0.00     0.211 HD
ENDBRANCH  33  34
ENDBRANCH  32  33
ENDBRANCH   7  23
ENDBRANCH   4   7
ENDBRANCH   2   3
ENDBRANCH   1   2
BRANCH   1  36
ATOM     36  C   UNL A   1      38.683  23.611  26.499  1.00  0.00     0.118 C 
BRANCH  36  37
ATOM     37  N   UNL A   1      40.088  23.728  26.153  1.00  0.00    -0.352 N 
ATOM     38  C   UNL A   1      41.014  24.695  26.470  1.00  0.00     0.251 C 
ATOM     39  H   UNL A   1      40.436  22.994  25.598  1.00  0.00     0.163 HD
ATOM     40  O   UNL A   1      42.088  24.687  25.869  1.00  0.00    -0.269 OA
BRANCH  38  41
ATOM     41  C   UNL A   1      40.782  25.735  27.510  1.00  0.00     0.039 A 
ATOM     42  C   UNL A   1      41.750  26.737  27.678  1.00  0.00     0.014 A 
ATOM     43  C   UNL A   1      39.731  25.655  28.426  1.00  0.00     0.014 A 
ATOM     44  C   UNL A   1      41.653  27.664  28.729  1.00  0.00     0.010 A 
ATOM     45  C   UNL A   1      39.634  26.593  29.470  1.00  0.00     0.010 A 
ATOM     46  C   UNL A   1      40.583  27.615  29.637  1.00  0.00    -0.014 A 
BRANCH  46  47
ATOM     47  C   UNL A   1      40.463  28.615  30.748  1.00  0.00     0.031 A 
ATOM     48  C   UNL A   1      41.334  28.524  31.981  1.00  0.00     0.074 A 
ATOM     49  C   UNL A   1      39.547  29.605  30.675  1.00  0.00     0.049 A 
ATOM     50  N   UNL A   1      41.334  29.276  33.055  1.00  0.00    -0.248 NA
ATOM     51  C   UNL A   1      42.316  27.431  32.021  1.00  0.00     0.031 C 
ATOM     52  C   UNL A   1      38.610  29.806  29.571  1.00  0.00     0.029 A 
ATOM     53  N   UNL A   1      39.247  30.626  31.550  1.00  0.00    -0.354 N 
ATOM     54  C   UNL A   1      42.304  28.745  33.900  1.00  0.00     0.074 A 
ATOM     55  C   UNL A   1      42.835  27.575  33.233  1.00  0.00     0.031 C 
ATOM     56  C   UNL A   1      37.861  30.893  29.819  1.00  0.00     0.029 A 
ATOM     57  C   UNL A   1      38.231  31.449  31.118  1.00  0.00     0.049 A 
ATOM     58  H   UNL A   1      39.717  30.755  32.406  1.00  0.00     0.167 HD
ATOM     59  C   UNL A   1      42.730  29.196  35.108  1.00  0.00     0.037 A 
ATOM     60  C   UNL A   1      37.650  32.521  31.696  1.00  0.00     0.037 A 
ATOM     61  C   UNL A   1      42.226  30.376  35.766  1.00  0.00     0.049 A 
ATOM     62  C   UNL A   1      38.131  32.996  33.043  1.00  0.00     0.074 A 
ATOM     63  C   UNL A   1      42.637  30.932  36.967  1.00  0.00     0.029 A 
ATOM     64  N   UNL A   1      41.203  31.181  35.289  1.00  0.00    -0.354 N 
ATOM     65  N   UNL A   1      39.083  32.506  33.799  1.00  0.00    -0.248 NA
ATOM     66  C   UNL A   1      37.458  34.173  33.615  1.00  0.00     0.031 C 
ATOM     67  C   UNL A   1      41.831  32.043  37.239  1.00  0.00     0.029 A 
ATOM     68  C   UNL A   1      40.954  32.214  36.182  1.00  0.00     0.049 A 
ATOM     69  H   UNL A   1      40.724  31.042  34.441  1.00  0.00     0.167 HD
ATOM     70  C   UNL A   1      39.143  33.331  34.919  1.00  0.00     0.074 A 
ATOM     71  C   UNL A   1      38.139  34.358  34.737  1.00  0.00     0.031 C 
ATOM     72  C   UNL A   1      39.960  33.243  35.998  1.00  0.00     0.037 A 
BRANCH  59  73
ATOM     73  C   UNL A   1      43.807  28.407  35.809  1.00  0.00     0.058 A 
ATOM     74  C   UNL A   1      43.499  27.372  36.708  1.00  0.00     0.135 A 
ATOM     75  C   UNL A   1      45.164  28.658  35.546  1.00  0.00     0.135 A 
ATOM     76  F   UNL A   1      42.219  27.092  37.003  1.00  0.00    -0.206 F 
ATOM     77  C   UNL A   1      44.495  26.642  37.348  1.00  0.00     0.059 A 
ATOM     78  C   UNL A   1      46.178  27.919  36.151  1.00  0.00     0.059 A 
ATOM     79  F   UNL A   1      45.518  29.629  34.690  1.00  0.00    -0.206 F 
ATOM     80  C   UNL A   1      45.833  26.925  37.066  1.00  0.00     0.060 A 
BRANCH  80  81
ATOM     81  S   UNL A   1      47.113  25.977  37.916  1.00  0.00     0.124 S 
ATOM     82  O   UNL A   1      48.204  26.030  36.947  1.00  0.00    -0.237 OA
ATOM     83  O   UNL A   1      47.313  26.747  39.139  1.00  0.00    -0.237 OA
ATOM     84  O   UNL A   1      46.500  24.664  38.097  1.00  0.00    -0.744 OA
ENDBRANCH  80  81
ENDBRANCH  59  73
BRANCH  60  85
ATOM     85  C   UNL A   1      36.549  33.239  30.994  1.00  0.00     0.058 A 
ATOM     86  C   UNL A   1      35.219  33.121  31.425  1.00  0.00     0.135 A 
ATOM     87  C   UNL A   1      36.803  34.055  29.881  1.00  0.00     0.135 A 
ATOM     88  F   UNL A   1      34.920  32.339  32.474  1.00  0.00    -0.206 F 
ATOM     89  C   UNL A   1      34.178  33.775  30.771  1.00  0.00     0.059 A 
ATOM     90  C   UNL A   1      35.784  34.743  29.229  1.00  0.00     0.059 A 
ATOM     91  F   UNL A   1      38.058  34.204  29.430  1.00  0.00    -0.206 F 
ATOM     92  C   UNL A   1      34.472  34.589  29.676  1.00  0.00     0.060 A 
BRANCH  92  93
ATOM     93  S   UNL A   1      33.119  35.473  28.868  1.00  0.00     0.124 S 
ATOM     94  O   UNL A   1      32.498  34.410  28.088  1.00  0.00    -0.237 OA
ATOM     95  O   UNL A   1      32.349  35.963  30.006  1.00  0.00    -0.237 OA
ATOM     96  O   UNL A   1      33.806  36.504  28.094  1.00  0.00    -0.744 OA
ENDBRANCH  92  93
ENDBRANCH  60  85
BRANCH  72  97
ATOM     97  C   UNL A   1      39.841  34.306  37.059  1.00  0.00     0.058 A 
ATOM     98  C   UNL A   1      40.465  35.557  36.929  1.00  0.00     0.135 A 
ATOM     99  C   UNL A   1      39.047  34.089  38.197  1.00  0.00     0.135 A 
ATOM    100  F   UNL A   1      41.240  35.819  35.865  1.00  0.00    -0.206 F 
ATOM    101  C   UNL A   1      40.324  36.546  37.900  1.00  0.00     0.059 A 
ATOM    102  C   UNL A   1      38.869  35.073  39.166  1.00  0.00     0.059 A 
ATOM    103  F   UNL A   1      38.419  32.915  38.368  1.00  0.00    -0.206 F 
ATOM    104  C   UNL A   1      39.521  36.295  39.014  1.00  0.00     0.060 A 
BRANCH 104 105
ATOM    105  S   UNL A   1      39.315  37.600  40.246  1.00  0.00     0.124 S 
ATOM    106  O   UNL A   1      38.896  36.837  41.416  1.00  0.00    -0.237 OA
ATOM    107  O   UNL A   1      40.652  38.181  40.313  1.00  0.00    -0.237 OA
ATOM    108  O   UNL A   1      38.293  38.463  39.660  1.00  0.00    -0.744 OA
ENDBRANCH 104 105
ENDBRANCH  72  97
ENDBRANCH  46  47
ENDBRANCH  38  41
ENDBRANCH  36  37
ENDBRANCH   1  36
TORSDOF 19
ENDMDL
MODEL 2
REMARK VINA RESULT:     -13.2      6.386     12.192
REMARK SMILES N#Cc1cccnc1N1CC[NH+]([C@@H](C(=O)NCCCNC(=O)c2ccc(-c3c4nc(c(-c5c(F)cc(S(=O)(=O)[O-])cc5F)c5ccc([nH]5)c(-c5c(F)cc(S(=O)(=O)[O-])cc5F)c5nc(c(-c6c(F)cc(S(=O)(=O)[O-])cc6F)c6ccc3[nH]6)C=C5)C=C4)cc2)c2c[nH]c3cc(CO)ccc23)CC1
REMARK SMILES IDX 18 1 17 2 16 3 14 4 15 5 13 7 12 8 9 9 10 10 101 11 11 12
REMARK SMILES IDX 100 13 8 15 3 16 4 17 5 18 7 19 6 20 2 21 1 22 89 23 90 24
REMARK SMILES IDX 99 25 91 26 92 27 98 28 93 30 97 31 94 32 95 33 96 34 19 36
REMARK SMILES IDX 20 37 21 38 22 40 23 41 24 42 88 43 25 44 87 45 26 46 27 47
REMARK SMILES IDX 28 48 81 49 29 50 86 51 80 52 82 53 30 54 85 55 79 56 78 57
REMARK SMILES IDX 31 59 65 60 44 61 64 62 45 63 48 64 63 65 83 66 46 67 47 68
REMARK SMILES IDX 62 70 84 71 49 72 32 73 33 74 42 75 34 76 35 77 41 78 43 79
REMARK SMILES IDX 36 80 37 81 38 82 39 83 40 84 66 85 67 86 76 87 68 88 69 89
REMARK SMILES IDX 75 90 77 91 70 92 71 93 72 94 73 95 74 96 50 97 51 98 60 99
REMARK SMILES IDX 52 100 53 101 59 102 61 103 54 104 55 105 56 106 57 107
REMARK SMILES IDX 58 108
REMARK H PARENT 16 6 12 14 91 29 96 35 20 39 82 58 48 69
REMARK Flexibility Score: inf
ROOT
ATOM      1  C   UNL A   1      33.588  30.563  27.146  1.00  0.00     0.042 C 
ENDROOT
BRANCH   1   2
ATOM      2  C   UNL A   1      32.928  29.721  26.010  1.00  0.00     0.118 C 
BRANCH   2   3
ATOM      3  N   UNL A   1      31.957  28.697  26.411  1.00  0.00    -0.351 N 
ATOM      4  C   UNL A   1      31.544  27.453  25.984  1.00  0.00     0.283 C 
ATOM      5  O   UNL A   1      30.785  26.909  26.798  1.00  0.00    -0.268 OA
ATOM      6  H   UNL A   1      31.459  28.979  27.211  1.00  0.00     0.163 HD
BRANCH   4   7
ATOM      7  C   UNL A   1      32.020  26.732  24.674  1.00  0.00     0.307 C 
BRANCH   7   8
ATOM      8  N   UNL A   1      33.499  26.386  24.550  1.00  0.00    -0.318 N 
ATOM      9  N   UNL A   1      34.059  23.473  24.662  1.00  0.00    -0.344 N 
ATOM     10  C   UNL A   1      33.716  24.233  25.865  1.00  0.00     0.179 C 
ATOM     11  C   UNL A   1      33.666  24.103  23.396  1.00  0.00     0.179 C 
ATOM     12  C   UNL A   1      34.181  25.679  25.658  1.00  0.00     0.284 C 
ATOM     13  C   UNL A   1      33.918  25.642  23.360  1.00  0.00     0.284 C 
ATOM     14  H   UNL A   1      33.787  27.364  24.528  1.00  0.00     0.349 HD
BRANCH   9  15
ATOM     15  C   UNL A   1      33.788  22.105  24.738  1.00  0.00     0.146 A 
ATOM     16  C   UNL A   1      34.822  21.161  24.742  1.00  0.00     0.095 A 
ATOM     17  C   UNL A   1      34.503  19.805  24.837  1.00  0.00     0.025 A 
ATOM     18  C   UNL A   1      33.169  19.411  24.872  1.00  0.00     0.022 A 
ATOM     19  N   UNL A   1      32.487  21.718  24.793  1.00  0.00    -0.238 NA
ATOM     20  C   UNL A   1      32.204  20.398  24.843  1.00  0.00     0.113 A 
BRANCH  16  21
ATOM     21  C   UNL A   1      36.198  21.564  24.632  1.00  0.00     0.103 C 
ATOM     22  N   UNL A   1      37.277  21.957  24.585  1.00  0.00    -0.192 NA
ENDBRANCH  16  21
ENDBRANCH   9  15
ENDBRANCH   7   8
BRANCH   7  23
ATOM     23  C   UNL A   1      31.571  27.415  23.331  1.00  0.00     0.044 A 
ATOM     24  C   UNL A   1      32.403  28.000  22.381  1.00  0.00     0.094 A 
ATOM     25  C   UNL A   1      30.297  27.988  22.968  1.00  0.00     0.009 A 
ATOM     26  N   UNL A   1      31.944  29.305  22.329  1.00  0.00    -0.361 N 
ATOM     27  C   UNL A   1      30.609  29.318  22.667  1.00  0.00     0.046 A 
ATOM     28  C   UNL A   1      28.940  27.652  23.088  1.00  0.00     0.011 A 
ATOM     29  H   UNL A   1      32.482  30.093  22.089  1.00  0.00     0.166 HD
ATOM     30  C   UNL A   1      29.703  30.367  22.878  1.00  0.00     0.032 A 
ATOM     31  C   UNL A   1      27.988  28.675  23.145  1.00  0.00     0.007 A 
ATOM     32  C   UNL A   1      28.385  30.015  23.212  1.00  0.00    -0.021 A 
BRANCH  32  33
ATOM     33  C   UNL A   1      27.412  31.058  23.703  1.00  0.00     0.191 C 
BRANCH  33  34
ATOM     34  O   UNL A   1      27.663  32.326  23.101  1.00  0.00    -0.392 OA
ATOM     35  H   UNL A   1      28.181  32.876  23.710  1.00  0.00     0.211 HD
ENDBRANCH  33  34
ENDBRANCH  32  33
ENDBRANCH   7  23
ENDBRANCH   4   7
ENDBRANCH   2   3
ENDBRANCH   1   2
BRANCH   1  36
ATOM     36  C   UNL A   1      34.917  30.073  27.758  1.00  0.00     0.118 C 
BRANCH  36  37
ATOM     37  N   UNL A   1      35.114  30.570  29.107  1.00  0.00    -0.352 N 
ATOM     38  C   UNL A   1      36.180  30.440  29.966  1.00  0.00     0.251 C 
ATOM     39  H   UNL A   1      34.358  31.086  29.468  1.00  0.00     0.163 HD
ATOM     40  O   UNL A   1      36.017  30.760  31.144  1.00  0.00    -0.269 OA
BRANCH  38  41
ATOM     41  C   UNL A   1      37.517  29.945  29.536  1.00  0.00     0.039 A 
ATOM     42  C   UNL A   1      38.430  29.546  30.525  1.00  0.00     0.014 A 
ATOM     43  C   UNL A   1      37.951  30.019  28.211  1.00  0.00     0.014 A 
ATOM     44  C   UNL A   1      39.749  29.198  30.189  1.00  0.00     0.010 A 
ATOM     45  C   UNL A   1      39.271  29.660  27.881  1.00  0.00     0.010 A 
ATOM     46  C   UNL A   1      40.189  29.236  28.857  1.00  0.00    -0.014 A 
BRANCH  46  47
ATOM     47  C   UNL A   1      41.589  28.846  28.491  1.00  0.00     0.031 A 
ATOM     48  C   UNL A   1      42.704  29.866  28.464  1.00  0.00     0.074 A 
ATOM     49  C   UNL A   1      41.871  27.570  28.150  1.00  0.00     0.049 A 
ATOM     50  N   UNL A   1      43.963  29.712  28.129  1.00  0.00    -0.248 NA
ATOM     51  C   UNL A   1      42.354  31.244  28.840  1.00  0.00     0.031 C 
ATOM     52  C   UNL A   1      40.900  26.479  28.092  1.00  0.00     0.029 A 
ATOM     53  N   UNL A   1      43.057  26.974  27.780  1.00  0.00    -0.354 N 
ATOM     54  C   UNL A   1      44.551  30.968  28.244  1.00  0.00     0.074 A 
ATOM     55  C   UNL A   1      43.497  31.883  28.631  1.00  0.00     0.031 C 
ATOM     56  C   UNL A   1      41.528  25.346  27.737  1.00  0.00     0.029 A 
ATOM     57  C   UNL A   1      42.942  25.630  27.501  1.00  0.00     0.049 A 
ATOM     58  H   UNL A   1      43.909  27.464  27.720  1.00  0.00     0.167 HD
ATOM     59  C   UNL A   1      45.848  31.328  28.066  1.00  0.00     0.037 A 
ATOM     60  C   UNL A   1      43.857  24.726  27.093  1.00  0.00     0.037 A 
ATOM     61  C   UNL A   1      46.909  30.419  27.709  1.00  0.00     0.049 A 
ATOM     62  C   UNL A   1      45.288  25.151  26.889  1.00  0.00     0.074 A 
ATOM     63  C   UNL A   1      48.260  30.691  27.558  1.00  0.00     0.029 A 
ATOM     64  N   UNL A   1      46.747  29.067  27.443  1.00  0.00    -0.354 N 
ATOM     65  N   UNL A   1      45.829  26.334  27.052  1.00  0.00    -0.248 NA
ATOM     66  C   UNL A   1      46.235  24.115  26.448  1.00  0.00     0.031 C 
ATOM     67  C   UNL A   1      48.905  29.517  27.154  1.00  0.00     0.029 A 
ATOM     68  C   UNL A   1      47.967  28.499  27.107  1.00  0.00     0.049 A 
ATOM     69  H   UNL A   1      45.892  28.582  27.488  1.00  0.00     0.167 HD
ATOM     70  C   UNL A   1      47.181  26.178  26.763  1.00  0.00     0.074 A 
ATOM     71  C   UNL A   1      47.380  24.785  26.425  1.00  0.00     0.031 C 
ATOM     72  C   UNL A   1      48.168  27.108  26.779  1.00  0.00     0.037 A 
BRANCH  59  73
ATOM     73  C   UNL A   1      46.204  32.781  28.256  1.00  0.00     0.058 A 
ATOM     74  C   UNL A   1      46.578  33.293  29.510  1.00  0.00     0.135 A 
ATOM     75  C   UNL A   1      46.217  33.663  27.163  1.00  0.00     0.135 A 
ATOM     76  F   UNL A   1      46.578  32.498  30.592  1.00  0.00    -0.206 F 
ATOM     77  C   UNL A   1      46.913  34.633  29.680  1.00  0.00     0.059 A 
ATOM     78  C   UNL A   1      46.579  35.001  27.303  1.00  0.00     0.059 A 
ATOM     79  F   UNL A   1      45.877  33.228  25.940  1.00  0.00    -0.206 F 
ATOM     80  C   UNL A   1      46.907  35.481  28.570  1.00  0.00     0.060 A 
BRANCH  80  81
ATOM     81  S   UNL A   1      47.331  37.219  28.811  1.00  0.00     0.124 S 
ATOM     82  O   UNL A   1      46.160  37.704  29.538  1.00  0.00    -0.237 OA
ATOM     83  O   UNL A   1      48.566  37.137  29.583  1.00  0.00    -0.237 OA
ATOM     84  O   UNL A   1      47.476  37.726  27.450  1.00  0.00    -0.744 OA
ENDBRANCH  80  81
ENDBRANCH  59  73
BRANCH  60  85
ATOM     85  C   UNL A   1      43.451  23.312  26.860  1.00  0.00     0.058 A 
ATOM     86  C   UNL A   1      43.106  22.472  27.930  1.00  0.00     0.135 A 
ATOM     87  C   UNL A   1      43.401  22.770  25.566  1.00  0.00     0.135 A 
ATOM     88  F   UNL A   1      43.155  22.936  29.189  1.00  0.00    -0.206 F 
ATOM     89  C   UNL A   1      42.737  21.145  27.729  1.00  0.00     0.059 A 
ATOM     90  C   UNL A   1      43.006  21.456  25.336  1.00  0.00     0.059 A 
ATOM     91  F   UNL A   1      43.719  23.532  24.507  1.00  0.00    -0.206 F 
ATOM     92  C   UNL A   1      42.685  20.647  26.426  1.00  0.00     0.060 A 
BRANCH  92  93
ATOM     93  S   UNL A   1      42.157  18.938  26.173  1.00  0.00     0.124 S 
ATOM     94  O   UNL A   1      42.405  18.356  27.487  1.00  0.00    -0.237 OA
ATOM     95  O   UNL A   1      40.755  19.102  25.803  1.00  0.00    -0.237 OA
ATOM     96  O   UNL A   1      43.030  18.470  25.100  1.00  0.00    -0.744 OA
ENDBRANCH  92  93
ENDBRANCH  60  85
BRANCH  72  97
ATOM     97  C   UNL A   1      49.569  26.653  26.462  1.00  0.00     0.058 A 
ATOM     98  C   UNL A   1      50.373  26.007  27.415  1.00  0.00     0.135 A 
ATOM     99  C   UNL A   1      50.095  26.820  25.170  1.00  0.00     0.135 A 
ATOM    100  F   UNL A   1      49.924  25.826  28.666  1.00  0.00    -0.206 F 
ATOM    101  C   UNL A   1      51.655  25.562  27.103  1.00  0.00     0.059 A 
ATOM    102  C   UNL A   1      51.363  26.357  24.829  1.00  0.00     0.059 A 
ATOM    103  F   UNL A   1      49.367  27.423  24.217  1.00  0.00    -0.206 F 
ATOM    104  C   UNL A   1      52.141  25.739  25.806  1.00  0.00     0.060 A 
BRANCH 104 105
ATOM    105  S   UNL A   1      53.790  25.121  25.406  1.00  0.00     0.124 S 
ATOM    106  O   UNL A   1      54.585  25.674  26.499  1.00  0.00    -0.237 OA
ATOM    107  O   UNL A   1      53.598  23.675  25.431  1.00  0.00    -0.237 OA
ATOM    108  O   UNL A   1      54.056  25.689  24.087  1.00  0.00    -0.744 OA
ENDBRANCH 104 105
ENDBRANCH  72  97
ENDBRANCH  46  47
ENDBRANCH  38  41
ENDBRANCH  36  37
ENDBRANCH   1  36
TORSDOF 19
ENDMDL
MODEL 3
REMARK VINA RESULT:     -12.8      6.483     11.461
REMARK SMILES N#Cc1cccnc1N1CC[NH+]([C@@H](C(=O)NCCCNC(=O)c2ccc(-c3c4nc(c(-c5c(F)cc(S(=O)(=O)[O-])cc5F)c5ccc([nH]5)c(-c5c(F)cc(S(=O)(=O)[O-])cc5F)c5nc(c(-c6c(F)cc(S(=O)(=O)[O-])cc6F)c6ccc3[nH]6)C=C5)C=C4)cc2)c2c[nH]c3cc(CO)ccc23)CC1
REMARK SMILES IDX 18 1 17 2 16 3 14 4 15 5 13 7 12 8 9 9 10 10 101 11 11 12
REMARK SMILES IDX 100 13 8 15 3 16 4 17 5 18 7 19 6 20 2 21 1 22 89 23 90 24
REMARK SMILES IDX 99 25 91 26 92 27 98 28 93 30 97 31 94 32 95 33 96 34 19 36
REMARK SMILES IDX 20 37 21 38 22 40 23 41 24 42 88 43 25 44 87 45 26 46 27 47
REMARK SMILES IDX 28 48 81 49 29 50 86 51 80 52 82 53 30 54 85 55 79 56 78 57
REMARK SMILES IDX 31 59 65 60 44 61 64 62 45 63 48 64 63 65 83 66 46 67 47 68
REMARK SMILES IDX 62 70 84 71 49 72 32 73 33 74 42 75 34 76 35 77 41 78 43 79
REMARK SMILES IDX 36 80 37 81 38 82 39 83 40 84 66 85 67 86 76 87 68 88 69 89
REMARK SMILES IDX 75 90 77 91 70 92 71 93 72 94 73 95 74 96 50 97 51 98 60 99
REMARK SMILES IDX 52 100 53 101 59 102 61 103 54 104 55 105 56 106 57 107
REMARK SMILES IDX 58 108
REMARK H PARENT 16 6 12 14 91 29 96 35 20 39 82 58 48 69
REMARK Flexibility Score: inf
ROOT
ATOM      1  C   UNL A   1      33.910  28.503  27.209  1.00  0.00     0.042 C 
ENDROOT
BRANCH   1   2
ATOM      2  C   UNL A   1      33.879  27.387  26.119  1.00  0.00     0.118 C 
BRANCH   2   3
ATOM      3  N   UNL A   1      32.947  26.274  26.324  1.00  0.00    -0.351 N 
ATOM      4  C   UNL A   1      32.463  25.198  25.612  1.00  0.00     0.283 C 
ATOM      5  O   UNL A   1      31.801  24.427  26.321  1.00  0.00    -0.268 OA
ATOM      6  H   UNL A   1      32.557  26.303  27.226  1.00  0.00     0.163 HD
BRANCH   4   7
ATOM      7  C   UNL A   1      32.760  24.893  24.101  1.00  0.00     0.307 C 
BRANCH   7   8
ATOM      8  N   UNL A   1      31.715  25.310  23.073  1.00  0.00    -0.318 N 
ATOM      9  N   UNL A   1      30.674  28.061  23.476  1.00  0.00    -0.344 N 
ATOM     10  C   UNL A   1      30.261  26.952  24.339  1.00  0.00     0.179 C 
ATOM     11  C   UNL A   1      31.925  27.844  22.741  1.00  0.00     0.179 C 
ATOM     12  C   UNL A   1      30.347  25.660  23.519  1.00  0.00     0.284 C 
ATOM     13  C   UNL A   1      32.067  26.403  22.162  1.00  0.00     0.284 C 
ATOM     14  H   UNL A   1      31.714  24.399  22.616  1.00  0.00     0.349 HD
BRANCH   9  15
ATOM     15  C   UNL A   1      30.551  29.327  24.053  1.00  0.00     0.146 A 
ATOM     16  C   UNL A   1      29.640  30.265  23.554  1.00  0.00     0.095 A 
ATOM     17  C   UNL A   1      29.541  31.512  24.174  1.00  0.00     0.025 A 
ATOM     18  C   UNL A   1      30.381  31.821  25.239  1.00  0.00     0.022 A 
ATOM     19  N   UNL A   1      31.356  29.625  25.106  1.00  0.00    -0.238 NA
ATOM     20  C   UNL A   1      31.268  30.852  25.662  1.00  0.00     0.113 A 
BRANCH  16  21
ATOM     21  C   UNL A   1      28.822  29.972  22.408  1.00  0.00     0.103 C 
ATOM     22  N   UNL A   1      28.194  29.812  21.458  1.00  0.00    -0.192 NA
ENDBRANCH  16  21
ENDBRANCH   9  15
ENDBRANCH   7   8
BRANCH   7  23
ATOM     23  C   UNL A   1      33.182  23.412  23.786  1.00  0.00     0.044 A 
ATOM     24  C   UNL A   1      32.402  22.272  23.966  1.00  0.00     0.094 A 
ATOM     25  C   UNL A   1      34.498  22.829  23.683  1.00  0.00     0.009 A 
ATOM     26  N   UNL A   1      33.162  21.514  24.841  1.00  0.00    -0.361 N 
ATOM     27  C   UNL A   1      34.490  21.828  24.660  1.00  0.00     0.046 A 
ATOM     28  C   UNL A   1      35.732  23.157  23.101  1.00  0.00     0.011 A 
ATOM     29  H   UNL A   1      32.811  20.859  25.486  1.00  0.00     0.166 HD
ATOM     30  C   UNL A   1      35.649  21.443  25.349  1.00  0.00     0.032 A 
ATOM     31  C   UNL A   1      36.908  22.661  23.673  1.00  0.00     0.007 A 
ATOM     32  C   UNL A   1      36.870  21.956  24.881  1.00  0.00    -0.021 A 
BRANCH  32  33
ATOM     33  C   UNL A   1      38.129  21.810  25.699  1.00  0.00     0.191 C 
BRANCH  33  34
ATOM     34  O   UNL A   1      38.903  23.009  25.677  1.00  0.00    -0.392 OA
ATOM     35  H   UNL A   1      38.953  23.344  24.768  1.00  0.00     0.211 HD
ENDBRANCH  33  34
ENDBRANCH  32  33
ENDBRANCH   7  23
ENDBRANCH   4   7
ENDBRANCH   2   3
ENDBRANCH   1   2
BRANCH   1  36
ATOM     36  C   UNL A   1      35.205  29.321  27.398  1.00  0.00     0.118 C 
BRANCH  36  37
ATOM     37  N   UNL A   1      35.198  30.076  28.638  1.00  0.00    -0.352 N 
ATOM     38  C   UNL A   1      36.199  30.313  29.551  1.00  0.00     0.251 C 
ATOM     39  H   UNL A   1      34.333  30.485  28.863  1.00  0.00     0.163 HD
ATOM     40  O   UNL A   1      35.887  30.796  30.640  1.00  0.00    -0.269 OA
BRANCH  38  41
ATOM     41  C   UNL A   1      37.634  30.027  29.279  1.00  0.00     0.039 A 
ATOM     42  C   UNL A   1      38.043  29.881  27.944  1.00  0.00     0.014 A 
ATOM     43  C   UNL A   1      38.546  29.736  30.295  1.00  0.00     0.014 A 
ATOM     44  C   UNL A   1      39.352  29.480  27.631  1.00  0.00     0.010 A 
ATOM     45  C   UNL A   1      39.858  29.343  29.975  1.00  0.00     0.010 A 
ATOM     46  C   UNL A   1      40.288  29.216  28.643  1.00  0.00    -0.014 A 
BRANCH  46  47
ATOM     47  C   UNL A   1      41.692  28.807  28.314  1.00  0.00     0.031 A 
ATOM     48  C   UNL A   1      42.817  29.817  28.292  1.00  0.00     0.074 A 
ATOM     49  C   UNL A   1      41.970  27.523  28.000  1.00  0.00     0.049 A 
ATOM     50  N   UNL A   1      44.080  29.646  27.986  1.00  0.00    -0.248 NA
ATOM     51  C   UNL A   1      42.471  31.204  28.636  1.00  0.00     0.031 C 
ATOM     52  C   UNL A   1      40.990  26.439  27.941  1.00  0.00     0.029 A 
ATOM     53  N   UNL A   1      43.158  26.910  27.666  1.00  0.00    -0.354 N 
ATOM     54  C   UNL A   1      44.677  30.899  28.092  1.00  0.00     0.074 A 
ATOM     55  C   UNL A   1      43.623  31.830  28.440  1.00  0.00     0.031 C 
ATOM     56  C   UNL A   1      41.616  25.295  27.620  1.00  0.00     0.029 A 
ATOM     57  C   UNL A   1      43.036  25.563  27.408  1.00  0.00     0.049 A 
ATOM     58  H   UNL A   1      44.015  27.392  27.615  1.00  0.00     0.167 HD
ATOM     59  C   UNL A   1      45.981  31.245  27.935  1.00  0.00     0.037 A 
ATOM     60  C   UNL A   1      43.951  24.644  27.035  1.00  0.00     0.037 A 
ATOM     61  C   UNL A   1      47.041  30.320  27.615  1.00  0.00     0.049 A 
ATOM     62  C   UNL A   1      45.391  25.053  26.854  1.00  0.00     0.074 A 
ATOM     63  C   UNL A   1      48.397  30.578  27.488  1.00  0.00     0.029 A 
ATOM     64  N   UNL A   1      46.872  28.966  27.370  1.00  0.00    -0.354 N 
ATOM     65  N   UNL A   1      45.938  26.234  27.007  1.00  0.00    -0.248 NA
ATOM     66  C   UNL A   1      46.337  24.002  26.450  1.00  0.00     0.031 C 
ATOM     67  C   UNL A   1      49.039  29.392  27.118  1.00  0.00     0.029 A 
ATOM     68  C   UNL A   1      48.094  28.381  27.070  1.00  0.00     0.049 A 
ATOM     69  H   UNL A   1      46.013  28.489  27.405  1.00  0.00     0.167 HD
ATOM     70  C   UNL A   1      47.295  26.062  26.749  1.00  0.00     0.074 A 
ATOM     71  C   UNL A   1      47.488  24.661  26.440  1.00  0.00     0.031 C 
ATOM     72  C   UNL A   1      48.289  26.983  26.770  1.00  0.00     0.037 A 
BRANCH  59  73
ATOM     73  C   UNL A   1      46.346  32.698  28.107  1.00  0.00     0.058 A 
ATOM     74  C   UNL A   1      46.823  33.201  29.329  1.00  0.00     0.135 A 
ATOM     75  C   UNL A   1      46.262  33.589  27.024  1.00  0.00     0.135 A 
ATOM     76  F   UNL A   1      46.917  32.397  30.400  1.00  0.00    -0.206 F 
ATOM     77  C   UNL A   1      47.165  34.541  29.481  1.00  0.00     0.059 A 
ATOM     78  C   UNL A   1      46.629  34.927  27.145  1.00  0.00     0.059 A 
ATOM     79  F   UNL A   1      45.822  33.163  25.830  1.00  0.00    -0.206 F 
ATOM     80  C   UNL A   1      47.062  35.398  28.384  1.00  0.00     0.060 A 
BRANCH  80  81
ATOM     81  S   UNL A   1      47.497  37.136  28.604  1.00  0.00     0.124 S 
ATOM     82  O   UNL A   1      47.681  37.208  30.051  1.00  0.00    -0.237 OA
ATOM     83  O   UNL A   1      48.712  37.259  27.805  1.00  0.00    -0.237 OA
ATOM     84  O   UNL A   1      46.332  37.847  28.085  1.00  0.00    -0.744 OA
ENDBRANCH  80  81
ENDBRANCH  59  73
BRANCH  60  85
ATOM     85  C   UNL A   1      43.538  23.229  26.818  1.00  0.00     0.058 A 
ATOM     86  C   UNL A   1      43.473  22.684  25.527  1.00  0.00     0.135 A 
ATOM     87  C   UNL A   1      43.201  22.394  27.895  1.00  0.00     0.135 A 
ATOM     88  F   UNL A   1      43.768  23.445  24.462  1.00  0.00    -0.206 F 
ATOM     89  C   UNL A   1      43.076  21.367  25.308  1.00  0.00     0.059 A 
ATOM     90  C   UNL A   1      42.831  21.066  27.705  1.00  0.00     0.059 A 
ATOM     91  F   UNL A   1      43.250  22.866  29.151  1.00  0.00    -0.206 F 
ATOM     92  C   UNL A   1      42.763  20.564  26.406  1.00  0.00     0.060 A 
BRANCH  92  93
ATOM     93  S   UNL A   1      42.298  18.842  26.113  1.00  0.00     0.124 S 
ATOM     94  O   UNL A   1      42.532  18.247  27.423  1.00  0.00    -0.237 OA
ATOM     95  O   UNL A   1      40.902  18.966  25.709  1.00  0.00    -0.237 OA
ATOM     96  O   UNL A   1      43.214  18.422  25.056  1.00  0.00    -0.744 OA
ENDBRANCH  92  93
ENDBRANCH  60  85
BRANCH  72  97
ATOM     97  C   UNL A   1      49.692  26.511  26.490  1.00  0.00     0.058 A 
ATOM     98  C   UNL A   1      50.222  26.489  25.190  1.00  0.00     0.135 A 
ATOM     99  C   UNL A   1      50.536  26.124  27.545  1.00  0.00     0.135 A 
ATOM    100  F   UNL A   1      49.460  26.842  24.143  1.00  0.00    -0.206 F 
ATOM    101  C   UNL A   1      51.530  26.081  24.944  1.00  0.00     0.059 A 
ATOM    102  C   UNL A   1      51.856  25.740  27.324  1.00  0.00     0.059 A 
ATOM    103  F   UNL A   1      50.086  26.135  28.809  1.00  0.00    -0.206 F 
ATOM    104  C   UNL A   1      52.341  25.711  26.018  1.00  0.00     0.060 A 
BRANCH 104 105
ATOM    105  S   UNL A   1      54.048  25.221  25.688  1.00  0.00     0.124 S 
ATOM    106  O   UNL A   1      54.575  25.059  27.039  1.00  0.00    -0.237 OA
ATOM    107  O   UNL A   1      53.878  23.990  24.922  1.00  0.00    -0.237 OA
ATOM    108  O   UNL A   1      54.587  26.350  24.936  1.00  0.00    -0.744 OA
ENDBRANCH 104 105
ENDBRANCH  72  97
ENDBRANCH  46  47
ENDBRANCH  38  41
ENDBRANCH  36  37
ENDBRANCH   1  36
TORSDOF 19
ENDMDL
