MODEL 1
REMARK VINA RESULT:     -10.0      0.000      0.000
REMARK SMILES Cc1cc(C(=O)NC2(CC(=O)NCCCNC(=O)c3ccc(-c4c5nc(c(-c6c(F)cc(S(=O)(=O)[O-])cc6F)c6ccc([nH]6)c(-c6c(F)cc(S(=O)(=O)[O-])cc6F)c6nc(c(-c7c(F)cc(S(=O)(=O)[O-])cc7F)c7ccc4[nH]7)C=C6)C=C5)cc3)CCC2)sc1C
REMARK SMILES IDX 14 1 13 2 12 3 10 4 11 5 9 7 8 8 85 9 87 10 86 11 7 12 5 13
REMARK SMILES IDX 6 14 4 16 1 17 2 18 3 19 89 20 88 21 90 22 15 23 16 24 17 25
REMARK SMILES IDX 18 27 19 28 20 29 84 30 21 31 83 32 22 33 23 34 24 35 77 36
REMARK SMILES IDX 25 37 82 38 76 39 78 40 26 41 81 42 75 43 74 44 27 46 61 47
REMARK SMILES IDX 40 48 60 49 41 50 44 51 59 52 79 53 42 54 43 55 58 57 80 58
REMARK SMILES IDX 45 59 28 60 29 61 38 62 30 63 31 64 37 65 39 66 32 67 33 68
REMARK SMILES IDX 34 69 35 70 36 71 62 72 63 73 72 74 64 75 65 76 71 77 73 78
REMARK SMILES IDX 66 79 67 80 68 81 69 82 70 83 46 84 47 85 56 86 48 87 49 88
REMARK SMILES IDX 55 89 57 90 50 91 51 92 52 93 53 94 54 95
REMARK H PARENT 12 6 7 15 16 26 78 45 44 56
REMARK Flexibility Score: inf
ROOT
ATOM      1  C   UNL A   1      41.180  20.266  26.269  1.00  0.00     0.042 C 
ENDROOT
BRANCH   1   2
ATOM      2  C   UNL A   1      42.700  20.171  26.386  1.00  0.00     0.117 C 
BRANCH   2   3
ATOM      3  N   UNL A   1      43.339  20.522  25.133  1.00  0.00    -0.356 N 
ATOM      4  C   UNL A   1      44.283  21.463  24.872  1.00  0.00     0.222 C 
ATOM      5  O   UNL A   1      44.502  21.758  23.694  1.00  0.00    -0.275 OA
ATOM      6  H   UNL A   1      43.045  19.999  24.352  1.00  0.00     0.163 HD
BRANCH   4   7
ATOM      7  C   UNL A   1      45.054  22.141  25.980  1.00  0.00     0.128 C 
BRANCH   7   8
ATOM      8  C   UNL A   1      44.718  23.630  26.241  1.00  0.00     0.049 C 
ATOM      9  C   UNL A   1      44.792  23.919  27.762  1.00  0.00     0.029 C 
ATOM     10  C   UNL A   1      43.196  23.898  26.296  1.00  0.00     0.029 C 
ATOM     11  C   UNL A   1      43.257  23.839  27.830  1.00  0.00     0.005 C 
BRANCH   8  12
ATOM     12  N   UNL A   1      45.519  24.501  25.344  1.00  0.00    -0.345 N 
ATOM     13  C   UNL A   1      45.775  25.849  25.166  1.00  0.00     0.261 C 
ATOM     14  O   UNL A   1      46.675  26.072  24.344  1.00  0.00    -0.268 OA
ATOM     15  H   UNL A   1      46.012  23.962  24.685  1.00  0.00     0.164 HD
BRANCH  13  16
ATOM     16  C   UNL A   1      45.151  26.952  25.879  1.00  0.00     0.092 A 
ATOM     17  C   UNL A   1      42.208  29.285  26.325  1.00  0.00     0.045 C 
ATOM     18  C   UNL A   1      43.515  28.575  26.431  1.00  0.00    -0.037 A 
ATOM     19  C   UNL A   1      43.887  27.458  25.607  1.00  0.00     0.029 A 
ATOM     20  C   UNL A   1      44.541  28.885  27.306  1.00  0.00     0.005 A 
ATOM     21  S   UNL A   1      45.741  27.678  27.295  1.00  0.00    -0.135 S 
ATOM     22  C   UNL A   1      44.673  30.038  28.243  1.00  0.00     0.056 C 
ENDBRANCH  13  16
ENDBRANCH   8  12
ENDBRANCH   7   8
ENDBRANCH   4   7
ENDBRANCH   2   3
ENDBRANCH   1   2
BRANCH   1  23
ATOM     23  C   UNL A   1      40.612  21.605  26.718  1.00  0.00     0.118 C 
BRANCH  23  24
ATOM     24  N   UNL A   1      39.536  22.058  25.853  1.00  0.00    -0.352 N 
ATOM     25  C   UNL A   1      38.784  23.206  25.889  1.00  0.00     0.251 C 
ATOM     26  H   UNL A   1      39.309  21.441  25.121  1.00  0.00     0.163 HD
ATOM     27  O   UNL A   1      37.755  23.259  25.221  1.00  0.00    -0.269 OA
BRANCH  25  28
ATOM     28  C   UNL A   1      39.185  24.367  26.720  1.00  0.00     0.039 A 
ATOM     29  C   UNL A   1      39.984  25.362  26.146  1.00  0.00     0.014 A 
ATOM     30  C   UNL A   1      38.848  24.451  28.073  1.00  0.00     0.014 A 
ATOM     31  C   UNL A   1      40.402  26.454  26.912  1.00  0.00     0.010 A 
ATOM     32  C   UNL A   1      39.189  25.583  28.811  1.00  0.00     0.010 A 
ATOM     33  C   UNL A   1      39.987  26.587  28.246  1.00  0.00    -0.014 A 
BRANCH  33  34
ATOM     34  C   UNL A   1      40.409  27.744  29.079  1.00  0.00     0.031 A 
ATOM     35  C   UNL A   1      41.744  27.724  29.777  1.00  0.00     0.074 A 
ATOM     36  C   UNL A   1      39.575  28.789  29.249  1.00  0.00     0.049 A 
ATOM     37  N   UNL A   1      42.260  28.597  30.604  1.00  0.00    -0.248 NA
ATOM     38  C   UNL A   1      42.601  26.552  29.534  1.00  0.00     0.031 C 
ATOM     39  C   UNL A   1      38.241  28.914  28.657  1.00  0.00     0.029 A 
ATOM     40  N   UNL A   1      39.723  29.944  29.976  1.00  0.00    -0.354 N 
ATOM     41  C   UNL A   1      43.487  28.072  30.995  1.00  0.00     0.074 A 
ATOM     42  C   UNL A   1      43.614  26.780  30.357  1.00  0.00     0.031 C 
ATOM     43  C   UNL A   1      37.708  30.093  29.017  1.00  0.00     0.029 A 
ATOM     44  C   UNL A   1      38.642  30.790  29.896  1.00  0.00     0.049 A 
ATOM     45  H   UNL A   1      40.527  30.147  30.506  1.00  0.00     0.167 HD
ATOM     46  C   UNL A   1      44.435  28.625  31.788  1.00  0.00     0.037 A 
ATOM     47  C   UNL A   1      38.426  31.990  30.468  1.00  0.00     0.037 A 
ATOM     48  C   UNL A   1      44.319  29.925  32.396  1.00  0.00     0.049 A 
ATOM     49  C   UNL A   1      39.490  32.583  31.351  1.00  0.00     0.074 A 
ATOM     50  C   UNL A   1      45.240  30.598  33.180  1.00  0.00     0.029 A 
ATOM     51  N   UNL A   1      43.211  30.753  32.283  1.00  0.00    -0.354 N 
ATOM     52  N   UNL A   1      40.661  32.090  31.676  1.00  0.00    -0.248 NA
ATOM     53  C   UNL A   1      39.202  33.896  31.945  1.00  0.00     0.031 C 
ATOM     54  C   UNL A   1      44.677  31.818  33.568  1.00  0.00     0.029 A 
ATOM     55  C   UNL A   1      43.420  31.924  32.993  1.00  0.00     0.049 A 
ATOM     56  H   UNL A   1      42.396  30.539  31.774  1.00  0.00     0.167 HD
ATOM     57  C   UNL A   1      41.263  33.044  32.488  1.00  0.00     0.074 A 
ATOM     58  C   UNL A   1      40.328  34.147  32.600  1.00  0.00     0.031 C 
ATOM     59  C   UNL A   1      42.480  33.014  33.086  1.00  0.00     0.037 A 
BRANCH  46  60
ATOM     60  C   UNL A   1      45.682  27.820  32.037  1.00  0.00     0.058 A 
ATOM     61  C   UNL A   1      46.843  28.006  31.268  1.00  0.00     0.135 A 
ATOM     62  C   UNL A   1      45.720  26.850  33.051  1.00  0.00     0.135 A 
ATOM     63  F   UNL A   1      46.858  28.911  30.276  1.00  0.00    -0.206 F 
ATOM     64  C   UNL A   1      47.979  27.228  31.462  1.00  0.00     0.059 A 
ATOM     65  C   UNL A   1      46.856  26.078  33.282  1.00  0.00     0.059 A 
ATOM     66  F   UNL A   1      44.642  26.632  33.820  1.00  0.00    -0.206 F 
ATOM     67  C   UNL A   1      47.973  26.259  32.467  1.00  0.00     0.060 A 
BRANCH  67  68
ATOM     68  S   UNL A   1      49.444  25.237  32.689  1.00  0.00     0.124 S 
ATOM     69  O   UNL A   1      48.914  24.138  33.490  1.00  0.00    -0.237 OA
ATOM     70  O   UNL A   1      49.807  24.902  31.316  1.00  0.00    -0.237 OA
ATOM     71  O   UNL A   1      50.373  26.126  33.380  1.00  0.00    -0.744 OA
ENDBRANCH  67  68
ENDBRANCH  46  60
BRANCH  47  72
ATOM     72  C   UNL A   1      37.168  32.729  30.187  1.00  0.00     0.058 A 
ATOM     73  C   UNL A   1      37.093  33.632  29.118  1.00  0.00     0.135 A 
ATOM     74  C   UNL A   1      36.012  32.530  30.958  1.00  0.00     0.135 A 
ATOM     75  F   UNL A   1      38.175  33.860  28.356  1.00  0.00    -0.206 F 
ATOM     76  C   UNL A   1      35.921  34.322  28.826  1.00  0.00     0.059 A 
ATOM     77  C   UNL A   1      34.821  33.192  30.672  1.00  0.00     0.059 A 
ATOM     78  F   UNL A   1      36.028  31.663  31.982  1.00  0.00    -0.206 F 
ATOM     79  C   UNL A   1      34.788  34.092  29.608  1.00  0.00     0.060 A 
BRANCH  79  80
ATOM     80  S   UNL A   1      33.254  34.946  29.182  1.00  0.00     0.124 S 
ATOM     81  O   UNL A   1      32.564  34.966  30.467  1.00  0.00    -0.237 OA
ATOM     82  O   UNL A   1      33.743  36.233  28.700  1.00  0.00    -0.237 OA
ATOM     83  O   UNL A   1      32.664  34.086  28.160  1.00  0.00    -0.744 OA
ENDBRANCH  79  80
ENDBRANCH  47  72
BRANCH  59  84
ATOM     84  C   UNL A   1      42.886  34.219  33.886  1.00  0.00     0.058 A 
ATOM     85  C   UNL A   1      42.682  34.285  35.272  1.00  0.00     0.135 A 
ATOM     86  C   UNL A   1      43.528  35.301  33.263  1.00  0.00     0.135 A 
ATOM     87  F   UNL A   1      42.065  33.280  35.915  1.00  0.00    -0.206 F 
ATOM     88  C   UNL A   1      43.085  35.392  36.013  1.00  0.00     0.059 A 
ATOM     89  C   UNL A   1      43.960  36.407  33.987  1.00  0.00     0.059 A 
ATOM     90  F   UNL A   1      43.754  35.282  31.940  1.00  0.00    -0.206 F 
ATOM     91  C   UNL A   1      43.724  36.449  35.361  1.00  0.00     0.060 A 
BRANCH  91  92
ATOM     92  S   UNL A   1      44.273  37.865  36.336  1.00  0.00     0.124 S 
ATOM     93  O   UNL A   1      43.355  37.816  37.468  1.00  0.00    -0.237 OA
ATOM     94  O   UNL A   1      45.661  37.525  36.631  1.00  0.00    -0.237 OA
ATOM     95  O   UNL A   1      44.091  38.993  35.428  1.00  0.00    -0.744 OA
ENDBRANCH  91  92
ENDBRANCH  59  84
ENDBRANCH  33  34
ENDBRANCH  25  28
ENDBRANCH  23  24
ENDBRANCH   1  23
TORSDOF 16
ENDMDL
MODEL 2
REMARK VINA RESULT:      -9.9      3.183     11.024
REMARK SMILES Cc1cc(C(=O)NC2(CC(=O)NCCCNC(=O)c3ccc(-c4c5nc(c(-c6c(F)cc(S(=O)(=O)[O-])cc6F)c6ccc([nH]6)c(-c6c(F)cc(S(=O)(=O)[O-])cc6F)c6nc(c(-c7c(F)cc(S(=O)(=O)[O-])cc7F)c7ccc4[nH]7)C=C6)C=C5)cc3)CCC2)sc1C
REMARK SMILES IDX 14 1 13 2 12 3 10 4 11 5 9 7 8 8 85 9 87 10 86 11 7 12 5 13
REMARK SMILES IDX 6 14 4 16 1 17 2 18 3 19 89 20 88 21 90 22 15 23 16 24 17 25
REMARK SMILES IDX 18 27 19 28 20 29 84 30 21 31 83 32 22 33 23 34 24 35 77 36
REMARK SMILES IDX 25 37 82 38 76 39 78 40 26 41 81 42 75 43 74 44 27 46 61 47
REMARK SMILES IDX 40 48 60 49 41 50 44 51 59 52 79 53 42 54 43 55 58 57 80 58
REMARK SMILES IDX 45 59 28 60 29 61 38 62 30 63 31 64 37 65 39 66 32 67 33 68
REMARK SMILES IDX 34 69 35 70 36 71 62 72 63 73 72 74 64 75 65 76 71 77 73 78
REMARK SMILES IDX 66 79 67 80 68 81 69 82 70 83 46 84 47 85 56 86 48 87 49 88
REMARK SMILES IDX 55 89 57 90 50 91 51 92 52 93 53 94 54 95
REMARK H PARENT 12 6 7 15 16 26 78 45 44 56
REMARK Flexibility Score: inf
ROOT
ATOM      1  C   UNL A   1      33.656  33.856  28.433  1.00  0.00     0.042 C 
ENDROOT
BRANCH   1   2
ATOM      2  C   UNL A   1      34.042  34.879  29.500  1.00  0.00     0.117 C 
BRANCH   2   3
ATOM      3  N   UNL A   1      33.514  34.500  30.796  1.00  0.00    -0.356 N 
ATOM      4  C   UNL A   1      34.165  34.271  31.966  1.00  0.00     0.222 C 
ATOM      5  O   UNL A   1      33.547  33.719  32.879  1.00  0.00    -0.275 OA
ATOM      6  H   UNL A   1      32.537  34.392  30.835  1.00  0.00     0.163 HD
BRANCH   4   7
ATOM      7  C   UNL A   1      35.608  34.676  32.163  1.00  0.00     0.128 C 
BRANCH   7   8
ATOM      8  C   UNL A   1      36.633  33.523  32.301  1.00  0.00     0.049 C 
ATOM      9  C   UNL A   1      37.970  33.936  31.635  1.00  0.00     0.029 C 
ATOM     10  C   UNL A   1      36.462  32.437  31.214  1.00  0.00     0.029 C 
ATOM     11  C   UNL A   1      37.592  33.092  30.405  1.00  0.00     0.005 C 
BRANCH   8  12
ATOM     12  N   UNL A   1      36.691  33.056  33.710  1.00  0.00    -0.345 N 
ATOM     13  C   UNL A   1      37.412  32.157  34.475  1.00  0.00     0.261 C 
ATOM     14  O   UNL A   1      37.181  32.250  35.688  1.00  0.00    -0.268 OA
ATOM     15  H   UNL A   1      36.021  33.523  34.259  1.00  0.00     0.164 HD
BRANCH  13  16
ATOM     16  C   UNL A   1      38.413  31.217  33.995  1.00  0.00     0.092 A 
ATOM     17  C   UNL A   1      39.247  27.899  32.381  1.00  0.00     0.045 C 
ATOM     18  C   UNL A   1      39.297  29.237  33.039  1.00  0.00    -0.037 A 
ATOM     19  C   UNL A   1      38.131  29.998  33.391  1.00  0.00     0.029 A 
ATOM     20  C   UNL A   1      40.442  29.918  33.411  1.00  0.00     0.005 A 
ATOM     21  S   UNL A   1      40.080  31.513  33.881  1.00  0.00    -0.135 S 
ATOM     22  C   UNL A   1      41.865  29.471  33.382  1.00  0.00     0.056 C 
ENDBRANCH  13  16
ENDBRANCH   8  12
ENDBRANCH   7   8
ENDBRANCH   4   7
ENDBRANCH   2   3
ENDBRANCH   1   2
BRANCH   1  23
ATOM     23  C   UNL A   1      34.634  32.696  28.314  1.00  0.00     0.118 C 
BRANCH  23  24
ATOM     24  N   UNL A   1      33.952  31.423  28.147  1.00  0.00    -0.352 N 
ATOM     25  C   UNL A   1      34.453  30.156  27.979  1.00  0.00     0.251 C 
ATOM     26  H   UNL A   1      32.969  31.479  28.156  1.00  0.00     0.163 HD
ATOM     27  O   UNL A   1      33.697  29.269  27.593  1.00  0.00    -0.269 OA
BRANCH  25  28
ATOM     28  C   UNL A   1      35.879  29.848  28.245  1.00  0.00     0.039 A 
ATOM     29  C   UNL A   1      36.807  30.011  27.211  1.00  0.00     0.014 A 
ATOM     30  C   UNL A   1      36.301  29.333  29.473  1.00  0.00     0.014 A 
ATOM     31  C   UNL A   1      38.154  29.701  27.423  1.00  0.00     0.010 A 
ATOM     32  C   UNL A   1      37.656  29.111  29.712  1.00  0.00     0.010 A 
ATOM     33  C   UNL A   1      38.595  29.272  28.684  1.00  0.00    -0.014 A 
BRANCH  33  34
ATOM     34  C   UNL A   1      40.023  28.948  28.938  1.00  0.00     0.031 A 
ATOM     35  C   UNL A   1      40.937  29.984  29.539  1.00  0.00     0.074 A 
ATOM     36  C   UNL A   1      40.512  27.743  28.584  1.00  0.00     0.049 A 
ATOM     37  N   UNL A   1      42.225  29.922  29.767  1.00  0.00    -0.248 NA
ATOM     38  C   UNL A   1      40.326  31.272  29.907  1.00  0.00     0.031 C 
ATOM     39  C   UNL A   1      39.739  26.666  27.961  1.00  0.00     0.029 A 
ATOM     40  N   UNL A   1      41.777  27.223  28.691  1.00  0.00    -0.354 N 
ATOM     41  C   UNL A   1      42.580  31.163  30.283  1.00  0.00     0.074 A 
ATOM     42  C   UNL A   1      41.384  31.977  30.283  1.00  0.00     0.031 C 
ATOM     43  C   UNL A   1      40.539  25.603  27.773  1.00  0.00     0.029 A 
ATOM     44  C   UNL A   1      41.887  25.935  28.223  1.00  0.00     0.049 A 
ATOM     45  H   UNL A   1      42.535  27.725  29.067  1.00  0.00     0.167 HD
ATOM     46  C   UNL A   1      43.784  31.581  30.742  1.00  0.00     0.037 A 
ATOM     47  C   UNL A   1      42.953  25.114  28.160  1.00  0.00     0.037 A 
ATOM     48  C   UNL A   1      44.965  30.758  30.769  1.00  0.00     0.049 A 
ATOM     49  C   UNL A   1      44.283  25.601  28.669  1.00  0.00     0.074 A 
ATOM     50  C   UNL A   1      46.223  31.069  31.254  1.00  0.00     0.029 A 
ATOM     51  N   UNL A   1      45.032  29.457  30.292  1.00  0.00    -0.354 N 
ATOM     52  N   UNL A   1      44.591  26.764  29.192  1.00  0.00    -0.248 NA
ATOM     53  C   UNL A   1      45.410  24.662  28.580  1.00  0.00     0.031 C 
ATOM     54  C   UNL A   1      47.059  29.967  31.043  1.00  0.00     0.029 A 
ATOM     55  C   UNL A   1      46.312  28.955  30.461  1.00  0.00     0.049 A 
ATOM     56  H   UNL A   1      44.279  28.963  29.893  1.00  0.00     0.167 HD
ATOM     57  C   UNL A   1      45.939  26.688  29.521  1.00  0.00     0.074 A 
ATOM     58  C   UNL A   1      46.387  25.361  29.143  1.00  0.00     0.031 C 
ATOM     59  C   UNL A   1      46.736  27.628  30.086  1.00  0.00     0.037 A 
BRANCH  46  60
ATOM     60  C   UNL A   1      43.875  32.993  31.254  1.00  0.00     0.058 A 
ATOM     61  C   UNL A   1      44.141  34.072  30.394  1.00  0.00     0.135 A 
ATOM     62  C   UNL A   1      43.697  33.275  32.618  1.00  0.00     0.135 A 
ATOM     63  F   UNL A   1      44.333  33.858  29.082  1.00  0.00    -0.206 F 
ATOM     64  C   UNL A   1      44.276  35.370  30.873  1.00  0.00     0.059 A 
ATOM     65  C   UNL A   1      43.800  34.571  33.116  1.00  0.00     0.059 A 
ATOM     66  F   UNL A   1      43.436  32.284  33.485  1.00  0.00    -0.206 F 
ATOM     67  C   UNL A   1      44.113  35.609  32.239  1.00  0.00     0.060 A 
BRANCH  67  68
ATOM     68  S   UNL A   1      44.319  37.295  32.851  1.00  0.00     0.124 S 
ATOM     69  O   UNL A   1      43.663  37.212  34.151  1.00  0.00    -0.237 OA
ATOM     70  O   UNL A   1      45.770  37.444  32.881  1.00  0.00    -0.237 OA
ATOM     71  O   UNL A   1      43.630  38.106  31.850  1.00  0.00    -0.744 OA
ENDBRANCH  67  68
ENDBRANCH  46  60
BRANCH  47  72
ATOM     72  C   UNL A   1      42.796  23.734  27.634  1.00  0.00     0.058 A 
ATOM     73  C   UNL A   1      42.483  22.672  28.495  1.00  0.00     0.135 A 
ATOM     74  C   UNL A   1      42.927  23.450  26.266  1.00  0.00     0.135 A 
ATOM     75  F   UNL A   1      42.353  22.894  29.813  1.00  0.00    -0.206 F 
ATOM     76  C   UNL A   1      42.314  21.375  28.022  1.00  0.00     0.059 A 
ATOM     77  C   UNL A   1      42.741  22.164  25.766  1.00  0.00     0.059 A 
ATOM     78  F   UNL A   1      43.211  24.434  25.399  1.00  0.00    -0.206 F 
ATOM     79  C   UNL A   1      42.442  21.132  26.654  1.00  0.00     0.060 A 
BRANCH  79  80
ATOM     80  S   UNL A   1      42.160  19.455  26.043  1.00  0.00     0.124 S 
ATOM     81  O   UNL A   1      42.633  18.651  27.163  1.00  0.00    -0.237 OA
ATOM     82  O   UNL A   1      40.719  19.450  25.815  1.00  0.00    -0.237 OA
ATOM     83  O   UNL A   1      42.977  19.398  24.834  1.00  0.00    -0.744 OA
ENDBRANCH  79  80
ENDBRANCH  47  72
BRANCH  59  84
ATOM     84  C   UNL A   1      48.163  27.248  30.363  1.00  0.00     0.058 A 
ATOM     85  C   UNL A   1      49.202  27.603  29.491  1.00  0.00     0.135 A 
ATOM     86  C   UNL A   1      48.498  26.560  31.540  1.00  0.00     0.135 A 
ATOM     87  F   UNL A   1      48.933  28.255  28.348  1.00  0.00    -0.206 F 
ATOM     88  C   UNL A   1      50.525  27.272  29.765  1.00  0.00     0.059 A 
ATOM     89  C   UNL A   1      49.816  26.239  31.847  1.00  0.00     0.059 A 
ATOM     90  F   UNL A   1      47.540  26.206  32.412  1.00  0.00    -0.206 F 
ATOM     91  C   UNL A   1      50.822  26.590  30.948  1.00  0.00     0.060 A 
BRANCH  91  92
ATOM     92  S   UNL A   1      52.546  26.196  31.312  1.00  0.00     0.124 S 
ATOM     93  O   UNL A   1      52.991  27.413  31.980  1.00  0.00    -0.237 OA
ATOM     94  O   UNL A   1      52.426  25.014  32.159  1.00  0.00    -0.237 OA
ATOM     95  O   UNL A   1      53.124  25.957  29.993  1.00  0.00    -0.744 OA
ENDBRANCH  91  92
ENDBRANCH  59  84
ENDBRANCH  33  34
ENDBRANCH  25  28
ENDBRANCH  23  24
ENDBRANCH   1  23
TORSDOF 16
ENDMDL
MODEL 3
REMARK VINA RESULT:      -9.7      5.165     11.951
REMARK SMILES Cc1cc(C(=O)NC2(CC(=O)NCCCNC(=O)c3ccc(-c4c5nc(c(-c6c(F)cc(S(=O)(=O)[O-])cc6F)c6ccc([nH]6)c(-c6c(F)cc(S(=O)(=O)[O-])cc6F)c6nc(c(-c7c(F)cc(S(=O)(=O)[O-])cc7F)c7ccc4[nH]7)C=C6)C=C5)cc3)CCC2)sc1C
REMARK SMILES IDX 14 1 13 2 12 3 10 4 11 5 9 7 8 8 85 9 87 10 86 11 7 12 5 13
REMARK SMILES IDX 6 14 4 16 1 17 2 18 3 19 89 20 88 21 90 22 15 23 16 24 17 25
REMARK SMILES IDX 18 27 19 28 20 29 84 30 21 31 83 32 22 33 23 34 24 35 77 36
REMARK SMILES IDX 25 37 82 38 76 39 78 40 26 41 81 42 75 43 74 44 27 46 61 47
REMARK SMILES IDX 40 48 60 49 41 50 44 51 59 52 79 53 42 54 43 55 58 57 80 58
REMARK SMILES IDX 45 59 28 60 29 61 38 62 30 63 31 64 37 65 39 66 32 67 33 68
REMARK SMILES IDX 34 69 35 70 36 71 62 72 63 73 72 74 64 75 65 76 71 77 73 78
REMARK SMILES IDX 66 79 67 80 68 81 69 82 70 83 46 84 47 85 56 86 48 87 49 88
REMARK SMILES IDX 55 89 57 90 50 91 51 92 52 93 53 94 54 95
REMARK H PARENT 12 6 7 15 16 26 78 45 44 56
REMARK Flexibility Score: inf
ROOT
ATOM      1  C   UNL A   1      34.265  30.802  27.476  1.00  0.00     0.042 C 
ENDROOT
BRANCH   1   2
ATOM      2  C   UNL A   1      34.305  29.285  27.302  1.00  0.00     0.117 C 
BRANCH   2   3
ATOM      3  N   UNL A   1      33.139  28.664  27.899  1.00  0.00    -0.356 N 
ATOM      4  C   UNL A   1      32.024  28.161  27.308  1.00  0.00     0.222 C 
ATOM      5  O   UNL A   1      31.050  27.906  28.020  1.00  0.00    -0.275 OA
ATOM      6  H   UNL A   1      33.157  28.596  28.881  1.00  0.00     0.163 HD
BRANCH   4   7
ATOM      7  C   UNL A   1      31.959  27.912  25.818  1.00  0.00     0.128 C 
BRANCH   7   8
ATOM      8  C   UNL A   1      32.177  26.451  25.355  1.00  0.00     0.049 C 
ATOM      9  C   UNL A   1      33.695  26.139  25.320  1.00  0.00     0.029 C 
ATOM     10  C   UNL A   1      32.142  26.300  23.816  1.00  0.00     0.029 C 
ATOM     11  C   UNL A   1      33.678  26.337  23.793  1.00  0.00     0.005 C 
BRANCH   8  12
ATOM     12  N   UNL A   1      31.312  25.531  26.137  1.00  0.00    -0.345 N 
ATOM     13  C   UNL A   1      31.118  24.171  26.291  1.00  0.00     0.261 C 
ATOM     14  O   UNL A   1      30.351  23.887  27.220  1.00  0.00    -0.268 OA
ATOM     15  H   UNL A   1      30.698  26.039  26.716  1.00  0.00     0.164 HD
BRANCH  13  16
ATOM     16  C   UNL A   1      31.765  23.111  25.532  1.00  0.00     0.092 A 
ATOM     17  C   UNL A   1      32.093  21.156  22.311  1.00  0.00     0.045 C 
ATOM     18  C   UNL A   1      32.229  21.681  23.700  1.00  0.00    -0.037 A 
ATOM     19  C   UNL A   1      31.477  22.794  24.211  1.00  0.00     0.029 A 
ATOM     20  C   UNL A   1      33.066  21.181  24.681  1.00  0.00     0.005 A 
ATOM     21  S   UNL A   1      33.120  22.219  26.028  1.00  0.00    -0.135 S 
ATOM     22  C   UNL A   1      33.921  19.959  24.666  1.00  0.00     0.056 C 
ENDBRANCH  13  16
ENDBRANCH   8  12
ENDBRANCH   7   8
ENDBRANCH   4   7
ENDBRANCH   2   3
ENDBRANCH   1   2
BRANCH   1  23
ATOM     23  C   UNL A   1      35.509  31.376  28.142  1.00  0.00     0.118 C 
BRANCH  23  24
ATOM     24  N   UNL A   1      35.466  31.235  29.588  1.00  0.00    -0.352 N 
ATOM     25  C   UNL A   1      36.327  30.601  30.450  1.00  0.00     0.251 C 
ATOM     26  H   UNL A   1      34.693  31.664  30.021  1.00  0.00     0.163 HD
ATOM     27  O   UNL A   1      35.956  30.382  31.600  1.00  0.00    -0.269 OA
BRANCH  25  28
ATOM     28  C   UNL A   1      37.678  30.174  30.015  1.00  0.00     0.039 A 
ATOM     29  C   UNL A   1      38.625  29.839  30.990  1.00  0.00     0.014 A 
ATOM     30  C   UNL A   1      38.048  30.169  28.668  1.00  0.00     0.014 A 
ATOM     31  C   UNL A   1      39.916  29.460  30.612  1.00  0.00     0.010 A 
ATOM     32  C   UNL A   1      39.305  29.704  28.288  1.00  0.00     0.010 A 
ATOM     33  C   UNL A   1      40.261  29.365  29.255  1.00  0.00    -0.014 A 
BRANCH  33  34
ATOM     34  C   UNL A   1      41.624  28.954  28.827  1.00  0.00     0.031 A 
ATOM     35  C   UNL A   1      42.740  29.966  28.789  1.00  0.00     0.074 A 
ATOM     36  C   UNL A   1      41.849  27.687  28.426  1.00  0.00     0.049 A 
ATOM     37  N   UNL A   1      43.974  29.823  28.376  1.00  0.00    -0.248 NA
ATOM     38  C   UNL A   1      42.417  31.325  29.252  1.00  0.00     0.031 C 
ATOM     39  C   UNL A   1      40.844  26.622  28.382  1.00  0.00     0.029 A 
ATOM     40  N   UNL A   1      42.993  27.081  27.971  1.00  0.00    -0.354 N 
ATOM     41  C   UNL A   1      44.565  31.075  28.508  1.00  0.00     0.074 A 
ATOM     42  C   UNL A   1      43.541  31.976  28.988  1.00  0.00     0.031 C 
ATOM     43  C   UNL A   1      41.425  25.487  27.958  1.00  0.00     0.029 A 
ATOM     44  C   UNL A   1      42.829  25.752  27.663  1.00  0.00     0.049 A 
ATOM     45  H   UNL A   1      43.851  27.554  27.875  1.00  0.00     0.167 HD
ATOM     46  C   UNL A   1      45.850  31.437  28.279  1.00  0.00     0.037 A 
ATOM     47  C   UNL A   1      43.710  24.848  27.191  1.00  0.00     0.037 A 
ATOM     48  C   UNL A   1      46.875  30.530  27.831  1.00  0.00     0.049 A 
ATOM     49  C   UNL A   1      45.131  25.273  26.937  1.00  0.00     0.074 A 
ATOM     50  C   UNL A   1      48.217  30.784  27.612  1.00  0.00     0.029 A 
ATOM     51  N   UNL A   1      46.669  29.189  27.537  1.00  0.00    -0.354 N 
ATOM     52  N   UNL A   1      45.683  26.451  27.108  1.00  0.00    -0.248 NA
ATOM     53  C   UNL A   1      46.049  24.244  26.428  1.00  0.00     0.031 C 
ATOM     54  C   UNL A   1      48.817  29.605  27.155  1.00  0.00     0.029 A 
ATOM     55  C   UNL A   1      47.857  28.607  27.127  1.00  0.00     0.049 A 
ATOM     56  H   UNL A   1      45.806  28.722  27.610  1.00  0.00     0.167 HD
ATOM     57  C   UNL A   1      47.019  26.300  26.754  1.00  0.00     0.074 A 
ATOM     58  C   UNL A   1      47.193  24.914  26.366  1.00  0.00     0.031 C 
ATOM     59  C   UNL A   1      48.012  27.222  26.752  1.00  0.00     0.037 A 
BRANCH  46  60
ATOM     60  C   UNL A   1      46.214  32.878  28.515  1.00  0.00     0.058 A 
ATOM     61  C   UNL A   1      46.645  33.331  29.773  1.00  0.00     0.135 A 
ATOM     62  C   UNL A   1      46.128  33.820  27.478  1.00  0.00     0.135 A 
ATOM     63  F   UNL A   1      46.732  32.476  30.805  1.00  0.00    -0.206 F 
ATOM     64  C   UNL A   1      46.932  34.671  30.007  1.00  0.00     0.059 A 
ATOM     65  C   UNL A   1      46.437  35.162  27.681  1.00  0.00     0.059 A 
ATOM     66  F   UNL A   1      45.726  33.443  26.253  1.00  0.00    -0.206 F 
ATOM     67  C   UNL A   1      46.816  35.582  28.956  1.00  0.00     0.060 A 
BRANCH  67  68
ATOM     68  S   UNL A   1      47.164  37.323  29.281  1.00  0.00     0.124 S 
ATOM     69  O   UNL A   1      46.853  37.420  30.703  1.00  0.00    -0.237 OA
ATOM     70  O   UNL A   1      48.576  37.435  28.932  1.00  0.00    -0.237 OA
ATOM     71  O   UNL A   1      46.244  38.025  28.389  1.00  0.00    -0.744 OA
ENDBRANCH  67  68
ENDBRANCH  46  60
BRANCH  47  72
ATOM     72  C   UNL A   1      43.284  23.442  26.971  1.00  0.00     0.058 A 
ATOM     73  C   UNL A   1      43.068  22.955  25.674  1.00  0.00     0.135 A 
ATOM     74  C   UNL A   1      43.109  22.552  28.042  1.00  0.00     0.135 A 
ATOM     75  F   UNL A   1      43.217  23.771  24.618  1.00  0.00    -0.206 F 
ATOM     76  C   UNL A   1      42.685  21.638  25.444  1.00  0.00     0.059 A 
ATOM     77  C   UNL A   1      42.748  21.223  27.835  1.00  0.00     0.059 A 
ATOM     78  F   UNL A   1      43.319  22.965  29.301  1.00  0.00    -0.206 F 
ATOM     79  C   UNL A   1      42.531  20.778  26.532  1.00  0.00     0.060 A 
BRANCH  79  80
ATOM     80  S   UNL A   1      42.094  19.054  26.218  1.00  0.00     0.124 S 
ATOM     81  O   UNL A   1      42.387  18.438  27.507  1.00  0.00    -0.237 OA
ATOM     82  O   UNL A   1      40.682  19.155  25.864  1.00  0.00    -0.237 OA
ATOM     83  O   UNL A   1      42.981  18.678  25.121  1.00  0.00    -0.744 OA
ENDBRANCH  79  80
ENDBRANCH  47  72
BRANCH  59  84
ATOM     84  C   UNL A   1      49.384  26.758  26.352  1.00  0.00     0.058 A 
ATOM     85  C   UNL A   1      50.222  26.078  27.248  1.00  0.00     0.135 A 
ATOM     86  C   UNL A   1      49.846  26.959  25.042  1.00  0.00     0.135 A 
ATOM     87  F   UNL A   1      49.830  25.867  28.515  1.00  0.00    -0.206 F 
ATOM     88  C   UNL A   1      51.481  25.627  26.864  1.00  0.00     0.059 A 
ATOM     89  C   UNL A   1      51.092  26.496  24.629  1.00  0.00     0.059 A 
ATOM     90  F   UNL A   1      49.079  27.598  24.144  1.00  0.00    -0.206 F 
ATOM     91  C   UNL A   1      51.907  25.840  25.551  1.00  0.00     0.060 A 
BRANCH  91  92
ATOM     92  S   UNL A   1      53.528  25.221  25.054  1.00  0.00     0.124 S 
ATOM     93  O   UNL A   1      54.408  25.930  25.975  1.00  0.00    -0.237 OA
ATOM     94  O   UNL A   1      53.399  23.785  25.280  1.00  0.00    -0.237 OA
ATOM     95  O   UNL A   1      53.629  25.622  23.654  1.00  0.00    -0.744 OA
ENDBRANCH  91  92
ENDBRANCH  59  84
ENDBRANCH  33  34
ENDBRANCH  25  28
ENDBRANCH  23  24
ENDBRANCH   1  23
TORSDOF 16
ENDMDL
