MODEL 1
REMARK VINA RESULT:     -12.5      0.000      0.000
REMARK SMILES Cc1ccc(-c2ncccc2C(=O)NCCCNC(=O)c2ccc(-c3c4nc(c(-c5c(F)cc(S(=O)(=O)[O-])cc5F)c5ccc([nH]5)c(-c5c(F)cc(S(=O)(=O)[O-])cc5F)c5nc(c(-c6c(F)cc(S(=O)(=O)[O-])cc6F)c6ccc3[nH]6)C=C5)C=C4)cc2)c(C)c1
REMARK SMILES IDX 17 1 16 2 15 3 14 4 12 5 13 6 11 8 6 9 7 10 8 11 10 12 9 13
REMARK SMILES IDX 5 14 1 15 2 16 3 17 89 18 4 19 87 20 88 21 18 22 19 23 20 25
REMARK SMILES IDX 21 26 22 27 86 28 23 29 85 30 24 31 25 32 26 33 79 34 27 35
REMARK SMILES IDX 84 36 78 37 80 38 28 39 83 40 77 41 76 42 29 44 63 45 42 46
REMARK SMILES IDX 62 47 43 48 46 49 61 50 81 51 44 52 45 53 60 55 82 56 47 57
REMARK SMILES IDX 30 58 31 59 40 60 32 61 33 62 39 63 41 64 34 65 35 66 36 67
REMARK SMILES IDX 37 68 38 69 64 70 65 71 74 72 66 73 67 74 73 75 75 76 68 77
REMARK SMILES IDX 69 78 70 79 71 80 72 81 48 82 49 83 58 84 50 85 51 86 57 87
REMARK SMILES IDX 59 88 52 89 53 90 54 91 55 92 56 93
REMARK H PARENT 14 7 18 24 80 43 46 54
REMARK Flexibility Score: inf
ROOT
ATOM      1  C   UNL A   1      40.098  23.213  27.121  1.00  0.00     0.118 C 
ENDROOT
BRANCH   1   2
ATOM      2  C   UNL A   1      38.831  22.601  26.512  1.00  0.00     0.042 C 
BRANCH   2   3
ATOM      3  C   UNL A   1      37.819  23.641  26.030  1.00  0.00     0.118 C 
BRANCH   3   4
ATOM      4  N   UNL A   1      37.500  23.455  24.628  1.00  0.00    -0.352 N 
ATOM      5  C   UNL A   1      36.474  22.900  23.907  1.00  0.00     0.253 C 
ATOM      6  O   UNL A   1      36.642  22.976  22.691  1.00  0.00    -0.269 OA
ATOM      7  H   UNL A   1      38.202  23.821  24.042  1.00  0.00     0.163 HD
BRANCH   5   8
ATOM      8  C   UNL A   1      35.231  22.288  24.486  1.00  0.00     0.066 A 
ATOM      9  C   UNL A   1      34.106  23.080  24.806  1.00  0.00     0.083 A 
ATOM     10  N   UNL A   1      33.002  22.577  25.444  1.00  0.00    -0.255 NA
ATOM     11  C   UNL A   1      32.975  21.264  25.734  1.00  0.00     0.112 A 
ATOM     12  C   UNL A   1      35.111  20.915  24.742  1.00  0.00     0.018 A 
ATOM     13  C   UNL A   1      33.987  20.397  25.387  1.00  0.00     0.021 A 
BRANCH   9  14
ATOM     14  C   UNL A   1      33.921  24.499  24.433  1.00  0.00     0.004 A 
ATOM     15  C   UNL A   1      33.334  28.708  23.574  1.00  0.00     0.044 C 
ATOM     16  C   UNL A   1      33.567  27.258  23.871  1.00  0.00    -0.051 A 
ATOM     17  C   UNL A   1      34.027  26.850  25.121  1.00  0.00     0.004 A 
ATOM     18  C   UNL A   1      33.332  26.289  22.887  1.00  0.00     0.007 A 
ATOM     19  C   UNL A   1      34.215  25.494  25.390  1.00  0.00     0.011 A 
ATOM     20  C   UNL A   1      33.496  24.914  23.154  1.00  0.00    -0.041 A 
ATOM     21  C   UNL A   1      33.257  23.947  22.026  1.00  0.00     0.045 C 
ENDBRANCH   9  14
ENDBRANCH   5   8
ENDBRANCH   3   4
ENDBRANCH   2   3
ENDBRANCH   1   2
BRANCH   1  22
ATOM     22  N   UNL A   1      40.906  23.905  26.127  1.00  0.00    -0.352 N 
ATOM     23  C   UNL A   1      41.303  25.218  26.060  1.00  0.00     0.251 C 
ATOM     24  H   UNL A   1      41.217  23.342  25.382  1.00  0.00     0.163 HD
ATOM     25  O   UNL A   1      41.767  25.649  25.008  1.00  0.00    -0.269 OA
BRANCH  23  26
ATOM     26  C   UNL A   1      41.177  26.111  27.232  1.00  0.00     0.039 A 
ATOM     27  C   UNL A   1      42.155  27.090  27.442  1.00  0.00     0.014 A 
ATOM     28  C   UNL A   1      40.143  25.951  28.158  1.00  0.00     0.014 A 
ATOM     29  C   UNL A   1      42.062  27.943  28.544  1.00  0.00     0.010 A 
ATOM     30  C   UNL A   1      40.018  26.839  29.224  1.00  0.00     0.010 A 
ATOM     31  C   UNL A   1      40.975  27.845  29.428  1.00  0.00    -0.014 A 
BRANCH  31  32
ATOM     32  C   UNL A   1      40.812  28.798  30.557  1.00  0.00     0.031 A 
ATOM     33  C   UNL A   1      41.649  28.659  31.800  1.00  0.00     0.074 A 
ATOM     34  C   UNL A   1      39.858  29.747  30.486  1.00  0.00     0.049 A 
ATOM     35  N   UNL A   1      41.590  29.341  32.915  1.00  0.00    -0.248 NA
ATOM     36  C   UNL A   1      42.667  27.597  31.799  1.00  0.00     0.031 C 
ATOM     37  C   UNL A   1      38.953  29.953  29.353  1.00  0.00     0.029 A 
ATOM     38  N   UNL A   1      39.478  30.707  31.391  1.00  0.00    -0.354 N 
ATOM     39  C   UNL A   1      42.548  28.783  33.753  1.00  0.00     0.074 A 
ATOM     40  C   UNL A   1      43.146  27.679  33.033  1.00  0.00     0.031 C 
ATOM     41  C   UNL A   1      38.134  30.981  29.624  1.00  0.00     0.029 A 
ATOM     42  C   UNL A   1      38.429  31.485  30.961  1.00  0.00     0.049 A 
ATOM     43  H   UNL A   1      39.915  30.826  32.265  1.00  0.00     0.167 HD
ATOM     44  C   UNL A   1      42.909  29.168  35.001  1.00  0.00     0.037 A 
ATOM     45  C   UNL A   1      37.771  32.485  31.579  1.00  0.00     0.037 A 
ATOM     46  C   UNL A   1      42.328  30.284  35.702  1.00  0.00     0.049 A 
ATOM     47  C   UNL A   1      38.194  32.898  32.961  1.00  0.00     0.074 A 
ATOM     48  C   UNL A   1      42.669  30.794  36.943  1.00  0.00     0.029 A 
ATOM     49  N   UNL A   1      41.284  31.063  35.224  1.00  0.00    -0.354 N 
ATOM     50  N   UNL A   1      39.143  32.397  33.715  1.00  0.00    -0.248 NA
ATOM     51  C   UNL A   1      37.461  34.013  33.575  1.00  0.00     0.031 C 
ATOM     52  C   UNL A   1      41.806  31.857  37.232  1.00  0.00     0.029 A 
ATOM     53  C   UNL A   1      40.955  32.037  36.153  1.00  0.00     0.049 A 
ATOM     54  H   UNL A   1      40.841  30.941  34.353  1.00  0.00     0.167 HD
ATOM     55  C   UNL A   1      39.135  33.148  34.885  1.00  0.00     0.074 A 
ATOM     56  C   UNL A   1      38.096  34.147  34.732  1.00  0.00     0.031 C 
ATOM     57  C   UNL A   1      39.916  33.023  35.986  1.00  0.00     0.037 A 
BRANCH  44  58
ATOM     58  C   UNL A   1      43.989  28.377  35.690  1.00  0.00     0.058 A 
ATOM     59  C   UNL A   1      45.349  28.671  35.503  1.00  0.00     0.135 A 
ATOM     60  C   UNL A   1      43.659  27.335  36.573  1.00  0.00     0.135 A 
ATOM     61  F   UNL A   1      45.720  29.649  34.661  1.00  0.00    -0.206 F 
ATOM     62  C   UNL A   1      46.346  27.942  36.143  1.00  0.00     0.059 A 
ATOM     63  C   UNL A   1      44.640  26.609  37.244  1.00  0.00     0.059 A 
ATOM     64  F   UNL A   1      42.375  27.013  36.789  1.00  0.00    -0.206 F 
ATOM     65  C   UNL A   1      45.982  26.910  37.010  1.00  0.00     0.060 A 
BRANCH  65  66
ATOM     66  S   UNL A   1      47.287  25.972  37.833  1.00  0.00     0.124 S 
ATOM     67  O   UNL A   1      47.508  24.888  36.881  1.00  0.00    -0.237 OA
ATOM     68  O   UNL A   1      48.361  26.954  37.935  1.00  0.00    -0.237 OA
ATOM     69  O   UNL A   1      46.676  25.580  39.099  1.00  0.00    -0.744 OA
ENDBRANCH  65  66
ENDBRANCH  44  58
BRANCH  45  70
ATOM     70  C   UNL A   1      36.653  33.175  30.882  1.00  0.00     0.058 A 
ATOM     71  C   UNL A   1      35.322  32.946  31.257  1.00  0.00     0.135 A 
ATOM     72  C   UNL A   1      36.895  34.094  29.849  1.00  0.00     0.135 A 
ATOM     73  F   UNL A   1      35.042  32.073  32.236  1.00  0.00    -0.206 F 
ATOM     74  C   UNL A   1      34.266  33.595  30.626  1.00  0.00     0.059 A 
ATOM     75  C   UNL A   1      35.857  34.772  29.218  1.00  0.00     0.059 A 
ATOM     76  F   UNL A   1      38.153  34.360  29.466  1.00  0.00    -0.206 F 
ATOM     77  C   UNL A   1      34.544  34.509  29.608  1.00  0.00     0.060 A 
BRANCH  77  78
ATOM     78  S   UNL A   1      33.171  35.393  28.837  1.00  0.00     0.124 S 
ATOM     79  O   UNL A   1      33.876  36.398  28.048  1.00  0.00    -0.237 OA
ATOM     80  O   UNL A   1      32.510  34.335  28.080  1.00  0.00    -0.237 OA
ATOM     81  O   UNL A   1      32.416  35.900  29.978  1.00  0.00    -0.744 OA
ENDBRANCH  77  78
ENDBRANCH  45  70
BRANCH  57  82
ATOM     82  C   UNL A   1      39.691  34.000  37.105  1.00  0.00     0.058 A 
ATOM     83  C   UNL A   1      38.913  33.669  38.224  1.00  0.00     0.135 A 
ATOM     84  C   UNL A   1      40.295  35.267  37.076  1.00  0.00     0.135 A 
ATOM     85  F   UNL A   1      38.307  32.473  38.296  1.00  0.00    -0.206 F 
ATOM     86  C   UNL A   1      38.725  34.566  39.269  1.00  0.00     0.059 A 
ATOM     87  C   UNL A   1      40.141  36.172  38.121  1.00  0.00     0.059 A 
ATOM     88  F   UNL A   1      41.056  35.630  36.030  1.00  0.00    -0.206 F 
ATOM     89  C   UNL A   1      39.344  35.817  39.209  1.00  0.00     0.060 A 
BRANCH  89  90
ATOM     90  S   UNL A   1      39.118  36.964  40.585  1.00  0.00     0.124 S 
ATOM     91  O   UNL A   1      38.207  37.943  40.004  1.00  0.00    -0.237 OA
ATOM     92  O   UNL A   1      38.550  36.104  41.620  1.00  0.00    -0.237 OA
ATOM     93  O   UNL A   1      40.471  37.443  40.851  1.00  0.00    -0.744 OA
ENDBRANCH  89  90
ENDBRANCH  57  82
ENDBRANCH  31  32
ENDBRANCH  23  26
ENDBRANCH   1  22
TORSDOF 14
ENDMDL
MODEL 2
REMARK VINA RESULT:     -12.4      1.070      2.060
REMARK SMILES Cc1ccc(-c2ncccc2C(=O)NCCCNC(=O)c2ccc(-c3c4nc(c(-c5c(F)cc(S(=O)(=O)[O-])cc5F)c5ccc([nH]5)c(-c5c(F)cc(S(=O)(=O)[O-])cc5F)c5nc(c(-c6c(F)cc(S(=O)(=O)[O-])cc6F)c6ccc3[nH]6)C=C5)C=C4)cc2)c(C)c1
REMARK SMILES IDX 17 1 16 2 15 3 14 4 12 5 13 6 11 8 6 9 7 10 8 11 10 12 9 13
REMARK SMILES IDX 5 14 1 15 2 16 3 17 89 18 4 19 87 20 88 21 18 22 19 23 20 25
REMARK SMILES IDX 21 26 22 27 86 28 23 29 85 30 24 31 25 32 26 33 79 34 27 35
REMARK SMILES IDX 84 36 78 37 80 38 28 39 83 40 77 41 76 42 29 44 63 45 42 46
REMARK SMILES IDX 62 47 43 48 46 49 61 50 81 51 44 52 45 53 60 55 82 56 47 57
REMARK SMILES IDX 30 58 31 59 40 60 32 61 33 62 39 63 41 64 34 65 35 66 36 67
REMARK SMILES IDX 37 68 38 69 64 70 65 71 74 72 66 73 67 74 73 75 75 76 68 77
REMARK SMILES IDX 69 78 70 79 71 80 72 81 48 82 49 83 58 84 50 85 51 86 57 87
REMARK SMILES IDX 59 88 52 89 53 90 54 91 55 92 56 93
REMARK H PARENT 14 7 18 24 80 43 46 54
REMARK Flexibility Score: inf
ROOT
ATOM      1  C   UNL A   1      38.302  24.122  26.532  1.00  0.00     0.118 C 
ENDROOT
BRANCH   1   2
ATOM      2  C   UNL A   1      37.398  23.643  25.391  1.00  0.00     0.042 C 
BRANCH   2   3
ATOM      3  C   UNL A   1      37.031  22.162  25.480  1.00  0.00     0.118 C 
BRANCH   3   4
ATOM      4  N   UNL A   1      36.029  21.928  26.502  1.00  0.00    -0.352 N 
ATOM      5  C   UNL A   1      34.705  21.575  26.533  1.00  0.00     0.253 C 
ATOM      6  O   UNL A   1      34.254  21.492  27.675  1.00  0.00    -0.269 OA
ATOM      7  H   UNL A   1      36.394  22.057  27.407  1.00  0.00     0.163 HD
BRANCH   5   8
ATOM      8  C   UNL A   1      33.854  21.267  25.334  1.00  0.00     0.066 A 
ATOM      9  C   UNL A   1      33.092  22.274  24.700  1.00  0.00     0.083 A 
ATOM     10  N   UNL A   1      32.214  22.008  23.682  1.00  0.00    -0.255 NA
ATOM     11  C   UNL A   1      32.113  20.742  23.239  1.00  0.00     0.112 A 
ATOM     12  C   UNL A   1      33.764  19.984  24.778  1.00  0.00     0.018 A 
ATOM     13  C   UNL A   1      32.876  19.709  23.738  1.00  0.00     0.021 A 
BRANCH   9  14
ATOM     14  C   UNL A   1      33.190  23.724  24.972  1.00  0.00     0.004 A 
ATOM     15  C   UNL A   1      33.701  27.971  25.679  1.00  0.00     0.044 C 
ATOM     16  C   UNL A   1      33.509  26.509  25.410  1.00  0.00    -0.051 A 
ATOM     17  C   UNL A   1      34.179  25.882  24.361  1.00  0.00     0.004 A 
ATOM     18  C   UNL A   1      32.643  25.752  26.208  1.00  0.00     0.007 A 
ATOM     19  C   UNL A   1      34.008  24.515  24.138  1.00  0.00     0.011 A 
ATOM     20  C   UNL A   1      32.479  24.366  26.008  1.00  0.00    -0.041 A 
ATOM     21  C   UNL A   1      31.499  23.640  26.890  1.00  0.00     0.045 C 
ENDBRANCH   9  14
ENDBRANCH   5   8
ENDBRANCH   3   4
ENDBRANCH   2   3
ENDBRANCH   1   2
BRANCH   1  22
ATOM     22  N   UNL A   1      39.715  23.946  26.223  1.00  0.00    -0.352 N 
ATOM     23  C   UNL A   1      40.802  24.716  26.559  1.00  0.00     0.251 C 
ATOM     24  H   UNL A   1      39.925  23.147  25.687  1.00  0.00     0.163 HD
ATOM     25  O   UNL A   1      41.869  24.524  25.983  1.00  0.00    -0.269 OA
BRANCH  23  26
ATOM     26  C   UNL A   1      40.700  25.766  27.596  1.00  0.00     0.039 A 
ATOM     27  C   UNL A   1      39.714  25.645  28.581  1.00  0.00     0.014 A 
ATOM     28  C   UNL A   1      41.522  26.896  27.566  1.00  0.00     0.014 A 
ATOM     29  C   UNL A   1      39.593  26.626  29.569  1.00  0.00     0.010 A 
ATOM     30  C   UNL A   1      41.440  27.843  28.585  1.00  0.00     0.010 A 
ATOM     31  C   UNL A   1      40.476  27.717  29.597  1.00  0.00    -0.014 A 
BRANCH  31  32
ATOM     32  C   UNL A   1      40.420  28.726  30.688  1.00  0.00     0.031 A 
ATOM     33  C   UNL A   1      41.310  28.597  31.893  1.00  0.00     0.074 A 
ATOM     34  C   UNL A   1      39.513  29.721  30.619  1.00  0.00     0.049 A 
ATOM     35  N   UNL A   1      41.343  29.329  32.977  1.00  0.00    -0.248 NA
ATOM     36  C   UNL A   1      42.272  27.482  31.892  1.00  0.00     0.031 C 
ATOM     37  C   UNL A   1      38.563  29.925  29.524  1.00  0.00     0.029 A 
ATOM     38  N   UNL A   1      39.230  30.738  31.496  1.00  0.00    -0.354 N 
ATOM     39  C   UNL A   1      42.314  28.758  33.792  1.00  0.00     0.074 A 
ATOM     40  C   UNL A   1      42.816  27.593  33.096  1.00  0.00     0.031 C 
ATOM     41  C   UNL A   1      37.813  31.006  29.786  1.00  0.00     0.029 A 
ATOM     42  C   UNL A   1      38.201  31.552  31.083  1.00  0.00     0.049 A 
ATOM     43  H   UNL A   1      39.717  30.872  32.342  1.00  0.00     0.167 HD
ATOM     44  C   UNL A   1      42.757  29.177  35.003  1.00  0.00     0.037 A 
ATOM     45  C   UNL A   1      37.628  32.612  31.685  1.00  0.00     0.037 A 
ATOM     46  C   UNL A   1      42.271  30.352  35.678  1.00  0.00     0.049 A 
ATOM     47  C   UNL A   1      38.142  33.061  33.024  1.00  0.00     0.074 A 
ATOM     48  C   UNL A   1      42.700  30.897  36.877  1.00  0.00     0.029 A 
ATOM     49  N   UNL A   1      41.245  31.164  35.217  1.00  0.00    -0.354 N 
ATOM     50  N   UNL A   1      39.101  32.544  33.753  1.00  0.00    -0.248 NA
ATOM     51  C   UNL A   1      37.499  34.240  33.621  1.00  0.00     0.031 C 
ATOM     52  C   UNL A   1      41.909  32.016  37.158  1.00  0.00     0.029 A 
ATOM     53  C   UNL A   1      41.014  32.194  36.115  1.00  0.00     0.049 A 
ATOM     54  H   UNL A   1      40.753  31.028  34.375  1.00  0.00     0.167 HD
ATOM     55  C   UNL A   1      39.192  33.344  34.886  1.00  0.00     0.074 A 
ATOM     56  C   UNL A   1      38.199  34.390  34.738  1.00  0.00     0.031 C 
ATOM     57  C   UNL A   1      40.020  33.226  35.952  1.00  0.00     0.037 A 
BRANCH  44  58
ATOM     58  C   UNL A   1      43.828  28.360  35.674  1.00  0.00     0.058 A 
ATOM     59  C   UNL A   1      45.192  28.594  35.433  1.00  0.00     0.135 A 
ATOM     60  C   UNL A   1      43.490  27.354  36.594  1.00  0.00     0.135 A 
ATOM     61  F   UNL A   1      45.571  29.535  34.553  1.00  0.00    -0.206 F 
ATOM     62  C   UNL A   1      46.181  27.841  36.056  1.00  0.00     0.059 A 
ATOM     63  C   UNL A   1      44.464  26.606  37.250  1.00  0.00     0.059 A 
ATOM     64  F   UNL A   1      42.202  27.089  36.863  1.00  0.00    -0.206 F 
ATOM     65  C   UNL A   1      45.808  26.846  36.961  1.00  0.00     0.060 A 
BRANCH  65  66
ATOM     66  S   UNL A   1      47.103  25.877  37.763  1.00  0.00     0.124 S 
ATOM     67  O   UNL A   1      48.144  26.884  37.950  1.00  0.00    -0.237 OA
ATOM     68  O   UNL A   1      46.442  25.418  38.980  1.00  0.00    -0.237 OA
ATOM     69  O   UNL A   1      47.404  24.836  36.785  1.00  0.00    -0.744 OA
ENDBRANCH  65  66
ENDBRANCH  44  58
BRANCH  45  70
ATOM     70  C   UNL A   1      36.513  33.330  31.012  1.00  0.00     0.058 A 
ATOM     71  C   UNL A   1      36.750  34.134  29.889  1.00  0.00     0.135 A 
ATOM     72  C   UNL A   1      35.189  33.205  31.462  1.00  0.00     0.135 A 
ATOM     73  F   UNL A   1      38.000  34.286  29.425  1.00  0.00    -0.206 F 
ATOM     74  C   UNL A   1      35.717  34.799  29.239  1.00  0.00     0.059 A 
ATOM     75  C   UNL A   1      34.136  33.844  30.816  1.00  0.00     0.059 A 
ATOM     76  F   UNL A   1      34.909  32.434  32.524  1.00  0.00    -0.206 F 
ATOM     77  C   UNL A   1      34.411  34.646  29.709  1.00  0.00     0.060 A 
BRANCH  77  78
ATOM     78  S   UNL A   1      33.067  35.464  28.822  1.00  0.00     0.124 S 
ATOM     79  O   UNL A   1      32.279  36.008  29.921  1.00  0.00    -0.237 OA
ATOM     80  O   UNL A   1      33.786  36.439  28.007  1.00  0.00    -0.237 OA
ATOM     81  O   UNL A   1      32.446  34.374  28.076  1.00  0.00    -0.744 OA
ENDBRANCH  77  78
ENDBRANCH  45  70
BRANCH  57  82
ATOM     82  C   UNL A   1      39.903  34.262  37.034  1.00  0.00     0.058 A 
ATOM     83  C   UNL A   1      40.542  35.507  36.931  1.00  0.00     0.135 A 
ATOM     84  C   UNL A   1      39.109  34.023  38.167  1.00  0.00     0.135 A 
ATOM     85  F   UNL A   1      41.320  35.781  35.871  1.00  0.00    -0.206 F 
ATOM     86  C   UNL A   1      40.415  36.473  37.922  1.00  0.00     0.059 A 
ATOM     87  C   UNL A   1      38.947  34.984  39.160  1.00  0.00     0.059 A 
ATOM     88  F   UNL A   1      38.469  32.851  38.310  1.00  0.00    -0.206 F 
ATOM     89  C   UNL A   1      39.614  36.202  39.034  1.00  0.00     0.060 A 
BRANCH  89  90
ATOM     90  S   UNL A   1      39.430  37.476  40.301  1.00  0.00     0.124 S 
ATOM     91  O   UNL A   1      38.791  36.728  41.378  1.00  0.00    -0.237 OA
ATOM     92  O   UNL A   1      40.813  37.879  40.543  1.00  0.00    -0.237 OA
ATOM     93  O   UNL A   1      38.595  38.481  39.651  1.00  0.00    -0.744 OA
ENDBRANCH  89  90
ENDBRANCH  57  82
ENDBRANCH  31  32
ENDBRANCH  23  26
ENDBRANCH   1  22
TORSDOF 14
ENDMDL
MODEL 3
REMARK VINA RESULT:     -12.4      6.701     12.195
REMARK SMILES Cc1ccc(-c2ncccc2C(=O)NCCCNC(=O)c2ccc(-c3c4nc(c(-c5c(F)cc(S(=O)(=O)[O-])cc5F)c5ccc([nH]5)c(-c5c(F)cc(S(=O)(=O)[O-])cc5F)c5nc(c(-c6c(F)cc(S(=O)(=O)[O-])cc6F)c6ccc3[nH]6)C=C5)C=C4)cc2)c(C)c1
REMARK SMILES IDX 17 1 16 2 15 3 14 4 12 5 13 6 11 8 6 9 7 10 8 11 10 12 9 13
REMARK SMILES IDX 5 14 1 15 2 16 3 17 89 18 4 19 87 20 88 21 18 22 19 23 20 25
REMARK SMILES IDX 21 26 22 27 86 28 23 29 85 30 24 31 25 32 26 33 79 34 27 35
REMARK SMILES IDX 84 36 78 37 80 38 28 39 83 40 77 41 76 42 29 44 63 45 42 46
REMARK SMILES IDX 62 47 43 48 46 49 61 50 81 51 44 52 45 53 60 55 82 56 47 57
REMARK SMILES IDX 30 58 31 59 40 60 32 61 33 62 39 63 41 64 34 65 35 66 36 67
REMARK SMILES IDX 37 68 38 69 64 70 65 71 74 72 66 73 67 74 73 75 75 76 68 77
REMARK SMILES IDX 69 78 70 79 71 80 72 81 48 82 49 83 58 84 50 85 51 86 57 87
REMARK SMILES IDX 59 88 52 89 53 90 54 91 55 92 56 93
REMARK H PARENT 14 7 18 24 80 43 46 54
REMARK Flexibility Score: inf
ROOT
ATOM      1  C   UNL A   1      35.637  31.239  27.978  1.00  0.00     0.118 C 
ENDROOT
BRANCH   1   2
ATOM      2  C   UNL A   1      34.513  30.584  27.167  1.00  0.00     0.042 C 
BRANCH   2   3
ATOM      3  C   UNL A   1      34.459  29.063  27.313  1.00  0.00     0.118 C 
BRANCH   3   4
ATOM      4  N   UNL A   1      33.151  28.623  27.761  1.00  0.00    -0.352 N 
ATOM      5  C   UNL A   1      31.986  28.211  27.169  1.00  0.00     0.253 C 
ATOM      6  O   UNL A   1      31.107  27.925  27.981  1.00  0.00    -0.269 OA
ATOM      7  H   UNL A   1      33.083  28.620  28.743  1.00  0.00     0.163 HD
BRANCH   5   8
ATOM      8  C   UNL A   1      31.760  28.063  25.692  1.00  0.00     0.066 A 
ATOM      9  C   UNL A   1      32.106  26.873  25.014  1.00  0.00     0.083 A 
ATOM     10  N   UNL A   1      32.026  26.746  23.652  1.00  0.00    -0.255 NA
ATOM     11  C   UNL A   1      31.553  27.784  22.940  1.00  0.00     0.112 A 
ATOM     12  C   UNL A   1      31.201  29.080  24.905  1.00  0.00     0.018 A 
ATOM     13  C   UNL A   1      31.112  28.953  23.519  1.00  0.00     0.021 A 
BRANCH   9  14
ATOM     14  C   UNL A   1      32.508  25.604  25.658  1.00  0.00     0.004 A 
ATOM     15  C   UNL A   1      33.883  21.882  27.407  1.00  0.00     0.044 C 
ATOM     16  C   UNL A   1      33.419  23.183  26.826  1.00  0.00    -0.051 A 
ATOM     17  C   UNL A   1      34.333  24.107  26.322  1.00  0.00     0.004 A 
ATOM     18  C   UNL A   1      32.054  23.494  26.790  1.00  0.00     0.007 A 
ATOM     19  C   UNL A   1      33.883  25.304  25.762  1.00  0.00     0.011 A 
ATOM     20  C   UNL A   1      31.585  24.689  26.206  1.00  0.00    -0.041 A 
ATOM     21  C   UNL A   1      30.104  24.956  26.246  1.00  0.00     0.045 C 
ENDBRANCH   9  14
ENDBRANCH   5   8
ENDBRANCH   3   4
ENDBRANCH   2   3
ENDBRANCH   1   2
BRANCH   1  22
ATOM     22  N   UNL A   1      35.498  30.993  29.407  1.00  0.00    -0.352 N 
ATOM     23  C   UNL A   1      36.330  30.340  30.283  1.00  0.00     0.251 C 
ATOM     24  H   UNL A   1      34.675  31.352  29.810  1.00  0.00     0.163 HD
ATOM     25  O   UNL A   1      35.904  30.026  31.390  1.00  0.00    -0.269 OA
BRANCH  23  26
ATOM     26  C   UNL A   1      37.723  30.012  29.907  1.00  0.00     0.039 A 
ATOM     27  C   UNL A   1      38.661  29.795  30.922  1.00  0.00     0.014 A 
ATOM     28  C   UNL A   1      38.124  29.980  28.569  1.00  0.00     0.014 A 
ATOM     29  C   UNL A   1      39.984  29.488  30.594  1.00  0.00     0.010 A 
ATOM     30  C   UNL A   1      39.429  29.616  28.242  1.00  0.00     0.010 A 
ATOM     31  C   UNL A   1      40.372  29.366  29.251  1.00  0.00    -0.014 A 
BRANCH  31  32
ATOM     32  C   UNL A   1      41.752  28.957  28.882  1.00  0.00     0.031 A 
ATOM     33  C   UNL A   1      42.867  29.966  28.858  1.00  0.00     0.074 A 
ATOM     34  C   UNL A   1      41.983  27.684  28.501  1.00  0.00     0.049 A 
ATOM     35  N   UNL A   1      44.111  29.813  28.483  1.00  0.00    -0.248 NA
ATOM     36  C   UNL A   1      42.533  31.334  29.286  1.00  0.00     0.031 C 
ATOM     37  C   UNL A   1      40.975  26.624  28.439  1.00  0.00     0.029 A 
ATOM     38  N   UNL A   1      43.135  27.069  28.079  1.00  0.00    -0.354 N 
ATOM     39  C   UNL A   1      44.704  31.064  28.614  1.00  0.00     0.074 A 
ATOM     40  C   UNL A   1      43.673  31.974  29.062  1.00  0.00     0.031 C 
ATOM     41  C   UNL A   1      41.553  25.489  28.018  1.00  0.00     0.029 A 
ATOM     42  C   UNL A   1      42.964  25.746  27.746  1.00  0.00     0.049 A 
ATOM     43  H   UNL A   1      44.003  27.532  28.019  1.00  0.00     0.167 HD
ATOM     44  C   UNL A   1      45.995  31.416  28.396  1.00  0.00     0.037 A 
ATOM     45  C   UNL A   1      43.841  24.844  27.265  1.00  0.00     0.037 A 
ATOM     46  C   UNL A   1      47.022  30.499  27.974  1.00  0.00     0.049 A 
ATOM     47  C   UNL A   1      45.268  25.257  27.039  1.00  0.00     0.074 A 
ATOM     48  C   UNL A   1      48.373  30.744  27.789  1.00  0.00     0.029 A 
ATOM     49  N   UNL A   1      46.815  29.161  27.670  1.00  0.00    -0.354 N 
ATOM     50  N   UNL A   1      45.825  26.430  27.225  1.00  0.00    -0.248 NA
ATOM     51  C   UNL A   1      46.188  24.225  26.541  1.00  0.00     0.031 C 
ATOM     52  C   UNL A   1      48.974  29.564  27.337  1.00  0.00     0.029 A 
ATOM     53  C   UNL A   1      48.007  28.573  27.281  1.00  0.00     0.049 A 
ATOM     54  H   UNL A   1      45.947  28.698  27.723  1.00  0.00     0.167 HD
ATOM     55  C   UNL A   1      47.164  26.273  26.886  1.00  0.00     0.074 A 
ATOM     56  C   UNL A   1      47.336  24.887  26.498  1.00  0.00     0.031 C 
ATOM     57  C   UNL A   1      48.160  27.191  26.895  1.00  0.00     0.037 A 
BRANCH  44  58
ATOM     58  C   UNL A   1      46.371  32.857  28.616  1.00  0.00     0.058 A 
ATOM     59  C   UNL A   1      46.306  33.800  27.578  1.00  0.00     0.135 A 
ATOM     60  C   UNL A   1      46.771  33.306  29.885  1.00  0.00     0.135 A 
ATOM     61  F   UNL A   1      45.943  33.422  26.342  1.00  0.00    -0.206 F 
ATOM     62  C   UNL A   1      46.650  35.132  27.783  1.00  0.00     0.059 A 
ATOM     63  C   UNL A   1      47.095  34.640  30.119  1.00  0.00     0.059 A 
ATOM     64  F   UNL A   1      46.850  32.447  30.913  1.00  0.00    -0.206 F 
ATOM     65  C   UNL A   1      47.047  35.543  29.057  1.00  0.00     0.060 A 
BRANCH  65  66
ATOM     66  S   UNL A   1      47.492  37.275  29.307  1.00  0.00     0.124 S 
ATOM     67  O   UNL A   1      46.274  37.952  28.870  1.00  0.00    -0.237 OA
ATOM     68  O   UNL A   1      47.763  37.324  30.740  1.00  0.00    -0.237 OA
ATOM     69  O   UNL A   1      48.655  37.456  28.445  1.00  0.00    -0.744 OA
ENDBRANCH  65  66
ENDBRANCH  44  58
BRANCH  45  70
ATOM     70  C   UNL A   1      43.392  23.455  26.984  1.00  0.00     0.058 A 
ATOM     71  C   UNL A   1      43.184  23.019  25.668  1.00  0.00     0.135 A 
ATOM     72  C   UNL A   1      43.188  22.530  28.020  1.00  0.00     0.135 A 
ATOM     73  F   UNL A   1      43.362  23.867  24.644  1.00  0.00    -0.206 F 
ATOM     74  C   UNL A   1      42.780  21.718  25.387  1.00  0.00     0.059 A 
ATOM     75  C   UNL A   1      42.804  21.218  27.763  1.00  0.00     0.059 A 
ATOM     76  F   UNL A   1      43.390  22.895  29.296  1.00  0.00    -0.206 F 
ATOM     77  C   UNL A   1      42.595  20.823  26.442  1.00  0.00     0.060 A 
BRANCH  77  78
ATOM     78  S   UNL A   1      42.130  19.120  26.065  1.00  0.00     0.124 S 
ATOM     79  O   UNL A   1      40.708  19.262  25.772  1.00  0.00    -0.237 OA
ATOM     80  O   UNL A   1      42.989  18.812  24.925  1.00  0.00    -0.237 OA
ATOM     81  O   UNL A   1      42.455  18.404  27.294  1.00  0.00    -0.744 OA
ENDBRANCH  77  78
ENDBRANCH  45  70
BRANCH  57  82
ATOM     82  C   UNL A   1      49.531  26.725  26.492  1.00  0.00     0.058 A 
ATOM     83  C   UNL A   1      50.390  26.094  27.404  1.00  0.00     0.135 A 
ATOM     84  C   UNL A   1      49.973  26.873  25.167  1.00  0.00     0.135 A 
ATOM     85  F   UNL A   1      50.017  25.936  28.685  1.00  0.00    -0.206 F 
ATOM     86  C   UNL A   1      51.649  25.643  27.024  1.00  0.00     0.059 A 
ATOM     87  C   UNL A   1      51.218  26.407  24.759  1.00  0.00     0.059 A 
ATOM     88  F   UNL A   1      49.185  27.463  24.253  1.00  0.00    -0.206 F 
ATOM     89  C   UNL A   1      52.055  25.804  25.697  1.00  0.00     0.060 A 
BRANCH  89  90
ATOM     90  S   UNL A   1      53.679  25.187  25.206  1.00  0.00     0.124 S 
ATOM     91  O   UNL A   1      54.557  25.917  26.114  1.00  0.00    -0.237 OA
ATOM     92  O   UNL A   1      53.558  23.753  25.456  1.00  0.00    -0.237 OA
ATOM     93  O   UNL A   1      53.773  25.566  23.799  1.00  0.00    -0.744 OA
ENDBRANCH  89  90
ENDBRANCH  57  82
ENDBRANCH  31  32
ENDBRANCH  23  26
ENDBRANCH   1  22
TORSDOF 14
ENDMDL
