MODEL 1
REMARK VINA RESULT:     -14.0      0.000      0.000
REMARK SMILES O=C(NCCCNC(=O)[C@H](c1c[nH]c2ccc(Br)cc12)[N@H+]1CCC[C@H](c2nc3ccccc3s2)C1)c1ccc(-c2c3nc(c(-c4c(F)cc(S(=O)(=O)[O-])cc4F)c4ccc([nH]4)c(-c4c(F)cc(S(=O)(=O)[O-])cc4F)c4nc(c(-c5c(F)cc(S(=O)(=O)[O-])cc5F)c5ccc2[nH]5)C=C4)C=C3)cc1
REMARK SMILES IDX 4 1 3 2 1 3 2 4 36 6 37 7 101 8 38 9 100 10 39 11 40 12
REMARK SMILES IDX 41 13 94 14 42 15 99 16 93 17 95 18 43 19 98 20 92 21 91 22
REMARK SMILES IDX 44 24 78 25 57 26 77 27 58 28 61 29 76 30 96 31 59 32 60 33
REMARK SMILES IDX 75 35 97 36 62 37 45 38 46 39 55 40 47 41 48 42 54 43 56 44
REMARK SMILES IDX 49 45 50 46 51 47 52 48 53 49 79 50 80 51 89 52 81 53 82 54
REMARK SMILES IDX 88 55 90 56 83 57 84 58 85 59 86 60 87 61 63 62 64 63 73 64
REMARK SMILES IDX 65 65 66 66 72 67 74 68 67 69 68 70 69 71 70 72 71 73 5 74
REMARK SMILES IDX 6 75 7 76 8 77 9 79 10 80 21 81 22 82 35 83 23 85 25 86
REMARK SMILES IDX 24 87 26 88 27 89 34 90 28 91 33 92 29 93 32 94 30 95 31 96
REMARK SMILES IDX 11 97 12 98 20 99 13 100 14 101 19 102 15 104 17 105 16 106
REMARK SMILES IDX 18 107
REMARK H PARENT 3 5 95 23 61 34 7 78 21 84 13 103
REMARK Flexibility Score: inf
ROOT
ATOM      1  C   UNL A   1      38.561  23.997  26.733  1.00  0.00     0.118 C 
ENDROOT
BRANCH   1   2
ATOM      2  N   UNL A   1      39.728  24.416  25.961  1.00  0.00    -0.352 N 
ATOM      3  O   UNL A   1      41.333  25.814  25.230  1.00  0.00    -0.269 OA
ATOM      4  C   UNL A   1      40.543  25.510  26.122  1.00  0.00     0.251 C 
ATOM      5  H   UNL A   1      39.967  23.825  25.211  1.00  0.00     0.163 HD
BRANCH   4   6
ATOM      6  C   UNL A   1      40.461  26.313  27.358  1.00  0.00     0.039 A 
ATOM      7  C   UNL A   1      41.196  27.493  27.473  1.00  0.00     0.014 A 
ATOM      8  C   UNL A   1      39.625  25.904  28.401  1.00  0.00     0.014 A 
ATOM      9  C   UNL A   1      41.226  28.174  28.677  1.00  0.00     0.010 A 
ATOM     10  C   UNL A   1      39.552  26.668  29.570  1.00  0.00     0.010 A 
ATOM     11  C   UNL A   1      40.365  27.800  29.721  1.00  0.00    -0.014 A 
BRANCH  11  12
ATOM     12  C   UNL A   1      40.265  28.704  30.891  1.00  0.00     0.031 A 
ATOM     13  C   UNL A   1      41.197  28.584  32.059  1.00  0.00     0.074 A 
ATOM     14  C   UNL A   1      39.346  29.690  30.835  1.00  0.00     0.049 A 
ATOM     15  N   UNL A   1      41.270  29.337  33.126  1.00  0.00    -0.248 NA
ATOM     16  C   UNL A   1      42.168  27.477  32.039  1.00  0.00     0.031 C 
ATOM     17  C   UNL A   1      38.378  29.876  29.747  1.00  0.00     0.029 A 
ATOM     18  N   UNL A   1      39.093  30.738  31.679  1.00  0.00    -0.354 N 
ATOM     19  C   UNL A   1      42.283  28.797  33.908  1.00  0.00     0.074 A 
ATOM     20  C   UNL A   1      42.779  27.631  33.207  1.00  0.00     0.031 C 
ATOM     21  C   UNL A   1      37.689  31.006  29.954  1.00  0.00     0.029 A 
ATOM     22  C   UNL A   1      38.103  31.579  31.226  1.00  0.00     0.049 A 
ATOM     23  H   UNL A   1      39.574  30.877  32.527  1.00  0.00     0.167 HD
ATOM     24  C   UNL A   1      42.754  29.243  35.096  1.00  0.00     0.037 A 
ATOM     25  C   UNL A   1      37.568  32.679  31.785  1.00  0.00     0.037 A 
ATOM     26  C   UNL A   1      42.248  30.412  35.773  1.00  0.00     0.049 A 
ATOM     27  C   UNL A   1      38.103  33.136  33.109  1.00  0.00     0.074 A 
ATOM     28  C   UNL A   1      42.660  30.955  36.978  1.00  0.00     0.029 A 
ATOM     29  N   UNL A   1      41.221  31.220  35.304  1.00  0.00    -0.354 N 
ATOM     30  N   UNL A   1      39.071  32.618  33.827  1.00  0.00    -0.248 NA
ATOM     31  C   UNL A   1      37.474  34.321  33.703  1.00  0.00     0.031 C 
ATOM     32  C   UNL A   1      41.855  32.065  37.258  1.00  0.00     0.029 A 
ATOM     33  C   UNL A   1      40.976  32.247  36.202  1.00  0.00     0.049 A 
ATOM     34  H   UNL A   1      40.739  31.085  34.457  1.00  0.00     0.167 HD
ATOM     35  C   UNL A   1      39.170  33.417  34.959  1.00  0.00     0.074 A 
ATOM     36  C   UNL A   1      38.190  34.474  34.807  1.00  0.00     0.031 C 
ATOM     37  C   UNL A   1      39.988  33.283  36.031  1.00  0.00     0.037 A 
BRANCH  24  38
ATOM     38  C   UNL A   1      43.869  28.472  35.750  1.00  0.00     0.058 A 
ATOM     39  C   UNL A   1      45.216  28.800  35.535  1.00  0.00     0.135 A 
ATOM     40  C   UNL A   1      43.585  27.441  36.662  1.00  0.00     0.135 A 
ATOM     41  F   UNL A   1      45.546  29.762  34.660  1.00  0.00    -0.206 F 
ATOM     42  C   UNL A   1      46.243  28.130  36.195  1.00  0.00     0.059 A 
ATOM     43  C   UNL A   1      44.595  26.774  37.351  1.00  0.00     0.059 A 
ATOM     44  F   UNL A   1      42.314  27.083  36.902  1.00  0.00    -0.206 F 
ATOM     45  C   UNL A   1      45.921  27.122  37.106  1.00  0.00     0.060 A 
BRANCH  45  46
ATOM     46  S   UNL A   1      47.266  26.290  37.979  1.00  0.00     0.124 S 
ATOM     47  O   UNL A   1      48.407  27.124  37.618  1.00  0.00    -0.237 OA
ATOM     48  O   UNL A   1      46.834  26.375  39.369  1.00  0.00    -0.237 OA
ATOM     49  O   UNL A   1      47.265  24.948  37.406  1.00  0.00    -0.744 OA
ENDBRANCH  45  46
ENDBRANCH  24  38
BRANCH  25  50
ATOM     50  C   UNL A   1      36.447  33.388  31.112  1.00  0.00     0.058 A 
ATOM     51  C   UNL A   1      36.658  34.167  29.966  1.00  0.00     0.135 A 
ATOM     52  C   UNL A   1      35.136  33.296  31.607  1.00  0.00     0.135 A 
ATOM     53  F   UNL A   1      37.892  34.286  29.452  1.00  0.00    -0.206 F 
ATOM     54  C   UNL A   1      35.616  34.857  29.353  1.00  0.00     0.059 A 
ATOM     55  C   UNL A   1      34.073  33.946  30.993  1.00  0.00     0.059 A 
ATOM     56  F   UNL A   1      34.876  32.542  32.688  1.00  0.00    -0.206 F 
ATOM     57  C   UNL A   1      34.326  34.741  29.878  1.00  0.00     0.060 A 
BRANCH  57  58
ATOM     58  S   UNL A   1      32.976  35.628  29.074  1.00  0.00     0.124 S 
ATOM     59  O   UNL A   1      32.441  34.602  28.188  1.00  0.00    -0.237 OA
ATOM     60  O   UNL A   1      32.133  36.001  30.205  1.00  0.00    -0.237 OA
ATOM     61  O   UNL A   1      33.654  36.741  28.415  1.00  0.00    -0.744 OA
ENDBRANCH  57  58
ENDBRANCH  25  50
BRANCH  37  62
ATOM     62  C   UNL A   1      39.857  34.322  37.110  1.00  0.00     0.058 A 
ATOM     63  C   UNL A   1      40.513  35.559  37.021  1.00  0.00     0.135 A 
ATOM     64  C   UNL A   1      39.066  34.075  38.242  1.00  0.00     0.135 A 
ATOM     65  F   UNL A   1      41.288  35.838  35.960  1.00  0.00    -0.206 F 
ATOM     66  C   UNL A   1      40.425  36.501  38.039  1.00  0.00     0.059 A 
ATOM     67  C   UNL A   1      38.938  35.015  39.259  1.00  0.00     0.059 A 
ATOM     68  F   UNL A   1      38.410  32.911  38.371  1.00  0.00    -0.206 F 
ATOM     69  C   UNL A   1      39.638  36.218  39.157  1.00  0.00     0.060 A 
BRANCH  69  70
ATOM     70  S   UNL A   1      39.531  37.448  40.472  1.00  0.00     0.124 S 
ATOM     71  O   UNL A   1      40.939  37.727  40.727  1.00  0.00    -0.237 OA
ATOM     72  O   UNL A   1      38.776  38.523  39.835  1.00  0.00    -0.237 OA
ATOM     73  O   UNL A   1      38.826  36.743  41.538  1.00  0.00    -0.744 OA
ENDBRANCH  69  70
ENDBRANCH  37  62
ENDBRANCH  11  12
ENDBRANCH   4   6
ENDBRANCH   1   2
BRANCH   1  74
ATOM     74  C   UNL A   1      37.303  23.986  25.889  1.00  0.00     0.042 C 
BRANCH  74  75
ATOM     75  C   UNL A   1      37.275  22.818  24.918  1.00  0.00     0.118 C 
BRANCH  75  76
ATOM     76  N   UNL A   1      36.317  22.964  23.845  1.00  0.00    -0.351 N 
ATOM     77  C   UNL A   1      34.980  22.914  23.652  1.00  0.00     0.283 C 
ATOM     78  H   UNL A   1      36.778  23.157  22.998  1.00  0.00     0.163 HD
ATOM     79  O   UNL A   1      34.718  23.271  22.484  1.00  0.00    -0.268 OA
BRANCH  77  80
ATOM     80  C   UNL A   1      33.817  22.343  24.553  1.00  0.00     0.307 C 
BRANCH  80  81
ATOM     81  N   UNL A   1      32.749  23.172  25.163  1.00  0.00    -0.320 N 
ATOM     82  C   UNL A   1      31.602  22.383  25.614  1.00  0.00     0.263 C 
ATOM     83  C   UNL A   1      33.090  24.275  26.032  1.00  0.00     0.274 C 
ATOM     84  H   UNL A   1      32.471  23.719  24.348  1.00  0.00     0.349 HD
ATOM     85  C   UNL A   1      30.404  23.246  26.030  1.00  0.00     0.062 C 
ATOM     86  C   UNL A   1      31.941  25.196  26.489  1.00  0.00     0.104 C 
ATOM     87  C   UNL A   1      30.797  24.330  27.028  1.00  0.00     0.022 C 
BRANCH  86  88
ATOM     88  C   UNL A   1      31.528  26.163  25.415  1.00  0.00     0.103 A 
ATOM     89  N   UNL A   1      30.295  26.323  24.992  1.00  0.00    -0.241 NA
ATOM     90  S   UNL A   1      32.713  27.086  24.572  1.00  0.00    -0.118 S 
ATOM     91  C   UNL A   1      30.239  27.313  24.037  1.00  0.00     0.082 A 
ATOM     92  C   UNL A   1      31.468  27.859  23.672  1.00  0.00     0.055 A 
ATOM     93  C   UNL A   1      29.066  27.797  23.429  1.00  0.00     0.030 A 
ATOM     94  C   UNL A   1      31.569  28.878  22.713  1.00  0.00     0.021 A 
ATOM     95  C   UNL A   1      29.151  28.823  22.485  1.00  0.00     0.002 A 
ATOM     96  C   UNL A   1      30.389  29.355  22.134  1.00  0.00     0.002 A 
ENDBRANCH  86  88
ENDBRANCH  80  81
BRANCH  80  97
ATOM     97  C   UNL A   1      33.076  21.309  23.697  1.00  0.00     0.044 A 
ATOM     98  C   UNL A   1      32.180  21.604  22.679  1.00  0.00     0.094 A 
ATOM     99  C   UNL A   1      33.226  19.877  23.699  1.00  0.00     0.010 A 
ATOM    100  N   UNL A   1      31.833  20.445  22.051  1.00  0.00    -0.361 N 
ATOM    101  C   UNL A   1      32.451  19.375  22.648  1.00  0.00     0.046 A 
ATOM    102  C   UNL A   1      33.970  18.961  24.472  1.00  0.00     0.026 A 
ATOM    103  H   UNL A   1      31.224  20.385  21.278  1.00  0.00     0.166 HD
ATOM    104  C   UNL A   1      32.390  18.014  22.321  1.00  0.00     0.028 A 
ATOM    105  C   UNL A   1      33.905  17.596  24.163  1.00  0.00     0.018 A 
ATOM    106  C   UNL A   1      33.132  17.127  23.103  1.00  0.00     0.018 A 
ATOM    107  Br  UNL A   1      34.890  16.359  25.205  1.00  0.00    -0.051 Br
ENDBRANCH  80  97
ENDBRANCH  77  80
ENDBRANCH  75  76
ENDBRANCH  74  75
ENDBRANCH   1  74
TORSDOF 16
ENDMDL
MODEL 2
REMARK VINA RESULT:     -13.8      5.005      9.383
REMARK SMILES O=C(NCCCNC(=O)[C@H](c1c[nH]c2ccc(Br)cc12)[N@H+]1CCC[C@H](c2nc3ccccc3s2)C1)c1ccc(-c2c3nc(c(-c4c(F)cc(S(=O)(=O)[O-])cc4F)c4ccc([nH]4)c(-c4c(F)cc(S(=O)(=O)[O-])cc4F)c4nc(c(-c5c(F)cc(S(=O)(=O)[O-])cc5F)c5ccc2[nH]5)C=C4)C=C3)cc1
REMARK SMILES IDX 4 1 3 2 1 3 2 4 36 6 37 7 101 8 38 9 100 10 39 11 40 12
REMARK SMILES IDX 41 13 94 14 42 15 99 16 93 17 95 18 43 19 98 20 92 21 91 22
REMARK SMILES IDX 44 24 78 25 57 26 77 27 58 28 61 29 76 30 96 31 59 32 60 33
REMARK SMILES IDX 75 35 97 36 62 37 45 38 46 39 55 40 47 41 48 42 54 43 56 44
REMARK SMILES IDX 49 45 50 46 51 47 52 48 53 49 79 50 80 51 89 52 81 53 82 54
REMARK SMILES IDX 88 55 90 56 83 57 84 58 85 59 86 60 87 61 63 62 64 63 73 64
REMARK SMILES IDX 65 65 66 66 72 67 74 68 67 69 68 70 69 71 70 72 71 73 5 74
REMARK SMILES IDX 6 75 7 76 8 77 9 79 10 80 21 81 22 82 35 83 23 85 25 86
REMARK SMILES IDX 24 87 26 88 27 89 34 90 28 91 33 92 29 93 32 94 30 95 31 96
REMARK SMILES IDX 11 97 12 98 20 99 13 100 14 101 19 102 15 104 17 105 16 106
REMARK SMILES IDX 18 107
REMARK H PARENT 3 5 95 23 61 34 7 78 21 84 13 103
REMARK Flexibility Score: inf
ROOT
ATOM      1  C   UNL A   1      33.740  28.341  27.262  1.00  0.00     0.118 C 
ENDROOT
BRANCH   1   2
ATOM      2  N   UNL A   1      33.610  29.762  27.572  1.00  0.00    -0.352 N 
ATOM      3  O   UNL A   1      34.096  31.713  28.582  1.00  0.00    -0.269 OA
ATOM      4  C   UNL A   1      34.483  30.606  28.212  1.00  0.00     0.251 C 
ATOM      5  H   UNL A   1      32.769  30.178  27.276  1.00  0.00     0.163 HD
BRANCH   4   6
ATOM      6  C   UNL A   1      35.875  30.179  28.454  1.00  0.00     0.039 A 
ATOM      7  C   UNL A   1      36.827  30.296  27.441  1.00  0.00     0.014 A 
ATOM      8  C   UNL A   1      36.245  29.686  29.710  1.00  0.00     0.014 A 
ATOM      9  C   UNL A   1      38.095  29.772  27.621  1.00  0.00     0.010 A 
ATOM     10  C   UNL A   1      37.565  29.282  29.934  1.00  0.00     0.010 A 
ATOM     11  C   UNL A   1      38.495  29.309  28.884  1.00  0.00    -0.014 A 
BRANCH  11  12
ATOM     12  C   UNL A   1      39.928  28.987  29.081  1.00  0.00     0.031 A 
ATOM     13  C   UNL A   1      40.495  27.655  28.691  1.00  0.00     0.074 A 
ATOM     14  C   UNL A   1      40.723  29.966  29.559  1.00  0.00     0.049 A 
ATOM     15  N   UNL A   1      41.737  27.248  28.748  1.00  0.00    -0.248 NA
ATOM     16  C   UNL A   1      39.556  26.643  28.181  1.00  0.00     0.031 C 
ATOM     17  C   UNL A   1      40.259  31.292  29.987  1.00  0.00     0.029 A 
ATOM     18  N   UNL A   1      42.080  30.025  29.733  1.00  0.00    -0.354 N 
ATOM     19  C   UNL A   1      41.732  25.937  28.291  1.00  0.00     0.074 A 
ATOM     20  C   UNL A   1      40.357  25.602  27.988  1.00  0.00     0.031 C 
ATOM     21  C   UNL A   1      41.315  32.052  30.304  1.00  0.00     0.029 A 
ATOM     22  C   UNL A   1      42.521  31.245  30.186  1.00  0.00     0.049 A 
ATOM     23  H   UNL A   1      42.681  29.266  29.552  1.00  0.00     0.167 HD
ATOM     24  C   UNL A   1      42.784  25.099  28.135  1.00  0.00     0.037 A 
ATOM     25  C   UNL A   1      43.761  31.666  30.497  1.00  0.00     0.037 A 
ATOM     26  C   UNL A   1      44.148  25.456  28.439  1.00  0.00     0.049 A 
ATOM     27  C   UNL A   1      44.900  30.707  30.327  1.00  0.00     0.074 A 
ATOM     28  C   UNL A   1      45.290  24.684  28.310  1.00  0.00     0.029 A 
ATOM     29  N   UNL A   1      44.556  26.690  28.928  1.00  0.00    -0.354 N 
ATOM     30  N   UNL A   1      44.877  29.473  29.881  1.00  0.00    -0.248 NA
ATOM     31  C   UNL A   1      46.233  31.190  30.706  1.00  0.00     0.031 C 
ATOM     32  C   UNL A   1      46.381  25.435  28.760  1.00  0.00     0.029 A 
ATOM     33  C   UNL A   1      45.928  26.694  29.121  1.00  0.00     0.049 A 
ATOM     34  H   UNL A   1      43.959  27.451  29.111  1.00  0.00     0.167 HD
ATOM     35  C   UNL A   1      46.193  29.032  29.922  1.00  0.00     0.074 A 
ATOM     36  C   UNL A   1      46.989  30.146  30.399  1.00  0.00     0.031 C 
ATOM     37  C   UNL A   1      46.697  27.815  29.606  1.00  0.00     0.037 A 
BRANCH  24  38
ATOM     38  C   UNL A   1      42.513  23.712  27.618  1.00  0.00     0.058 A 
ATOM     39  C   UNL A   1      42.457  23.435  26.243  1.00  0.00     0.135 A 
ATOM     40  C   UNL A   1      42.384  22.631  28.507  1.00  0.00     0.135 A 
ATOM     41  F   UNL A   1      42.554  24.432  25.349  1.00  0.00    -0.206 F 
ATOM     42  C   UNL A   1      42.275  22.140  25.768  1.00  0.00     0.059 A 
ATOM     43  C   UNL A   1      42.226  21.324  28.053  1.00  0.00     0.059 A 
ATOM     44  F   UNL A   1      42.426  22.838  29.832  1.00  0.00    -0.206 F 
ATOM     45  C   UNL A   1      42.167  21.090  26.680  1.00  0.00     0.060 A 
BRANCH  45  46
ATOM     46  S   UNL A   1      41.968  19.412  26.042  1.00  0.00     0.124 S 
ATOM     47  O   UNL A   1      42.451  18.614  27.164  1.00  0.00    -0.237 OA
ATOM     48  O   UNL A   1      40.534  19.344  25.787  1.00  0.00    -0.237 OA
ATOM     49  O   UNL A   1      42.816  19.397  24.853  1.00  0.00    -0.744 OA
ENDBRANCH  45  46
ENDBRANCH  24  38
BRANCH  25  50
ATOM     50  C   UNL A   1      43.971  33.037  31.033  1.00  0.00     0.058 A 
ATOM     51  C   UNL A   1      43.917  33.301  32.408  1.00  0.00     0.135 A 
ATOM     52  C   UNL A   1      44.231  34.115  30.170  1.00  0.00     0.135 A 
ATOM     53  F   UNL A   1      43.673  32.306  33.275  1.00  0.00    -0.206 F 
ATOM     54  C   UNL A   1      44.081  34.589  32.909  1.00  0.00     0.059 A 
ATOM     55  C   UNL A   1      44.434  35.403  30.648  1.00  0.00     0.059 A 
ATOM     56  F   UNL A   1      44.317  33.912  28.846  1.00  0.00    -0.206 F 
ATOM     57  C   UNL A   1      44.337  35.635  32.018  1.00  0.00     0.060 A 
BRANCH  57  58
ATOM     58  S   UNL A   1      44.560  37.301  32.673  1.00  0.00     0.124 S 
ATOM     59  O   UNL A   1      43.540  37.345  33.713  1.00  0.00    -0.237 OA
ATOM     60  O   UNL A   1      45.944  37.269  33.135  1.00  0.00    -0.237 OA
ATOM     61  O   UNL A   1      44.316  38.152  31.512  1.00  0.00    -0.744 OA
ENDBRANCH  57  58
ENDBRANCH  25  50
BRANCH  37  62
ATOM     62  C   UNL A   1      48.182  27.643  29.755  1.00  0.00     0.058 A 
ATOM     63  C   UNL A   1      49.062  27.901  28.692  1.00  0.00     0.135 A 
ATOM     64  C   UNL A   1      48.730  27.216  30.974  1.00  0.00     0.135 A 
ATOM     65  F   UNL A   1      48.585  28.303  27.503  1.00  0.00    -0.206 F 
ATOM     66  C   UNL A   1      50.431  27.701  28.820  1.00  0.00     0.059 A 
ATOM     67  C   UNL A   1      50.100  27.039  31.135  1.00  0.00     0.059 A 
ATOM     68  F   UNL A   1      47.933  26.964  32.025  1.00  0.00    -0.206 F 
ATOM     69  C   UNL A   1      50.940  27.265  30.044  1.00  0.00     0.060 A 
BRANCH  69  70
ATOM     70  S   UNL A   1      52.720  27.009  30.199  1.00  0.00     0.124 S 
ATOM     71  O   UNL A   1      53.143  28.260  30.816  1.00  0.00    -0.237 OA
ATOM     72  O   UNL A   1      52.793  25.825  31.050  1.00  0.00    -0.237 OA
ATOM     73  O   UNL A   1      53.154  26.809  28.820  1.00  0.00    -0.744 OA
ENDBRANCH  69  70
ENDBRANCH  37  62
ENDBRANCH  11  12
ENDBRANCH   4   6
ENDBRANCH   1   2
BRANCH   1  74
ATOM     74  C   UNL A   1      32.760  27.907  26.191  1.00  0.00     0.042 C 
BRANCH  74  75
ATOM     75  C   UNL A   1      31.428  27.469  26.776  1.00  0.00     0.118 C 
BRANCH  75  76
ATOM     76  N   UNL A   1      31.362  26.063  27.107  1.00  0.00    -0.351 N 
ATOM     77  C   UNL A   1      31.726  24.871  26.586  1.00  0.00     0.283 C 
ATOM     78  H   UNL A   1      30.915  25.936  27.974  1.00  0.00     0.163 HD
ATOM     79  O   UNL A   1      31.517  23.971  27.428  1.00  0.00    -0.268 OA
BRANCH  77  80
ATOM     80  C   UNL A   1      32.168  24.461  25.128  1.00  0.00     0.307 C 
BRANCH  80  81
ATOM     81  N   UNL A   1      32.233  25.398  23.980  1.00  0.00    -0.320 N 
ATOM     82  C   UNL A   1      33.594  25.856  23.695  1.00  0.00     0.263 C 
ATOM     83  C   UNL A   1      31.425  25.169  22.805  1.00  0.00     0.274 C 
ATOM     84  H   UNL A   1      31.700  26.178  24.366  1.00  0.00     0.349 HD
ATOM     85  C   UNL A   1      33.643  26.995  22.669  1.00  0.00     0.062 C 
ATOM     86  C   UNL A   1      31.414  26.272  21.728  1.00  0.00     0.104 C 
ATOM     87  C   UNL A   1      32.861  26.661  21.403  1.00  0.00     0.022 C 
BRANCH  86  88
ATOM     88  C   UNL A   1      30.536  27.430  22.112  1.00  0.00     0.103 A 
ATOM     89  N   UNL A   1      30.672  28.653  21.649  1.00  0.00    -0.241 NA
ATOM     90  S   UNL A   1      29.312  27.237  23.307  1.00  0.00    -0.118 S 
ATOM     91  C   UNL A   1      29.688  29.471  22.156  1.00  0.00     0.082 A 
ATOM     92  C   UNL A   1      28.837  28.874  23.085  1.00  0.00     0.055 A 
ATOM     93  C   UNL A   1      29.488  30.820  21.810  1.00  0.00     0.030 A 
ATOM     94  C   UNL A   1      27.786  29.582  23.685  1.00  0.00     0.021 A 
ATOM     95  C   UNL A   1      28.434  31.531  22.388  1.00  0.00     0.002 A 
ATOM     96  C   UNL A   1      27.595  30.917  23.314  1.00  0.00     0.002 A 
ENDBRANCH  86  88
ENDBRANCH  80  81
BRANCH  80  97
ATOM     97  C   UNL A   1      33.584  23.887  25.252  1.00  0.00     0.044 A 
ATOM     98  C   UNL A   1      34.705  24.594  25.664  1.00  0.00     0.094 A 
ATOM     99  C   UNL A   1      34.013  22.524  25.073  1.00  0.00     0.010 A 
ATOM    100  N   UNL A   1      35.750  23.728  25.788  1.00  0.00    -0.361 N 
ATOM    101  C   UNL A   1      35.362  22.459  25.435  1.00  0.00     0.046 A 
ATOM    102  C   UNL A   1      33.376  21.330  24.670  1.00  0.00     0.026 A 
ATOM    103  H   UNL A   1      36.654  23.978  26.088  1.00  0.00     0.166 HD
ATOM    104  C   UNL A   1      36.103  21.270  25.428  1.00  0.00     0.028 A 
ATOM    105  C   UNL A   1      34.111  20.139  24.645  1.00  0.00     0.018 A 
ATOM    106  C   UNL A   1      35.452  20.105  25.021  1.00  0.00     0.018 A 
ATOM    107  Br  UNL A   1      33.268  18.537  24.091  1.00  0.00    -0.051 Br
ENDBRANCH  80  97
ENDBRANCH  77  80
ENDBRANCH  75  76
ENDBRANCH  74  75
ENDBRANCH   1  74
TORSDOF 16
ENDMDL
MODEL 3
REMARK VINA RESULT:     -13.8      5.414     10.313
REMARK SMILES O=C(NCCCNC(=O)[C@H](c1c[nH]c2ccc(Br)cc12)[N@H+]1CCC[C@H](c2nc3ccccc3s2)C1)c1ccc(-c2c3nc(c(-c4c(F)cc(S(=O)(=O)[O-])cc4F)c4ccc([nH]4)c(-c4c(F)cc(S(=O)(=O)[O-])cc4F)c4nc(c(-c5c(F)cc(S(=O)(=O)[O-])cc5F)c5ccc2[nH]5)C=C4)C=C3)cc1
REMARK SMILES IDX 4 1 3 2 1 3 2 4 36 6 37 7 101 8 38 9 100 10 39 11 40 12
REMARK SMILES IDX 41 13 94 14 42 15 99 16 93 17 95 18 43 19 98 20 92 21 91 22
REMARK SMILES IDX 44 24 78 25 57 26 77 27 58 28 61 29 76 30 96 31 59 32 60 33
REMARK SMILES IDX 75 35 97 36 62 37 45 38 46 39 55 40 47 41 48 42 54 43 56 44
REMARK SMILES IDX 49 45 50 46 51 47 52 48 53 49 79 50 80 51 89 52 81 53 82 54
REMARK SMILES IDX 88 55 90 56 83 57 84 58 85 59 86 60 87 61 63 62 64 63 73 64
REMARK SMILES IDX 65 65 66 66 72 67 74 68 67 69 68 70 69 71 70 72 71 73 5 74
REMARK SMILES IDX 6 75 7 76 8 77 9 79 10 80 21 81 22 82 35 83 23 85 25 86
REMARK SMILES IDX 24 87 26 88 27 89 34 90 28 91 33 92 29 93 32 94 30 95 31 96
REMARK SMILES IDX 11 97 12 98 20 99 13 100 14 101 19 102 15 104 17 105 16 106
REMARK SMILES IDX 18 107
REMARK H PARENT 3 5 95 23 61 34 7 78 21 84 13 103
REMARK Flexibility Score: inf
ROOT
ATOM      1  C   UNL A   1      33.999  28.605  27.285  1.00  0.00     0.118 C 
ENDROOT
BRANCH   1   2
ATOM      2  N   UNL A   1      33.887  29.991  27.733  1.00  0.00    -0.352 N 
ATOM      3  O   UNL A   1      34.398  31.825  28.932  1.00  0.00    -0.269 OA
ATOM      4  C   UNL A   1      34.771  30.756  28.454  1.00  0.00     0.251 C 
ATOM      5  H   UNL A   1      33.052  30.445  27.481  1.00  0.00     0.163 HD
BRANCH   4   6
ATOM      6  C   UNL A   1      36.157  30.289  28.652  1.00  0.00     0.039 A 
ATOM      7  C   UNL A   1      37.098  30.444  27.633  1.00  0.00     0.014 A 
ATOM      8  C   UNL A   1      36.533  29.719  29.872  1.00  0.00     0.014 A 
ATOM      9  C   UNL A   1      38.357  29.886  27.766  1.00  0.00     0.010 A 
ATOM     10  C   UNL A   1      37.847  29.278  30.055  1.00  0.00     0.010 A 
ATOM     11  C   UNL A   1      38.764  29.345  28.995  1.00  0.00    -0.014 A 
BRANCH  11  12
ATOM     12  C   UNL A   1      40.193  28.985  29.153  1.00  0.00     0.031 A 
ATOM     13  C   UNL A   1      40.714  27.640  28.744  1.00  0.00     0.074 A 
ATOM     14  C   UNL A   1      41.025  29.940  29.614  1.00  0.00     0.049 A 
ATOM     15  N   UNL A   1      41.946  27.201  28.767  1.00  0.00    -0.248 NA
ATOM     16  C   UNL A   1      39.736  26.655  28.254  1.00  0.00     0.031 C 
ATOM     17  C   UNL A   1      40.607  31.276  30.059  1.00  0.00     0.029 A 
ATOM     18  N   UNL A   1      42.387  29.963  29.753  1.00  0.00    -0.354 N 
ATOM     19  C   UNL A   1      41.895  25.892  28.306  1.00  0.00     0.074 A 
ATOM     20  C   UNL A   1      40.504  25.594  28.037  1.00  0.00     0.031 C 
ATOM     21  C   UNL A   1      41.691  32.007  30.351  1.00  0.00     0.029 A 
ATOM     22  C   UNL A   1      42.872  31.169  30.199  1.00  0.00     0.049 A 
ATOM     23  H   UNL A   1      42.963  29.189  29.553  1.00  0.00     0.167 HD
ATOM     24  C   UNL A   1      42.920  25.027  28.119  1.00  0.00     0.037 A 
ATOM     25  C   UNL A   1      44.130  31.556  30.479  1.00  0.00     0.037 A 
ATOM     26  C   UNL A   1      44.300  25.348  28.388  1.00  0.00     0.049 A 
ATOM     27  C   UNL A   1      45.239  30.568  30.276  1.00  0.00     0.074 A 
ATOM     28  C   UNL A   1      45.418  24.547  28.226  1.00  0.00     0.029 A 
ATOM     29  N   UNL A   1      44.753  26.568  28.871  1.00  0.00    -0.354 N 
ATOM     30  N   UNL A   1      45.172  29.337  29.826  1.00  0.00    -0.248 NA
ATOM     31  C   UNL A   1      46.593  31.014  30.621  1.00  0.00     0.031 C 
ATOM     32  C   UNL A   1      46.540  25.266  28.651  1.00  0.00     0.029 A 
ATOM     33  C   UNL A   1      46.130  26.535  29.029  1.00  0.00     0.049 A 
ATOM     34  H   UNL A   1      44.181  27.343  29.072  1.00  0.00     0.167 HD
ATOM     35  C   UNL A   1      46.476  28.862  29.831  1.00  0.00     0.074 A 
ATOM     36  C   UNL A   1      47.314  29.952  30.291  1.00  0.00     0.031 C 
ATOM     37  C   UNL A   1      46.940  27.633  29.497  1.00  0.00     0.037 A 
BRANCH  24  38
ATOM     38  C   UNL A   1      42.599  23.650  27.603  1.00  0.00     0.058 A 
ATOM     39  C   UNL A   1      42.558  23.368  26.229  1.00  0.00     0.135 A 
ATOM     40  C   UNL A   1      42.406  22.581  28.495  1.00  0.00     0.135 A 
ATOM     41  F   UNL A   1      42.717  24.354  25.332  1.00  0.00    -0.206 F 
ATOM     42  C   UNL A   1      42.330  22.079  25.757  1.00  0.00     0.059 A 
ATOM     43  C   UNL A   1      42.199  21.280  28.045  1.00  0.00     0.059 A 
ATOM     44  F   UNL A   1      42.429  22.795  29.820  1.00  0.00    -0.206 F 
ATOM     45  C   UNL A   1      42.158  21.040  26.673  1.00  0.00     0.060 A 
BRANCH  45  46
ATOM     46  S   UNL A   1      41.899  19.368  26.040  1.00  0.00     0.124 S 
ATOM     47  O   UNL A   1      42.389  18.558  27.149  1.00  0.00    -0.237 OA
ATOM     48  O   UNL A   1      40.457  19.339  25.821  1.00  0.00    -0.237 OA
ATOM     49  O   UNL A   1      42.715  19.332  24.829  1.00  0.00    -0.744 OA
ENDBRANCH  45  46
ENDBRANCH  24  38
BRANCH  25  50
ATOM     50  C   UNL A   1      44.390  32.919  31.015  1.00  0.00     0.058 A 
ATOM     51  C   UNL A   1      44.387  33.176  32.393  1.00  0.00     0.135 A 
ATOM     52  C   UNL A   1      44.648  33.995  30.149  1.00  0.00     0.135 A 
ATOM     53  F   UNL A   1      44.147  32.182  33.261  1.00  0.00    -0.206 F 
ATOM     54  C   UNL A   1      44.598  34.457  32.894  1.00  0.00     0.059 A 
ATOM     55  C   UNL A   1      44.897  35.275  30.627  1.00  0.00     0.059 A 
ATOM     56  F   UNL A   1      44.686  33.798  28.822  1.00  0.00    -0.206 F 
ATOM     57  C   UNL A   1      44.849  35.501  32.000  1.00  0.00     0.060 A 
BRANCH  57  58
ATOM     58  S   UNL A   1      45.134  37.158  32.656  1.00  0.00     0.124 S 
ATOM     59  O   UNL A   1      45.608  36.862  34.001  1.00  0.00    -0.237 OA
ATOM     60  O   UNL A   1      46.128  37.691  31.730  1.00  0.00    -0.237 OA
ATOM     61  O   UNL A   1      43.816  37.782  32.572  1.00  0.00    -0.744 OA
ENDBRANCH  57  58
ENDBRANCH  25  50
BRANCH  37  62
ATOM     62  C   UNL A   1      48.424  27.422  29.607  1.00  0.00     0.058 A 
ATOM     63  C   UNL A   1      49.020  27.019  30.812  1.00  0.00     0.135 A 
ATOM     64  C   UNL A   1      49.255  27.623  28.495  1.00  0.00     0.135 A 
ATOM     65  F   UNL A   1      48.267  26.822  31.906  1.00  0.00    -0.206 F 
ATOM     66  C   UNL A   1      50.397  26.865  30.923  1.00  0.00     0.059 A 
ATOM     67  C   UNL A   1      50.632  27.445  28.575  1.00  0.00     0.059 A 
ATOM     68  F   UNL A   1      48.733  28.000  27.317  1.00  0.00    -0.206 F 
ATOM     69  C   UNL A   1      51.195  27.085  29.799  1.00  0.00     0.060 A 
BRANCH  69  70
ATOM     70  S   UNL A   1      52.981  26.882  29.955  1.00  0.00     0.124 S 
ATOM     71  O   UNL A   1      53.072  25.917  31.045  1.00  0.00    -0.237 OA
ATOM     72  O   UNL A   1      53.356  26.383  28.635  1.00  0.00    -0.237 OA
ATOM     73  O   UNL A   1      53.450  28.228  30.265  1.00  0.00    -0.744 OA
ENDBRANCH  69  70
ENDBRANCH  37  62
ENDBRANCH  11  12
ENDBRANCH   4   6
ENDBRANCH   1   2
BRANCH   1  74
ATOM     74  C   UNL A   1      32.648  27.920  27.234  1.00  0.00     0.042 C 
BRANCH  74  75
ATOM     75  C   UNL A   1      31.745  28.514  26.166  1.00  0.00     0.118 C 
BRANCH  75  76
ATOM     76  N   UNL A   1      32.289  28.446  24.828  1.00  0.00    -0.351 N 
ATOM     77  C   UNL A   1      32.139  27.723  23.697  1.00  0.00     0.283 C 
ATOM     78  H   UNL A   1      32.979  29.137  24.704  1.00  0.00     0.163 HD
ATOM     79  O   UNL A   1      32.817  28.239  22.783  1.00  0.00    -0.268 OA
BRANCH  77  80
ATOM     80  C   UNL A   1      31.436  26.335  23.433  1.00  0.00     0.307 C 
BRANCH  80  81
ATOM     81  N   UNL A   1      31.647  25.121  24.259  1.00  0.00    -0.320 N 
ATOM     82  C   UNL A   1      30.908  25.156  25.523  1.00  0.00     0.263 C 
ATOM     83  C   UNL A   1      31.701  23.817  23.639  1.00  0.00     0.274 C 
ATOM     84  H   UNL A   1      32.642  25.221  24.459  1.00  0.00     0.349 HD
ATOM     85  C   UNL A   1      31.298  24.023  26.479  1.00  0.00     0.062 C 
ATOM     86  C   UNL A   1      32.094  22.624  24.533  1.00  0.00     0.104 C 
ATOM     87  C   UNL A   1      31.239  22.656  25.805  1.00  0.00     0.022 C 
BRANCH  86  88
ATOM     88  C   UNL A   1      33.574  22.570  24.787  1.00  0.00     0.103 A 
ATOM     89  N   UNL A   1      34.329  23.621  25.017  1.00  0.00    -0.241 NA
ATOM     90  S   UNL A   1      34.420  21.073  24.690  1.00  0.00    -0.118 S 
ATOM     91  C   UNL A   1      35.629  23.236  25.256  1.00  0.00     0.082 A 
ATOM     92  C   UNL A   1      35.880  21.871  25.126  1.00  0.00     0.055 A 
ATOM     93  C   UNL A   1      36.683  24.096  25.615  1.00  0.00     0.030 A 
ATOM     94  C   UNL A   1      37.155  21.330  25.343  1.00  0.00     0.021 A 
ATOM     95  C   UNL A   1      37.954  23.568  25.849  1.00  0.00     0.002 A 
ATOM     96  C   UNL A   1      38.185  22.202  25.714  1.00  0.00     0.002 A 
ENDBRANCH  86  88
ENDBRANCH  80  81
BRANCH  80  97
ATOM     97  C   UNL A   1      29.927  26.597  23.492  1.00  0.00     0.044 A 
ATOM     98  C   UNL A   1      28.972  25.698  23.946  1.00  0.00     0.094 A 
ATOM     99  C   UNL A   1      29.222  27.818  23.199  1.00  0.00     0.010 A 
ATOM    100  N   UNL A   1      27.763  26.325  23.987  1.00  0.00    -0.361 N 
ATOM    101  C   UNL A   1      27.879  27.617  23.537  1.00  0.00     0.046 A 
ATOM    102  C   UNL A   1      29.600  29.086  22.709  1.00  0.00     0.026 A 
ATOM    103  H   UNL A   1      26.924  25.909  24.294  1.00  0.00     0.166 HD
ATOM    104  C   UNL A   1      26.902  28.613  23.424  1.00  0.00     0.028 A 
ATOM    105  C   UNL A   1      28.627  30.085  22.578  1.00  0.00     0.018 A 
ATOM    106  C   UNL A   1      27.300  29.858  22.933  1.00  0.00     0.018 A 
ATOM    107  Br  UNL A   1      29.124  31.785  21.907  1.00  0.00    -0.051 Br
ENDBRANCH  80  97
ENDBRANCH  77  80
ENDBRANCH  75  76
ENDBRANCH  74  75
ENDBRANCH   1  74
TORSDOF 16
ENDMDL
