MODEL 1
REMARK VINA RESULT:     -12.5      0.000      0.000
REMARK SMILES CC1(C)OC(=O)C(=CNc2ccccc2C(=O)NCCCNC(=O)c2ccc(-c3c4nc(c(-c5c(F)cc(S(=O)(=O)[O-])cc5F)c5ccc([nH]5)c(-c5c(F)cc(S(=O)(=O)[O-])cc5F)c5nc(c(-c6c(F)cc(S(=O)(=O)[O-])cc6F)c6ccc3[nH]6)C=C5)C=C4)cc2)C(=O)O1
REMARK SMILES IDX 20 1 19 2 18 3 16 4 17 5 15 7 10 8 11 9 12 10 14 11 13 12
REMARK SMILES IDX 9 13 8 15 1 16 2 17 3 18 4 19 93 20 5 21 91 22 6 23 7 24
REMARK SMILES IDX 92 25 21 26 22 27 23 28 24 30 25 31 26 32 90 33 27 34 89 35
REMARK SMILES IDX 28 36 29 37 30 38 83 39 31 40 88 41 82 42 84 43 32 44 87 45
REMARK SMILES IDX 81 46 80 47 33 49 67 50 46 51 66 52 47 53 50 54 65 55 85 56
REMARK SMILES IDX 48 57 49 58 64 60 86 61 51 62 34 63 35 64 44 65 36 66 37 67
REMARK SMILES IDX 43 68 45 69 38 70 39 71 40 72 41 73 42 74 68 75 69 76 78 77
REMARK SMILES IDX 70 78 71 79 77 80 79 81 72 82 73 83 74 84 75 85 76 86 52 87
REMARK SMILES IDX 53 88 62 89 54 90 55 91 61 92 63 93 56 94 57 95 58 96 59 97
REMARK SMILES IDX 60 98
REMARK H PARENT 18 6 9 14 22 29 84 48 50 59
REMARK Flexibility Score: inf
ROOT
ATOM      1  C   UNL A   1      34.078  27.963  26.084  1.00  0.00     0.042 C 
ENDROOT
BRANCH   1   2
ATOM      2  C   UNL A   1      33.641  28.466  24.709  1.00  0.00     0.118 C 
BRANCH   2   3
ATOM      3  N   UNL A   1      33.561  27.492  23.644  1.00  0.00    -0.352 N 
ATOM      4  C   UNL A   1      32.549  27.177  22.761  1.00  0.00     0.253 C 
ATOM      5  O   UNL A   1      32.908  26.556  21.753  1.00  0.00    -0.269 OA
ATOM      6  H   UNL A   1      34.378  26.956  23.528  1.00  0.00     0.163 HD
BRANCH   4   7
ATOM      7  C   UNL A   1      31.071  27.357  22.965  1.00  0.00     0.063 A 
ATOM      8  C   UNL A   1      30.078  26.489  23.462  1.00  0.00     0.051 A 
ATOM      9  C   UNL A   1      28.751  27.000  23.587  1.00  0.00     0.027 A 
ATOM     10  C   UNL A   1      28.393  28.300  23.246  1.00  0.00     0.002 A 
ATOM     11  C   UNL A   1      30.674  28.684  22.622  1.00  0.00     0.016 A 
ATOM     12  C   UNL A   1      29.363  29.150  22.758  1.00  0.00     0.001 A 
BRANCH   8  13
ATOM     13  N   UNL A   1      30.185  25.176  23.953  1.00  0.00    -0.360 N 
ATOM     14  H   UNL A   1      29.874  24.491  23.320  1.00  0.00     0.166 HD
BRANCH  13  15
ATOM     15  C   UNL A   1      30.634  24.667  25.136  1.00  0.00     0.106 C 
ATOM     16  C   UNL A   1      35.147  24.477  25.033  1.00  0.00     0.106 C 
ATOM     17  C   UNL A   1      34.329  23.288  25.545  1.00  0.00     0.252 C 
ATOM     18  C   UNL A   1      35.244  22.181  26.066  1.00  0.00     0.106 C 
ATOM     19  O   UNL A   1      33.540  23.662  26.682  1.00  0.00    -0.419 OA
ATOM     20  O   UNL A   1      33.601  22.741  24.442  1.00  0.00    -0.419 OA
ATOM     21  C   UNL A   1      32.198  23.628  26.626  1.00  0.00     0.350 C 
ATOM     22  C   UNL A   1      32.437  23.339  24.125  1.00  0.00     0.350 C 
ATOM     23  O   UNL A   1      31.490  23.609  27.624  1.00  0.00    -0.246 OA
ATOM     24  C   UNL A   1      31.686  23.835  25.279  1.00  0.00     0.161 C 
ATOM     25  O   UNL A   1      32.019  23.402  22.975  1.00  0.00    -0.246 OA
ENDBRANCH  13  15
ENDBRANCH   8  13
ENDBRANCH   4   7
ENDBRANCH   2   3
ENDBRANCH   1   2
BRANCH   1  26
ATOM     26  C   UNL A   1      33.202  28.375  27.273  1.00  0.00     0.118 C 
BRANCH  26  27
ATOM     27  N   UNL A   1      33.309  29.763  27.721  1.00  0.00    -0.352 N 
ATOM     28  C   UNL A   1      34.336  30.632  28.019  1.00  0.00     0.251 C 
ATOM     29  H   UNL A   1      32.426  30.182  27.839  1.00  0.00     0.163 HD
ATOM     30  O   UNL A   1      34.031  31.814  28.188  1.00  0.00    -0.269 OA
BRANCH  28  31
ATOM     31  C   UNL A   1      35.755  30.239  28.258  1.00  0.00     0.039 A 
ATOM     32  C   UNL A   1      36.090  29.813  29.563  1.00  0.00     0.014 A 
ATOM     33  C   UNL A   1      36.754  30.230  27.292  1.00  0.00     0.014 A 
ATOM     34  C   UNL A   1      37.355  29.291  29.867  1.00  0.00     0.010 A 
ATOM     35  C   UNL A   1      38.017  29.699  27.586  1.00  0.00     0.010 A 
ATOM     36  C   UNL A   1      38.327  29.215  28.869  1.00  0.00    -0.014 A 
BRANCH  36  37
ATOM     37  C   UNL A   1      39.726  28.805  29.153  1.00  0.00     0.031 A 
ATOM     38  C   UNL A   1      40.677  29.854  29.657  1.00  0.00     0.074 A 
ATOM     39  C   UNL A   1      40.175  27.567  28.869  1.00  0.00     0.049 A 
ATOM     40  N   UNL A   1      41.979  29.823  29.746  1.00  0.00    -0.248 NA
ATOM     41  C   UNL A   1      40.069  31.126  30.084  1.00  0.00     0.031 C 
ATOM     42  C   UNL A   1      39.358  26.454  28.386  1.00  0.00     0.029 A 
ATOM     43  N   UNL A   1      41.448  27.049  28.912  1.00  0.00    -0.354 N 
ATOM     44  C   UNL A   1      42.352  31.084  30.194  1.00  0.00     0.074 A 
ATOM     45  C   UNL A   1      41.140  31.860  30.343  1.00  0.00     0.031 C 
ATOM     46  C   UNL A   1      40.154  25.395  28.148  1.00  0.00     0.029 A 
ATOM     47  C   UNL A   1      41.542  25.763  28.428  1.00  0.00     0.049 A 
ATOM     48  H   UNL A   1      42.222  27.551  29.256  1.00  0.00     0.167 HD
ATOM     49  C   UNL A   1      43.593  31.554  30.459  1.00  0.00     0.037 A 
ATOM     50  C   UNL A   1      42.625  24.988  28.208  1.00  0.00     0.037 A 
ATOM     51  C   UNL A   1      44.792  30.770  30.347  1.00  0.00     0.049 A 
ATOM     52  C   UNL A   1      44.000  25.533  28.518  1.00  0.00     0.074 A 
ATOM     53  C   UNL A   1      46.092  31.140  30.641  1.00  0.00     0.029 A 
ATOM     54  N   UNL A   1      44.836  29.455  29.911  1.00  0.00    -0.354 N 
ATOM     55  N   UNL A   1      44.336  26.716  28.973  1.00  0.00    -0.248 NA
ATOM     56  C   UNL A   1      45.144  24.636  28.281  1.00  0.00     0.031 C 
ATOM     57  C   UNL A   1      46.929  30.056  30.352  1.00  0.00     0.029 A 
ATOM     58  C   UNL A   1      46.143  29.000  29.916  1.00  0.00     0.049 A 
ATOM     59  H   UNL A   1      44.054  28.923  29.637  1.00  0.00     0.167 HD
ATOM     60  C   UNL A   1      45.723  26.695  29.105  1.00  0.00     0.074 A 
ATOM     61  C   UNL A   1      46.163  25.380  28.692  1.00  0.00     0.031 C 
ATOM     62  C   UNL A   1      46.558  27.677  29.526  1.00  0.00     0.037 A 
BRANCH  49  63
ATOM     63  C   UNL A   1      43.711  32.991  30.876  1.00  0.00     0.058 A 
ATOM     64  C   UNL A   1      43.837  34.025  29.935  1.00  0.00     0.135 A 
ATOM     65  C   UNL A   1      43.691  33.338  32.236  1.00  0.00     0.135 A 
ATOM     66  F   UNL A   1      43.885  33.744  28.624  1.00  0.00    -0.206 F 
ATOM     67  C   UNL A   1      43.971  35.351  30.330  1.00  0.00     0.059 A 
ATOM     68  C   UNL A   1      43.796  34.661  32.653  1.00  0.00     0.059 A 
ATOM     69  F   UNL A   1      43.579  32.385  33.176  1.00  0.00    -0.206 F 
ATOM     70  C   UNL A   1      43.953  35.659  31.692  1.00  0.00     0.060 A 
BRANCH  70  71
ATOM     71  S   UNL A   1      44.132  37.384  32.189  1.00  0.00     0.124 S 
ATOM     72  O   UNL A   1      43.195  37.462  33.306  1.00  0.00    -0.237 OA
ATOM     73  O   UNL A   1      45.546  37.463  32.541  1.00  0.00    -0.237 OA
ATOM     74  O   UNL A   1      43.745  38.124  30.991  1.00  0.00    -0.744 OA
ENDBRANCH  70  71
ENDBRANCH  49  63
BRANCH  50  75
ATOM     75  C   UNL A   1      42.477  23.616  27.645  1.00  0.00     0.058 A 
ATOM     76  C   UNL A   1      42.360  22.500  28.488  1.00  0.00     0.135 A 
ATOM     77  C   UNL A   1      42.498  23.386  26.261  1.00  0.00     0.135 A 
ATOM     78  F   UNL A   1      42.349  22.664  29.819  1.00  0.00    -0.206 F 
ATOM     79  C   UNL A   1      42.301  21.204  27.981  1.00  0.00     0.059 A 
ATOM     80  C   UNL A   1      42.415  22.102  25.729  1.00  0.00     0.059 A 
ATOM     81  F   UNL A   1      42.598  24.419  25.409  1.00  0.00    -0.206 F 
ATOM     82  C   UNL A   1      42.333  21.015  26.599  1.00  0.00     0.060 A 
BRANCH  82  83
ATOM     83  S   UNL A   1      42.237  19.331  25.951  1.00  0.00     0.124 S 
ATOM     84  O   UNL A   1      40.808  19.194  25.702  1.00  0.00    -0.237 OA
ATOM     85  O   UNL A   1      43.088  19.408  24.768  1.00  0.00    -0.237 OA
ATOM     86  O   UNL A   1      42.769  18.523  27.045  1.00  0.00    -0.744 OA
ENDBRANCH  82  83
ENDBRANCH  50  75
BRANCH  62  87
ATOM     87  C   UNL A   1      48.026  27.361  29.612  1.00  0.00     0.058 A 
ATOM     88  C   UNL A   1      48.871  27.477  28.497  1.00  0.00     0.135 A 
ATOM     89  C   UNL A   1      48.606  27.023  30.845  1.00  0.00     0.135 A 
ATOM     90  F   UNL A   1      48.364  27.793  27.295  1.00  0.00    -0.206 F 
ATOM     91  C   UNL A   1      50.240  27.257  28.600  1.00  0.00     0.059 A 
ATOM     92  C   UNL A   1      49.977  26.822  30.975  1.00  0.00     0.059 A 
ATOM     93  F   UNL A   1      47.843  26.911  31.943  1.00  0.00    -0.206 F 
ATOM     94  C   UNL A   1      50.786  26.935  29.845  1.00  0.00     0.060 A 
BRANCH  94  95
ATOM     95  S   UNL A   1      52.572  26.709  29.979  1.00  0.00     0.124 S 
ATOM     96  O   UNL A   1      52.994  28.010  30.491  1.00  0.00    -0.237 OA
ATOM     97  O   UNL A   1      52.679  25.595  30.916  1.00  0.00    -0.237 OA
ATOM     98  O   UNL A   1      52.981  26.411  28.610  1.00  0.00    -0.744 OA
ENDBRANCH  94  95
ENDBRANCH  62  87
ENDBRANCH  36  37
ENDBRANCH  28  31
ENDBRANCH  26  27
ENDBRANCH   1  26
TORSDOF 15
ENDMDL
MODEL 2
REMARK VINA RESULT:     -12.3      2.433      4.227
REMARK SMILES CC1(C)OC(=O)C(=CNc2ccccc2C(=O)NCCCNC(=O)c2ccc(-c3c4nc(c(-c5c(F)cc(S(=O)(=O)[O-])cc5F)c5ccc([nH]5)c(-c5c(F)cc(S(=O)(=O)[O-])cc5F)c5nc(c(-c6c(F)cc(S(=O)(=O)[O-])cc6F)c6ccc3[nH]6)C=C5)C=C4)cc2)C(=O)O1
REMARK SMILES IDX 20 1 19 2 18 3 16 4 17 5 15 7 10 8 11 9 12 10 14 11 13 12
REMARK SMILES IDX 9 13 8 15 1 16 2 17 3 18 4 19 93 20 5 21 91 22 6 23 7 24
REMARK SMILES IDX 92 25 21 26 22 27 23 28 24 30 25 31 26 32 90 33 27 34 89 35
REMARK SMILES IDX 28 36 29 37 30 38 83 39 31 40 88 41 82 42 84 43 32 44 87 45
REMARK SMILES IDX 81 46 80 47 33 49 67 50 46 51 66 52 47 53 50 54 65 55 85 56
REMARK SMILES IDX 48 57 49 58 64 60 86 61 51 62 34 63 35 64 44 65 36 66 37 67
REMARK SMILES IDX 43 68 45 69 38 70 39 71 40 72 41 73 42 74 68 75 69 76 78 77
REMARK SMILES IDX 70 78 71 79 77 80 79 81 72 82 73 83 74 84 75 85 76 86 52 87
REMARK SMILES IDX 53 88 62 89 54 90 55 91 61 92 63 93 56 94 57 95 58 96 59 97
REMARK SMILES IDX 60 98
REMARK H PARENT 18 6 9 14 22 29 84 48 50 59
REMARK Flexibility Score: inf
ROOT
ATOM      1  C   UNL A   1      33.758  30.124  27.023  1.00  0.00     0.042 C 
ENDROOT
BRANCH   1   2
ATOM      2  C   UNL A   1      33.875  28.603  26.949  1.00  0.00     0.118 C 
BRANCH   2   3
ATOM      3  N   UNL A   1      32.644  27.845  26.952  1.00  0.00    -0.352 N 
ATOM      4  C   UNL A   1      32.339  26.586  26.480  1.00  0.00     0.253 C 
ATOM      5  O   UNL A   1      31.307  26.086  26.946  1.00  0.00    -0.269 OA
ATOM      6  H   UNL A   1      31.886  28.313  27.368  1.00  0.00     0.163 HD
BRANCH   4   7
ATOM      7  C   UNL A   1      33.017  25.840  25.365  1.00  0.00     0.063 A 
ATOM      8  C   UNL A   1      32.766  25.789  23.979  1.00  0.00     0.051 A 
ATOM      9  C   UNL A   1      33.652  25.015  23.171  1.00  0.00     0.027 A 
ATOM     10  C   UNL A   1      34.742  24.316  23.679  1.00  0.00     0.002 A 
ATOM     11  C   UNL A   1      34.140  25.111  25.857  1.00  0.00     0.016 A 
ATOM     12  C   UNL A   1      34.987  24.363  25.035  1.00  0.00     0.001 A 
BRANCH   8  13
ATOM     13  N   UNL A   1      31.801  26.461  23.207  1.00  0.00    -0.360 N 
ATOM     14  H   UNL A   1      32.172  26.907  22.412  1.00  0.00     0.166 HD
BRANCH  13  15
ATOM     15  C   UNL A   1      30.454  26.617  23.346  1.00  0.00     0.106 C 
ATOM     16  C   UNL A   1      29.250  30.606  21.599  1.00  0.00     0.106 C 
ATOM     17  C   UNL A   1      28.713  30.159  22.961  1.00  0.00     0.252 C 
ATOM     18  C   UNL A   1      27.705  31.168  23.507  1.00  0.00     0.106 C 
ATOM     19  O   UNL A   1      27.966  28.941  22.841  1.00  0.00    -0.419 OA
ATOM     20  O   UNL A   1      29.807  30.123  23.880  1.00  0.00    -0.419 OA
ATOM     21  C   UNL A   1      28.383  27.819  23.451  1.00  0.00     0.350 C 
ATOM     22  C   UNL A   1      30.570  29.014  23.875  1.00  0.00     0.350 C 
ATOM     23  O   UNL A   1      27.647  26.864  23.665  1.00  0.00    -0.246 OA
ATOM     24  C   UNL A   1      29.827  27.777  23.628  1.00  0.00     0.161 C 
ATOM     25  O   UNL A   1      31.771  29.037  24.120  1.00  0.00    -0.246 OA
ENDBRANCH  13  15
ENDBRANCH   8  13
ENDBRANCH   4   7
ENDBRANCH   2   3
ENDBRANCH   1   2
BRANCH   1  26
ATOM     26  C   UNL A   1      34.971  30.877  27.584  1.00  0.00     0.118 C 
BRANCH  26  27
ATOM     27  N   UNL A   1      35.017  31.065  29.033  1.00  0.00    -0.352 N 
ATOM     28  C   UNL A   1      35.997  31.067  30.002  1.00  0.00     0.251 C 
ATOM     29  H   UNL A   1      34.124  31.232  29.412  1.00  0.00     0.163 HD
ATOM     30  O   UNL A   1      35.668  31.458  31.124  1.00  0.00    -0.269 OA
BRANCH  28  31
ATOM     31  C   UNL A   1      37.380  30.535  29.830  1.00  0.00     0.039 A 
ATOM     32  C   UNL A   1      37.820  30.313  28.506  1.00  0.00     0.014 A 
ATOM     33  C   UNL A   1      38.269  30.275  30.866  1.00  0.00     0.014 A 
ATOM     34  C   UNL A   1      39.144  29.947  28.220  1.00  0.00     0.010 A 
ATOM     35  C   UNL A   1      39.595  29.921  30.587  1.00  0.00     0.010 A 
ATOM     36  C   UNL A   1      40.049  29.764  29.266  1.00  0.00    -0.014 A 
BRANCH  36  37
ATOM     37  C   UNL A   1      41.423  29.243  29.045  1.00  0.00     0.031 A 
ATOM     38  C   UNL A   1      42.556  30.231  29.041  1.00  0.00     0.074 A 
ATOM     39  C   UNL A   1      41.652  27.950  28.747  1.00  0.00     0.049 A 
ATOM     40  N   UNL A   1      43.788  30.080  28.637  1.00  0.00    -0.248 NA
ATOM     41  C   UNL A   1      42.237  31.583  29.528  1.00  0.00     0.031 C 
ATOM     42  C   UNL A   1      40.646  26.889  28.727  1.00  0.00     0.029 A 
ATOM     43  N   UNL A   1      42.810  27.316  28.363  1.00  0.00    -0.354 N 
ATOM     44  C   UNL A   1      44.380  31.330  28.776  1.00  0.00     0.074 A 
ATOM     45  C   UNL A   1      43.367  32.228  29.285  1.00  0.00     0.031 C 
ATOM     46  C   UNL A   1      41.224  25.742  28.321  1.00  0.00     0.029 A 
ATOM     47  C   UNL A   1      42.633  25.994  28.019  1.00  0.00     0.049 A 
ATOM     48  H   UNL A   1      43.686  27.765  28.336  1.00  0.00     0.167 HD
ATOM     49  C   UNL A   1      45.655  31.695  28.503  1.00  0.00     0.037 A 
ATOM     50  C   UNL A   1      43.500  25.104  27.491  1.00  0.00     0.037 A 
ATOM     51  C   UNL A   1      46.669  30.793  28.033  1.00  0.00     0.049 A 
ATOM     52  C   UNL A   1      44.919  25.534  27.203  1.00  0.00     0.074 A 
ATOM     53  C   UNL A   1      48.002  31.056  27.776  1.00  0.00     0.029 A 
ATOM     54  N   UNL A   1      46.462  29.451  27.754  1.00  0.00    -0.354 N 
ATOM     55  N   UNL A   1      45.475  26.710  27.369  1.00  0.00    -0.248 NA
ATOM     56  C   UNL A   1      45.828  24.517  26.650  1.00  0.00     0.031 C 
ATOM     57  C   UNL A   1      48.597  29.878  27.311  1.00  0.00     0.029 A 
ATOM     58  C   UNL A   1      47.641  28.873  27.316  1.00  0.00     0.049 A 
ATOM     59  H   UNL A   1      45.604  28.978  27.853  1.00  0.00     0.167 HD
ATOM     60  C   UNL A   1      46.803  26.565  26.972  1.00  0.00     0.074 A 
ATOM     61  C   UNL A   1      46.970  25.186  26.566  1.00  0.00     0.031 C 
ATOM     62  C   UNL A   1      47.794  27.490  26.942  1.00  0.00     0.037 A 
BRANCH  49  63
ATOM     63  C   UNL A   1      46.011  33.142  28.690  1.00  0.00     0.058 A 
ATOM     64  C   UNL A   1      46.493  33.630  29.915  1.00  0.00     0.135 A 
ATOM     65  C   UNL A   1      45.872  34.048  27.628  1.00  0.00     0.135 A 
ATOM     66  F   UNL A   1      46.621  32.809  30.968  1.00  0.00    -0.206 F 
ATOM     67  C   UNL A   1      46.797  34.976  30.088  1.00  0.00     0.059 A 
ATOM     68  C   UNL A   1      46.196  35.394  27.772  1.00  0.00     0.059 A 
ATOM     69  F   UNL A   1      45.409  33.633  26.439  1.00  0.00    -0.206 F 
ATOM     70  C   UNL A   1      46.641  35.851  29.011  1.00  0.00     0.060 A 
BRANCH  70  71
ATOM     71  S   UNL A   1      47.035  37.595  29.253  1.00  0.00     0.124 S 
ATOM     72  O   UNL A   1      47.408  37.998  27.900  1.00  0.00    -0.237 OA
ATOM     73  O   UNL A   1      45.774  38.135  29.750  1.00  0.00    -0.237 OA
ATOM     74  O   UNL A   1      48.126  37.565  30.223  1.00  0.00    -0.744 OA
ENDBRANCH  70  71
ENDBRANCH  49  63
BRANCH  50  75
ATOM     75  C   UNL A   1      43.064  23.714  27.175  1.00  0.00     0.058 A 
ATOM     76  C   UNL A   1      43.021  22.728  28.171  1.00  0.00     0.135 A 
ATOM     77  C   UNL A   1      42.730  23.332  25.866  1.00  0.00     0.135 A 
ATOM     78  F   UNL A   1      43.344  23.038  29.436  1.00  0.00    -0.206 F 
ATOM     79  C   UNL A   1      42.693  21.406  27.879  1.00  0.00     0.059 A 
ATOM     80  C   UNL A   1      42.374  22.023  25.553  1.00  0.00     0.059 A 
ATOM     81  F   UNL A   1      42.745  24.238  24.876  1.00  0.00    -0.206 F 
ATOM     82  C   UNL A   1      42.375  21.063  26.565  1.00  0.00     0.060 A 
BRANCH  82  83
ATOM     83  S   UNL A   1      41.933  19.349  26.198  1.00  0.00     0.124 S 
ATOM     84  O   UNL A   1      40.492  19.452  26.010  1.00  0.00    -0.237 OA
ATOM     85  O   UNL A   1      42.717  19.080  24.997  1.00  0.00    -0.237 OA
ATOM     86  O   UNL A   1      42.366  18.631  27.394  1.00  0.00    -0.744 OA
ENDBRANCH  82  83
ENDBRANCH  50  75
BRANCH  62  87
ATOM     87  C   UNL A   1      49.160  27.041  26.503  1.00  0.00     0.058 A 
ATOM     88  C   UNL A   1      50.080  26.488  27.406  1.00  0.00     0.135 A 
ATOM     89  C   UNL A   1      49.517  27.087  25.146  1.00  0.00     0.135 A 
ATOM     90  F   UNL A   1      49.788  26.425  28.715  1.00  0.00    -0.206 F 
ATOM     91  C   UNL A   1      51.313  26.005  26.981  1.00  0.00     0.059 A 
ATOM     92  C   UNL A   1      50.735  26.588  24.695  1.00  0.00     0.059 A 
ATOM     93  F   UNL A   1      48.667  27.597  24.240  1.00  0.00    -0.206 F 
ATOM     94  C   UNL A   1      51.630  26.055  25.622  1.00  0.00     0.060 A 
BRANCH  94  95
ATOM     95  S   UNL A   1      53.208  25.371  25.072  1.00  0.00     0.124 S 
ATOM     96  O   UNL A   1      54.154  26.112  25.902  1.00  0.00    -0.237 OA
ATOM     97  O   UNL A   1      53.064  23.953  25.387  1.00  0.00    -0.237 OA
ATOM     98  O   UNL A   1      53.239  25.690  23.648  1.00  0.00    -0.744 OA
ENDBRANCH  94  95
ENDBRANCH  62  87
ENDBRANCH  36  37
ENDBRANCH  28  31
ENDBRANCH  26  27
ENDBRANCH   1  26
TORSDOF 15
ENDMDL
MODEL 3
REMARK VINA RESULT:     -12.3      2.264      2.936
REMARK SMILES CC1(C)OC(=O)C(=CNc2ccccc2C(=O)NCCCNC(=O)c2ccc(-c3c4nc(c(-c5c(F)cc(S(=O)(=O)[O-])cc5F)c5ccc([nH]5)c(-c5c(F)cc(S(=O)(=O)[O-])cc5F)c5nc(c(-c6c(F)cc(S(=O)(=O)[O-])cc6F)c6ccc3[nH]6)C=C5)C=C4)cc2)C(=O)O1
REMARK SMILES IDX 20 1 19 2 18 3 16 4 17 5 15 7 10 8 11 9 12 10 14 11 13 12
REMARK SMILES IDX 9 13 8 15 1 16 2 17 3 18 4 19 93 20 5 21 91 22 6 23 7 24
REMARK SMILES IDX 92 25 21 26 22 27 23 28 24 30 25 31 26 32 90 33 27 34 89 35
REMARK SMILES IDX 28 36 29 37 30 38 83 39 31 40 88 41 82 42 84 43 32 44 87 45
REMARK SMILES IDX 81 46 80 47 33 49 67 50 46 51 66 52 47 53 50 54 65 55 85 56
REMARK SMILES IDX 48 57 49 58 64 60 86 61 51 62 34 63 35 64 44 65 36 66 37 67
REMARK SMILES IDX 43 68 45 69 38 70 39 71 40 72 41 73 42 74 68 75 69 76 78 77
REMARK SMILES IDX 70 78 71 79 77 80 79 81 72 82 73 83 74 84 75 85 76 86 52 87
REMARK SMILES IDX 53 88 62 89 54 90 55 91 61 92 63 93 56 94 57 95 58 96 59 97
REMARK SMILES IDX 60 98
REMARK H PARENT 18 6 9 14 22 29 84 48 50 59
REMARK Flexibility Score: inf
ROOT
ATOM      1  C   UNL A   1      33.329  29.194  27.104  1.00  0.00     0.042 C 
ENDROOT
BRANCH   1   2
ATOM      2  C   UNL A   1      32.807  30.089  25.981  1.00  0.00     0.118 C 
BRANCH   2   3
ATOM      3  N   UNL A   1      33.116  29.696  24.625  1.00  0.00    -0.352 N 
ATOM      4  C   UNL A   1      32.394  28.990  23.686  1.00  0.00     0.253 C 
ATOM      5  O   UNL A   1      32.780  29.124  22.517  1.00  0.00    -0.269 OA
ATOM      6  H   UNL A   1      34.004  29.986  24.315  1.00  0.00     0.163 HD
BRANCH   4   7
ATOM      7  C   UNL A   1      31.320  27.969  23.938  1.00  0.00     0.063 A 
ATOM      8  C   UNL A   1      31.295  26.807  24.735  1.00  0.00     0.051 A 
ATOM      9  C   UNL A   1      30.072  26.075  24.807  1.00  0.00     0.027 A 
ATOM     10  C   UNL A   1      28.913  26.450  24.135  1.00  0.00     0.002 A 
ATOM     11  C   UNL A   1      30.117  28.327  23.260  1.00  0.00     0.016 A 
ATOM     12  C   UNL A   1      28.935  27.586  23.353  1.00  0.00     0.001 A 
BRANCH   8  13
ATOM     13  N   UNL A   1      32.284  26.262  25.573  1.00  0.00    -0.360 N 
ATOM     14  H   UNL A   1      33.082  26.830  25.664  1.00  0.00     0.166 HD
BRANCH  13  15
ATOM     15  C   UNL A   1      32.354  25.100  26.284  1.00  0.00     0.106 C 
ATOM     16  C   UNL A   1      36.565  23.481  26.041  1.00  0.00     0.106 C 
ATOM     17  C   UNL A   1      35.362  22.556  25.834  1.00  0.00     0.252 C 
ATOM     18  C   UNL A   1      35.812  21.107  25.659  1.00  0.00     0.106 C 
ATOM     19  O   UNL A   1      34.529  22.531  27.000  1.00  0.00    -0.419 OA
ATOM     20  O   UNL A   1      34.711  22.939  24.620  1.00  0.00    -0.419 OA
ATOM     21  C   UNL A   1      33.266  22.986  26.951  1.00  0.00     0.350 C 
ATOM     22  C   UNL A   1      33.844  23.966  24.692  1.00  0.00     0.350 C 
ATOM     23  O   UNL A   1      32.420  22.696  27.786  1.00  0.00    -0.246 OA
ATOM     24  C   UNL A   1      33.078  24.016  25.939  1.00  0.00     0.161 C 
ATOM     25  O   UNL A   1      33.668  24.749  23.766  1.00  0.00    -0.246 OA
ENDBRANCH  13  15
ENDBRANCH   8  13
ENDBRANCH   4   7
ENDBRANCH   2   3
ENDBRANCH   1   2
BRANCH   1  26
ATOM     26  C   UNL A   1      34.779  29.426  27.546  1.00  0.00     0.118 C 
BRANCH  26  27
ATOM     27  N   UNL A   1      34.979  30.212  28.762  1.00  0.00    -0.352 N 
ATOM     28  C   UNL A   1      36.062  30.649  29.493  1.00  0.00     0.251 C 
ATOM     29  H   UNL A   1      34.126  30.503  29.158  1.00  0.00     0.163 HD
ATOM     30  O   UNL A   1      35.836  31.472  30.383  1.00  0.00    -0.269 OA
BRANCH  28  31
ATOM     31  C   UNL A   1      37.454  30.128  29.367  1.00  0.00     0.039 A 
ATOM     32  C   UNL A   1      37.979  30.013  28.060  1.00  0.00     0.014 A 
ATOM     33  C   UNL A   1      38.276  29.782  30.433  1.00  0.00     0.014 A 
ATOM     34  C   UNL A   1      39.318  29.667  27.830  1.00  0.00     0.010 A 
ATOM     35  C   UNL A   1      39.618  29.447  30.210  1.00  0.00     0.010 A 
ATOM     36  C   UNL A   1      40.155  29.397  28.913  1.00  0.00    -0.014 A 
BRANCH  36  37
ATOM     37  C   UNL A   1      41.541  28.891  28.738  1.00  0.00     0.031 A 
ATOM     38  C   UNL A   1      42.662  29.892  28.757  1.00  0.00     0.074 A 
ATOM     39  C   UNL A   1      41.795  27.597  28.461  1.00  0.00     0.049 A 
ATOM     40  N   UNL A   1      43.907  29.753  28.391  1.00  0.00    -0.248 NA
ATOM     41  C   UNL A   1      42.312  31.246  29.219  1.00  0.00     0.031 C 
ATOM     42  C   UNL A   1      40.804  26.524  28.423  1.00  0.00     0.029 A 
ATOM     43  N   UNL A   1      42.972  26.974  28.118  1.00  0.00    -0.354 N 
ATOM     44  C   UNL A   1      44.480  31.012  28.534  1.00  0.00     0.074 A 
ATOM     45  C   UNL A   1      43.441  31.902  29.004  1.00  0.00     0.031 C 
ATOM     46  C   UNL A   1      41.407  25.381  28.046  1.00  0.00     0.029 A 
ATOM     47  C   UNL A   1      42.821  25.647  27.783  1.00  0.00     0.049 A 
ATOM     48  H   UNL A   1      43.843  27.434  28.112  1.00  0.00     0.167 HD
ATOM     49  C   UNL A   1      45.757  31.390  28.295  1.00  0.00     0.037 A 
ATOM     50  C   UNL A   1      43.714  24.762  27.290  1.00  0.00     0.037 A 
ATOM     51  C   UNL A   1      46.795  30.496  27.864  1.00  0.00     0.049 A 
ATOM     52  C   UNL A   1      45.136  25.208  27.039  1.00  0.00     0.074 A 
ATOM     53  C   UNL A   1      48.132  30.773  27.644  1.00  0.00     0.029 A 
ATOM     54  N   UNL A   1      46.614  29.149  27.594  1.00  0.00    -0.354 N 
ATOM     55  N   UNL A   1      45.672  26.392  27.210  1.00  0.00    -0.248 NA
ATOM     56  C   UNL A   1      46.073  24.196  26.525  1.00  0.00     0.031 C 
ATOM     57  C   UNL A   1      48.755  29.598  27.209  1.00  0.00     0.029 A 
ATOM     58  C   UNL A   1      47.812  28.582  27.197  1.00  0.00     0.049 A 
ATOM     59  H   UNL A   1      45.759  28.666  27.672  1.00  0.00     0.167 HD
ATOM     60  C   UNL A   1      47.013  26.260  26.854  1.00  0.00     0.074 A 
ATOM     61  C   UNL A   1      47.208  24.879  26.467  1.00  0.00     0.031 C 
ATOM     62  C   UNL A   1      47.993  27.197  26.843  1.00  0.00     0.037 A 
BRANCH  49  63
ATOM     63  C   UNL A   1      46.089  32.843  28.477  1.00  0.00     0.058 A 
ATOM     64  C   UNL A   1      46.018  33.756  27.413  1.00  0.00     0.135 A 
ATOM     65  C   UNL A   1      46.479  33.328  29.736  1.00  0.00     0.135 A 
ATOM     66  F   UNL A   1      45.673  33.338  26.185  1.00  0.00    -0.206 F 
ATOM     67  C   UNL A   1      46.351  35.094  27.584  1.00  0.00     0.059 A 
ATOM     68  C   UNL A   1      46.791  34.669  29.935  1.00  0.00     0.059 A 
ATOM     69  F   UNL A   1      46.569  32.494  30.784  1.00  0.00    -0.206 F 
ATOM     70  C   UNL A   1      46.740  35.541  28.849  1.00  0.00     0.060 A 
BRANCH  70  71
ATOM     71  S   UNL A   1      47.175  37.280  29.053  1.00  0.00     0.124 S 
ATOM     72  O   UNL A   1      46.437  37.894  27.952  1.00  0.00    -0.237 OA
ATOM     73  O   UNL A   1      46.674  37.573  30.392  1.00  0.00    -0.237 OA
ATOM     74  O   UNL A   1      48.628  37.285  28.915  1.00  0.00    -0.744 OA
ENDBRANCH  70  71
ENDBRANCH  49  63
BRANCH  50  75
ATOM     75  C   UNL A   1      43.305  23.364  26.976  1.00  0.00     0.058 A 
ATOM     76  C   UNL A   1      43.124  22.419  27.997  1.00  0.00     0.135 A 
ATOM     77  C   UNL A   1      43.135  22.931  25.652  1.00  0.00     0.135 A 
ATOM     78  F   UNL A   1      43.287  22.778  29.280  1.00  0.00    -0.206 F 
ATOM     79  C   UNL A   1      42.819  21.089  27.718  1.00  0.00     0.059 A 
ATOM     80  C   UNL A   1      42.806  21.613  25.348  1.00  0.00     0.059 A 
ATOM     81  F   UNL A   1      43.287  23.796  24.637  1.00  0.00    -0.206 F 
ATOM     82  C   UNL A   1      42.667  20.695  26.388  1.00  0.00     0.060 A 
BRANCH  82  83
ATOM     83  S   UNL A   1      42.254  18.971  26.037  1.00  0.00     0.124 S 
ATOM     84  O   UNL A   1      40.829  19.064  25.745  1.00  0.00    -0.237 OA
ATOM     85  O   UNL A   1      43.120  18.673  24.901  1.00  0.00    -0.237 OA
ATOM     86  O   UNL A   1      42.603  18.285  27.278  1.00  0.00    -0.744 OA
ENDBRANCH  82  83
ENDBRANCH  50  75
BRANCH  62  87
ATOM     87  C   UNL A   1      49.377  26.761  26.449  1.00  0.00     0.058 A 
ATOM     88  C   UNL A   1      50.195  26.026  27.321  1.00  0.00     0.135 A 
ATOM     89  C   UNL A   1      49.854  27.008  25.151  1.00  0.00     0.135 A 
ATOM     90  F   UNL A   1      49.786  25.768  28.574  1.00  0.00    -0.206 F 
ATOM     91  C   UNL A   1      51.443  25.561  26.924  1.00  0.00     0.059 A 
ATOM     92  C   UNL A   1      51.090  26.531  24.725  1.00  0.00     0.059 A 
ATOM     93  F   UNL A   1      49.105  27.696  24.275  1.00  0.00    -0.206 F 
ATOM     94  C   UNL A   1      51.881  25.813  25.622  1.00  0.00     0.060 A 
BRANCH  94  95
ATOM     95  S   UNL A   1      53.478  25.154  25.098  1.00  0.00     0.124 S 
ATOM     96  O   UNL A   1      54.394  25.865  25.984  1.00  0.00    -0.237 OA
ATOM     97  O   UNL A   1      53.328  23.725  25.356  1.00  0.00    -0.237 OA
ATOM     98  O   UNL A   1      53.553  25.525  23.688  1.00  0.00    -0.744 OA
ENDBRANCH  94  95
ENDBRANCH  62  87
ENDBRANCH  36  37
ENDBRANCH  28  31
ENDBRANCH  26  27
ENDBRANCH   1  26
TORSDOF 15
ENDMDL
