MODEL 1
REMARK VINA RESULT:     -11.0      0.000      0.000
REMARK SMILES CC[C@](C)([NH2+]CC(=O)NC[C@H]1CCCO1)C(=O)NCCCNC(=O)c1ccc(-c2c3nc(c(-c4c(F)cc(S(=O)(=O)[O-])cc4F)c4ccc([nH]4)c(-c4c(F)cc(S(=O)(=O)[O-])cc4F)c4nc(c(-c5c(F)cc(S(=O)(=O)[O-])cc5F)c5ccc2[nH]5)C=C4)C=C3)cc1
REMARK SMILES IDX 19 1 18 2 16 3 17 4 3 6 4 7 2 8 1 9 5 10 6 13 7 14 8 15 9 16
REMARK SMILES IDX 10 18 11 19 12 20 15 21 13 22 14 23 20 24 21 25 22 26 23 27
REMARK SMILES IDX 24 29 25 30 26 31 90 32 27 33 89 34 28 35 29 36 30 37 83 38
REMARK SMILES IDX 31 39 88 40 82 41 84 42 32 43 87 44 81 45 80 46 33 48 67 49
REMARK SMILES IDX 46 50 66 51 47 52 50 53 65 54 85 55 48 56 49 57 64 59 86 60
REMARK SMILES IDX 51 61 34 62 35 63 44 64 36 65 37 66 43 67 45 68 38 69 39 70
REMARK SMILES IDX 40 71 41 72 42 73 68 74 69 75 78 76 70 77 71 78 77 79 79 80
REMARK SMILES IDX 72 81 73 82 74 83 75 84 76 85 52 86 53 87 62 88 54 89 55 90
REMARK SMILES IDX 61 91 63 92 56 93 57 94 58 95 59 96 60 97
REMARK H PARENT 18 5 5 11 5 12 9 17 22 28 84 47 50 58
REMARK Flexibility Score: inf
ROOT
ATOM      1  C   UNL A   1      33.017  29.338  24.205  1.00  0.00     0.118 C 
ENDROOT
BRANCH   1   2
ATOM      2  N   UNL A   1      32.209  28.807  23.130  1.00  0.00    -0.351 N 
ATOM      3  C   UNL A   1      30.893  28.410  23.274  1.00  0.00     0.281 C 
ATOM      4  O   UNL A   1      30.066  29.088  22.642  1.00  0.00    -0.268 OA
ATOM      5  H   UNL A   1      32.621  28.722  22.240  1.00  0.00     0.163 HD
BRANCH   3   6
ATOM      6  C   UNL A   1      30.413  27.008  24.058  1.00  0.00     0.172 C 
ATOM      7  C   UNL A   1      28.895  27.274  23.527  1.00  0.00     0.090 C 
BRANCH   6   8
ATOM      8  C   UNL A   1      30.707  26.393  25.898  1.00  0.00     0.075 C 
ATOM      9  C   UNL A   1      31.389  27.619  27.572  1.00  0.00     0.011 C 
ENDBRANCH   6   8
BRANCH   6  10
ATOM     10  N   UNL A   1      30.792  25.882  23.215  1.00  0.00    -0.326 N 
ATOM     11  H   UNL A   1      29.936  25.378  22.983  1.00  0.00     0.347 HD
ATOM     12  H   UNL A   1      31.477  25.372  23.773  1.00  0.00     0.347 HD
BRANCH  10  13
ATOM     13  C   UNL A   1      31.481  26.153  21.966  1.00  0.00     0.362 C 
BRANCH  13  14
ATOM     14  C   UNL A   1      32.554  25.216  21.368  1.00  0.00     0.275 C 
ATOM     15  O   UNL A   1      33.187  25.660  20.396  1.00  0.00    -0.269 OA
ATOM     16  N   UNL A   1      32.941  23.962  21.779  1.00  0.00    -0.349 N 
ATOM     17  H   UNL A   1      33.772  23.712  21.315  1.00  0.00     0.163 HD
BRANCH  16  18
ATOM     18  C   UNL A   1      32.525  22.816  22.712  1.00  0.00     0.148 C 
BRANCH  18  19
ATOM     19  C   UNL A   1      33.525  22.251  23.967  1.00  0.00     0.137 C 
ATOM     20  C   UNL A   1      35.538  22.161  24.580  1.00  0.00     0.036 C 
ATOM     21  O   UNL A   1      32.942  23.922  24.661  1.00  0.00    -0.376 OA
ATOM     22  C   UNL A   1      35.911  23.930  25.461  1.00  0.00     0.031 C 
ATOM     23  C   UNL A   1      34.250  24.893  25.460  1.00  0.00     0.160 C 
ENDBRANCH  18  19
ENDBRANCH  16  18
ENDBRANCH  13  14
ENDBRANCH  10  13
ENDBRANCH   6  10
ENDBRANCH   3   6
ENDBRANCH   1   2
BRANCH   1  24
ATOM     24  C   UNL A   1      34.092  28.437  24.751  1.00  0.00     0.042 C 
BRANCH  24  25
ATOM     25  C   UNL A   1      34.416  28.820  26.170  1.00  0.00     0.118 C 
BRANCH  25  26
ATOM     26  N   UNL A   1      33.899  30.139  26.550  1.00  0.00    -0.352 N 
ATOM     27  C   UNL A   1      34.342  31.000  27.529  1.00  0.00     0.251 C 
ATOM     28  H   UNL A   1      33.123  30.454  26.031  1.00  0.00     0.163 HD
ATOM     29  O   UNL A   1      33.715  32.022  27.789  1.00  0.00    -0.269 OA
BRANCH  27  30
ATOM     30  C   UNL A   1      35.563  30.652  28.278  1.00  0.00     0.039 A 
ATOM     31  C   UNL A   1      35.541  29.612  29.205  1.00  0.00     0.014 A 
ATOM     32  C   UNL A   1      36.756  31.313  27.990  1.00  0.00     0.014 A 
ATOM     33  C   UNL A   1      36.737  29.214  29.798  1.00  0.00     0.010 A 
ATOM     34  C   UNL A   1      37.954  30.766  28.397  1.00  0.00     0.010 A 
ATOM     35  C   UNL A   1      37.956  29.772  29.374  1.00  0.00    -0.014 A 
BRANCH  35  36
ATOM     36  C   UNL A   1      39.240  29.422  30.019  1.00  0.00     0.031 A 
ATOM     37  C   UNL A   1      39.645  30.139  31.285  1.00  0.00     0.074 A 
ATOM     38  C   UNL A   1      40.030  28.485  29.465  1.00  0.00     0.049 A 
ATOM     39  N   UNL A   1      40.711  29.969  32.022  1.00  0.00    -0.248 NA
ATOM     40  C   UNL A   1      38.763  31.218  31.771  1.00  0.00     0.031 C 
ATOM     41  C   UNL A   1      39.766  27.789  28.202  1.00  0.00     0.029 A 
ATOM     42  N   UNL A   1      41.209  27.943  29.902  1.00  0.00    -0.354 N 
ATOM     43  C   UNL A   1      40.622  30.916  33.035  1.00  0.00     0.074 A 
ATOM     44  C   UNL A   1      39.464  31.730  32.766  1.00  0.00     0.031 C 
ATOM     45  C   UNL A   1      40.717  26.865  28.003  1.00  0.00     0.029 A 
ATOM     46  C   UNL A   1      41.682  26.936  29.095  1.00  0.00     0.049 A 
ATOM     47  H   UNL A   1      41.672  28.244  30.716  1.00  0.00     0.167 HD
ATOM     48  C   UNL A   1      41.406  31.064  34.126  1.00  0.00     0.037 A 
ATOM     49  C   UNL A   1      42.770  26.156  29.234  1.00  0.00     0.037 A 
ATOM     50  C   UNL A   1      42.539  30.225  34.396  1.00  0.00     0.049 A 
ATOM     51  C   UNL A   1      43.629  26.337  30.455  1.00  0.00     0.074 A 
ATOM     52  C   UNL A   1      43.384  30.246  35.489  1.00  0.00     0.029 A 
ATOM     53  N   UNL A   1      42.986  29.212  33.558  1.00  0.00    -0.354 N 
ATOM     54  N   UNL A   1      43.493  27.193  31.443  1.00  0.00    -0.248 NA
ATOM     55  C   UNL A   1      44.778  25.437  30.592  1.00  0.00     0.031 C 
ATOM     56  C   UNL A   1      44.385  29.293  35.278  1.00  0.00     0.029 A 
ATOM     57  C   UNL A   1      44.112  28.618  34.097  1.00  0.00     0.049 A 
ATOM     58  H   UNL A   1      42.563  28.956  32.707  1.00  0.00     0.167 HD
ATOM     59  C   UNL A   1      44.516  26.905  32.339  1.00  0.00     0.074 A 
ATOM     60  C   UNL A   1      45.251  25.788  31.779  1.00  0.00     0.031 C 
ATOM     61  C   UNL A   1      44.821  27.503  33.520  1.00  0.00     0.037 A 
BRANCH  48  62
ATOM     62  C   UNL A   1      41.059  32.164  35.094  1.00  0.00     0.058 A 
ATOM     63  C   UNL A   1      40.135  31.979  36.137  1.00  0.00     0.135 A 
ATOM     64  C   UNL A   1      41.675  33.421  34.988  1.00  0.00     0.135 A 
ATOM     65  F   UNL A   1      39.492  30.807  36.273  1.00  0.00    -0.206 F 
ATOM     66  C   UNL A   1      39.814  33.005  37.020  1.00  0.00     0.059 A 
ATOM     67  C   UNL A   1      41.399  34.450  35.883  1.00  0.00     0.059 A 
ATOM     68  F   UNL A   1      42.556  33.661  34.004  1.00  0.00    -0.206 F 
ATOM     69  C   UNL A   1      40.457  34.236  36.888  1.00  0.00     0.060 A 
BRANCH  69  70
ATOM     70  S   UNL A   1      40.049  35.548  38.057  1.00  0.00     0.124 S 
ATOM     71  O   UNL A   1      38.852  35.009  38.695  1.00  0.00    -0.237 OA
ATOM     72  O   UNL A   1      41.244  35.601  38.892  1.00  0.00    -0.237 OA
ATOM     73  O   UNL A   1      39.831  36.711  37.202  1.00  0.00    -0.744 OA
ENDBRANCH  69  70
ENDBRANCH  48  62
BRANCH  49  74
ATOM     74  C   UNL A   1      43.080  25.120  28.212  1.00  0.00     0.058 A 
ATOM     75  C   UNL A   1      42.738  23.773  28.409  1.00  0.00     0.135 A 
ATOM     76  C   UNL A   1      43.719  25.459  27.009  1.00  0.00     0.135 A 
ATOM     77  F   UNL A   1      42.123  23.395  29.541  1.00  0.00    -0.206 F 
ATOM     78  C   UNL A   1      43.043  22.796  27.467  1.00  0.00     0.059 A 
ATOM     79  C   UNL A   1      44.005  24.507  26.037  1.00  0.00     0.059 A 
ATOM     80  F   UNL A   1      44.049  26.735  26.759  1.00  0.00    -0.206 F 
ATOM     81  C   UNL A   1      43.676  23.175  26.281  1.00  0.00     0.060 A 
BRANCH  81  82
ATOM     82  S   UNL A   1      44.040  21.904  25.051  1.00  0.00     0.124 S 
ATOM     83  O   UNL A   1      43.858  22.639  23.805  1.00  0.00    -0.237 OA
ATOM     84  O   UNL A   1      45.414  21.542  25.386  1.00  0.00    -0.237 OA
ATOM     85  O   UNL A   1      43.042  20.874  25.327  1.00  0.00    -0.744 OA
ENDBRANCH  81  82
ENDBRANCH  49  74
BRANCH  61  86
ATOM     86  C   UNL A   1      45.957  26.917  34.313  1.00  0.00     0.058 A 
ATOM     87  C   UNL A   1      45.766  25.889  35.249  1.00  0.00     0.135 A 
ATOM     88  C   UNL A   1      47.267  27.386  34.110  1.00  0.00     0.135 A 
ATOM     89  F   UNL A   1      44.537  25.401  35.479  1.00  0.00    -0.206 F 
ATOM     90  C   UNL A   1      46.825  25.387  35.999  1.00  0.00     0.059 A 
ATOM     91  C   UNL A   1      48.345  26.867  34.815  1.00  0.00     0.059 A 
ATOM     92  F   UNL A   1      47.509  28.354  33.212  1.00  0.00    -0.206 F 
ATOM     93  C   UNL A   1      48.110  25.886  35.775  1.00  0.00     0.060 A 
BRANCH  93  94
ATOM     94  S   UNL A   1      49.471  25.234  36.761  1.00  0.00     0.124 S 
ATOM     95  O   UNL A   1      50.302  26.421  36.936  1.00  0.00    -0.237 OA
ATOM     96  O   UNL A   1      48.787  24.756  37.959  1.00  0.00    -0.237 OA
ATOM     97  O   UNL A   1      50.039  24.191  35.913  1.00  0.00    -0.744 OA
ENDBRANCH  93  94
ENDBRANCH  61  86
ENDBRANCH  35  36
ENDBRANCH  27  30
ENDBRANCH  25  26
ENDBRANCH  24  25
ENDBRANCH   1  24
TORSDOF 19
ENDMDL
MODEL 2
REMARK VINA RESULT:     -11.0      5.362      8.496
REMARK SMILES CC[C@](C)([NH2+]CC(=O)NC[C@H]1CCCO1)C(=O)NCCCNC(=O)c1ccc(-c2c3nc(c(-c4c(F)cc(S(=O)(=O)[O-])cc4F)c4ccc([nH]4)c(-c4c(F)cc(S(=O)(=O)[O-])cc4F)c4nc(c(-c5c(F)cc(S(=O)(=O)[O-])cc5F)c5ccc2[nH]5)C=C4)C=C3)cc1
REMARK SMILES IDX 19 1 18 2 16 3 17 4 3 6 4 7 2 8 1 9 5 10 6 13 7 14 8 15 9 16
REMARK SMILES IDX 10 18 11 19 12 20 15 21 13 22 14 23 20 24 21 25 22 26 23 27
REMARK SMILES IDX 24 29 25 30 26 31 90 32 27 33 89 34 28 35 29 36 30 37 83 38
REMARK SMILES IDX 31 39 88 40 82 41 84 42 32 43 87 44 81 45 80 46 33 48 67 49
REMARK SMILES IDX 46 50 66 51 47 52 50 53 65 54 85 55 48 56 49 57 64 59 86 60
REMARK SMILES IDX 51 61 34 62 35 63 44 64 36 65 37 66 43 67 45 68 38 69 39 70
REMARK SMILES IDX 40 71 41 72 42 73 68 74 69 75 78 76 70 77 71 78 77 79 79 80
REMARK SMILES IDX 72 81 73 82 74 83 75 84 76 85 52 86 53 87 62 88 54 89 55 90
REMARK SMILES IDX 61 91 63 92 56 93 57 94 58 95 59 96 60 97
REMARK H PARENT 18 5 5 11 5 12 9 17 22 28 84 47 50 58
REMARK Flexibility Score: inf
ROOT
ATOM      1  C   UNL A   1      36.951  20.958  24.797  1.00  0.00     0.118 C 
ENDROOT
BRANCH   1   2
ATOM      2  N   UNL A   1      35.739  20.864  25.580  1.00  0.00    -0.351 N 
ATOM      3  C   UNL A   1      34.472  20.773  25.037  1.00  0.00     0.281 C 
ATOM      4  O   UNL A   1      33.881  19.701  25.255  1.00  0.00    -0.268 OA
ATOM      5  H   UNL A   1      35.822  20.865  26.562  1.00  0.00     0.163 HD
BRANCH   3   6
ATOM      6  C   UNL A   1      33.665  22.050  24.312  1.00  0.00     0.172 C 
ATOM      7  C   UNL A   1      32.480  21.013  23.888  1.00  0.00     0.090 C 
BRANCH   6   8
ATOM      8  C   UNL A   1      34.278  23.404  23.031  1.00  0.00     0.075 C 
ATOM      9  C   UNL A   1      33.006  24.654  21.770  1.00  0.00     0.011 C 
ENDBRANCH   6   8
BRANCH   6  10
ATOM     10  N   UNL A   1      32.992  22.799  25.365  1.00  0.00    -0.326 N 
ATOM     11  H   UNL A   1      33.087  23.789  25.138  1.00  0.00     0.347 HD
ATOM     12  H   UNL A   1      33.450  22.490  26.223  1.00  0.00     0.347 HD
BRANCH  10  13
ATOM     13  C   UNL A   1      31.583  22.547  25.602  1.00  0.00     0.362 C 
BRANCH  13  14
ATOM     14  C   UNL A   1      30.706  23.428  26.521  1.00  0.00     0.275 C 
ATOM     15  O   UNL A   1      30.435  22.954  27.637  1.00  0.00    -0.269 OA
ATOM     16  N   UNL A   1      30.203  24.688  26.296  1.00  0.00    -0.349 N 
ATOM     17  H   UNL A   1      29.850  25.050  27.140  1.00  0.00     0.163 HD
BRANCH  16  18
ATOM     18  C   UNL A   1      30.002  25.726  25.183  1.00  0.00     0.148 C 
BRANCH  18  19
ATOM     19  C   UNL A   1      30.842  27.206  25.152  1.00  0.00     0.137 C 
ATOM     20  C   UNL A   1      31.786  28.611  26.405  1.00  0.00     0.036 C 
ATOM     21  O   UNL A   1      32.232  25.966  24.777  1.00  0.00    -0.376 OA
ATOM     22  C   UNL A   1      33.637  27.892  26.718  1.00  0.00     0.031 C 
ATOM     23  C   UNL A   1      33.782  26.297  25.661  1.00  0.00     0.160 C 
ENDBRANCH  18  19
ENDBRANCH  16  18
ENDBRANCH  13  14
ENDBRANCH  10  13
ENDBRANCH   6  10
ENDBRANCH   3   6
ENDBRANCH   1   2
BRANCH   1  24
ATOM     24  C   UNL A   1      37.976  19.876  25.003  1.00  0.00     0.042 C 
BRANCH  24  25
ATOM     25  C   UNL A   1      39.148  20.416  25.779  1.00  0.00     0.118 C 
BRANCH  25  26
ATOM     26  N   UNL A   1      40.197  19.419  26.018  1.00  0.00    -0.352 N 
ATOM     27  C   UNL A   1      41.522  19.609  26.341  1.00  0.00     0.251 C 
ATOM     28  H   UNL A   1      39.913  18.479  25.934  1.00  0.00     0.163 HD
ATOM     29  O   UNL A   1      42.292  18.655  26.392  1.00  0.00    -0.269 OA
BRANCH  27  30
ATOM     30  C   UNL A   1      42.001  20.981  26.590  1.00  0.00     0.039 A 
ATOM     31  C   UNL A   1      42.366  21.371  27.877  1.00  0.00     0.014 A 
ATOM     32  C   UNL A   1      42.165  21.854  25.516  1.00  0.00     0.014 A 
ATOM     33  C   UNL A   1      42.943  22.626  28.060  1.00  0.00     0.010 A 
ATOM     34  C   UNL A   1      42.942  22.983  25.667  1.00  0.00     0.010 A 
ATOM     35  C   UNL A   1      43.260  23.428  26.949  1.00  0.00    -0.014 A 
BRANCH  35  36
ATOM     36  C   UNL A   1      43.816  24.789  27.105  1.00  0.00     0.031 A 
ATOM     37  C   UNL A   1      42.904  25.909  27.546  1.00  0.00     0.074 A 
ATOM     38  C   UNL A   1      45.116  25.011  26.838  1.00  0.00     0.049 A 
ATOM     39  N   UNL A   1      43.191  27.164  27.767  1.00  0.00    -0.248 NA
ATOM     40  C   UNL A   1      41.473  25.594  27.725  1.00  0.00     0.031 C 
ATOM     41  C   UNL A   1      46.063  24.014  26.332  1.00  0.00     0.029 A 
ATOM     42  N   UNL A   1      45.870  26.146  26.973  1.00  0.00    -0.354 N 
ATOM     43  C   UNL A   1      41.985  27.772  28.097  1.00  0.00     0.074 A 
ATOM     44  C   UNL A   1      40.947  26.785  27.944  1.00  0.00     0.031 C 
ATOM     45  C   UNL A   1      47.285  24.563  26.266  1.00  0.00     0.029 A 
ATOM     46  C   UNL A   1      47.199  25.959  26.677  1.00  0.00     0.049 A 
ATOM     47  H   UNL A   1      45.497  27.011  27.257  1.00  0.00     0.167 HD
ATOM     48  C   UNL A   1      41.765  29.030  28.541  1.00  0.00     0.037 A 
ATOM     49  C   UNL A   1      48.229  26.824  26.742  1.00  0.00     0.037 A 
ATOM     50  C   UNL A   1      42.815  29.993  28.718  1.00  0.00     0.049 A 
ATOM     51  C   UNL A   1      47.962  28.219  27.238  1.00  0.00     0.074 A 
ATOM     52  C   UNL A   1      42.725  31.283  29.203  1.00  0.00     0.029 A 
ATOM     53  N   UNL A   1      44.150  29.767  28.411  1.00  0.00    -0.354 N 
ATOM     54  N   UNL A   1      46.825  28.760  27.615  1.00  0.00    -0.248 NA
ATOM     55  C   UNL A   1      49.118  29.115  27.337  1.00  0.00     0.031 C 
ATOM     56  C   UNL A   1      43.995  31.863  29.123  1.00  0.00     0.029 A 
ATOM     57  C   UNL A   1      44.891  30.905  28.671  1.00  0.00     0.049 A 
ATOM     58  H   UNL A   1      44.514  28.922  28.060  1.00  0.00     0.167 HD
ATOM     59  C   UNL A   1      47.138  30.048  28.034  1.00  0.00     0.074 A 
ATOM     60  C   UNL A   1      48.571  30.195  27.877  1.00  0.00     0.031 C 
ATOM     61  C   UNL A   1      46.319  31.021  28.511  1.00  0.00     0.037 A 
BRANCH  48  62
ATOM     62  C   UNL A   1      40.347  29.421  28.863  1.00  0.00     0.058 A 
ATOM     63  C   UNL A   1      39.901  29.595  30.185  1.00  0.00     0.135 A 
ATOM     64  C   UNL A   1      39.422  29.644  27.831  1.00  0.00     0.135 A 
ATOM     65  F   UNL A   1      40.731  29.370  31.216  1.00  0.00    -0.206 F 
ATOM     66  C   UNL A   1      38.586  29.947  30.471  1.00  0.00     0.059 A 
ATOM     67  C   UNL A   1      38.112  30.033  28.092  1.00  0.00     0.059 A 
ATOM     68  F   UNL A   1      39.787  29.480  26.549  1.00  0.00    -0.206 F 
ATOM     69  C   UNL A   1      37.700  30.170  29.417  1.00  0.00     0.060 A 
BRANCH  69  70
ATOM     70  S   UNL A   1      36.005  30.651  29.805  1.00  0.00     0.124 S 
ATOM     71  O   UNL A   1      36.161  32.078  30.075  1.00  0.00    -0.237 OA
ATOM     72  O   UNL A   1      35.299  30.313  28.574  1.00  0.00    -0.237 OA
ATOM     73  O   UNL A   1      35.673  29.828  30.963  1.00  0.00    -0.744 OA
ENDBRANCH  69  70
ENDBRANCH  48  62
BRANCH  49  74
ATOM     74  C   UNL A   1      49.598  26.383  26.361  1.00  0.00     0.058 A 
ATOM     75  C   UNL A   1      50.120  26.641  25.084  1.00  0.00     0.135 A 
ATOM     76  C   UNL A   1      50.418  25.700  27.273  1.00  0.00     0.135 A 
ATOM     77  F   UNL A   1      49.378  27.292  24.174  1.00  0.00    -0.206 F 
ATOM     78  C   UNL A   1      51.391  26.214  24.714  1.00  0.00     0.059 A 
ATOM     79  C   UNL A   1      51.705  25.292  26.939  1.00  0.00     0.059 A 
ATOM     80  F   UNL A   1      49.977  25.447  28.515  1.00  0.00    -0.206 F 
ATOM     81  C   UNL A   1      52.178  25.541  25.652  1.00  0.00     0.060 A 
BRANCH  81  82
ATOM     82  S   UNL A   1      53.838  25.018  25.173  1.00  0.00     0.124 S 
ATOM     83  O   UNL A   1      54.658  25.682  26.179  1.00  0.00    -0.237 OA
ATOM     84  O   UNL A   1      53.743  23.566  25.281  1.00  0.00    -0.237 OA
ATOM     85  O   UNL A   1      53.972  25.531  23.812  1.00  0.00    -0.744 OA
ENDBRANCH  81  82
ENDBRANCH  49  74
BRANCH  61  86
ATOM     86  C   UNL A   1      46.966  32.304  28.957  1.00  0.00     0.058 A 
ATOM     87  C   UNL A   1      47.418  32.498  30.271  1.00  0.00     0.135 A 
ATOM     88  C   UNL A   1      47.153  33.351  28.038  1.00  0.00     0.135 A 
ATOM     89  F   UNL A   1      47.269  31.530  31.190  1.00  0.00    -0.206 F 
ATOM     90  C   UNL A   1      47.980  33.706  30.673  1.00  0.00     0.059 A 
ATOM     91  C   UNL A   1      47.752  34.548  28.406  1.00  0.00     0.059 A 
ATOM     92  F   UNL A   1      46.757  33.211  26.762  1.00  0.00    -0.206 F 
ATOM     93  C   UNL A   1      48.139  34.725  29.732  1.00  0.00     0.060 A 
BRANCH  93  94
ATOM     94  S   UNL A   1      48.858  36.289  30.269  1.00  0.00     0.124 S 
ATOM     95  O   UNL A   1      49.341  36.839  29.006  1.00  0.00    -0.237 OA
ATOM     96  O   UNL A   1      47.712  36.972  30.861  1.00  0.00    -0.237 OA
ATOM     97  O   UNL A   1      49.894  35.882  31.212  1.00  0.00    -0.744 OA
ENDBRANCH  93  94
ENDBRANCH  61  86
ENDBRANCH  35  36
ENDBRANCH  27  30
ENDBRANCH  25  26
ENDBRANCH  24  25
ENDBRANCH   1  24
TORSDOF 19
ENDMDL
MODEL 3
REMARK VINA RESULT:     -10.9      5.522     10.724
REMARK SMILES CC[C@](C)([NH2+]CC(=O)NC[C@H]1CCCO1)C(=O)NCCCNC(=O)c1ccc(-c2c3nc(c(-c4c(F)cc(S(=O)(=O)[O-])cc4F)c4ccc([nH]4)c(-c4c(F)cc(S(=O)(=O)[O-])cc4F)c4nc(c(-c5c(F)cc(S(=O)(=O)[O-])cc5F)c5ccc2[nH]5)C=C4)C=C3)cc1
REMARK SMILES IDX 19 1 18 2 16 3 17 4 3 6 4 7 2 8 1 9 5 10 6 13 7 14 8 15 9 16
REMARK SMILES IDX 10 18 11 19 12 20 15 21 13 22 14 23 20 24 21 25 22 26 23 27
REMARK SMILES IDX 24 29 25 30 26 31 90 32 27 33 89 34 28 35 29 36 30 37 83 38
REMARK SMILES IDX 31 39 88 40 82 41 84 42 32 43 87 44 81 45 80 46 33 48 67 49
REMARK SMILES IDX 46 50 66 51 47 52 50 53 65 54 85 55 48 56 49 57 64 59 86 60
REMARK SMILES IDX 51 61 34 62 35 63 44 64 36 65 37 66 43 67 45 68 38 69 39 70
REMARK SMILES IDX 40 71 41 72 42 73 68 74 69 75 78 76 70 77 71 78 77 79 79 80
REMARK SMILES IDX 72 81 73 82 74 83 75 84 76 85 52 86 53 87 62 88 54 89 55 90
REMARK SMILES IDX 61 91 63 92 56 93 57 94 58 95 59 96 60 97
REMARK H PARENT 18 5 5 11 5 12 9 17 22 28 84 47 50 58
REMARK Flexibility Score: inf
ROOT
ATOM      1  C   UNL A   1      37.694  20.977  24.876  1.00  0.00     0.118 C 
ENDROOT
BRANCH   1   2
ATOM      2  N   UNL A   1      36.747  22.062  24.732  1.00  0.00    -0.351 N 
ATOM      3  C   UNL A   1      35.688  22.282  25.590  1.00  0.00     0.281 C 
ATOM      4  O   UNL A   1      35.751  23.336  26.246  1.00  0.00    -0.268 OA
ATOM      5  H   UNL A   1      36.865  22.681  23.975  1.00  0.00     0.163 HD
BRANCH   3   6
ATOM      6  C   UNL A   1      34.300  21.343  25.633  1.00  0.00     0.172 C 
ATOM      7  C   UNL A   1      34.324  21.446  27.260  1.00  0.00     0.090 C 
BRANCH   6   8
ATOM      8  C   UNL A   1      33.872  19.632  24.773  1.00  0.00     0.075 C 
ATOM      9  C   UNL A   1      32.576  18.072  25.582  1.00  0.00     0.011 C 
ENDBRANCH   6   8
BRANCH   6  10
ATOM     10  N   UNL A   1      33.171  22.214  25.332  1.00  0.00    -0.326 N 
ATOM     11  H   UNL A   1      32.586  21.725  24.654  1.00  0.00     0.347 HD
ATOM     12  H   UNL A   1      33.603  23.081  25.011  1.00  0.00     0.347 HD
BRANCH  10  13
ATOM     13  C   UNL A   1      32.307  22.629  26.422  1.00  0.00     0.362 C 
BRANCH  13  14
ATOM     14  C   UNL A   1      30.956  23.348  26.207  1.00  0.00     0.275 C 
ATOM     15  O   UNL A   1      30.246  23.491  27.217  1.00  0.00    -0.269 OA
ATOM     16  N   UNL A   1      30.432  23.890  25.057  1.00  0.00    -0.349 N 
ATOM     17  H   UNL A   1      29.649  24.440  25.287  1.00  0.00     0.163 HD
BRANCH  16  18
ATOM     18  C   UNL A   1      30.645  23.933  23.537  1.00  0.00     0.148 C 
BRANCH  18  19
ATOM     19  C   UNL A   1      31.300  25.290  22.745  1.00  0.00     0.137 C 
ATOM     20  C   UNL A   1      31.665  27.348  22.996  1.00  0.00     0.036 C 
ATOM     21  O   UNL A   1      32.856  24.486  23.486  1.00  0.00    -0.376 OA
ATOM     22  C   UNL A   1      33.392  27.467  24.020  1.00  0.00     0.031 C 
ATOM     23  C   UNL A   1      34.015  25.664  24.235  1.00  0.00     0.160 C 
ENDBRANCH  18  19
ENDBRANCH  16  18
ENDBRANCH  13  14
ENDBRANCH  10  13
ENDBRANCH   6  10
ENDBRANCH   3   6
ENDBRANCH   1   2
BRANCH   1  24
ATOM     24  C   UNL A   1      39.017  21.314  25.508  1.00  0.00     0.042 C 
BRANCH  24  25
ATOM     25  C   UNL A   1      39.404  20.247  26.496  1.00  0.00     0.118 C 
BRANCH  25  26
ATOM     26  N   UNL A   1      40.552  19.443  26.065  1.00  0.00    -0.352 N 
ATOM     27  C   UNL A   1      41.872  19.810  25.932  1.00  0.00     0.251 C 
ATOM     28  H   UNL A   1      40.350  18.506  25.839  1.00  0.00     0.163 HD
ATOM     29  O   UNL A   1      42.688  19.033  25.445  1.00  0.00    -0.269 OA
BRANCH  27  30
ATOM     30  C   UNL A   1      42.277  21.164  26.352  1.00  0.00     0.039 A 
ATOM     31  C   UNL A   1      42.601  21.414  27.685  1.00  0.00     0.014 A 
ATOM     32  C   UNL A   1      42.414  22.167  25.394  1.00  0.00     0.014 A 
ATOM     33  C   UNL A   1      43.111  22.664  28.029  1.00  0.00     0.010 A 
ATOM     34  C   UNL A   1      43.129  23.306  25.696  1.00  0.00     0.010 A 
ATOM     35  C   UNL A   1      43.404  23.608  27.029  1.00  0.00    -0.014 A 
BRANCH  35  36
ATOM     36  C   UNL A   1      43.888  24.966  27.358  1.00  0.00     0.031 A 
ATOM     37  C   UNL A   1      45.346  25.298  27.145  1.00  0.00     0.074 A 
ATOM     38  C   UNL A   1      43.030  25.876  27.852  1.00  0.00     0.049 A 
ATOM     39  N   UNL A   1      45.969  26.429  27.344  1.00  0.00    -0.248 NA
ATOM     40  C   UNL A   1      46.234  24.211  26.688  1.00  0.00     0.031 C 
ATOM     41  C   UNL A   1      41.620  25.633  28.167  1.00  0.00     0.029 A 
ATOM     42  N   UNL A   1      43.215  27.197  28.161  1.00  0.00    -0.354 N 
ATOM     43  C   UNL A   1      47.304  26.179  27.046  1.00  0.00     0.074 A 
ATOM     44  C   UNL A   1      47.427  24.773  26.759  1.00  0.00     0.031 C 
ATOM     45  C   UNL A   1      41.051  26.783  28.558  1.00  0.00     0.029 A 
ATOM     46  C   UNL A   1      42.065  27.832  28.568  1.00  0.00     0.049 A 
ATOM     47  H   UNL A   1      44.086  27.650  28.096  1.00  0.00     0.167 HD
ATOM     48  C   UNL A   1      48.331  27.054  26.966  1.00  0.00     0.037 A 
ATOM     49  C   UNL A   1      41.860  29.119  28.901  1.00  0.00     0.037 A 
ATOM     50  C   UNL A   1      48.186  28.459  27.225  1.00  0.00     0.049 A 
ATOM     51  C   UNL A   1      43.017  30.077  28.805  1.00  0.00     0.074 A 
ATOM     52  C   UNL A   1      49.140  29.453  27.133  1.00  0.00     0.029 A 
ATOM     53  N   UNL A   1      47.005  29.066  27.631  1.00  0.00    -0.354 N 
ATOM     54  N   UNL A   1      44.260  29.839  28.453  1.00  0.00    -0.248 NA
ATOM     55  C   UNL A   1      42.741  31.478  29.132  1.00  0.00     0.031 C 
ATOM     56  C   UNL A   1      48.555  30.652  27.552  1.00  0.00     0.029 A 
ATOM     57  C   UNL A   1      47.214  30.420  27.820  1.00  0.00     0.049 A 
ATOM     58  H   UNL A   1      46.147  28.601  27.764  1.00  0.00     0.167 HD
ATOM     59  C   UNL A   1      44.904  31.071  28.478  1.00  0.00     0.074 A 
ATOM     60  C   UNL A   1      43.907  32.049  28.865  1.00  0.00     0.031 C 
ATOM     61  C   UNL A   1      46.199  31.372  28.201  1.00  0.00     0.037 A 
BRANCH  48  62
ATOM     62  C   UNL A   1      49.683  26.514  26.583  1.00  0.00     0.058 A 
ATOM     63  C   UNL A   1      50.597  26.038  27.539  1.00  0.00     0.135 A 
ATOM     64  C   UNL A   1      50.067  26.456  25.234  1.00  0.00     0.135 A 
ATOM     65  F   UNL A   1      50.299  26.092  28.848  1.00  0.00    -0.206 F 
ATOM     66  C   UNL A   1      51.848  25.551  27.175  1.00  0.00     0.059 A 
ATOM     67  C   UNL A   1      51.298  25.938  24.843  1.00  0.00     0.059 A 
ATOM     68  F   UNL A   1      49.242  26.909  24.276  1.00  0.00    -0.206 F 
ATOM     69  C   UNL A   1      52.187  25.499  25.823  1.00  0.00     0.060 A 
BRANCH  69  70
ATOM     70  S   UNL A   1      53.803  24.841  25.366  1.00  0.00     0.124 S 
ATOM     71  O   UNL A   1      54.570  25.077  26.586  1.00  0.00    -0.237 OA
ATOM     72  O   UNL A   1      53.496  23.445  25.070  1.00  0.00    -0.237 OA
ATOM     73  O   UNL A   1      54.190  25.653  24.217  1.00  0.00    -0.744 OA
ENDBRANCH  69  70
ENDBRANCH  48  62
BRANCH  49  74
ATOM     74  C   UNL A   1      40.506  29.575  29.319  1.00  0.00     0.058 A 
ATOM     75  C   UNL A   1      40.209  29.848  30.663  1.00  0.00     0.135 A 
ATOM     76  C   UNL A   1      39.482  29.756  28.377  1.00  0.00     0.135 A 
ATOM     77  F   UNL A   1      41.154  29.692  31.604  1.00  0.00    -0.206 F 
ATOM     78  C   UNL A   1      38.941  30.255  31.063  1.00  0.00     0.059 A 
ATOM     79  C   UNL A   1      38.215  30.195  28.746  1.00  0.00     0.059 A 
ATOM     80  F   UNL A   1      39.718  29.532  27.075  1.00  0.00    -0.206 F 
ATOM     81  C   UNL A   1      37.950  30.428  30.094  1.00  0.00     0.060 A 
BRANCH  81  82
ATOM     82  S   UNL A   1      36.315  30.986  30.620  1.00  0.00     0.124 S 
ATOM     83  O   UNL A   1      36.587  32.363  31.015  1.00  0.00    -0.237 OA
ATOM     84  O   UNL A   1      35.528  30.812  29.403  1.00  0.00    -0.237 OA
ATOM     85  O   UNL A   1      35.983  30.072  31.710  1.00  0.00    -0.744 OA
ENDBRANCH  81  82
ENDBRANCH  49  74
BRANCH  61  86
ATOM     86  C   UNL A   1      46.591  32.824  28.244  1.00  0.00     0.058 A 
ATOM     87  C   UNL A   1      47.147  33.416  29.388  1.00  0.00     0.135 A 
ATOM     88  C   UNL A   1      46.424  33.628  27.103  1.00  0.00     0.135 A 
ATOM     89  F   UNL A   1      47.333  32.694  30.504  1.00  0.00    -0.206 F 
ATOM     90  C   UNL A   1      47.468  34.770  29.419  1.00  0.00     0.059 A 
ATOM     91  C   UNL A   1      46.779  34.970  27.097  1.00  0.00     0.059 A 
ATOM     92  F   UNL A   1      45.916  33.107  25.975  1.00  0.00    -0.206 F 
ATOM     93  C   UNL A   1      47.277  35.538  28.268  1.00  0.00     0.060 A 
BRANCH  93  94
ATOM     94  S   UNL A   1      47.688  37.292  28.325  1.00  0.00     0.124 S 
ATOM     95  O   UNL A   1      47.622  37.655  26.913  1.00  0.00    -0.237 OA
ATOM     96  O   UNL A   1      46.627  37.833  29.169  1.00  0.00    -0.237 OA
ATOM     97  O   UNL A   1      49.022  37.312  28.916  1.00  0.00    -0.744 OA
ENDBRANCH  93  94
ENDBRANCH  61  86
ENDBRANCH  35  36
ENDBRANCH  27  30
ENDBRANCH  25  26
ENDBRANCH  24  25
ENDBRANCH   1  24
TORSDOF 19
ENDMDL
