MODEL 1
REMARK VINA RESULT:     -10.9      0.000      0.000
REMARK SMILES CC[C@@H](C)[C@@H](C(=O)NCCCNC(=O)c1ccc(-c2c3nc(c(-c4c(F)cc(S(=O)(=O)[O-])cc4F)c4ccc([nH]4)c(-c4c(F)cc(S(=O)(=O)[O-])cc4F)c4nc(c(-c5c(F)cc(S(=O)(=O)[O-])cc5F)c5ccc2[nH]5)C=C4)C=C3)cc1)S(=O)(=O)c1ccc(OC)cc1
REMARK SMILES IDX 10 1 9 2 8 3 6 4 7 5 5 7 3 8 4 9 2 10 1 11 81 12 82 13 83 14
REMARK SMILES IDX 84 15 85 16 91 17 86 18 90 19 87 20 88 21 89 22 11 23 12 24
REMARK SMILES IDX 13 25 14 27 15 28 16 29 80 30 17 31 79 32 18 33 19 34 20 35
REMARK SMILES IDX 73 36 21 37 78 38 72 39 74 40 22 41 77 42 71 43 70 44 23 46
REMARK SMILES IDX 57 47 36 48 56 49 37 50 40 51 55 52 75 53 38 54 39 55 54 57
REMARK SMILES IDX 76 58 41 59 24 60 25 61 34 62 26 63 27 64 33 65 35 66 28 67
REMARK SMILES IDX 29 68 30 69 31 70 32 71 58 72 59 73 68 74 60 75 61 76 67 77
REMARK SMILES IDX 69 78 62 79 63 80 64 81 65 82 66 83 42 84 43 85 52 86 44 87
REMARK SMILES IDX 45 88 51 89 53 90 46 91 47 92 48 93 49 94 50 95
REMARK H PARENT 8 6 12 26 74 45 40 56
REMARK Flexibility Score: inf
ROOT
ATOM      1  C   UNL A   1      37.966  19.663  24.997  1.00  0.00     0.042 C 
ENDROOT
BRANCH   1   2
ATOM      2  C   UNL A   1      36.832  20.648  24.677  1.00  0.00     0.117 C 
BRANCH   2   3
ATOM      3  N   UNL A   1      36.098  21.058  25.861  1.00  0.00    -0.355 N 
ATOM      4  C   UNL A   1      34.960  21.742  26.128  1.00  0.00     0.239 C 
ATOM      5  O   UNL A   1      34.711  21.737  27.336  1.00  0.00    -0.274 OA
ATOM      6  H   UNL A   1      36.546  20.761  26.686  1.00  0.00     0.163 HD
BRANCH   4   7
ATOM      7  C   UNL A   1      34.050  22.417  25.083  1.00  0.00     0.205 C 
BRANCH   7   8
ATOM      8  C   UNL A   1      33.326  21.548  23.989  1.00  0.00     0.014 C 
ATOM      9  C   UNL A   1      32.231  22.353  23.259  1.00  0.00     0.009 C 
BRANCH   8  10
ATOM     10  C   UNL A   1      32.723  20.259  24.555  1.00  0.00     0.002 C 
ATOM     11  C   UNL A   1      32.616  19.071  23.608  1.00  0.00     0.004 C 
ENDBRANCH   8  10
ENDBRANCH   7   8
BRANCH   7  12
ATOM     12  S   UNL A   1      35.049  23.745  24.290  1.00  0.00     0.190 S 
ATOM     13  O   UNL A   1      36.237  23.945  25.116  1.00  0.00    -0.223 OA
ATOM     14  O   UNL A   1      35.270  23.459  22.889  1.00  0.00    -0.223 OA
BRANCH  12  15
ATOM     15  C   UNL A   1      34.142  25.299  24.379  1.00  0.00     0.068 A 
ATOM     16  C   UNL A   1      33.617  25.930  23.251  1.00  0.00     0.024 A 
ATOM     17  C   UNL A   1      33.950  25.891  25.634  1.00  0.00     0.024 A 
ATOM     18  C   UNL A   1      32.960  27.155  23.365  1.00  0.00     0.048 A 
ATOM     19  C   UNL A   1      33.271  27.116  25.746  1.00  0.00     0.048 A 
ATOM     20  C   UNL A   1      32.785  27.759  24.606  1.00  0.00     0.118 A 
BRANCH  20  21
ATOM     21  O   UNL A   1      32.137  28.958  24.552  1.00  0.00    -0.497 OA
ATOM     22  C   UNL A   1      32.487  29.932  25.522  1.00  0.00     0.278 C 
ENDBRANCH  20  21
ENDBRANCH  12  15
ENDBRANCH   7  12
ENDBRANCH   4   7
ENDBRANCH   2   3
ENDBRANCH   1   2
BRANCH   1  23
ATOM     23  C   UNL A   1      39.121  20.239  25.819  1.00  0.00     0.118 C 
BRANCH  23  24
ATOM     24  N   UNL A   1      40.192  19.277  26.005  1.00  0.00    -0.352 N 
ATOM     25  C   UNL A   1      41.546  19.490  26.125  1.00  0.00     0.251 C 
ATOM     26  H   UNL A   1      39.908  18.336  26.052  1.00  0.00     0.163 HD
ATOM     27  O   UNL A   1      42.311  18.536  26.007  1.00  0.00    -0.269 OA
BRANCH  25  28
ATOM     28  C   UNL A   1      42.090  20.848  26.372  1.00  0.00     0.039 A 
ATOM     29  C   UNL A   1      42.373  21.231  27.688  1.00  0.00     0.014 A 
ATOM     30  C   UNL A   1      42.268  21.766  25.333  1.00  0.00     0.014 A 
ATOM     31  C   UNL A   1      42.881  22.508  27.953  1.00  0.00     0.010 A 
ATOM     32  C   UNL A   1      42.843  23.013  25.590  1.00  0.00     0.010 A 
ATOM     33  C   UNL A   1      43.149  23.402  26.904  1.00  0.00    -0.014 A 
BRANCH  33  34
ATOM     34  C   UNL A   1      43.739  24.745  27.162  1.00  0.00     0.031 A 
ATOM     35  C   UNL A   1      42.880  25.871  27.673  1.00  0.00     0.074 A 
ATOM     36  C   UNL A   1      45.038  24.970  26.886  1.00  0.00     0.049 A 
ATOM     37  N   UNL A   1      43.201  27.121  27.899  1.00  0.00    -0.248 NA
ATOM     38  C   UNL A   1      41.469  25.556  27.946  1.00  0.00     0.031 C 
ATOM     39  C   UNL A   1      45.976  23.976  26.364  1.00  0.00     0.029 A 
ATOM     40  N   UNL A   1      45.796  26.109  27.003  1.00  0.00    -0.354 N 
ATOM     41  C   UNL A   1      42.032  27.743  28.324  1.00  0.00     0.074 A 
ATOM     42  C   UNL A   1      40.985  26.744  28.274  1.00  0.00     0.031 C 
ATOM     43  C   UNL A   1      47.189  24.537  26.237  1.00  0.00     0.029 A 
ATOM     44  C   UNL A   1      47.108  25.942  26.628  1.00  0.00     0.049 A 
ATOM     45  H   UNL A   1      45.434  26.967  27.327  1.00  0.00     0.167 HD
ATOM     46  C   UNL A   1      41.848  29.021  28.738  1.00  0.00     0.037 A 
ATOM     47  C   UNL A   1      48.131  26.819  26.596  1.00  0.00     0.037 A 
ATOM     48  C   UNL A   1      42.894  30.009  28.803  1.00  0.00     0.049 A 
ATOM     49  C   UNL A   1      47.899  28.241  27.024  1.00  0.00     0.074 A 
ATOM     50  C   UNL A   1      42.821  31.313  29.260  1.00  0.00     0.029 A 
ATOM     51  N   UNL A   1      44.203  29.805  28.390  1.00  0.00    -0.354 N 
ATOM     52  N   UNL A   1      46.799  28.799  27.470  1.00  0.00    -0.248 NA
ATOM     53  C   UNL A   1      49.047  29.155  26.940  1.00  0.00     0.031 C 
ATOM     54  C   UNL A   1      44.074  31.911  29.083  1.00  0.00     0.029 A 
ATOM     55  C   UNL A   1      44.941  30.967  28.557  1.00  0.00     0.049 A 
ATOM     56  H   UNL A   1      44.557  28.959  28.033  1.00  0.00     0.167 HD
ATOM     57  C   UNL A   1      47.127  30.123  27.742  1.00  0.00     0.074 A 
ATOM     58  C   UNL A   1      48.530  30.280  27.416  1.00  0.00     0.031 C 
ATOM     59  C   UNL A   1      46.336  31.114  28.224  1.00  0.00     0.037 A 
BRANCH  46  60
ATOM     60  C   UNL A   1      40.453  29.417  29.142  1.00  0.00     0.058 A 
ATOM     61  C   UNL A   1      39.443  29.635  28.190  1.00  0.00     0.135 A 
ATOM     62  C   UNL A   1      40.125  29.600  30.496  1.00  0.00     0.135 A 
ATOM     63  F   UNL A   1      39.703  29.484  26.882  1.00  0.00    -0.206 F 
ATOM     64  C   UNL A   1      38.177  30.076  28.560  1.00  0.00     0.059 A 
ATOM     65  C   UNL A   1      38.855  30.013  30.891  1.00  0.00     0.059 A 
ATOM     66  F   UNL A   1      41.047  29.398  31.449  1.00  0.00    -0.206 F 
ATOM     67  C   UNL A   1      37.896  30.276  29.913  1.00  0.00     0.060 A 
BRANCH  67  68
ATOM     68  S   UNL A   1      36.268  30.903  30.377  1.00  0.00     0.124 S 
ATOM     69  O   UNL A   1      35.914  30.003  31.470  1.00  0.00    -0.237 OA
ATOM     70  O   UNL A   1      36.558  32.281  30.760  1.00  0.00    -0.237 OA
ATOM     71  O   UNL A   1      35.485  30.748  29.156  1.00  0.00    -0.744 OA
ENDBRANCH  67  68
ENDBRANCH  46  60
BRANCH  47  72
ATOM     72  C   UNL A   1      49.480  26.357  26.178  1.00  0.00     0.058 A 
ATOM     73  C   UNL A   1      49.971  26.657  24.898  1.00  0.00     0.135 A 
ATOM     74  C   UNL A   1      50.322  25.656  27.054  1.00  0.00     0.135 A 
ATOM     75  F   UNL A   1      49.198  27.317  24.022  1.00  0.00    -0.206 F 
ATOM     76  C   UNL A   1      51.250  26.283  24.503  1.00  0.00     0.059 A 
ATOM     77  C   UNL A   1      51.614  25.288  26.688  1.00  0.00     0.059 A 
ATOM     78  F   UNL A   1      49.902  25.356  28.294  1.00  0.00    -0.206 F 
ATOM     79  C   UNL A   1      52.068  25.607  25.409  1.00  0.00     0.060 A 
BRANCH  79  80
ATOM     80  S   UNL A   1      53.758  25.206  24.915  1.00  0.00     0.124 S 
ATOM     81  O   UNL A   1      53.720  23.748  24.887  1.00  0.00    -0.237 OA
ATOM     82  O   UNL A   1      53.863  25.868  23.618  1.00  0.00    -0.237 OA
ATOM     83  O   UNL A   1      54.567  25.797  25.978  1.00  0.00    -0.744 OA
ENDBRANCH  79  80
ENDBRANCH  47  72
BRANCH  59  84
ATOM     84  C   UNL A   1      46.972  32.458  28.446  1.00  0.00     0.058 A 
ATOM     85  C   UNL A   1      46.965  33.449  27.452  1.00  0.00     0.135 A 
ATOM     86  C   UNL A   1      47.544  32.780  29.688  1.00  0.00     0.135 A 
ATOM     87  F   UNL A   1      46.439  33.191  26.244  1.00  0.00    -0.206 F 
ATOM     88  C   UNL A   1      47.515  34.707  27.677  1.00  0.00     0.059 A 
ATOM     89  C   UNL A   1      48.079  34.038  29.942  1.00  0.00     0.059 A 
ATOM     90  F   UNL A   1      47.571  31.869  30.676  1.00  0.00    -0.206 F 
ATOM     91  C   UNL A   1      48.068  34.994  28.927  1.00  0.00     0.060 A 
BRANCH  91  92
ATOM     92  S   UNL A   1      48.738  36.645  29.220  1.00  0.00     0.124 S 
ATOM     93  O   UNL A   1      49.777  36.370  30.205  1.00  0.00    -0.237 OA
ATOM     94  O   UNL A   1      49.206  37.032  27.894  1.00  0.00    -0.237 OA
ATOM     95  O   UNL A   1      47.586  37.395  29.714  1.00  0.00    -0.744 OA
ENDBRANCH  91  92
ENDBRANCH  59  84
ENDBRANCH  33  34
ENDBRANCH  25  28
ENDBRANCH  23  24
ENDBRANCH   1  23
TORSDOF 18
ENDMDL
MODEL 2
REMARK VINA RESULT:     -10.9      6.444     11.250
REMARK SMILES CC[C@@H](C)[C@@H](C(=O)NCCCNC(=O)c1ccc(-c2c3nc(c(-c4c(F)cc(S(=O)(=O)[O-])cc4F)c4ccc([nH]4)c(-c4c(F)cc(S(=O)(=O)[O-])cc4F)c4nc(c(-c5c(F)cc(S(=O)(=O)[O-])cc5F)c5ccc2[nH]5)C=C4)C=C3)cc1)S(=O)(=O)c1ccc(OC)cc1
REMARK SMILES IDX 10 1 9 2 8 3 6 4 7 5 5 7 3 8 4 9 2 10 1 11 81 12 82 13 83 14
REMARK SMILES IDX 84 15 85 16 91 17 86 18 90 19 87 20 88 21 89 22 11 23 12 24
REMARK SMILES IDX 13 25 14 27 15 28 16 29 80 30 17 31 79 32 18 33 19 34 20 35
REMARK SMILES IDX 73 36 21 37 78 38 72 39 74 40 22 41 77 42 71 43 70 44 23 46
REMARK SMILES IDX 57 47 36 48 56 49 37 50 40 51 55 52 75 53 38 54 39 55 54 57
REMARK SMILES IDX 76 58 41 59 24 60 25 61 34 62 26 63 27 64 33 65 35 66 28 67
REMARK SMILES IDX 29 68 30 69 31 70 32 71 58 72 59 73 68 74 60 75 61 76 67 77
REMARK SMILES IDX 69 78 62 79 63 80 64 81 65 82 66 83 42 84 43 85 52 86 44 87
REMARK SMILES IDX 45 88 51 89 53 90 46 91 47 92 48 93 49 94 50 95
REMARK H PARENT 8 6 12 26 74 45 40 56
REMARK Flexibility Score: inf
ROOT
ATOM      1  C   UNL A   1      37.353  23.411  25.434  1.00  0.00     0.042 C 
ENDROOT
BRANCH   1   2
ATOM      2  C   UNL A   1      35.863  23.380  25.806  1.00  0.00     0.117 C 
BRANCH   2   3
ATOM      3  N   UNL A   1      35.174  24.608  25.454  1.00  0.00    -0.355 N 
ATOM      4  C   UNL A   1      33.938  24.957  25.024  1.00  0.00     0.239 C 
ATOM      5  O   UNL A   1      33.819  26.183  24.960  1.00  0.00    -0.274 OA
ATOM      6  H   UNL A   1      35.759  25.394  25.555  1.00  0.00     0.163 HD
BRANCH   4   7
ATOM      7  C   UNL A   1      32.795  23.980  24.684  1.00  0.00     0.205 C 
BRANCH   7   8
ATOM      8  C   UNL A   1      32.188  23.057  25.805  1.00  0.00     0.014 C 
ATOM      9  C   UNL A   1      30.647  23.068  25.776  1.00  0.00     0.009 C 
BRANCH   8  10
ATOM     10  C   UNL A   1      32.676  23.426  27.210  1.00  0.00     0.002 C 
ATOM     11  C   UNL A   1      33.307  22.313  28.038  1.00  0.00     0.004 C 
ENDBRANCH   8  10
ENDBRANCH   7   8
BRANCH   7  12
ATOM     12  S   UNL A   1      33.370  22.967  23.259  1.00  0.00     0.190 S 
ATOM     13  O   UNL A   1      32.326  23.022  22.240  1.00  0.00    -0.223 OA
ATOM     14  O   UNL A   1      34.702  23.358  22.851  1.00  0.00    -0.223 OA
BRANCH  12  15
ATOM     15  C   UNL A   1      33.455  21.239  23.760  1.00  0.00     0.068 A 
ATOM     16  C   UNL A   1      34.506  20.724  24.519  1.00  0.00     0.024 A 
ATOM     17  C   UNL A   1      32.416  20.380  23.377  1.00  0.00     0.024 A 
ATOM     18  C   UNL A   1      34.550  19.368  24.844  1.00  0.00     0.048 A 
ATOM     19  C   UNL A   1      32.454  19.018  23.723  1.00  0.00     0.048 A 
ATOM     20  C   UNL A   1      33.532  18.506  24.448  1.00  0.00     0.118 A 
BRANCH  20  21
ATOM     21  O   UNL A   1      33.724  17.211  24.831  1.00  0.00    -0.497 OA
ATOM     22  C   UNL A   1      32.691  16.594  25.581  1.00  0.00     0.278 C 
ENDBRANCH  20  21
ENDBRANCH  12  15
ENDBRANCH   7  12
ENDBRANCH   4   7
ENDBRANCH   2   3
ENDBRANCH   1   2
BRANCH   1  23
ATOM     23  C   UNL A   1      38.273  24.061  26.470  1.00  0.00     0.118 C 
BRANCH  23  24
ATOM     24  N   UNL A   1      39.676  23.865  26.153  1.00  0.00    -0.352 N 
ATOM     25  C   UNL A   1      40.765  24.631  26.502  1.00  0.00     0.251 C 
ATOM     26  H   UNL A   1      39.877  23.069  25.610  1.00  0.00     0.163 HD
ATOM     27  O   UNL A   1      41.830  24.451  25.917  1.00  0.00    -0.269 OA
BRANCH  25  28
ATOM     28  C   UNL A   1      40.665  25.675  27.551  1.00  0.00     0.039 A 
ATOM     29  C   UNL A   1      39.654  25.569  28.512  1.00  0.00     0.014 A 
ATOM     30  C   UNL A   1      41.515  26.784  27.563  1.00  0.00     0.014 A 
ATOM     31  C   UNL A   1      39.530  26.543  29.510  1.00  0.00     0.010 A 
ATOM     32  C   UNL A   1      41.437  27.716  28.600  1.00  0.00     0.010 A 
ATOM     33  C   UNL A   1      40.439  27.611  29.582  1.00  0.00    -0.014 A 
BRANCH  33  34
ATOM     34  C   UNL A   1      40.356  28.627  30.668  1.00  0.00     0.031 A 
ATOM     35  C   UNL A   1      41.269  28.544  31.863  1.00  0.00     0.074 A 
ATOM     36  C   UNL A   1      39.423  29.597  30.609  1.00  0.00     0.049 A 
ATOM     37  N   UNL A   1      41.304  29.299  32.933  1.00  0.00    -0.248 NA
ATOM     38  C   UNL A   1      42.259  27.456  31.864  1.00  0.00     0.031 C 
ATOM     39  C   UNL A   1      38.460  29.777  29.522  1.00  0.00     0.029 A 
ATOM     40  N   UNL A   1      39.128  30.613  31.484  1.00  0.00    -0.354 N 
ATOM     41  C   UNL A   1      42.305  28.769  33.740  1.00  0.00     0.074 A 
ATOM     42  C   UNL A   1      42.816  27.598  33.058  1.00  0.00     0.031 C 
ATOM     43  C   UNL A   1      37.704  30.858  29.778  1.00  0.00     0.029 A 
ATOM     44  C   UNL A   1      38.097  31.422  31.066  1.00  0.00     0.049 A 
ATOM     45  H   UNL A   1      39.610  30.750  32.333  1.00  0.00     0.167 HD
ATOM     46  C   UNL A   1      42.772  29.224  34.928  1.00  0.00     0.037 A 
ATOM     47  C   UNL A   1      37.530  32.494  31.653  1.00  0.00     0.037 A 
ATOM     48  C   UNL A   1      42.275  30.398  35.598  1.00  0.00     0.049 A 
ATOM     49  C   UNL A   1      38.037  32.962  32.988  1.00  0.00     0.074 A 
ATOM     50  C   UNL A   1      42.718  30.972  36.776  1.00  0.00     0.029 A 
ATOM     51  N   UNL A   1      41.214  31.175  35.151  1.00  0.00    -0.354 N 
ATOM     52  N   UNL A   1      39.017  32.478  33.713  1.00  0.00    -0.248 NA
ATOM     53  C   UNL A   1      37.358  34.119  33.588  1.00  0.00     0.031 C 
ATOM     54  C   UNL A   1      41.899  32.070  37.065  1.00  0.00     0.029 A 
ATOM     55  C   UNL A   1      40.972  32.207  36.045  1.00  0.00     0.049 A 
ATOM     56  H   UNL A   1      40.709  31.017  34.322  1.00  0.00     0.167 HD
ATOM     57  C   UNL A   1      39.088  33.286  34.843  1.00  0.00     0.074 A 
ATOM     58  C   UNL A   1      38.055  34.292  34.702  1.00  0.00     0.031 C 
ATOM     59  C   UNL A   1      39.937  33.201  35.897  1.00  0.00     0.037 A 
BRANCH  46  60
ATOM     60  C   UNL A   1      43.875  28.434  35.580  1.00  0.00     0.058 A 
ATOM     61  C   UNL A   1      45.228  28.668  35.281  1.00  0.00     0.135 A 
ATOM     62  C   UNL A   1      43.578  27.417  36.503  1.00  0.00     0.135 A 
ATOM     63  F   UNL A   1      45.570  29.621  34.400  1.00  0.00    -0.206 F 
ATOM     64  C   UNL A   1      46.241  27.886  35.825  1.00  0.00     0.059 A 
ATOM     65  C   UNL A   1      44.579  26.641  37.083  1.00  0.00     0.059 A 
ATOM     66  F   UNL A   1      42.304  27.154  36.833  1.00  0.00    -0.206 F 
ATOM     67  C   UNL A   1      45.905  26.864  36.715  1.00  0.00     0.060 A 
BRANCH  67  68
ATOM     68  S   UNL A   1      47.222  25.819  37.371  1.00  0.00     0.124 S 
ATOM     69  O   UNL A   1      47.417  24.878  36.273  1.00  0.00    -0.237 OA
ATOM     70  O   UNL A   1      48.305  26.774  37.585  1.00  0.00    -0.237 OA
ATOM     71  O   UNL A   1      46.638  25.258  38.584  1.00  0.00    -0.744 OA
ENDBRANCH  67  68
ENDBRANCH  46  60
BRANCH  47  72
ATOM     72  C   UNL A   1      36.439  33.220  30.952  1.00  0.00     0.058 A 
ATOM     73  C   UNL A   1      35.113  33.122  31.401  1.00  0.00     0.135 A 
ATOM     74  C   UNL A   1      36.699  34.062  29.859  1.00  0.00     0.135 A 
ATOM     75  F   UNL A   1      34.815  32.322  32.436  1.00  0.00    -0.206 F 
ATOM     76  C   UNL A   1      34.084  33.834  30.796  1.00  0.00     0.059 A 
ATOM     77  C   UNL A   1      35.689  34.801  29.250  1.00  0.00     0.059 A 
ATOM     78  F   UNL A   1      37.953  34.200  29.400  1.00  0.00    -0.206 F 
ATOM     79  C   UNL A   1      34.384  34.680  29.727  1.00  0.00     0.060 A 
BRANCH  79  80
ATOM     80  S   UNL A   1      33.054  35.668  29.008  1.00  0.00     0.124 S 
ATOM     81  O   UNL A   1      32.312  36.073  30.196  1.00  0.00    -0.237 OA
ATOM     82  O   UNL A   1      33.794  36.725  28.325  1.00  0.00    -0.237 OA
ATOM     83  O   UNL A   1      32.372  34.722  28.128  1.00  0.00    -0.744 OA
ENDBRANCH  79  80
ENDBRANCH  47  72
BRANCH  59  84
ATOM     84  C   UNL A   1      39.800  34.235  36.980  1.00  0.00     0.058 A 
ATOM     85  C   UNL A   1      40.338  35.524  36.838  1.00  0.00     0.135 A 
ATOM     86  C   UNL A   1      39.074  33.953  38.148  1.00  0.00     0.135 A 
ATOM     87  F   UNL A   1      41.049  35.843  35.745  1.00  0.00    -0.206 F 
ATOM     88  C   UNL A   1      40.171  36.492  37.823  1.00  0.00     0.059 A 
ATOM     89  C   UNL A   1      38.875  34.913  39.135  1.00  0.00     0.059 A 
ATOM     90  F   UNL A   1      38.532  32.737  38.329  1.00  0.00    -0.206 F 
ATOM     91  C   UNL A   1      39.435  36.179  38.967  1.00  0.00     0.060 A 
BRANCH  91  92
ATOM     92  S   UNL A   1      39.189  37.459  40.217  1.00  0.00     0.124 S 
ATOM     93  O   UNL A   1      38.608  36.692  41.313  1.00  0.00    -0.237 OA
ATOM     94  O   UNL A   1      40.546  37.949  40.435  1.00  0.00    -0.237 OA
ATOM     95  O   UNL A   1      38.286  38.402  39.562  1.00  0.00    -0.744 OA
ENDBRANCH  91  92
ENDBRANCH  59  84
ENDBRANCH  33  34
ENDBRANCH  25  28
ENDBRANCH  23  24
ENDBRANCH   1  23
TORSDOF 18
ENDMDL
MODEL 3
REMARK VINA RESULT:     -10.8      6.548     10.976
REMARK SMILES CC[C@@H](C)[C@@H](C(=O)NCCCNC(=O)c1ccc(-c2c3nc(c(-c4c(F)cc(S(=O)(=O)[O-])cc4F)c4ccc([nH]4)c(-c4c(F)cc(S(=O)(=O)[O-])cc4F)c4nc(c(-c5c(F)cc(S(=O)(=O)[O-])cc5F)c5ccc2[nH]5)C=C4)C=C3)cc1)S(=O)(=O)c1ccc(OC)cc1
REMARK SMILES IDX 10 1 9 2 8 3 6 4 7 5 5 7 3 8 4 9 2 10 1 11 81 12 82 13 83 14
REMARK SMILES IDX 84 15 85 16 91 17 86 18 90 19 87 20 88 21 89 22 11 23 12 24
REMARK SMILES IDX 13 25 14 27 15 28 16 29 80 30 17 31 79 32 18 33 19 34 20 35
REMARK SMILES IDX 73 36 21 37 78 38 72 39 74 40 22 41 77 42 71 43 70 44 23 46
REMARK SMILES IDX 57 47 36 48 56 49 37 50 40 51 55 52 75 53 38 54 39 55 54 57
REMARK SMILES IDX 76 58 41 59 24 60 25 61 34 62 26 63 27 64 33 65 35 66 28 67
REMARK SMILES IDX 29 68 30 69 31 70 32 71 58 72 59 73 68 74 60 75 61 76 67 77
REMARK SMILES IDX 69 78 62 79 63 80 64 81 65 82 66 83 42 84 43 85 52 86 44 87
REMARK SMILES IDX 45 88 51 89 53 90 46 91 47 92 48 93 49 94 50 95
REMARK H PARENT 8 6 12 26 74 45 40 56
REMARK Flexibility Score: inf
ROOT
ATOM      1  C   UNL A   1      37.059  23.132  25.713  1.00  0.00     0.042 C 
ENDROOT
BRANCH   1   2
ATOM      2  C   UNL A   1      35.577  23.222  26.104  1.00  0.00     0.117 C 
BRANCH   2   3
ATOM      3  N   UNL A   1      34.930  21.922  26.141  1.00  0.00    -0.355 N 
ATOM      4  C   UNL A   1      33.704  21.422  25.853  1.00  0.00     0.239 C 
ATOM      5  O   UNL A   1      33.688  20.193  25.963  1.00  0.00    -0.274 OA
ATOM      6  H   UNL A   1      35.544  21.220  26.458  1.00  0.00     0.163 HD
BRANCH   4   7
ATOM      7  C   UNL A   1      32.479  22.245  25.409  1.00  0.00     0.205 C 
BRANCH   7   8
ATOM      8  C   UNL A   1      32.556  23.137  24.115  1.00  0.00     0.014 C 
ATOM      9  C   UNL A   1      31.208  23.168  23.367  1.00  0.00     0.009 C 
BRANCH   8  10
ATOM     10  C   UNL A   1      33.665  22.698  23.153  1.00  0.00     0.002 C 
ATOM     11  C   UNL A   1      34.601  23.782  22.635  1.00  0.00     0.004 C 
ENDBRANCH   8  10
ENDBRANCH   7   8
BRANCH   7  12
ATOM     12  S   UNL A   1      31.968  23.259  26.858  1.00  0.00     0.190 S 
ATOM     13  O   UNL A   1      30.559  22.970  27.112  1.00  0.00    -0.223 OA
ATOM     14  O   UNL A   1      32.881  23.074  27.965  1.00  0.00    -0.223 OA
BRANCH  12  15
ATOM     15  C   UNL A   1      32.023  25.002  26.408  1.00  0.00     0.068 A 
ATOM     16  C   UNL A   1      33.218  25.712  26.288  1.00  0.00     0.024 A 
ATOM     17  C   UNL A   1      30.815  25.668  26.161  1.00  0.00     0.024 A 
ATOM     18  C   UNL A   1      33.207  27.072  25.980  1.00  0.00     0.048 A 
ATOM     19  C   UNL A   1      30.810  27.034  25.833  1.00  0.00     0.048 A 
ATOM     20  C   UNL A   1      32.009  27.744  25.755  1.00  0.00     0.118 A 
BRANCH  20  21
ATOM     21  O   UNL A   1      32.163  29.071  25.479  1.00  0.00    -0.497 OA
ATOM     22  C   UNL A   1      33.225  29.752  26.127  1.00  0.00     0.278 C 
ENDBRANCH  20  21
ENDBRANCH  12  15
ENDBRANCH   7  12
ENDBRANCH   4   7
ENDBRANCH   2   3
ENDBRANCH   1   2
BRANCH   1  23
ATOM     23  C   UNL A   1      37.990  24.100  26.447  1.00  0.00     0.118 C 
BRANCH  23  24
ATOM     24  N   UNL A   1      39.389  23.774  26.240  1.00  0.00    -0.352 N 
ATOM     25  C   UNL A   1      40.513  24.445  26.662  1.00  0.00     0.251 C 
ATOM     26  H   UNL A   1      39.557  22.953  25.724  1.00  0.00     0.163 HD
ATOM     27  O   UNL A   1      41.599  24.160  26.163  1.00  0.00    -0.269 OA
BRANCH  25  28
ATOM     28  C   UNL A   1      40.430  25.514  27.688  1.00  0.00     0.039 A 
ATOM     29  C   UNL A   1      39.384  25.476  28.616  1.00  0.00     0.014 A 
ATOM     30  C   UNL A   1      41.331  26.581  27.708  1.00  0.00     0.014 A 
ATOM     31  C   UNL A   1      39.275  26.473  29.592  1.00  0.00     0.010 A 
ATOM     32  C   UNL A   1      41.265  27.536  28.725  1.00  0.00     0.010 A 
ATOM     33  C   UNL A   1      40.231  27.498  29.675  1.00  0.00    -0.014 A 
BRANCH  33  34
ATOM     34  C   UNL A   1      40.162  28.538  30.738  1.00  0.00     0.031 A 
ATOM     35  C   UNL A   1      41.067  28.463  31.940  1.00  0.00     0.074 A 
ATOM     36  C   UNL A   1      39.249  29.525  30.653  1.00  0.00     0.049 A 
ATOM     37  N   UNL A   1      41.110  29.239  32.995  1.00  0.00    -0.248 NA
ATOM     38  C   UNL A   1      42.034  27.355  31.971  1.00  0.00     0.031 C 
ATOM     39  C   UNL A   1      38.297  29.702  29.556  1.00  0.00     0.029 A 
ATOM     40  N   UNL A   1      38.969  30.565  31.504  1.00  0.00    -0.354 N 
ATOM     41  C   UNL A   1      42.096  28.707  33.819  1.00  0.00     0.074 A 
ATOM     42  C   UNL A   1      42.586  27.512  33.165  1.00  0.00     0.031 C 
ATOM     43  C   UNL A   1      37.561  30.802  29.784  1.00  0.00     0.029 A 
ATOM     44  C   UNL A   1      37.958  31.386  31.063  1.00  0.00     0.049 A 
ATOM     45  H   UNL A   1      39.449  30.711  32.353  1.00  0.00     0.167 HD
ATOM     46  C   UNL A   1      42.564  29.178  35.001  1.00  0.00     0.037 A 
ATOM     47  C   UNL A   1      37.408  32.481  31.623  1.00  0.00     0.037 A 
ATOM     48  C   UNL A   1      42.087  30.375  35.642  1.00  0.00     0.049 A 
ATOM     49  C   UNL A   1      37.917  32.967  32.951  1.00  0.00     0.074 A 
ATOM     50  C   UNL A   1      42.534  30.965  36.811  1.00  0.00     0.029 A 
ATOM     51  N   UNL A   1      41.045  31.163  35.173  1.00  0.00    -0.354 N 
ATOM     52  N   UNL A   1      38.883  32.479  33.693  1.00  0.00    -0.248 NA
ATOM     53  C   UNL A   1      37.257  34.150  33.522  1.00  0.00     0.031 C 
ATOM     54  C   UNL A   1      41.735  32.085  37.072  1.00  0.00     0.029 A 
ATOM     55  C   UNL A   1      40.818  32.219  36.042  1.00  0.00     0.049 A 
ATOM     56  H   UNL A   1      40.541  30.998  34.343  1.00  0.00     0.167 HD
ATOM     57  C   UNL A   1      38.963  33.309  34.806  1.00  0.00     0.074 A 
ATOM     58  C   UNL A   1      37.952  34.333  34.637  1.00  0.00     0.031 C 
ATOM     59  C   UNL A   1      39.804  33.229  35.867  1.00  0.00     0.037 A 
BRANCH  46  60
ATOM     60  C   UNL A   1      43.647  28.379  35.676  1.00  0.00     0.058 A 
ATOM     61  C   UNL A   1      45.007  28.589  35.390  1.00  0.00     0.135 A 
ATOM     62  C   UNL A   1      43.324  27.380  36.609  1.00  0.00     0.135 A 
ATOM     63  F   UNL A   1      45.373  29.524  34.500  1.00  0.00    -0.206 F 
ATOM     64  C   UNL A   1      46.001  27.798  35.956  1.00  0.00     0.059 A 
ATOM     65  C   UNL A   1      44.305  26.597  37.211  1.00  0.00     0.059 A 
ATOM     66  F   UNL A   1      42.042  27.142  36.928  1.00  0.00    -0.206 F 
ATOM     67  C   UNL A   1      45.639  26.794  36.856  1.00  0.00     0.060 A 
BRANCH  67  68
ATOM     68  S   UNL A   1      46.932  25.738  37.542  1.00  0.00     0.124 S 
ATOM     69  O   UNL A   1      48.112  26.579  37.368  1.00  0.00    -0.237 OA
ATOM     70  O   UNL A   1      46.488  25.549  38.919  1.00  0.00    -0.237 OA
ATOM     71  O   UNL A   1      46.879  24.547  36.701  1.00  0.00    -0.744 OA
ENDBRANCH  67  68
ENDBRANCH  46  60
BRANCH  47  72
ATOM     72  C   UNL A   1      36.337  33.214  30.900  1.00  0.00     0.058 A 
ATOM     73  C   UNL A   1      35.013  33.183  31.365  1.00  0.00     0.135 A 
ATOM     74  C   UNL A   1      36.615  33.996  29.769  1.00  0.00     0.135 A 
ATOM     75  F   UNL A   1      34.698  32.441  32.437  1.00  0.00    -0.206 F 
ATOM     76  C   UNL A   1      34.004  33.904  30.738  1.00  0.00     0.059 A 
ATOM     77  C   UNL A   1      35.625  34.743  29.136  1.00  0.00     0.059 A 
ATOM     78  F   UNL A   1      37.868  34.069  29.293  1.00  0.00    -0.206 F 
ATOM     79  C   UNL A   1      34.322  34.690  29.629  1.00  0.00     0.060 A 
BRANCH  79  80
ATOM     80  S   UNL A   1      33.021  35.692  28.878  1.00  0.00     0.124 S 
ATOM     81  O   UNL A   1      32.374  34.725  27.999  1.00  0.00    -0.237 OA
ATOM     82  O   UNL A   1      32.248  36.113  30.043  1.00  0.00    -0.237 OA
ATOM     83  O   UNL A   1      33.762  36.757  28.209  1.00  0.00    -0.744 OA
ENDBRANCH  79  80
ENDBRANCH  47  72
BRANCH  59  84
ATOM     84  C   UNL A   1      39.681  34.289  36.927  1.00  0.00     0.058 A 
ATOM     85  C   UNL A   1      39.027  34.041  38.144  1.00  0.00     0.135 A 
ATOM     86  C   UNL A   1      40.274  35.550  36.747  1.00  0.00     0.135 A 
ATOM     87  F   UNL A   1      38.435  32.856  38.363  1.00  0.00    -0.206 F 
ATOM     88  C   UNL A   1      38.954  35.010  39.139  1.00  0.00     0.059 A 
ATOM     89  C   UNL A   1      40.232  36.525  37.737  1.00  0.00     0.059 A 
ATOM     90  F   UNL A   1      40.918  35.836  35.603  1.00  0.00    -0.206 F 
ATOM     91  C   UNL A   1      39.562  36.249  38.928  1.00  0.00     0.060 A 
BRANCH  91  92
ATOM     92  S   UNL A   1      39.498  37.482  40.247  1.00  0.00     0.124 S 
ATOM     93  O   UNL A   1      40.914  37.758  40.460  1.00  0.00    -0.237 OA
ATOM     94  O   UNL A   1      38.726  38.557  39.632  1.00  0.00    -0.237 OA
ATOM     95  O   UNL A   1      38.823  36.779  41.335  1.00  0.00    -0.744 OA
ENDBRANCH  91  92
ENDBRANCH  59  84
ENDBRANCH  33  34
ENDBRANCH  25  28
ENDBRANCH  23  24
ENDBRANCH   1  23
TORSDOF 18
ENDMDL
