MODEL 1
REMARK VINA RESULT:     -11.9      0.000      0.000
REMARK SMILES COc1ccc(Cl)cc1C(=O)Nc1ccc(OCC(=O)NCCCNC(=O)c2ccc(-c3c4nc(c(-c5c(F)cc(S(=O)(=O)[O-])cc5F)c5ccc([nH]5)c(-c5c(F)cc(S(=O)(=O)[O-])cc5F)c5nc(c(-c6c(F)cc(S(=O)(=O)[O-])cc6F)c6ccc3[nH]6)C=C5)C=C4)cc2)cc1
REMARK SMILES IDX 22 1 21 2 19 3 20 4 18 6 17 7 16 8 13 9 14 10 95 11 15 12
REMARK SMILES IDX 94 13 12 14 10 15 11 16 9 18 3 19 4 20 5 21 8 22 6 23 7 24
REMARK SMILES IDX 2 25 1 26 23 27 24 28 25 29 26 30 27 32 28 33 29 34 93 35
REMARK SMILES IDX 30 36 92 37 31 38 32 39 33 40 86 41 34 42 91 43 85 44 87 45
REMARK SMILES IDX 35 46 90 47 84 48 83 49 36 51 70 52 49 53 69 54 50 55 53 56
REMARK SMILES IDX 68 57 88 58 51 59 52 60 67 62 89 63 54 64 37 65 38 66 47 67
REMARK SMILES IDX 39 68 40 69 46 70 48 71 41 72 42 73 43 74 44 75 45 76 71 77
REMARK SMILES IDX 72 78 81 79 73 80 74 81 80 82 82 83 75 84 76 85 77 86 78 87
REMARK SMILES IDX 79 88 55 89 56 90 65 91 57 92 58 93 64 94 66 95 59 96 60 97
REMARK SMILES IDX 61 98 62 99 63 100
REMARK H PARENT 21 5 12 17 25 31 87 50 53 61
REMARK Flexibility Score: inf
ROOT
ATOM      1  C   UNL A   1      33.387  28.671  25.802  1.00  0.00     0.117 C 
ENDROOT
BRANCH   1   2
ATOM      2  N   UNL A   1      34.052  28.614  24.510  1.00  0.00    -0.353 N 
ATOM      3  C   UNL A   1      33.532  28.668  23.247  1.00  0.00     0.257 C 
ATOM      4  O   UNL A   1      34.326  28.650  22.302  1.00  0.00    -0.271 OA
ATOM      5  H   UNL A   1      35.032  28.521  24.551  1.00  0.00     0.163 HD
BRANCH   3   6
ATOM      6  C   UNL A   1      32.016  28.795  23.001  1.00  0.00     0.329 C 
BRANCH   6   7
ATOM      7  O   UNL A   1      31.243  27.646  22.703  1.00  0.00    -0.484 OA
BRANCH   7   8
ATOM      8  C   UNL A   1      31.272  26.598  23.581  1.00  0.00     0.120 A 
ATOM      9  C   UNL A   1      31.558  24.845  25.749  1.00  0.00     0.041 A 
ATOM     10  C   UNL A   1      30.700  25.942  25.842  1.00  0.00     0.030 A 
ATOM     11  C   UNL A   1      32.127  24.526  24.516  1.00  0.00     0.030 A 
ATOM     12  C   UNL A   1      30.577  26.827  24.770  1.00  0.00     0.048 A 
ATOM     13  C   UNL A   1      31.965  25.395  23.422  1.00  0.00     0.048 A 
BRANCH   9  14
ATOM     14  N   UNL A   1      31.801  24.129  26.926  1.00  0.00    -0.322 N 
ATOM     15  C   UNL A   1      32.560  23.018  27.220  1.00  0.00     0.259 C 
ATOM     16  O   UNL A   1      32.298  22.445  28.284  1.00  0.00    -0.269 OA
ATOM     17  H   UNL A   1      31.329  24.497  27.708  1.00  0.00     0.170 HD
BRANCH  15  18
ATOM     18  C   UNL A   1      33.738  22.510  26.439  1.00  0.00     0.083 A 
ATOM     19  C   UNL A   1      33.741  21.484  25.482  1.00  0.00     0.131 A 
ATOM     20  C   UNL A   1      34.912  21.187  24.753  1.00  0.00     0.049 A 
ATOM     21  C   UNL A   1      36.073  21.927  24.931  1.00  0.00     0.024 A 
ATOM     22  C   UNL A   1      34.923  23.265  26.580  1.00  0.00     0.038 A 
ATOM     23  C   UNL A   1      36.066  22.981  25.828  1.00  0.00     0.042 A 
ATOM     24  Cl  UNL A   1      37.467  23.968  25.975  1.00  0.00    -0.084 Cl
BRANCH  19  25
ATOM     25  O   UNL A   1      32.577  20.855  25.138  1.00  0.00    -0.496 OA
ATOM     26  C   UNL A   1      32.376  20.812  23.731  1.00  0.00     0.278 C 
ENDBRANCH  19  25
ENDBRANCH  15  18
ENDBRANCH   9  14
ENDBRANCH   7   8
ENDBRANCH   6   7
ENDBRANCH   3   6
ENDBRANCH   1   2
BRANCH   1  27
ATOM     27  C   UNL A   1      33.897  29.790  26.716  1.00  0.00     0.042 C 
BRANCH  27  28
ATOM     28  C   UNL A   1      35.044  29.424  27.663  1.00  0.00     0.118 C 
BRANCH  28  29
ATOM     29  N   UNL A   1      35.159  30.306  28.814  1.00  0.00    -0.352 N 
ATOM     30  C   UNL A   1      36.227  30.577  29.638  1.00  0.00     0.251 C 
ATOM     31  H   UNL A   1      34.334  30.790  29.041  1.00  0.00     0.163 HD
ATOM     32  O   UNL A   1      36.043  31.281  30.626  1.00  0.00    -0.269 OA
BRANCH  30  33
ATOM     33  C   UNL A   1      37.578  30.017  29.380  1.00  0.00     0.039 A 
ATOM     34  C   UNL A   1      37.996  29.877  28.051  1.00  0.00     0.014 A 
ATOM     35  C   UNL A   1      38.417  29.590  30.412  1.00  0.00     0.014 A 
ATOM     36  C   UNL A   1      39.276  29.392  27.764  1.00  0.00     0.010 A 
ATOM     37  C   UNL A   1      39.719  29.167  30.127  1.00  0.00     0.010 A 
ATOM     38  C   UNL A   1      40.170  29.076  28.800  1.00  0.00    -0.014 A 
BRANCH  38  39
ATOM     39  C   UNL A   1      41.582  28.694  28.514  1.00  0.00     0.031 A 
ATOM     40  C   UNL A   1      42.673  29.732  28.484  1.00  0.00     0.074 A 
ATOM     41  C   UNL A   1      41.873  27.413  28.209  1.00  0.00     0.049 A 
ATOM     42  N   UNL A   1      43.937  29.594  28.172  1.00  0.00    -0.248 NA
ATOM     43  C   UNL A   1      42.290  31.109  28.832  1.00  0.00     0.031 C 
ATOM     44  C   UNL A   1      40.905  26.314  28.166  1.00  0.00     0.029 A 
ATOM     45  N   UNL A   1      43.062  26.815  27.862  1.00  0.00    -0.354 N 
ATOM     46  C   UNL A   1      44.497  30.862  28.270  1.00  0.00     0.074 A 
ATOM     47  C   UNL A   1      43.425  31.765  28.629  1.00  0.00     0.031 C 
ATOM     48  C   UNL A   1      41.538  25.180  27.827  1.00  0.00     0.029 A 
ATOM     49  C   UNL A   1      42.947  25.473  27.583  1.00  0.00     0.049 A 
ATOM     50  H   UNL A   1      43.916  27.303  27.819  1.00  0.00     0.167 HD
ATOM     51  C   UNL A   1      45.788  31.238  28.094  1.00  0.00     0.037 A 
ATOM     52  C   UNL A   1      43.862  24.579  27.159  1.00  0.00     0.037 A 
ATOM     53  C   UNL A   1      46.856  30.332  27.750  1.00  0.00     0.049 A 
ATOM     54  C   UNL A   1      45.285  25.024  26.946  1.00  0.00     0.074 A 
ATOM     55  C   UNL A   1      48.205  30.609  27.607  1.00  0.00     0.029 A 
ATOM     56  N   UNL A   1      46.699  28.980  27.485  1.00  0.00    -0.354 N 
ATOM     57  N   UNL A   1      45.807  26.216  27.110  1.00  0.00    -0.248 NA
ATOM     58  C   UNL A   1      46.242  24.005  26.496  1.00  0.00     0.031 C 
ATOM     59  C   UNL A   1      48.854  29.438  27.202  1.00  0.00     0.029 A 
ATOM     60  C   UNL A   1      47.922  28.416  27.151  1.00  0.00     0.049 A 
ATOM     61  H   UNL A   1      45.846  28.491  27.527  1.00  0.00     0.167 HD
ATOM     62  C   UNL A   1      47.159  26.083  26.809  1.00  0.00     0.074 A 
ATOM     63  C   UNL A   1      47.375  24.693  26.467  1.00  0.00     0.031 C 
ATOM     64  C   UNL A   1      48.131  27.028  26.818  1.00  0.00     0.037 A 
BRANCH  51  65
ATOM     65  C   UNL A   1      46.126  32.695  28.266  1.00  0.00     0.058 A 
ATOM     66  C   UNL A   1      46.051  33.603  27.197  1.00  0.00     0.135 A 
ATOM     67  C   UNL A   1      46.481  33.202  29.527  1.00  0.00     0.135 A 
ATOM     68  F   UNL A   1      45.726  33.175  25.967  1.00  0.00    -0.206 F 
ATOM     69  C   UNL A   1      46.344  34.953  27.366  1.00  0.00     0.059 A 
ATOM     70  C   UNL A   1      46.750  34.554  29.725  1.00  0.00     0.059 A 
ATOM     71  F   UNL A   1      46.565  32.382  30.586  1.00  0.00    -0.206 F 
ATOM     72  C   UNL A   1      46.693  35.419  28.634  1.00  0.00     0.060 A 
BRANCH  72  73
ATOM     73  S   UNL A   1      47.066  37.174  28.833  1.00  0.00     0.124 S 
ATOM     74  O   UNL A   1      48.524  37.172  28.758  1.00  0.00    -0.237 OA
ATOM     75  O   UNL A   1      46.375  37.770  27.695  1.00  0.00    -0.237 OA
ATOM     76  O   UNL A   1      46.507  37.496  30.142  1.00  0.00    -0.744 OA
ENDBRANCH  72  73
ENDBRANCH  51  65
BRANCH  52  77
ATOM     77  C   UNL A   1      43.462  23.166  26.910  1.00  0.00     0.058 A 
ATOM     78  C   UNL A   1      43.352  22.665  25.604  1.00  0.00     0.135 A 
ATOM     79  C   UNL A   1      43.193  22.287  27.971  1.00  0.00     0.135 A 
ATOM     80  F   UNL A   1      43.590  23.467  24.556  1.00  0.00    -0.206 F 
ATOM     81  C   UNL A   1      42.973  21.349  25.357  1.00  0.00     0.059 A 
ATOM     82  C   UNL A   1      42.841  20.959  27.750  1.00  0.00     0.059 A 
ATOM     83  F   UNL A   1      43.300  22.710  29.240  1.00  0.00    -0.206 F 
ATOM     84  C   UNL A   1      42.724  20.501  26.438  1.00  0.00     0.060 A 
BRANCH  84  85
ATOM     85  S   UNL A   1      42.285  18.781  26.107  1.00  0.00     0.124 S 
ATOM     86  O   UNL A   1      43.265  18.419  25.091  1.00  0.00    -0.237 OA
ATOM     87  O   UNL A   1      42.465  18.164  27.417  1.00  0.00    -0.237 OA
ATOM     88  O   UNL A   1      40.901  18.870  25.650  1.00  0.00    -0.744 OA
ENDBRANCH  84  85
ENDBRANCH  52  77
BRANCH  64  89
ATOM     89  C   UNL A   1      49.532  26.592  26.481  1.00  0.00     0.058 A 
ATOM     90  C   UNL A   1      50.364  25.974  27.428  1.00  0.00     0.135 A 
ATOM     91  C   UNL A   1      50.027  26.740  25.175  1.00  0.00     0.135 A 
ATOM     92  F   UNL A   1      49.944  25.815  28.694  1.00  0.00    -0.206 F 
ATOM     93  C   UNL A   1      51.642  25.535  27.097  1.00  0.00     0.059 A 
ATOM     94  C   UNL A   1      51.290  26.283  24.814  1.00  0.00     0.059 A 
ATOM     95  F   UNL A   1      49.271  27.318  24.227  1.00  0.00    -0.206 F 
ATOM     96  C   UNL A   1      52.095  25.690  25.785  1.00  0.00     0.060 A 
BRANCH  96  97
ATOM     97  S   UNL A   1      53.739  25.076  25.360  1.00  0.00     0.124 S 
ATOM     98  O   UNL A   1      53.526  23.633  25.364  1.00  0.00    -0.237 OA
ATOM     99  O   UNL A   1      53.968  25.680  24.050  1.00  0.00    -0.237 OA
ATOM    100  O   UNL A   1      54.583  25.590  26.435  1.00  0.00    -0.744 OA
ENDBRANCH  96  97
ENDBRANCH  64  89
ENDBRANCH  38  39
ENDBRANCH  30  33
ENDBRANCH  28  29
ENDBRANCH  27  28
ENDBRANCH   1  27
TORSDOF 18
ENDMDL
MODEL 2
REMARK VINA RESULT:     -11.7      2.829      3.609
REMARK SMILES COc1ccc(Cl)cc1C(=O)Nc1ccc(OCC(=O)NCCCNC(=O)c2ccc(-c3c4nc(c(-c5c(F)cc(S(=O)(=O)[O-])cc5F)c5ccc([nH]5)c(-c5c(F)cc(S(=O)(=O)[O-])cc5F)c5nc(c(-c6c(F)cc(S(=O)(=O)[O-])cc6F)c6ccc3[nH]6)C=C5)C=C4)cc2)cc1
REMARK SMILES IDX 22 1 21 2 19 3 20 4 18 6 17 7 16 8 13 9 14 10 95 11 15 12
REMARK SMILES IDX 94 13 12 14 10 15 11 16 9 18 3 19 4 20 5 21 8 22 6 23 7 24
REMARK SMILES IDX 2 25 1 26 23 27 24 28 25 29 26 30 27 32 28 33 29 34 93 35
REMARK SMILES IDX 30 36 92 37 31 38 32 39 33 40 86 41 34 42 91 43 85 44 87 45
REMARK SMILES IDX 35 46 90 47 84 48 83 49 36 51 70 52 49 53 69 54 50 55 53 56
REMARK SMILES IDX 68 57 88 58 51 59 52 60 67 62 89 63 54 64 37 65 38 66 47 67
REMARK SMILES IDX 39 68 40 69 46 70 48 71 41 72 42 73 43 74 44 75 45 76 71 77
REMARK SMILES IDX 72 78 81 79 73 80 74 81 80 82 82 83 75 84 76 85 77 86 78 87
REMARK SMILES IDX 79 88 55 89 56 90 65 91 57 92 58 93 64 94 66 95 59 96 60 97
REMARK SMILES IDX 61 98 62 99 63 100
REMARK H PARENT 21 5 12 17 25 31 87 50 53 61
REMARK Flexibility Score: inf
ROOT
ATOM      1  C   UNL A   1      33.419  28.096  23.843  1.00  0.00     0.117 C 
ENDROOT
BRANCH   1   2
ATOM      2  N   UNL A   1      32.165  28.814  23.681  1.00  0.00    -0.353 N 
ATOM      3  C   UNL A   1      30.879  28.397  23.878  1.00  0.00     0.257 C 
ATOM      4  O   UNL A   1      29.979  29.228  23.718  1.00  0.00    -0.271 OA
ATOM      5  H   UNL A   1      32.257  29.748  23.382  1.00  0.00     0.163 HD
BRANCH   3   6
ATOM      6  C   UNL A   1      30.553  26.960  24.330  1.00  0.00     0.329 C 
BRANCH   6   7
ATOM      7  O   UNL A   1      30.447  26.652  25.708  1.00  0.00    -0.484 OA
BRANCH   7   8
ATOM      8  C   UNL A   1      30.817  25.404  26.125  1.00  0.00     0.120 A 
ATOM      9  C   UNL A   1      31.853  22.822  26.466  1.00  0.00     0.041 A 
ATOM     10  C   UNL A   1      32.715  23.916  26.354  1.00  0.00     0.030 A 
ATOM     11  C   UNL A   1      30.482  23.044  26.590  1.00  0.00     0.030 A 
ATOM     12  C   UNL A   1      32.197  25.197  26.161  1.00  0.00     0.048 A 
ATOM     13  C   UNL A   1      29.964  24.344  26.441  1.00  0.00     0.048 A 
BRANCH   9  14
ATOM     14  N   UNL A   1      32.436  21.551  26.437  1.00  0.00    -0.322 N 
ATOM     15  C   UNL A   1      33.429  20.981  25.673  1.00  0.00     0.259 C 
ATOM     16  O   UNL A   1      33.478  19.745  25.677  1.00  0.00    -0.269 OA
ATOM     17  H   UNL A   1      32.056  20.935  27.105  1.00  0.00     0.170 HD
BRANCH  15  18
ATOM     18  C   UNL A   1      34.518  21.708  24.937  1.00  0.00     0.083 A 
ATOM     19  C   UNL A   1      34.393  22.440  23.747  1.00  0.00     0.131 A 
ATOM     20  C   UNL A   1      35.491  23.159  23.228  1.00  0.00     0.049 A 
ATOM     21  C   UNL A   1      36.705  23.196  23.901  1.00  0.00     0.024 A 
ATOM     22  C   UNL A   1      35.754  21.787  25.617  1.00  0.00     0.038 A 
ATOM     23  C   UNL A   1      36.823  22.528  25.108  1.00  0.00     0.042 A 
ATOM     24  Cl  UNL A   1      38.288  22.659  26.000  1.00  0.00    -0.084 Cl
BRANCH  19  25
ATOM     25  O   UNL A   1      33.172  22.587  23.150  1.00  0.00    -0.496 OA
ATOM     26  C   UNL A   1      33.137  23.680  22.241  1.00  0.00     0.278 C 
ENDBRANCH  19  25
ENDBRANCH  15  18
ENDBRANCH   9  14
ENDBRANCH   7   8
ENDBRANCH   6   7
ENDBRANCH   3   6
ENDBRANCH   1   2
BRANCH   1  27
ATOM     27  C   UNL A   1      34.279  28.599  25.006  1.00  0.00     0.042 C 
BRANCH  27  28
ATOM     28  C   UNL A   1      33.625  28.581  26.392  1.00  0.00     0.118 C 
BRANCH  28  29
ATOM     29  N   UNL A   1      33.493  29.896  26.996  1.00  0.00    -0.352 N 
ATOM     30  C   UNL A   1      34.344  30.604  27.813  1.00  0.00     0.251 C 
ATOM     31  H   UNL A   1      32.652  30.360  26.783  1.00  0.00     0.163 HD
ATOM     32  O   UNL A   1      33.953  31.663  28.294  1.00  0.00    -0.269 OA
BRANCH  30  33
ATOM     33  C   UNL A   1      35.701  30.104  28.151  1.00  0.00     0.039 A 
ATOM     34  C   UNL A   1      36.687  30.135  27.157  1.00  0.00     0.014 A 
ATOM     35  C   UNL A   1      36.008  29.568  29.404  1.00  0.00     0.014 A 
ATOM     36  C   UNL A   1      37.989  29.712  27.443  1.00  0.00     0.010 A 
ATOM     37  C   UNL A   1      37.324  29.207  29.709  1.00  0.00     0.010 A 
ATOM     38  C   UNL A   1      38.334  29.288  28.736  1.00  0.00    -0.014 A 
BRANCH  38  39
ATOM     39  C   UNL A   1      39.745  28.970  29.096  1.00  0.00     0.031 A 
ATOM     40  C   UNL A   1      40.635  30.006  29.728  1.00  0.00     0.074 A 
ATOM     41  C   UNL A   1      40.251  27.758  28.784  1.00  0.00     0.049 A 
ATOM     42  N   UNL A   1      41.907  29.932  30.030  1.00  0.00    -0.248 NA
ATOM     43  C   UNL A   1      40.020  31.304  30.047  1.00  0.00     0.031 C 
ATOM     44  C   UNL A   1      39.509  26.674  28.136  1.00  0.00     0.029 A 
ATOM     45  N   UNL A   1      41.511  27.236  28.954  1.00  0.00    -0.354 N 
ATOM     46  C   UNL A   1      42.250  31.171  30.558  1.00  0.00     0.074 A 
ATOM     47  C   UNL A   1      41.061  31.994  30.496  1.00  0.00     0.031 C 
ATOM     48  C   UNL A   1      40.320  25.617  27.976  1.00  0.00     0.029 A 
ATOM     49  C   UNL A   1      41.652  25.957  28.466  1.00  0.00     0.049 A 
ATOM     50  H   UNL A   1      42.244  27.730  29.386  1.00  0.00     0.167 HD
ATOM     51  C   UNL A   1      43.439  31.581  31.063  1.00  0.00     0.037 A 
ATOM     52  C   UNL A   1      42.731  25.152  28.399  1.00  0.00     0.037 A 
ATOM     53  C   UNL A   1      44.617  30.752  31.135  1.00  0.00     0.049 A 
ATOM     54  C   UNL A   1      44.048  25.637  28.944  1.00  0.00     0.074 A 
ATOM     55  C   UNL A   1      45.852  31.060  31.684  1.00  0.00     0.029 A 
ATOM     56  N   UNL A   1      44.715  29.461  30.639  1.00  0.00    -0.354 N 
ATOM     57  N   UNL A   1      44.333  26.790  29.501  1.00  0.00    -0.248 NA
ATOM     58  C   UNL A   1      45.187  24.714  28.856  1.00  0.00     0.031 C 
ATOM     59  C   UNL A   1      46.710  29.977  31.469  1.00  0.00     0.029 A 
ATOM     60  C   UNL A   1      45.996  28.970  30.842  1.00  0.00     0.049 A 
ATOM     61  H   UNL A   1      43.983  28.966  30.206  1.00  0.00     0.167 HD
ATOM     62  C   UNL A   1      45.677  26.719  29.854  1.00  0.00     0.074 A 
ATOM     63  C   UNL A   1      46.143  25.406  29.459  1.00  0.00     0.031 C 
ATOM     64  C   UNL A   1      46.452  27.658  30.452  1.00  0.00     0.037 A 
BRANCH  51  65
ATOM     65  C   UNL A   1      43.536  32.993  31.579  1.00  0.00     0.058 A 
ATOM     66  C   UNL A   1      43.347  33.298  32.936  1.00  0.00     0.135 A 
ATOM     67  C   UNL A   1      43.870  34.048  30.714  1.00  0.00     0.135 A 
ATOM     68  F   UNL A   1      43.017  32.332  33.807  1.00  0.00    -0.206 F 
ATOM     69  C   UNL A   1      43.457  34.602  33.411  1.00  0.00     0.059 A 
ATOM     70  C   UNL A   1      44.015  35.354  31.173  1.00  0.00     0.059 A 
ATOM     71  F   UNL A   1      44.066  33.814  29.406  1.00  0.00    -0.206 F 
ATOM     72  C   UNL A   1      43.791  35.623  32.521  1.00  0.00     0.060 A 
BRANCH  72  73
ATOM     73  S   UNL A   1      43.933  37.306  33.159  1.00  0.00     0.124 S 
ATOM     74  O   UNL A   1      45.220  37.251  33.845  1.00  0.00    -0.237 OA
ATOM     75  O   UNL A   1      43.900  38.105  31.938  1.00  0.00    -0.237 OA
ATOM     76  O   UNL A   1      42.766  37.442  34.026  1.00  0.00    -0.744 OA
ENDBRANCH  72  73
ENDBRANCH  51  65
BRANCH  52  77
ATOM     77  C   UNL A   1      42.612  23.797  27.794  1.00  0.00     0.058 A 
ATOM     78  C   UNL A   1      42.679  23.617  26.404  1.00  0.00     0.135 A 
ATOM     79  C   UNL A   1      42.439  22.655  28.591  1.00  0.00     0.135 A 
ATOM     80  F   UNL A   1      42.835  24.677  25.597  1.00  0.00    -0.206 F 
ATOM     81  C   UNL A   1      42.563  22.357  25.825  1.00  0.00     0.059 A 
ATOM     82  C   UNL A   1      42.349  21.381  28.038  1.00  0.00     0.059 A 
ATOM     83  F   UNL A   1      42.384  22.768  29.927  1.00  0.00    -0.206 F 
ATOM     84  C   UNL A   1      42.402  21.243  26.651  1.00  0.00     0.060 A 
BRANCH  84  85
ATOM     85  S   UNL A   1      42.306  19.608  25.892  1.00  0.00     0.124 S 
ATOM     86  O   UNL A   1      42.640  18.742  27.016  1.00  0.00    -0.237 OA
ATOM     87  O   UNL A   1      40.919  19.563  25.440  1.00  0.00    -0.237 OA
ATOM     88  O   UNL A   1      43.302  19.673  24.826  1.00  0.00    -0.744 OA
ENDBRANCH  84  85
ENDBRANCH  52  77
BRANCH  64  89
ATOM     89  C   UNL A   1      47.882  27.294  30.754  1.00  0.00     0.058 A 
ATOM     90  C   UNL A   1      48.239  26.596  31.917  1.00  0.00     0.135 A 
ATOM     91  C   UNL A   1      48.900  27.596  29.834  1.00  0.00     0.135 A 
ATOM     92  F   UNL A   1      47.307  26.289  32.834  1.00  0.00    -0.206 F 
ATOM     93  C   UNL A   1      49.556  26.226  32.169  1.00  0.00     0.059 A 
ATOM     94  C   UNL A   1      50.219  27.211  30.050  1.00  0.00     0.059 A 
ATOM     95  F   UNL A   1      48.613  28.257  28.701  1.00  0.00    -0.206 F 
ATOM     96  C   UNL A   1      50.540  26.534  31.225  1.00  0.00     0.060 A 
BRANCH  96  97
ATOM     97  S   UNL A   1      52.238  26.010  31.544  1.00  0.00     0.124 S 
ATOM     98  O   UNL A   1      52.845  26.157  30.225  1.00  0.00    -0.237 OA
ATOM     99  O   UNL A   1      52.675  26.968  32.555  1.00  0.00    -0.237 OA
ATOM    100  O   UNL A   1      52.087  24.636  32.016  1.00  0.00    -0.744 OA
ENDBRANCH  96  97
ENDBRANCH  64  89
ENDBRANCH  38  39
ENDBRANCH  30  33
ENDBRANCH  28  29
ENDBRANCH  27  28
ENDBRANCH   1  27
TORSDOF 18
ENDMDL
MODEL 3
REMARK VINA RESULT:     -11.7      4.719      5.882
REMARK SMILES COc1ccc(Cl)cc1C(=O)Nc1ccc(OCC(=O)NCCCNC(=O)c2ccc(-c3c4nc(c(-c5c(F)cc(S(=O)(=O)[O-])cc5F)c5ccc([nH]5)c(-c5c(F)cc(S(=O)(=O)[O-])cc5F)c5nc(c(-c6c(F)cc(S(=O)(=O)[O-])cc6F)c6ccc3[nH]6)C=C5)C=C4)cc2)cc1
REMARK SMILES IDX 22 1 21 2 19 3 20 4 18 6 17 7 16 8 13 9 14 10 95 11 15 12
REMARK SMILES IDX 94 13 12 14 10 15 11 16 9 18 3 19 4 20 5 21 8 22 6 23 7 24
REMARK SMILES IDX 2 25 1 26 23 27 24 28 25 29 26 30 27 32 28 33 29 34 93 35
REMARK SMILES IDX 30 36 92 37 31 38 32 39 33 40 86 41 34 42 91 43 85 44 87 45
REMARK SMILES IDX 35 46 90 47 84 48 83 49 36 51 70 52 49 53 69 54 50 55 53 56
REMARK SMILES IDX 68 57 88 58 51 59 52 60 67 62 89 63 54 64 37 65 38 66 47 67
REMARK SMILES IDX 39 68 40 69 46 70 48 71 41 72 42 73 43 74 44 75 45 76 71 77
REMARK SMILES IDX 72 78 81 79 73 80 74 81 80 82 82 83 75 84 76 85 77 86 78 87
REMARK SMILES IDX 79 88 55 89 56 90 65 91 57 92 58 93 64 94 66 95 59 96 60 97
REMARK SMILES IDX 61 98 62 99 63 100
REMARK H PARENT 21 5 12 17 25 31 87 50 53 61
REMARK Flexibility Score: inf
ROOT
ATOM      1  C   UNL A   1      32.757  28.349  23.430  1.00  0.00     0.117 C 
ENDROOT
BRANCH   1   2
ATOM      2  N   UNL A   1      31.688  29.330  23.539  1.00  0.00    -0.353 N 
ATOM      3  C   UNL A   1      30.335  29.173  23.435  1.00  0.00     0.257 C 
ATOM      4  O   UNL A   1      29.630  30.169  23.622  1.00  0.00    -0.271 OA
ATOM      5  H   UNL A   1      31.987  30.251  23.716  1.00  0.00     0.163 HD
BRANCH   3   6
ATOM      6  C   UNL A   1      29.699  27.800  23.143  1.00  0.00     0.329 C 
BRANCH   6   7
ATOM      7  O   UNL A   1      29.310  26.953  24.209  1.00  0.00    -0.484 OA
BRANCH   7   8
ATOM      8  C   UNL A   1      30.249  26.122  24.754  1.00  0.00     0.120 A 
ATOM      9  C   UNL A   1      31.721  24.055  25.945  1.00  0.00     0.041 A 
ATOM     10  C   UNL A   1      31.084  23.848  24.719  1.00  0.00     0.030 A 
ATOM     11  C   UNL A   1      31.773  25.343  26.477  1.00  0.00     0.030 A 
ATOM     12  C   UNL A   1      30.332  24.871  24.140  1.00  0.00     0.048 A 
ATOM     13  C   UNL A   1      31.052  26.385  25.867  1.00  0.00     0.048 A 
BRANCH   9  14
ATOM     14  N   UNL A   1      32.270  22.932  26.571  1.00  0.00    -0.322 N 
ATOM     15  C   UNL A   1      33.347  22.121  26.290  1.00  0.00     0.259 C 
ATOM     16  O   UNL A   1      33.364  21.022  26.856  1.00  0.00    -0.269 OA
ATOM     17  H   UNL A   1      31.784  22.665  27.385  1.00  0.00     0.170 HD
BRANCH  15  18
ATOM     18  C   UNL A   1      34.548  22.486  25.464  1.00  0.00     0.083 A 
ATOM     19  C   UNL A   1      34.633  22.521  24.064  1.00  0.00     0.131 A 
ATOM     20  C   UNL A   1      35.804  22.986  23.429  1.00  0.00     0.049 A 
ATOM     21  C   UNL A   1      36.879  23.461  24.167  1.00  0.00     0.024 A 
ATOM     22  C   UNL A   1      35.643  23.002  26.191  1.00  0.00     0.038 A 
ATOM     23  C   UNL A   1      36.784  23.489  25.548  1.00  0.00     0.042 A 
ATOM     24  Cl  UNL A   1      38.067  24.175  26.464  1.00  0.00    -0.084 Cl
BRANCH  19  25
ATOM     25  O   UNL A   1      33.537  22.242  23.297  1.00  0.00    -0.496 OA
ATOM     26  C   UNL A   1      33.431  23.097  22.166  1.00  0.00     0.278 C 
ENDBRANCH  19  25
ENDBRANCH  15  18
ENDBRANCH   9  14
ENDBRANCH   7   8
ENDBRANCH   6   7
ENDBRANCH   3   6
ENDBRANCH   1   2
BRANCH   1  27
ATOM     27  C   UNL A   1      34.031  28.728  24.192  1.00  0.00     0.042 C 
BRANCH  27  28
ATOM     28  C   UNL A   1      33.931  28.736  25.721  1.00  0.00     0.118 C 
BRANCH  28  29
ATOM     29  N   UNL A   1      33.662  30.048  26.285  1.00  0.00    -0.352 N 
ATOM     30  C   UNL A   1      34.290  30.742  27.294  1.00  0.00     0.251 C 
ATOM     31  H   UNL A   1      32.902  30.521  25.876  1.00  0.00     0.163 HD
ATOM     32  O   UNL A   1      33.800  31.801  27.674  1.00  0.00    -0.269 OA
BRANCH  30  33
ATOM     33  C   UNL A   1      35.518  30.227  27.951  1.00  0.00     0.039 A 
ATOM     34  C   UNL A   1      36.738  30.359  27.276  1.00  0.00     0.014 A 
ATOM     35  C   UNL A   1      35.487  29.584  29.191  1.00  0.00     0.014 A 
ATOM     36  C   UNL A   1      37.925  29.925  27.875  1.00  0.00     0.010 A 
ATOM     37  C   UNL A   1      36.680  29.211  29.817  1.00  0.00     0.010 A 
ATOM     38  C   UNL A   1      37.916  29.389  29.173  1.00  0.00    -0.014 A 
BRANCH  38  39
ATOM     39  C   UNL A   1      39.183  29.055  29.881  1.00  0.00     0.031 A 
ATOM     40  C   UNL A   1      39.629  29.843  31.085  1.00  0.00     0.074 A 
ATOM     41  C   UNL A   1      39.977  28.078  29.394  1.00  0.00     0.049 A 
ATOM     42  N   UNL A   1      40.739  29.746  31.772  1.00  0.00    -0.248 NA
ATOM     43  C   UNL A   1      38.716  30.890  31.568  1.00  0.00     0.031 C 
ATOM     44  C   UNL A   1      39.683  27.262  28.213  1.00  0.00     0.029 A 
ATOM     45  N   UNL A   1      41.199  27.613  29.817  1.00  0.00    -0.354 N 
ATOM     46  C   UNL A   1      40.667  30.724  32.757  1.00  0.00     0.074 A 
ATOM     47  C   UNL A   1      39.422  31.433  32.551  1.00  0.00     0.031 C 
ATOM     48  C   UNL A   1      40.686  26.392  28.016  1.00  0.00     0.029 A 
ATOM     49  C   UNL A   1      41.718  26.615  29.024  1.00  0.00     0.049 A 
ATOM     50  H   UNL A   1      41.660  27.962  30.614  1.00  0.00     0.167 HD
ATOM     51  C   UNL A   1      41.548  30.997  33.751  1.00  0.00     0.037 A 
ATOM     52  C   UNL A   1      42.896  25.964  29.084  1.00  0.00     0.037 A 
ATOM     53  C   UNL A   1      42.781  30.279  33.960  1.00  0.00     0.049 A 
ATOM     54  C   UNL A   1      43.870  26.300  30.182  1.00  0.00     0.074 A 
ATOM     55  C   UNL A   1      43.710  30.444  34.975  1.00  0.00     0.029 A 
ATOM     56  N   UNL A   1      43.264  29.270  33.141  1.00  0.00    -0.354 N 
ATOM     57  N   UNL A   1      43.752  27.184  31.145  1.00  0.00    -0.248 NA
ATOM     58  C   UNL A   1      45.133  25.551  30.207  1.00  0.00     0.031 C 
ATOM     59  C   UNL A   1      44.779  29.575  34.737  1.00  0.00     0.029 A 
ATOM     60  C   UNL A   1      44.491  28.823  33.610  1.00  0.00     0.049 A 
ATOM     61  H   UNL A   1      42.805  28.921  32.344  1.00  0.00     0.167 HD
ATOM     62  C   UNL A   1      44.913  27.077  31.903  1.00  0.00     0.074 A 
ATOM     63  C   UNL A   1      45.713  26.034  31.296  1.00  0.00     0.031 C 
ATOM     64  C   UNL A   1      45.280  27.779  33.004  1.00  0.00     0.037 A 
BRANCH  51  65
ATOM     65  C   UNL A   1      41.218  32.124  34.694  1.00  0.00     0.058 A 
ATOM     66  C   UNL A   1      41.539  33.458  34.393  1.00  0.00     0.135 A 
ATOM     67  C   UNL A   1      40.526  31.874  35.891  1.00  0.00     0.135 A 
ATOM     68  F   UNL A   1      42.208  33.756  33.268  1.00  0.00    -0.206 F 
ATOM     69  C   UNL A   1      41.213  34.498  35.258  1.00  0.00     0.059 A 
ATOM     70  C   UNL A   1      40.164  32.903  36.756  1.00  0.00     0.059 A 
ATOM     71  F   UNL A   1      40.189  30.620  36.228  1.00  0.00    -0.206 F 
ATOM     72  C   UNL A   1      40.526  34.210  36.438  1.00  0.00     0.060 A 
BRANCH  72  73
ATOM     73  S   UNL A   1      40.109  35.575  37.545  1.00  0.00     0.124 S 
ATOM     74  O   UNL A   1      39.929  36.672  36.599  1.00  0.00    -0.237 OA
ATOM     75  O   UNL A   1      38.894  35.091  38.192  1.00  0.00    -0.237 OA
ATOM     76  O   UNL A   1      41.279  35.680  38.411  1.00  0.00    -0.744 OA
ENDBRANCH  72  73
ENDBRANCH  51  65
BRANCH  52  77
ATOM     77  C   UNL A   1      43.222  24.921  28.073  1.00  0.00     0.058 A 
ATOM     78  C   UNL A   1      42.909  23.571  28.300  1.00  0.00     0.135 A 
ATOM     79  C   UNL A   1      43.841  25.250  26.857  1.00  0.00     0.135 A 
ATOM     80  F   UNL A   1      42.325  23.203  29.450  1.00  0.00    -0.206 F 
ATOM     81  C   UNL A   1      43.212  22.585  27.367  1.00  0.00     0.059 A 
ATOM     82  C   UNL A   1      44.128  24.286  25.896  1.00  0.00     0.059 A 
ATOM     83  F   UNL A   1      44.147  26.528  26.583  1.00  0.00    -0.206 F 
ATOM     84  C   UNL A   1      43.819  22.953  26.164  1.00  0.00     0.060 A 
BRANCH  84  85
ATOM     85  S   UNL A   1      44.160  21.673  24.938  1.00  0.00     0.124 S 
ATOM     86  O   UNL A   1      43.991  22.408  23.691  1.00  0.00    -0.237 OA
ATOM     87  O   UNL A   1      45.527  21.286  25.273  1.00  0.00    -0.237 OA
ATOM     88  O   UNL A   1      43.145  20.661  25.219  1.00  0.00    -0.744 OA
ENDBRANCH  84  85
ENDBRANCH  52  77
BRANCH  64  89
ATOM     89  C   UNL A   1      46.591  27.424  33.654  1.00  0.00     0.058 A 
ATOM     90  C   UNL A   1      46.692  26.403  34.610  1.00  0.00     0.135 A 
ATOM     91  C   UNL A   1      47.774  28.077  33.267  1.00  0.00     0.135 A 
ATOM     92  F   UNL A   1      45.591  25.752  35.023  1.00  0.00    -0.206 F 
ATOM     93  C   UNL A   1      47.914  26.052  35.175  1.00  0.00     0.059 A 
ATOM     94  C   UNL A   1      49.011  27.724  33.796  1.00  0.00     0.059 A 
ATOM     95  F   UNL A   1      47.736  29.057  32.350  1.00  0.00    -0.206 F 
ATOM     96  C   UNL A   1      49.070  26.716  34.757  1.00  0.00     0.060 A 
BRANCH  96  97
ATOM     97  S   UNL A   1      50.656  26.221  35.466  1.00  0.00     0.124 S 
ATOM     98  O   UNL A   1      50.357  26.233  36.894  1.00  0.00    -0.237 OA
ATOM     99  O   UNL A   1      50.865  24.904  34.872  1.00  0.00    -0.237 OA
ATOM    100  O   UNL A   1      51.573  27.261  35.007  1.00  0.00    -0.744 OA
ENDBRANCH  96  97
ENDBRANCH  64  89
ENDBRANCH  38  39
ENDBRANCH  30  33
ENDBRANCH  28  29
ENDBRANCH  27  28
ENDBRANCH   1  27
TORSDOF 18
ENDMDL
