MODEL 1
REMARK VINA RESULT:     -13.0      0.000      0.000
REMARK SMILES O=C(NCCCNC(=O)[C@H]1CC2=c3ccccc3=N[C@H]2[C@@H](c2ccccc2)[NH2+]1)c1ccc(-c2c3nc(c(-c4c(F)cc(S(=O)(=O)[O-])cc4F)c4ccc([nH]4)c(-c4c(F)cc(S(=O)(=O)[O-])cc4F)c4nc(c(-c5c(F)cc(S(=O)(=O)[O-])cc5F)c5ccc2[nH]5)C=C4)C=C3)cc1
REMARK SMILES IDX 4 1 3 2 1 3 2 4 29 6 30 7 94 8 31 9 93 10 32 11 33 12 34 13
REMARK SMILES IDX 87 14 35 15 92 16 86 17 88 18 36 19 91 20 85 21 84 22 37 24
REMARK SMILES IDX 71 25 50 26 70 27 51 28 54 29 69 30 89 31 52 32 53 33 68 35
REMARK SMILES IDX 90 36 55 37 38 38 39 39 48 40 40 41 41 42 47 43 49 44 42 45
REMARK SMILES IDX 43 46 44 47 45 48 46 49 72 50 73 51 82 52 74 53 75 54 81 55
REMARK SMILES IDX 83 56 76 57 77 58 78 59 79 60 80 61 56 62 57 63 66 64 58 65
REMARK SMILES IDX 59 66 65 67 67 68 60 69 61 70 62 71 63 72 64 73 5 74 6 75
REMARK SMILES IDX 7 76 8 77 9 79 10 80 11 81 28 82 12 83 21 84 13 87 20 88
REMARK SMILES IDX 14 89 18 90 19 91 15 92 17 93 16 94 22 95 23 96 27 97 24 98
REMARK SMILES IDX 26 99 25 100
REMARK H PARENT 3 5 88 23 54 34 7 78 28 85 28 86
REMARK Flexibility Score: inf
ROOT
ATOM      1  C   UNL A   1      33.232  28.425  27.397  1.00  0.00     0.118 C 
ENDROOT
BRANCH   1   2
ATOM      2  N   UNL A   1      33.350  29.867  27.551  1.00  0.00    -0.352 N 
ATOM      3  O   UNL A   1      34.150  31.791  28.374  1.00  0.00    -0.269 OA
ATOM      4  C   UNL A   1      34.374  30.622  28.058  1.00  0.00     0.251 C 
ATOM      5  H   UNL A   1      32.570  30.381  27.241  1.00  0.00     0.163 HD
BRANCH   4   6
ATOM      6  C   UNL A   1      35.732  30.062  28.227  1.00  0.00     0.039 A 
ATOM      7  C   UNL A   1      36.103  29.566  29.481  1.00  0.00     0.014 A 
ATOM      8  C   UNL A   1      36.677  30.131  27.198  1.00  0.00     0.014 A 
ATOM      9  C   UNL A   1      37.413  29.132  29.700  1.00  0.00     0.010 A 
ATOM     10  C   UNL A   1      37.965  29.637  27.399  1.00  0.00     0.010 A 
ATOM     11  C   UNL A   1      38.356  29.166  28.661  1.00  0.00    -0.014 A 
BRANCH  11  12
ATOM     12  C   UNL A   1      39.778  28.819  28.904  1.00  0.00     0.031 A 
ATOM     13  C   UNL A   1      40.690  29.840  29.534  1.00  0.00     0.074 A 
ATOM     14  C   UNL A   1      40.257  27.612  28.551  1.00  0.00     0.049 A 
ATOM     15  N   UNL A   1      41.979  29.780  29.748  1.00  0.00    -0.248 NA
ATOM     16  C   UNL A   1      40.070  31.107  29.959  1.00  0.00     0.031 C 
ATOM     17  C   UNL A   1      39.478  26.539  27.931  1.00  0.00     0.029 A 
ATOM     18  N   UNL A   1      41.519  27.084  28.665  1.00  0.00    -0.354 N 
ATOM     19  C   UNL A   1      42.326  31.004  30.310  1.00  0.00     0.074 A 
ATOM     20  C   UNL A   1      41.122  31.803  30.363  1.00  0.00     0.031 C 
ATOM     21  C   UNL A   1      40.272  25.471  27.746  1.00  0.00     0.029 A 
ATOM     22  C   UNL A   1      41.622  25.794  28.200  1.00  0.00     0.049 A 
ATOM     23  H   UNL A   1      42.278  27.582  29.044  1.00  0.00     0.167 HD
ATOM     24  C   UNL A   1      43.534  31.418  30.763  1.00  0.00     0.037 A 
ATOM     25  C   UNL A   1      42.685  24.968  28.146  1.00  0.00     0.037 A 
ATOM     26  C   UNL A   1      44.720  30.605  30.751  1.00  0.00     0.049 A 
ATOM     27  C   UNL A   1      44.017  25.448  28.654  1.00  0.00     0.074 A 
ATOM     28  C   UNL A   1      45.987  30.921  31.211  1.00  0.00     0.029 A 
ATOM     29  N   UNL A   1      44.781  29.306  30.270  1.00  0.00    -0.354 N 
ATOM     30  N   UNL A   1      44.330  26.612  29.174  1.00  0.00    -0.248 NA
ATOM     31  C   UNL A   1      45.143  24.507  28.563  1.00  0.00     0.031 C 
ATOM     32  C   UNL A   1      46.818  29.818  30.990  1.00  0.00     0.029 A 
ATOM     33  C   UNL A   1      46.063  28.807  30.419  1.00  0.00     0.049 A 
ATOM     34  H   UNL A   1      44.024  28.812  29.878  1.00  0.00     0.167 HD
ATOM     35  C   UNL A   1      45.682  26.537  29.487  1.00  0.00     0.074 A 
ATOM     36  C   UNL A   1      46.127  25.212  29.107  1.00  0.00     0.031 C 
ATOM     37  C   UNL A   1      46.484  27.482  30.037  1.00  0.00     0.037 A 
BRANCH  24  38
ATOM     38  C   UNL A   1      43.622  32.810  31.322  1.00  0.00     0.058 A 
ATOM     39  C   UNL A   1      43.841  33.919  30.491  1.00  0.00     0.135 A 
ATOM     40  C   UNL A   1      43.469  33.040  32.698  1.00  0.00     0.135 A 
ATOM     41  F   UNL A   1      44.012  33.750  29.170  1.00  0.00    -0.206 F 
ATOM     42  C   UNL A   1      43.935  35.206  31.008  1.00  0.00     0.059 A 
ATOM     43  C   UNL A   1      43.536  34.324  33.235  1.00  0.00     0.059 A 
ATOM     44  F   UNL A   1      43.260  32.014  33.538  1.00  0.00    -0.206 F 
ATOM     45  C   UNL A   1      43.785  35.399  32.382  1.00  0.00     0.060 A 
BRANCH  45  46
ATOM     46  S   UNL A   1      43.914  37.076  33.038  1.00  0.00     0.124 S 
ATOM     47  O   UNL A   1      43.852  37.871  31.816  1.00  0.00    -0.237 OA
ATOM     48  O   UNL A   1      42.748  37.163  33.911  1.00  0.00    -0.237 OA
ATOM     49  O   UNL A   1      45.204  37.074  33.721  1.00  0.00    -0.744 OA
ENDBRANCH  45  46
ENDBRANCH  24  38
BRANCH  25  50
ATOM     50  C   UNL A   1      42.521  23.589  27.621  1.00  0.00     0.058 A 
ATOM     51  C   UNL A   1      42.547  23.343  26.240  1.00  0.00     0.135 A 
ATOM     52  C   UNL A   1      42.370  22.491  28.481  1.00  0.00     0.135 A 
ATOM     53  F   UNL A   1      42.680  24.364  25.381  1.00  0.00    -0.206 F 
ATOM     54  C   UNL A   1      42.431  22.056  25.729  1.00  0.00     0.059 A 
ATOM     55  C   UNL A   1      42.270  21.191  27.993  1.00  0.00     0.059 A 
ATOM     56  F   UNL A   1      42.352  22.675  29.810  1.00  0.00    -0.206 F 
ATOM     57  C   UNL A   1      42.298  20.984  26.613  1.00  0.00     0.060 A 
BRANCH  57  58
ATOM     58  S   UNL A   1      42.225  19.309  25.943  1.00  0.00     0.124 S 
ATOM     59  O   UNL A   1      40.795  19.159  25.682  1.00  0.00    -0.237 OA
ATOM     60  O   UNL A   1      43.080  19.415  24.761  1.00  0.00    -0.237 OA
ATOM     61  O   UNL A   1      42.759  18.491  27.021  1.00  0.00    -0.744 OA
ENDBRANCH  57  58
ENDBRANCH  25  50
BRANCH  37  62
ATOM     62  C   UNL A   1      47.920  27.117  30.276  1.00  0.00     0.058 A 
ATOM     63  C   UNL A   1      48.900  27.335  29.297  1.00  0.00     0.135 A 
ATOM     64  C   UNL A   1      48.331  26.617  31.522  1.00  0.00     0.135 A 
ATOM     65  F   UNL A   1      48.554  27.807  28.088  1.00  0.00    -0.206 F 
ATOM     66  C   UNL A   1      50.241  27.063  29.541  1.00  0.00     0.059 A 
ATOM     67  C   UNL A   1      49.669  26.354  31.794  1.00  0.00     0.059 A 
ATOM     68  F   UNL A   1      47.430  26.401  32.494  1.00  0.00    -0.206 F 
ATOM     69  C   UNL A   1      50.616  26.575  30.795  1.00  0.00     0.060 A 
BRANCH  69  70
ATOM     70  S   UNL A   1      52.368  26.274  31.116  1.00  0.00     0.124 S 
ATOM     71  O   UNL A   1      52.918  26.278  29.766  1.00  0.00    -0.237 OA
ATOM     72  O   UNL A   1      52.732  27.411  31.954  1.00  0.00    -0.237 OA
ATOM     73  O   UNL A   1      52.370  24.979  31.793  1.00  0.00    -0.744 OA
ENDBRANCH  69  70
ENDBRANCH  37  62
ENDBRANCH  11  12
ENDBRANCH   4   6
ENDBRANCH   1   2
BRANCH   1  74
ATOM     74  C   UNL A   1      33.689  27.953  26.014  1.00  0.00     0.042 C 
BRANCH  74  75
ATOM     75  C   UNL A   1      33.249  26.531  25.656  1.00  0.00     0.118 C 
BRANCH  75  76
ATOM     76  N   UNL A   1      32.172  26.081  26.514  1.00  0.00    -0.351 N 
ATOM     77  C   UNL A   1      31.290  25.071  26.299  1.00  0.00     0.278 C 
ATOM     78  H   UNL A   1      32.066  26.570  27.362  1.00  0.00     0.163 HD
ATOM     79  O   UNL A   1      30.105  25.325  26.547  1.00  0.00    -0.268 OA
BRANCH  77  80
ATOM     80  C   UNL A   1      31.732  23.620  26.011  1.00  0.00     0.277 C 
ATOM     81  C   UNL A   1      31.956  23.126  24.565  1.00  0.00     0.109 C 
ATOM     82  N   UNL A   1      32.900  23.343  26.908  1.00  0.00    -0.327 N 
ATOM     83  C   UNL A   1      32.175  21.637  24.611  1.00  0.00    -0.024 C 
ATOM     84  C   UNL A   1      33.577  22.021  26.670  1.00  0.00     0.243 C 
ATOM     85  H   UNL A   1      32.569  23.361  27.873  1.00  0.00     0.347 HD
ATOM     86  H   UNL A   1      33.594  24.062  26.708  1.00  0.00     0.347 HD
ATOM     87  C   UNL A   1      32.200  20.678  23.691  1.00  0.00     0.002 A 
ATOM     88  C   UNL A   1      32.560  21.076  25.955  1.00  0.00     0.196 C 
ATOM     89  C   UNL A   1      32.057  20.608  22.275  1.00  0.00     0.010 A 
ATOM     90  C   UNL A   1      32.607  19.491  24.481  1.00  0.00     0.066 A 
ATOM     91  N   UNL A   1      32.956  19.665  25.722  1.00  0.00    -0.270 NA
ATOM     92  C   UNL A   1      32.158  19.407  21.678  1.00  0.00     0.001 A 
ATOM     93  C   UNL A   1      32.610  18.197  23.766  1.00  0.00     0.028 A 
ATOM     94  C   UNL A   1      32.367  18.190  22.446  1.00  0.00     0.002 A 
BRANCH  84  95
ATOM     95  C   UNL A   1      34.973  22.266  26.063  1.00  0.00     0.012 A 
ATOM     96  C   UNL A   1      35.497  23.579  26.064  1.00  0.00     0.010 A 
ATOM     97  C   UNL A   1      35.777  21.267  25.502  1.00  0.00     0.010 A 
ATOM     98  C   UNL A   1      36.712  23.887  25.446  1.00  0.00     0.001 A 
ATOM     99  C   UNL A   1      37.001  21.569  24.891  1.00  0.00     0.001 A 
ATOM    100  C   UNL A   1      37.459  22.880  24.847  1.00  0.00     0.000 A 
ENDBRANCH  84  95
ENDBRANCH  77  80
ENDBRANCH  75  76
ENDBRANCH  74  75
ENDBRANCH   1  74
TORSDOF 14
ENDMDL
MODEL 2
REMARK VINA RESULT:     -12.8      4.770     10.414
REMARK SMILES O=C(NCCCNC(=O)[C@H]1CC2=c3ccccc3=N[C@H]2[C@@H](c2ccccc2)[NH2+]1)c1ccc(-c2c3nc(c(-c4c(F)cc(S(=O)(=O)[O-])cc4F)c4ccc([nH]4)c(-c4c(F)cc(S(=O)(=O)[O-])cc4F)c4nc(c(-c5c(F)cc(S(=O)(=O)[O-])cc5F)c5ccc2[nH]5)C=C4)C=C3)cc1
REMARK SMILES IDX 4 1 3 2 1 3 2 4 29 6 30 7 94 8 31 9 93 10 32 11 33 12 34 13
REMARK SMILES IDX 87 14 35 15 92 16 86 17 88 18 36 19 91 20 85 21 84 22 37 24
REMARK SMILES IDX 71 25 50 26 70 27 51 28 54 29 69 30 89 31 52 32 53 33 68 35
REMARK SMILES IDX 90 36 55 37 38 38 39 39 48 40 40 41 41 42 47 43 49 44 42 45
REMARK SMILES IDX 43 46 44 47 45 48 46 49 72 50 73 51 82 52 74 53 75 54 81 55
REMARK SMILES IDX 83 56 76 57 77 58 78 59 79 60 80 61 56 62 57 63 66 64 58 65
REMARK SMILES IDX 59 66 65 67 67 68 60 69 61 70 62 71 63 72 64 73 5 74 6 75
REMARK SMILES IDX 7 76 8 77 9 79 10 80 11 81 28 82 12 83 21 84 13 87 20 88
REMARK SMILES IDX 14 89 18 90 19 91 15 92 17 93 16 94 22 95 23 96 27 97 24 98
REMARK SMILES IDX 26 99 25 100
REMARK H PARENT 3 5 88 23 54 34 7 78 28 85 28 86
REMARK Flexibility Score: inf
ROOT
ATOM      1  C   UNL A   1      41.545  23.117  27.307  1.00  0.00     0.118 C 
ENDROOT
BRANCH   1   2
ATOM      2  N   UNL A   1      41.606  24.045  26.189  1.00  0.00    -0.352 N 
ATOM      3  O   UNL A   1      41.155  25.913  25.038  1.00  0.00    -0.269 OA
ATOM      4  C   UNL A   1      41.332  25.385  26.136  1.00  0.00     0.251 C 
ATOM      5  H   UNL A   1      41.889  23.646  25.335  1.00  0.00     0.163 HD
BRANCH   4   6
ATOM      6  C   UNL A   1      41.250  26.203  27.366  1.00  0.00     0.039 A 
ATOM      7  C   UNL A   1      40.151  26.032  28.214  1.00  0.00     0.014 A 
ATOM      8  C   UNL A   1      42.179  27.214  27.627  1.00  0.00     0.014 A 
ATOM      9  C   UNL A   1      39.989  26.864  29.325  1.00  0.00     0.010 A 
ATOM     10  C   UNL A   1      42.053  28.001  28.771  1.00  0.00     0.010 A 
ATOM     11  C   UNL A   1      40.938  27.858  29.611  1.00  0.00    -0.014 A 
BRANCH  11  12
ATOM     12  C   UNL A   1      40.727  28.826  30.716  1.00  0.00     0.031 A 
ATOM     13  C   UNL A   1      41.610  28.761  31.934  1.00  0.00     0.074 A 
ATOM     14  C   UNL A   1      39.744  29.744  30.641  1.00  0.00     0.049 A 
ATOM     15  N   UNL A   1      41.539  29.445  33.047  1.00  0.00    -0.248 NA
ATOM     16  C   UNL A   1      42.707  27.778  31.904  1.00  0.00     0.031 C 
ATOM     17  C   UNL A   1      38.821  29.907  29.517  1.00  0.00     0.029 A 
ATOM     18  N   UNL A   1      39.361  30.715  31.531  1.00  0.00    -0.354 N 
ATOM     19  C   UNL A   1      42.563  28.961  33.854  1.00  0.00     0.074 A 
ATOM     20  C   UNL A   1      43.213  27.896  33.122  1.00  0.00     0.031 C 
ATOM     21  C   UNL A   1      37.996  30.937  29.774  1.00  0.00     0.029 A 
ATOM     22  C   UNL A   1      38.309  31.483  31.091  1.00  0.00     0.049 A 
ATOM     23  H   UNL A   1      39.799  30.849  32.403  1.00  0.00     0.167 HD
ATOM     24  C   UNL A   1      42.945  29.380  35.084  1.00  0.00     0.037 A 
ATOM     25  C   UNL A   1      37.669  32.509  31.686  1.00  0.00     0.037 A 
ATOM     26  C   UNL A   1      42.326  30.469  35.791  1.00  0.00     0.049 A 
ATOM     27  C   UNL A   1      38.108  32.958  33.053  1.00  0.00     0.074 A 
ATOM     28  C   UNL A   1      42.655  30.990  37.031  1.00  0.00     0.029 A 
ATOM     29  N   UNL A   1      41.262  31.218  35.311  1.00  0.00    -0.354 N 
ATOM     30  N   UNL A   1      39.073  32.484  33.805  1.00  0.00    -0.248 NA
ATOM     31  C   UNL A   1      37.369  34.077  33.655  1.00  0.00     0.031 C 
ATOM     32  C   UNL A   1      41.775  32.042  37.308  1.00  0.00     0.029 A 
ATOM     33  C   UNL A   1      40.919  32.194  36.230  1.00  0.00     0.049 A 
ATOM     34  H   UNL A   1      40.815  31.076  34.445  1.00  0.00     0.167 HD
ATOM     35  C   UNL A   1      39.068  33.256  34.961  1.00  0.00     0.074 A 
ATOM     36  C   UNL A   1      38.011  34.234  34.806  1.00  0.00     0.031 C 
ATOM     37  C   UNL A   1      39.865  33.162  36.054  1.00  0.00     0.037 A 
BRANCH  24  38
ATOM     38  C   UNL A   1      44.095  28.663  35.733  1.00  0.00     0.058 A 
ATOM     39  C   UNL A   1      43.887  27.568  36.586  1.00  0.00     0.135 A 
ATOM     40  C   UNL A   1      45.418  29.062  35.487  1.00  0.00     0.135 A 
ATOM     41  F   UNL A   1      42.639  27.160  36.868  1.00  0.00    -0.206 F 
ATOM     42  C   UNL A   1      44.948  26.911  37.197  1.00  0.00     0.059 A 
ATOM     43  C   UNL A   1      46.498  28.403  36.069  1.00  0.00     0.059 A 
ATOM     44  F   UNL A   1      45.673  30.104  34.680  1.00  0.00    -0.206 F 
ATOM     45  C   UNL A   1      46.251  27.338  36.935  1.00  0.00     0.060 A 
BRANCH  45  46
ATOM     46  S   UNL A   1      47.619  26.478  37.740  1.00  0.00     0.124 S 
ATOM     47  O   UNL A   1      47.121  25.106  37.770  1.00  0.00    -0.237 OA
ATOM     48  O   UNL A   1      48.730  26.729  36.826  1.00  0.00    -0.237 OA
ATOM     49  O   UNL A   1      47.719  27.138  39.038  1.00  0.00    -0.744 OA
ENDBRANCH  45  46
ENDBRANCH  24  38
BRANCH  25  50
ATOM     50  C   UNL A   1      36.568  33.203  30.972  1.00  0.00     0.058 A 
ATOM     51  C   UNL A   1      35.234  33.023  31.369  1.00  0.00     0.135 A 
ATOM     52  C   UNL A   1      36.822  34.081  29.908  1.00  0.00     0.135 A 
ATOM     53  F   UNL A   1      34.943  32.186  32.377  1.00  0.00    -0.206 F 
ATOM     54  C   UNL A   1      34.191  33.690  30.739  1.00  0.00     0.059 A 
ATOM     55  C   UNL A   1      35.796  34.774  29.273  1.00  0.00     0.059 A 
ATOM     56  F   UNL A   1      38.083  34.296  29.500  1.00  0.00    -0.206 F 
ATOM     57  C   UNL A   1      34.482  34.569  29.694  1.00  0.00     0.060 A 
BRANCH  57  58
ATOM     58  S   UNL A   1      33.128  35.489  28.931  1.00  0.00     0.124 S 
ATOM     59  O   UNL A   1      33.855  36.480  28.140  1.00  0.00    -0.237 OA
ATOM     60  O   UNL A   1      32.441  34.447  28.169  1.00  0.00    -0.237 OA
ATOM     61  O   UNL A   1      32.390  36.009  30.071  1.00  0.00    -0.744 OA
ENDBRANCH  57  58
ENDBRANCH  25  50
BRANCH  37  62
ATOM     62  C   UNL A   1      39.639  34.147  37.163  1.00  0.00     0.058 A 
ATOM     63  C   UNL A   1      38.906  33.800  38.307  1.00  0.00     0.135 A 
ATOM     64  C   UNL A   1      40.224  35.422  37.114  1.00  0.00     0.135 A 
ATOM     65  F   UNL A   1      38.323  32.594  38.397  1.00  0.00    -0.206 F 
ATOM     66  C   UNL A   1      38.754  34.688  39.367  1.00  0.00     0.059 A 
ATOM     67  C   UNL A   1      40.099  36.320  38.170  1.00  0.00     0.059 A 
ATOM     68  F   UNL A   1      40.942  35.796  36.043  1.00  0.00    -0.206 F 
ATOM     69  C   UNL A   1      39.357  35.945  39.289  1.00  0.00     0.060 A 
BRANCH  69  70
ATOM     70  S   UNL A   1      39.195  37.070  40.693  1.00  0.00     0.124 S 
ATOM     71  O   UNL A   1      38.343  38.114  40.135  1.00  0.00    -0.237 OA
ATOM     72  O   UNL A   1      38.576  36.220  41.705  1.00  0.00    -0.237 OA
ATOM     73  O   UNL A   1      40.573  37.463  40.973  1.00  0.00    -0.744 OA
ENDBRANCH  69  70
ENDBRANCH  37  62
ENDBRANCH  11  12
ENDBRANCH   4   6
ENDBRANCH   1   2
BRANCH   1  74
ATOM     74  C   UNL A   1      40.163  22.473  27.449  1.00  0.00     0.042 C 
BRANCH  74  75
ATOM     75  C   UNL A   1      39.121  22.992  26.454  1.00  0.00     0.118 C 
BRANCH  75  76
ATOM     76  N   UNL A   1      38.907  22.051  25.375  1.00  0.00    -0.351 N 
ATOM     77  C   UNL A   1      37.884  21.173  25.213  1.00  0.00     0.278 C 
ATOM     78  H   UNL A   1      39.592  22.047  24.667  1.00  0.00     0.163 HD
ATOM     79  O   UNL A   1      38.203  20.026  24.878  1.00  0.00    -0.268 OA
BRANCH  77  80
ATOM     80  C   UNL A   1      36.403  21.608  25.192  1.00  0.00     0.277 C 
ATOM     81  C   UNL A   1      35.778  22.251  23.935  1.00  0.00     0.109 C 
ATOM     82  N   UNL A   1      35.608  20.447  25.710  1.00  0.00    -0.327 N 
ATOM     83  C   UNL A   1      34.403  22.743  24.300  1.00  0.00    -0.024 C 
ATOM     84  C   UNL A   1      34.117  20.619  25.625  1.00  0.00     0.243 C 
ATOM     85  H   UNL A   1      35.857  20.305  26.689  1.00  0.00     0.347 HD
ATOM     86  H   UNL A   1      35.841  19.652  25.117  1.00  0.00     0.347 HD
ATOM     87  C   UNL A   1      33.519  23.540  23.707  1.00  0.00     0.002 A 
ATOM     88  C   UNL A   1      33.807  22.147  25.548  1.00  0.00     0.196 C 
ATOM     89  C   UNL A   1      33.448  24.265  22.482  1.00  0.00     0.010 A 
ATOM     90  C   UNL A   1      32.346  23.441  24.609  1.00  0.00     0.066 A 
ATOM     91  N   UNL A   1      32.387  22.578  25.582  1.00  0.00    -0.270 NA
ATOM     92  C   UNL A   1      32.340  24.981  22.223  1.00  0.00     0.001 A 
ATOM     93  C   UNL A   1      31.204  24.326  24.299  1.00  0.00     0.028 A 
ATOM     94  C   UNL A   1      31.244  25.061  23.176  1.00  0.00     0.002 A 
BRANCH  84  95
ATOM     95  C   UNL A   1      33.553  19.654  24.563  1.00  0.00     0.012 A 
ATOM     96  C   UNL A   1      34.122  18.365  24.441  1.00  0.00     0.010 A 
ATOM     97  C   UNL A   1      32.499  19.963  23.695  1.00  0.00     0.010 A 
ATOM     98  C   UNL A   1      33.724  17.478  23.437  1.00  0.00     0.001 A 
ATOM     99  C   UNL A   1      32.089  19.072  22.695  1.00  0.00     0.001 A 
ATOM    100  C   UNL A   1      32.713  17.838  22.555  1.00  0.00     0.000 A 
ENDBRANCH  84  95
ENDBRANCH  77  80
ENDBRANCH  75  76
ENDBRANCH  74  75
ENDBRANCH   1  74
TORSDOF 14
ENDMDL
MODEL 3
REMARK VINA RESULT:     -12.7      3.316      9.499
REMARK SMILES O=C(NCCCNC(=O)[C@H]1CC2=c3ccccc3=N[C@H]2[C@@H](c2ccccc2)[NH2+]1)c1ccc(-c2c3nc(c(-c4c(F)cc(S(=O)(=O)[O-])cc4F)c4ccc([nH]4)c(-c4c(F)cc(S(=O)(=O)[O-])cc4F)c4nc(c(-c5c(F)cc(S(=O)(=O)[O-])cc5F)c5ccc2[nH]5)C=C4)C=C3)cc1
REMARK SMILES IDX 4 1 3 2 1 3 2 4 29 6 30 7 94 8 31 9 93 10 32 11 33 12 34 13
REMARK SMILES IDX 87 14 35 15 92 16 86 17 88 18 36 19 91 20 85 21 84 22 37 24
REMARK SMILES IDX 71 25 50 26 70 27 51 28 54 29 69 30 89 31 52 32 53 33 68 35
REMARK SMILES IDX 90 36 55 37 38 38 39 39 48 40 40 41 41 42 47 43 49 44 42 45
REMARK SMILES IDX 43 46 44 47 45 48 46 49 72 50 73 51 82 52 74 53 75 54 81 55
REMARK SMILES IDX 83 56 76 57 77 58 78 59 79 60 80 61 56 62 57 63 66 64 58 65
REMARK SMILES IDX 59 66 65 67 67 68 60 69 61 70 62 71 63 72 64 73 5 74 6 75
REMARK SMILES IDX 7 76 8 77 9 79 10 80 11 81 28 82 12 83 21 84 13 87 20 88
REMARK SMILES IDX 14 89 18 90 19 91 15 92 17 93 16 94 22 95 23 96 27 97 24 98
REMARK SMILES IDX 26 99 25 100
REMARK H PARENT 3 5 88 23 54 34 7 78 28 85 28 86
REMARK Flexibility Score: inf
ROOT
ATOM      1  C   UNL A   1      36.994  23.703  24.839  1.00  0.00     0.118 C 
ENDROOT
BRANCH   1   2
ATOM      2  N   UNL A   1      37.992  22.761  25.319  1.00  0.00    -0.352 N 
ATOM      3  O   UNL A   1      39.984  22.087  26.094  1.00  0.00    -0.269 OA
ATOM      4  C   UNL A   1      39.129  22.973  26.053  1.00  0.00     0.251 C 
ATOM      5  H   UNL A   1      37.824  21.821  25.078  1.00  0.00     0.163 HD
BRANCH   4   6
ATOM      6  C   UNL A   1      39.341  24.234  26.794  1.00  0.00     0.039 A 
ATOM      7  C   UNL A   1      40.145  25.224  26.219  1.00  0.00     0.014 A 
ATOM      8  C   UNL A   1      38.857  24.402  28.095  1.00  0.00     0.014 A 
ATOM      9  C   UNL A   1      40.453  26.381  26.940  1.00  0.00     0.010 A 
ATOM     10  C   UNL A   1      39.111  25.583  28.789  1.00  0.00     0.010 A 
ATOM     11  C   UNL A   1      39.940  26.569  28.232  1.00  0.00    -0.014 A 
BRANCH  11  12
ATOM     12  C   UNL A   1      40.349  27.732  29.058  1.00  0.00     0.031 A 
ATOM     13  C   UNL A   1      41.698  27.724  29.730  1.00  0.00     0.074 A 
ATOM     14  C   UNL A   1      39.518  28.779  29.223  1.00  0.00     0.049 A 
ATOM     15  N   UNL A   1      42.213  28.589  30.565  1.00  0.00    -0.248 NA
ATOM     16  C   UNL A   1      42.574  26.577  29.438  1.00  0.00     0.031 C 
ATOM     17  C   UNL A   1      38.186  28.905  28.628  1.00  0.00     0.029 A 
ATOM     18  N   UNL A   1      39.675  29.938  29.940  1.00  0.00    -0.354 N 
ATOM     19  C   UNL A   1      43.459  28.081  30.914  1.00  0.00     0.074 A 
ATOM     20  C   UNL A   1      43.605  26.811  30.236  1.00  0.00     0.031 C 
ATOM     21  C   UNL A   1      37.659  30.089  28.982  1.00  0.00     0.029 A 
ATOM     22  C   UNL A   1      38.598  30.789  29.854  1.00  0.00     0.049 A 
ATOM     23  H   UNL A   1      40.481  30.142  30.465  1.00  0.00     0.167 HD
ATOM     24  C   UNL A   1      44.408  28.631  31.709  1.00  0.00     0.037 A 
ATOM     25  C   UNL A   1      38.393  31.996  30.418  1.00  0.00     0.037 A 
ATOM     26  C   UNL A   1      44.279  29.914  32.346  1.00  0.00     0.049 A 
ATOM     27  C   UNL A   1      39.459  32.589  31.299  1.00  0.00     0.074 A 
ATOM     28  C   UNL A   1      45.194  30.573  33.150  1.00  0.00     0.029 A 
ATOM     29  N   UNL A   1      43.172  30.742  32.236  1.00  0.00    -0.354 N 
ATOM     30  N   UNL A   1      40.629  32.091  31.625  1.00  0.00    -0.248 NA
ATOM     31  C   UNL A   1      39.178  33.904  31.892  1.00  0.00     0.031 C 
ATOM     32  C   UNL A   1      44.630  31.793  33.541  1.00  0.00     0.029 A 
ATOM     33  C   UNL A   1      43.378  31.904  32.958  1.00  0.00     0.049 A 
ATOM     34  H   UNL A   1      42.359  30.533  31.721  1.00  0.00     0.167 HD
ATOM     35  C   UNL A   1      41.228  33.037  32.447  1.00  0.00     0.074 A 
ATOM     36  C   UNL A   1      40.298  34.141  32.562  1.00  0.00     0.031 C 
ATOM     37  C   UNL A   1      42.439  32.994  33.056  1.00  0.00     0.037 A 
BRANCH  24  38
ATOM     38  C   UNL A   1      45.673  27.848  31.919  1.00  0.00     0.058 A 
ATOM     39  C   UNL A   1      46.790  28.026  31.088  1.00  0.00     0.135 A 
ATOM     40  C   UNL A   1      45.778  26.925  32.971  1.00  0.00     0.135 A 
ATOM     41  F   UNL A   1      46.734  28.884  30.057  1.00  0.00    -0.206 F 
ATOM     42  C   UNL A   1      47.957  27.294  31.273  1.00  0.00     0.059 A 
ATOM     43  C   UNL A   1      46.945  26.198  33.190  1.00  0.00     0.059 A 
ATOM     44  F   UNL A   1      44.739  26.715  33.794  1.00  0.00    -0.206 F 
ATOM     45  C   UNL A   1      48.024  26.379  32.325  1.00  0.00     0.060 A 
BRANCH  45  46
ATOM     46  S   UNL A   1      49.545  25.432  32.549  1.00  0.00     0.124 S 
ATOM     47  O   UNL A   1      50.442  26.449  33.091  1.00  0.00    -0.237 OA
ATOM     48  O   UNL A   1      49.131  24.390  33.484  1.00  0.00    -0.237 OA
ATOM     49  O   UNL A   1      49.860  24.971  31.201  1.00  0.00    -0.744 OA
ENDBRANCH  45  46
ENDBRANCH  24  38
BRANCH  25  50
ATOM     50  C   UNL A   1      37.138  32.738  30.135  1.00  0.00     0.058 A 
ATOM     51  C   UNL A   1      37.074  33.655  29.076  1.00  0.00     0.135 A 
ATOM     52  C   UNL A   1      35.975  32.524  30.890  1.00  0.00     0.135 A 
ATOM     53  F   UNL A   1      38.165  33.897  28.333  1.00  0.00    -0.206 F 
ATOM     54  C   UNL A   1      35.900  34.333  28.772  1.00  0.00     0.059 A 
ATOM     55  C   UNL A   1      34.783  33.179  30.593  1.00  0.00     0.059 A 
ATOM     56  F   UNL A   1      35.984  31.647  31.906  1.00  0.00    -0.206 F 
ATOM     57  C   UNL A   1      34.756  34.085  29.533  1.00  0.00     0.060 A 
BRANCH  57  58
ATOM     58  S   UNL A   1      33.216  34.913  29.082  1.00  0.00     0.124 S 
ATOM     59  O   UNL A   1      32.524  34.966  30.368  1.00  0.00    -0.237 OA
ATOM     60  O   UNL A   1      33.697  36.194  28.566  1.00  0.00    -0.237 OA
ATOM     61  O   UNL A   1      32.635  34.025  28.088  1.00  0.00    -0.744 OA
ENDBRANCH  57  58
ENDBRANCH  25  50
BRANCH  37  62
ATOM     62  C   UNL A   1      42.838  34.177  33.888  1.00  0.00     0.058 A 
ATOM     63  C   UNL A   1      42.598  34.212  35.269  1.00  0.00     0.135 A 
ATOM     64  C   UNL A   1      43.535  35.252  33.312  1.00  0.00     0.135 A 
ATOM     65  F   UNL A   1      41.930  33.209  35.864  1.00  0.00    -0.206 F 
ATOM     66  C   UNL A   1      43.028  35.275  36.054  1.00  0.00     0.059 A 
ATOM     67  C   UNL A   1      43.990  36.318  34.080  1.00  0.00     0.059 A 
ATOM     68  F   UNL A   1      43.796  35.260  31.995  1.00  0.00    -0.206 F 
ATOM     69  C   UNL A   1      43.727  36.323  35.450  1.00  0.00     0.060 A 
BRANCH  69  70
ATOM     70  S   UNL A   1      44.325  37.675  36.488  1.00  0.00     0.124 S 
ATOM     71  O   UNL A   1      44.194  38.815  35.588  1.00  0.00    -0.237 OA
ATOM     72  O   UNL A   1      43.394  37.642  37.611  1.00  0.00    -0.237 OA
ATOM     73  O   UNL A   1      45.694  37.277  36.805  1.00  0.00    -0.744 OA
ENDBRANCH  69  70
ENDBRANCH  37  62
ENDBRANCH  11  12
ENDBRANCH   4   6
ENDBRANCH   1   2
BRANCH   1  74
ATOM     74  C   UNL A   1      35.791  23.800  25.781  1.00  0.00     0.042 C 
BRANCH  74  75
ATOM     75  C   UNL A   1      34.489  24.230  25.098  1.00  0.00     0.118 C 
BRANCH  75  76
ATOM     76  N   UNL A   1      34.626  24.234  23.657  1.00  0.00    -0.351 N 
ATOM     77  C   UNL A   1      33.657  24.401  22.719  1.00  0.00     0.278 C 
ATOM     78  H   UNL A   1      35.539  24.100  23.312  1.00  0.00     0.163 HD
ATOM     79  O   UNL A   1      33.685  23.613  21.766  1.00  0.00    -0.268 OA
BRANCH  77  80
ATOM     80  C   UNL A   1      32.730  25.634  22.684  1.00  0.00     0.277 C 
ATOM     81  C   UNL A   1      31.393  25.651  23.458  1.00  0.00     0.109 C 
ATOM     82  N   UNL A   1      33.590  26.825  22.982  1.00  0.00    -0.327 N 
ATOM     83  C   UNL A   1      30.640  26.891  23.058  1.00  0.00    -0.024 C 
ATOM     84  C   UNL A   1      32.839  28.119  23.144  1.00  0.00     0.243 C 
ATOM     85  H   UNL A   1      34.253  26.937  22.214  1.00  0.00     0.347 HD
ATOM     86  H   UNL A   1      34.040  26.639  23.877  1.00  0.00     0.347 HD
ATOM     87  C   UNL A   1      29.390  27.307  23.228  1.00  0.00     0.002 A 
ATOM     88  C   UNL A   1      31.464  27.977  22.418  1.00  0.00     0.196 C 
ATOM     89  C   UNL A   1      28.215  26.805  23.862  1.00  0.00     0.010 A 
ATOM     90  C   UNL A   1      29.434  28.683  22.678  1.00  0.00     0.066 A 
ATOM     91  N   UNL A   1      30.589  29.173  22.332  1.00  0.00    -0.270 NA
ATOM     92  C   UNL A   1      27.098  27.551  23.827  1.00  0.00     0.001 A 
ATOM     93  C   UNL A   1      28.144  29.400  22.597  1.00  0.00     0.028 A 
ATOM     94  C   UNL A   1      27.053  28.825  23.127  1.00  0.00     0.002 A 
BRANCH  84  95
ATOM     95  C   UNL A   1      32.901  28.561  24.620  1.00  0.00     0.012 A 
ATOM     96  C   UNL A   1      33.742  27.855  25.510  1.00  0.00     0.010 A 
ATOM     97  C   UNL A   1      32.172  29.629  25.155  1.00  0.00     0.010 A 
ATOM     98  C   UNL A   1      33.772  28.142  26.877  1.00  0.00     0.001 A 
ATOM     99  C   UNL A   1      32.207  29.927  26.523  1.00  0.00     0.001 A 
ATOM    100  C   UNL A   1      32.993  29.173  27.386  1.00  0.00     0.000 A 
ENDBRANCH  84  95
ENDBRANCH  77  80
ENDBRANCH  75  76
ENDBRANCH  74  75
ENDBRANCH   1  74
TORSDOF 14
ENDMDL
