MODEL 1
REMARK VINA RESULT:     -12.1      0.000      0.000
REMARK SMILES NS(=O)(=O)c1ccc(C#Cc2cc(Cl)cc3c2O[C@H](C(F)(F)F)C(C(=O)NCCCNC(=O)c2ccc(-c4c5nc(c(-c6c(F)cc(S(=O)(=O)[O-])cc6F)c6ccc([nH]6)c(-c6c(F)cc(S(=O)(=O)[O-])cc6F)c6nc(c(-c7c(F)cc(S(=O)(=O)[O-])cc7F)c7ccc4[nH]7)C=C6)C=C5)cc2)=C3)cc1
REMARK SMILES IDX 28 1 27 2 25 3 26 4 24 6 11 7 12 8 17 9 13 10 16 11 18 12
REMARK SMILES IDX 14 13 15 14 100 15 19 16 10 17 9 18 8 19 5 20 6 21 102 22
REMARK SMILES IDX 7 23 101 24 2 25 3 26 4 27 1 28 20 31 21 32 22 33 23 34
REMARK SMILES IDX 29 35 30 36 31 37 32 38 33 40 34 41 35 42 99 43 36 44 98 45
REMARK SMILES IDX 37 46 38 47 39 48 92 49 40 50 97 51 91 52 93 53 41 54 96 55
REMARK SMILES IDX 90 56 89 57 42 59 76 60 55 61 75 62 56 63 59 64 74 65 94 66
REMARK SMILES IDX 57 67 58 68 73 70 95 71 60 72 43 73 44 74 53 75 45 76 46 77
REMARK SMILES IDX 52 78 54 79 47 80 48 81 49 82 50 83 51 84 77 85 78 86 87 87
REMARK SMILES IDX 79 88 80 89 86 90 88 91 81 92 82 93 83 94 84 95 85 96 61 97
REMARK SMILES IDX 62 98 71 99 63 100 64 101 70 102 72 103 65 104 66 105 67 106
REMARK SMILES IDX 68 107 69 108
REMARK H PARENT 27 5 1 29 1 30 31 39 93 58 59 69
REMARK Flexibility Score: inf
ROOT
ATOM      1  C   UNL A   1      45.021  37.252  27.295  1.00  0.00     0.118 C 
ENDROOT
BRANCH   1   2
ATOM      2  N   UNL A   1      43.909  37.771  28.079  1.00  0.00    -0.352 N 
ATOM      3  C   UNL A   1      43.222  38.933  28.172  1.00  0.00     0.251 C 
ATOM      4  O   UNL A   1      42.285  38.939  28.976  1.00  0.00    -0.270 OA
ATOM      5  H   UNL A   1      43.566  37.096  28.709  1.00  0.00     0.163 HD
BRANCH   3   6
ATOM      6  C   UNL A   1      43.521  40.159  27.377  1.00  0.00     0.067 C 
ATOM      7  C   UNL A   1      44.580  43.551  25.141  1.00  0.00     0.069 A 
ATOM      8  C   UNL A   1      45.155  44.649  25.778  1.00  0.00     0.041 A 
ATOM      9  C   UNL A   1      44.281  42.403  25.884  1.00  0.00     0.143 A 
ATOM     10  C   UNL A   1      45.423  44.589  27.147  1.00  0.00     0.043 A 
ATOM     11  C   UNL A   1      44.545  42.341  27.257  1.00  0.00     0.020 A 
ATOM     12  O   UNL A   1      43.772  41.334  25.202  1.00  0.00    -0.474 OA
ATOM     13  Cl  UNL A   1      46.140  45.944  27.930  1.00  0.00    -0.084 Cl
ATOM     14  C   UNL A   1      45.122  43.444  27.890  1.00  0.00     0.032 A 
ATOM     15  C   UNL A   1      44.245  41.114  27.990  1.00  0.00     0.025 C 
ATOM     16  C   UNL A   1      43.033  40.364  25.975  1.00  0.00     0.314 C 
BRANCH   7  17
ATOM     17  C   UNL A   1      44.300  43.594  23.736  1.00  0.00    -0.058 C 
ATOM     18  C   UNL A   1      44.089  43.690  22.555  1.00  0.00    -0.062 C 
BRANCH  18  19
ATOM     19  C   UNL A   1      43.792  43.859  21.167  1.00  0.00     0.025 A 
ATOM     20  C   UNL A   1      43.058  44.313  18.514  1.00  0.00     0.082 A 
ATOM     21  C   UNL A   1      42.356  43.376  19.276  1.00  0.00     0.023 A 
ATOM     22  C   UNL A   1      44.152  44.996  19.058  1.00  0.00     0.023 A 
ATOM     23  C   UNL A   1      42.728  43.150  20.603  1.00  0.00     0.018 A 
ATOM     24  C   UNL A   1      44.515  44.769  20.389  1.00  0.00     0.018 A 
BRANCH  20  25
ATOM     25  S   UNL A   1      42.579  44.678  16.853  1.00  0.00     0.238 S 
ATOM     26  O   UNL A   1      41.137  44.706  16.780  1.00  0.00    -0.207 OA
ATOM     27  O   UNL A   1      43.410  43.915  15.956  1.00  0.00    -0.207 OA
BRANCH  25  28
ATOM     28  N   UNL A   1      43.044  46.283  16.619  1.00  0.00    -0.225 NA
ATOM     29  H   UNL A   1      44.057  46.361  16.711  1.00  0.00     0.137 HD
ATOM     30  H   UNL A   1      42.593  46.874  17.318  1.00  0.00     0.137 HD
ENDBRANCH  25  28
ENDBRANCH  20  25
ENDBRANCH  18  19
ENDBRANCH   7  17
BRANCH  16  31
ATOM     31  C   UNL A   1      41.530  40.709  25.920  1.00  0.00     0.429 C 
ATOM     32  F   UNL A   1      40.790  39.585  25.751  1.00  0.00    -0.167 F 
ATOM     33  F   UNL A   1      41.084  41.294  27.058  1.00  0.00    -0.167 F 
ATOM     34  F   UNL A   1      41.227  41.554  24.909  1.00  0.00    -0.167 F 
ENDBRANCH  16  31
ENDBRANCH   3   6
ENDBRANCH   1   2
BRANCH   1  35
ATOM     35  C   UNL A   1      46.271  38.098  27.446  1.00  0.00     0.042 C 
BRANCH  35  36
ATOM     36  C   UNL A   1      46.827  38.015  28.856  1.00  0.00     0.118 C 
BRANCH  36  37
ATOM     37  N   UNL A   1      48.248  37.660  28.869  1.00  0.00    -0.352 N 
ATOM     38  C   UNL A   1      48.859  36.428  28.893  1.00  0.00     0.251 C 
ATOM     39  H   UNL A   1      48.866  38.426  28.860  1.00  0.00     0.163 HD
ATOM     40  O   UNL A   1      50.058  36.343  29.133  1.00  0.00    -0.269 OA
BRANCH  38  41
ATOM     41  C   UNL A   1      48.050  35.220  28.650  1.00  0.00     0.039 A 
ATOM     42  C   UNL A   1      47.676  34.418  29.724  1.00  0.00     0.014 A 
ATOM     43  C   UNL A   1      47.714  34.856  27.344  1.00  0.00     0.014 A 
ATOM     44  C   UNL A   1      47.208  33.139  29.485  1.00  0.00     0.010 A 
ATOM     45  C   UNL A   1      47.098  33.623  27.117  1.00  0.00     0.010 A 
ATOM     46  C   UNL A   1      46.901  32.727  28.180  1.00  0.00    -0.014 A 
BRANCH  46  47
ATOM     47  C   UNL A   1      46.381  31.352  27.965  1.00  0.00     0.031 A 
ATOM     48  C   UNL A   1      47.291  30.250  27.490  1.00  0.00     0.074 A 
ATOM     49  C   UNL A   1      45.095  31.089  28.273  1.00  0.00     0.049 A 
ATOM     50  N   UNL A   1      47.003  28.997  27.242  1.00  0.00    -0.248 NA
ATOM     51  C   UNL A   1      48.706  30.589  27.259  1.00  0.00     0.031 C 
ATOM     52  C   UNL A   1      44.129  32.074  28.772  1.00  0.00     0.029 A 
ATOM     53  N   UNL A   1      44.383  29.918  28.245  1.00  0.00    -0.354 N 
ATOM     54  C   UNL A   1      48.186  28.408  26.813  1.00  0.00     0.074 A 
ATOM     55  C   UNL A   1      49.193  29.446  26.795  1.00  0.00     0.031 C 
ATOM     56  C   UNL A   1      42.977  31.455  29.065  1.00  0.00     0.029 A 
ATOM     57  C   UNL A   1      43.087  30.053  28.684  1.00  0.00     0.049 A 
ATOM     58  H   UNL A   1      44.764  29.063  27.940  1.00  0.00     0.167 HD
ATOM     59  C   UNL A   1      48.414  27.115  26.483  1.00  0.00     0.037 A 
ATOM     60  C   UNL A   1      42.086  29.157  28.747  1.00  0.00     0.037 A 
ATOM     61  C   UNL A   1      47.408  26.086  26.526  1.00  0.00     0.049 A 
ATOM     62  C   UNL A   1      42.348  27.749  28.294  1.00  0.00     0.074 A 
ATOM     63  C   UNL A   1      47.541  24.744  26.215  1.00  0.00     0.029 A 
ATOM     64  N   UNL A   1      46.088  26.278  26.908  1.00  0.00    -0.354 N 
ATOM     65  N   UNL A   1      43.474  27.212  27.887  1.00  0.00    -0.248 NA
ATOM     66  C   UNL A   1      41.205  26.828  28.297  1.00  0.00     0.031 C 
ATOM     67  C   UNL A   1      46.289  24.137  26.352  1.00  0.00     0.029 A 
ATOM     68  C   UNL A   1      45.390  25.085  26.814  1.00  0.00     0.049 A 
ATOM     69  H   UNL A   1      45.704  27.136  27.202  1.00  0.00     0.167 HD
ATOM     70  C   UNL A   1      43.179  25.883  27.609  1.00  0.00     0.074 A 
ATOM     71  C   UNL A   1      41.777  25.693  27.915  1.00  0.00     0.031 C 
ATOM     72  C   UNL A   1      43.996  24.910  27.135  1.00  0.00     0.037 A 
BRANCH  59  73
ATOM     73  C   UNL A   1      49.800  26.723  26.046  1.00  0.00     0.058 A 
ATOM     74  C   UNL A   1      50.233  26.897  24.722  1.00  0.00     0.135 A 
ATOM     75  C   UNL A   1      50.737  26.257  26.983  1.00  0.00     0.135 A 
ATOM     76  F   UNL A   1      49.374  27.320  23.780  1.00  0.00    -0.206 F 
ATOM     77  C   UNL A   1      51.542  26.620  24.342  1.00  0.00     0.059 A 
ATOM     78  C   UNL A   1      52.061  26.001  26.632  1.00  0.00     0.059 A 
ATOM     79  F   UNL A   1      50.378  26.068  28.263  1.00  0.00    -0.206 F 
ATOM     80  C   UNL A   1      52.451  26.184  25.307  1.00  0.00     0.060 A 
BRANCH  80  81
ATOM     81  S   UNL A   1      54.154  25.870  24.799  1.00  0.00     0.124 S 
ATOM     82  O   UNL A   1      54.250  24.426  24.983  1.00  0.00    -0.237 OA
ATOM     83  O   UNL A   1      54.152  26.335  23.416  1.00  0.00    -0.237 OA
ATOM     84  O   UNL A   1      54.942  26.673  25.728  1.00  0.00    -0.744 OA
ENDBRANCH  80  81
ENDBRANCH  59  73
BRANCH  60  85
ATOM     85  C   UNL A   1      40.745  29.570  29.243  1.00  0.00     0.058 A 
ATOM     86  C   UNL A   1      40.526  29.817  30.605  1.00  0.00     0.135 A 
ATOM     87  C   UNL A   1      39.659  29.733  28.367  1.00  0.00     0.135 A 
ATOM     88  F   UNL A   1      41.529  29.673  31.484  1.00  0.00    -0.206 F 
ATOM     89  C   UNL A   1      39.275  30.190  31.085  1.00  0.00     0.059 A 
ATOM     90  C   UNL A   1      38.409  30.140  28.818  1.00  0.00     0.059 A 
ATOM     91  F   UNL A   1      39.818  29.526  27.049  1.00  0.00    -0.206 F 
ATOM     92  C   UNL A   1      38.223  30.352  30.181  1.00  0.00     0.060 A 
BRANCH  92  93
ATOM     93  S   UNL A   1      36.612  30.858  30.818  1.00  0.00     0.124 S 
ATOM     94  O   UNL A   1      36.254  29.718  31.653  1.00  0.00    -0.237 OA
ATOM     95  O   UNL A   1      36.940  32.092  31.525  1.00  0.00    -0.237 OA
ATOM     96  O   UNL A   1      35.812  31.031  29.608  1.00  0.00    -0.744 OA
ENDBRANCH  92  93
ENDBRANCH  60  85
BRANCH  72  97
ATOM     97  C   UNL A   1      43.406  23.539  26.945  1.00  0.00     0.058 A 
ATOM     98  C   UNL A   1      43.087  23.045  25.671  1.00  0.00     0.135 A 
ATOM     99  C   UNL A   1      43.226  22.684  28.045  1.00  0.00     0.135 A 
ATOM    100  F   UNL A   1      43.233  23.824  24.588  1.00  0.00    -0.206 F 
ATOM    101  C   UNL A   1      42.593  21.758  25.495  1.00  0.00     0.059 A 
ATOM    102  C   UNL A   1      42.767  21.381  27.889  1.00  0.00     0.059 A 
ATOM    103  F   UNL A   1      43.525  23.104  29.285  1.00  0.00    -0.206 F 
ATOM    104  C   UNL A   1      42.444  20.929  26.610  1.00  0.00     0.060 A 
BRANCH 104 105
ATOM    105  S   UNL A   1      41.843  19.248  26.355  1.00  0.00     0.124 S 
ATOM    106  O   UNL A   1      42.569  18.853  25.152  1.00  0.00    -0.237 OA
ATOM    107  O   UNL A   1      42.251  18.584  27.589  1.00  0.00    -0.237 OA
ATOM    108  O   UNL A   1      40.403  19.421  26.187  1.00  0.00    -0.744 OA
ENDBRANCH 104 105
ENDBRANCH  72  97
ENDBRANCH  46  47
ENDBRANCH  38  41
ENDBRANCH  36  37
ENDBRANCH  35  36
ENDBRANCH   1  35
TORSDOF 18
ENDMDL
MODEL 2
REMARK VINA RESULT:     -12.0      6.572     14.264
REMARK SMILES NS(=O)(=O)c1ccc(C#Cc2cc(Cl)cc3c2O[C@H](C(F)(F)F)C(C(=O)NCCCNC(=O)c2ccc(-c4c5nc(c(-c6c(F)cc(S(=O)(=O)[O-])cc6F)c6ccc([nH]6)c(-c6c(F)cc(S(=O)(=O)[O-])cc6F)c6nc(c(-c7c(F)cc(S(=O)(=O)[O-])cc7F)c7ccc4[nH]7)C=C6)C=C5)cc2)=C3)cc1
REMARK SMILES IDX 28 1 27 2 25 3 26 4 24 6 11 7 12 8 17 9 13 10 16 11 18 12
REMARK SMILES IDX 14 13 15 14 100 15 19 16 10 17 9 18 8 19 5 20 6 21 102 22
REMARK SMILES IDX 7 23 101 24 2 25 3 26 4 27 1 28 20 31 21 32 22 33 23 34
REMARK SMILES IDX 29 35 30 36 31 37 32 38 33 40 34 41 35 42 99 43 36 44 98 45
REMARK SMILES IDX 37 46 38 47 39 48 92 49 40 50 97 51 91 52 93 53 41 54 96 55
REMARK SMILES IDX 90 56 89 57 42 59 76 60 55 61 75 62 56 63 59 64 74 65 94 66
REMARK SMILES IDX 57 67 58 68 73 70 95 71 60 72 43 73 44 74 53 75 45 76 46 77
REMARK SMILES IDX 52 78 54 79 47 80 48 81 49 82 50 83 51 84 77 85 78 86 87 87
REMARK SMILES IDX 79 88 80 89 86 90 88 91 81 92 82 93 83 94 84 95 85 96 61 97
REMARK SMILES IDX 62 98 71 99 63 100 64 101 70 102 72 103 65 104 66 105 67 106
REMARK SMILES IDX 68 107 69 108
REMARK H PARENT 27 5 1 29 1 30 31 39 93 58 59 69
REMARK Flexibility Score: inf
ROOT
ATOM      1  C   UNL A   1      35.302  29.761  27.474  1.00  0.00     0.118 C 
ENDROOT
BRANCH   1   2
ATOM      2  N   UNL A   1      34.312  30.828  27.487  1.00  0.00    -0.352 N 
ATOM      3  C   UNL A   1      33.065  31.026  26.999  1.00  0.00     0.251 C 
ATOM      4  O   UNL A   1      32.543  32.109  27.283  1.00  0.00    -0.270 OA
ATOM      5  H   UNL A   1      34.635  31.615  27.983  1.00  0.00     0.163 HD
BRANCH   3   6
ATOM      6  C   UNL A   1      32.312  30.038  26.174  1.00  0.00     0.067 C 
ATOM      7  C   UNL A   1      30.313  27.323  23.673  1.00  0.00     0.069 A 
ATOM      8  C   UNL A   1      29.299  27.774  22.829  1.00  0.00     0.041 A 
ATOM      9  C   UNL A   1      31.012  28.242  24.463  1.00  0.00     0.143 A 
ATOM     10  C   UNL A   1      28.997  29.136  22.784  1.00  0.00     0.043 A 
ATOM     11  C   UNL A   1      30.708  29.608  24.423  1.00  0.00     0.020 A 
ATOM     12  O   UNL A   1      32.034  27.756  25.229  1.00  0.00    -0.474 OA
ATOM     13  Cl  UNL A   1      27.750  29.693  21.736  1.00  0.00    -0.084 Cl
ATOM     14  C   UNL A   1      29.692  30.055  23.575  1.00  0.00     0.032 A 
ATOM     15  C   UNL A   1      31.481  30.538  25.241  1.00  0.00     0.025 C 
ATOM     16  C   UNL A   1      32.428  28.555  26.365  1.00  0.00     0.314 C 
BRANCH   7  17
ATOM     17  C   UNL A   1      30.639  25.928  23.730  1.00  0.00    -0.058 C 
ATOM     18  C   UNL A   1      30.926  24.764  23.840  1.00  0.00    -0.062 C 
BRANCH  18  19
ATOM     19  C   UNL A   1      31.335  23.403  23.990  1.00  0.00     0.025 A 
ATOM     20  C   UNL A   1      32.327  20.813  24.290  1.00  0.00     0.082 A 
ATOM     21  C   UNL A   1      32.343  21.418  23.031  1.00  0.00     0.023 A 
ATOM     22  C   UNL A   1      31.781  21.479  25.393  1.00  0.00     0.023 A 
ATOM     23  C   UNL A   1      31.844  22.714  22.885  1.00  0.00     0.018 A 
ATOM     24  C   UNL A   1      31.288  22.778  25.241  1.00  0.00     0.018 A 
BRANCH  20  25
ATOM     25  S   UNL A   1      33.010  19.201  24.533  1.00  0.00     0.238 S 
ATOM     26  O   UNL A   1      34.448  19.311  24.603  1.00  0.00    -0.207 OA
ATOM     27  O   UNL A   1      32.321  18.275  23.670  1.00  0.00    -0.207 OA
BRANCH  25  28
ATOM     28  N   UNL A   1      32.543  18.772  26.096  1.00  0.00    -0.225 NA
ATOM     29  H   UNL A   1      31.987  17.917  26.063  1.00  0.00     0.137 HD
ATOM     30  H   UNL A   1      31.987  19.524  26.504  1.00  0.00     0.137 HD
ENDBRANCH  25  28
ENDBRANCH  20  25
ENDBRANCH  18  19
ENDBRANCH   7  17
BRANCH  16  31
ATOM     31  C   UNL A   1      31.677  28.064  27.619  1.00  0.00     0.429 C 
ATOM     32  F   UNL A   1      30.781  28.994  28.033  1.00  0.00    -0.167 F 
ATOM     33  F   UNL A   1      30.974  26.926  27.398  1.00  0.00    -0.167 F 
ATOM     34  F   UNL A   1      32.507  27.808  28.655  1.00  0.00    -0.167 F 
ENDBRANCH  16  31
ENDBRANCH   3   6
ENDBRANCH   1   2
BRANCH   1  35
ATOM     35  C   UNL A   1      36.173  29.775  28.716  1.00  0.00     0.042 C 
BRANCH  35  36
ATOM     36  C   UNL A   1      36.251  31.165  29.321  1.00  0.00     0.118 C 
BRANCH  36  37
ATOM     37  N   UNL A   1      36.194  31.133  30.785  1.00  0.00    -0.352 N 
ATOM     38  C   UNL A   1      37.148  30.772  31.707  1.00  0.00     0.251 C 
ATOM     39  H   UNL A   1      35.334  31.414  31.171  1.00  0.00     0.163 HD
ATOM     40  O   UNL A   1      36.832  30.593  32.878  1.00  0.00    -0.269 OA
BRANCH  38  41
ATOM     41  C   UNL A   1      38.541  30.583  31.263  1.00  0.00     0.039 A 
ATOM     42  C   UNL A   1      38.949  31.115  30.043  1.00  0.00     0.014 A 
ATOM     43  C   UNL A   1      39.423  29.824  32.034  1.00  0.00     0.014 A 
ATOM     44  C   UNL A   1      40.131  30.677  29.474  1.00  0.00     0.010 A 
ATOM     45  C   UNL A   1      40.683  29.510  31.520  1.00  0.00     0.010 A 
ATOM     46  C   UNL A   1      41.021  29.879  30.208  1.00  0.00    -0.014 A 
BRANCH  46  47
ATOM     47  C   UNL A   1      42.290  29.445  29.570  1.00  0.00     0.031 A 
ATOM     48  C   UNL A   1      42.431  28.059  28.998  1.00  0.00     0.074 A 
ATOM     49  C   UNL A   1      43.291  30.339  29.443  1.00  0.00     0.049 A 
ATOM     50  N   UNL A   1      43.468  27.513  28.416  1.00  0.00    -0.248 NA
ATOM     51  C   UNL A   1      41.264  27.164  29.091  1.00  0.00     0.031 C 
ATOM     52  C   UNL A   1      43.254  31.722  29.932  1.00  0.00     0.029 A 
ATOM     53  N   UNL A   1      44.520  30.238  28.844  1.00  0.00    -0.354 N 
ATOM     54  C   UNL A   1      43.088  26.216  28.091  1.00  0.00     0.074 A 
ATOM     55  C   UNL A   1      41.737  26.038  28.574  1.00  0.00     0.031 C 
ATOM     56  C   UNL A   1      44.373  32.355  29.556  1.00  0.00     0.029 A 
ATOM     57  C   UNL A   1      45.249  31.403  28.887  1.00  0.00     0.049 A 
ATOM     58  H   UNL A   1      44.847  29.410  28.423  1.00  0.00     0.167 HD
ATOM     59  C   UNL A   1      43.797  25.268  27.432  1.00  0.00     0.037 A 
ATOM     60  C   UNL A   1      46.498  31.671  28.463  1.00  0.00     0.037 A 
ATOM     61  C   UNL A   1      45.134  25.466  26.936  1.00  0.00     0.049 A 
ATOM     62  C   UNL A   1      47.289  30.573  27.812  1.00  0.00     0.074 A 
ATOM     63  C   UNL A   1      45.936  24.569  26.252  1.00  0.00     0.029 A 
ATOM     64  N   UNL A   1      45.866  26.638  27.064  1.00  0.00    -0.354 N 
ATOM     65  N   UNL A   1      46.913  29.351  27.517  1.00  0.00    -0.248 NA
ATOM     66  C   UNL A   1      48.676  30.884  27.445  1.00  0.00     0.031 C 
ATOM     67  C   UNL A   1      47.171  25.177  26.018  1.00  0.00     0.029 A 
ATOM     68  C   UNL A   1      47.119  26.477  26.495  1.00  0.00     0.049 A 
ATOM     69  H   UNL A   1      45.542  27.462  27.495  1.00  0.00     0.167 HD
ATOM     70  C   UNL A   1      48.011  28.755  26.907  1.00  0.00     0.074 A 
ATOM     71  C   UNL A   1      49.055  29.757  26.856  1.00  0.00     0.031 C 
ATOM     72  C   UNL A   1      48.143  27.489  26.440  1.00  0.00     0.037 A 
BRANCH  59  73
ATOM     73  C   UNL A   1      43.153  23.928  27.200  1.00  0.00     0.058 A 
ATOM     74  C   UNL A   1      42.652  23.559  25.942  1.00  0.00     0.135 A 
ATOM     75  C   UNL A   1      43.125  22.965  28.222  1.00  0.00     0.135 A 
ATOM     76  F   UNL A   1      42.635  24.445  24.934  1.00  0.00    -0.206 F 
ATOM     77  C   UNL A   1      42.142  22.286  25.708  1.00  0.00     0.059 A 
ATOM     78  C   UNL A   1      42.646  21.675  28.002  1.00  0.00     0.059 A 
ATOM     79  F   UNL A   1      43.589  23.263  29.446  1.00  0.00    -0.206 F 
ATOM     80  C   UNL A   1      42.154  21.348  26.740  1.00  0.00     0.060 A 
BRANCH  80  81
ATOM     81  S   UNL A   1      41.525  19.691  26.401  1.00  0.00     0.124 S 
ATOM     82  O   UNL A   1      41.788  19.016  27.667  1.00  0.00    -0.237 OA
ATOM     83  O   UNL A   1      40.121  19.952  26.100  1.00  0.00    -0.237 OA
ATOM     84  O   UNL A   1      42.334  19.242  25.272  1.00  0.00    -0.744 OA
ENDBRANCH  80  81
ENDBRANCH  59  73
BRANCH  60  85
ATOM     85  C   UNL A   1      47.076  33.027  28.657  1.00  0.00     0.058 A 
ATOM     86  C   UNL A   1      47.755  33.359  29.838  1.00  0.00     0.135 A 
ATOM     87  C   UNL A   1      46.969  34.018  27.666  1.00  0.00     0.135 A 
ATOM     88  F   UNL A   1      47.883  32.450  30.816  1.00  0.00    -0.206 F 
ATOM     89  C   UNL A   1      48.289  34.627  30.039  1.00  0.00     0.059 A 
ATOM     90  C   UNL A   1      47.525  35.281  27.829  1.00  0.00     0.059 A 
ATOM     91  F   UNL A   1      46.343  33.748  26.508  1.00  0.00    -0.206 F 
ATOM     92  C   UNL A   1      48.170  35.581  29.026  1.00  0.00     0.060 A 
BRANCH  92  93
ATOM     93  S   UNL A   1      48.888  37.216  29.294  1.00  0.00     0.124 S 
ATOM     94  O   UNL A   1      47.785  38.088  28.907  1.00  0.00    -0.237 OA
ATOM     95  O   UNL A   1      49.204  37.177  30.718  1.00  0.00    -0.237 OA
ATOM     96  O   UNL A   1      50.043  37.226  28.401  1.00  0.00    -0.744 OA
ENDBRANCH  92  93
ENDBRANCH  60  85
BRANCH  72  97
ATOM     97  C   UNL A   1      49.454  27.119  25.801  1.00  0.00     0.058 A 
ATOM     98  C   UNL A   1      49.698  27.344  24.438  1.00  0.00     0.135 A 
ATOM     99  C   UNL A   1      50.502  26.600  26.579  1.00  0.00     0.135 A 
ATOM    100  F   UNL A   1      48.727  27.831  23.648  1.00  0.00    -0.206 F 
ATOM    101  C   UNL A   1      50.929  27.050  23.864  1.00  0.00     0.059 A 
ATOM    102  C   UNL A   1      51.752  26.332  26.033  1.00  0.00     0.059 A 
ATOM    103  F   UNL A   1      50.324  26.375  27.891  1.00  0.00    -0.206 F 
ATOM    104  C   UNL A   1      51.954  26.552  24.671  1.00  0.00     0.060 A 
BRANCH 104 105
ATOM    105  S   UNL A   1      53.557  26.219  23.915  1.00  0.00     0.124 S 
ATOM    106  O   UNL A   1      53.183  25.966  22.528  1.00  0.00    -0.237 OA
ATOM    107  O   UNL A   1      54.279  27.463  24.161  1.00  0.00    -0.237 OA
ATOM    108  O   UNL A   1      54.048  25.058  24.653  1.00  0.00    -0.744 OA
ENDBRANCH 104 105
ENDBRANCH  72  97
ENDBRANCH  46  47
ENDBRANCH  38  41
ENDBRANCH  36  37
ENDBRANCH  35  36
ENDBRANCH   1  35
TORSDOF 18
ENDMDL
MODEL 3
REMARK VINA RESULT:     -11.9      7.103     14.162
REMARK SMILES NS(=O)(=O)c1ccc(C#Cc2cc(Cl)cc3c2O[C@H](C(F)(F)F)C(C(=O)NCCCNC(=O)c2ccc(-c4c5nc(c(-c6c(F)cc(S(=O)(=O)[O-])cc6F)c6ccc([nH]6)c(-c6c(F)cc(S(=O)(=O)[O-])cc6F)c6nc(c(-c7c(F)cc(S(=O)(=O)[O-])cc7F)c7ccc4[nH]7)C=C6)C=C5)cc2)=C3)cc1
REMARK SMILES IDX 28 1 27 2 25 3 26 4 24 6 11 7 12 8 17 9 13 10 16 11 18 12
REMARK SMILES IDX 14 13 15 14 100 15 19 16 10 17 9 18 8 19 5 20 6 21 102 22
REMARK SMILES IDX 7 23 101 24 2 25 3 26 4 27 1 28 20 31 21 32 22 33 23 34
REMARK SMILES IDX 29 35 30 36 31 37 32 38 33 40 34 41 35 42 99 43 36 44 98 45
REMARK SMILES IDX 37 46 38 47 39 48 92 49 40 50 97 51 91 52 93 53 41 54 96 55
REMARK SMILES IDX 90 56 89 57 42 59 76 60 55 61 75 62 56 63 59 64 74 65 94 66
REMARK SMILES IDX 57 67 58 68 73 70 95 71 60 72 43 73 44 74 53 75 45 76 46 77
REMARK SMILES IDX 52 78 54 79 47 80 48 81 49 82 50 83 51 84 77 85 78 86 87 87
REMARK SMILES IDX 79 88 80 89 86 90 88 91 81 92 82 93 83 94 84 95 85 96 61 97
REMARK SMILES IDX 62 98 71 99 63 100 64 101 70 102 72 103 65 104 66 105 67 106
REMARK SMILES IDX 68 107 69 108
REMARK H PARENT 27 5 1 29 1 30 31 39 93 58 59 69
REMARK Flexibility Score: inf
ROOT
ATOM      1  C   UNL A   1      35.242  29.493  27.820  1.00  0.00     0.118 C 
ENDROOT
BRANCH   1   2
ATOM      2  N   UNL A   1      34.338  30.629  27.713  1.00  0.00    -0.352 N 
ATOM      3  C   UNL A   1      33.154  30.898  27.114  1.00  0.00     0.251 C 
ATOM      4  O   UNL A   1      32.695  32.026  27.315  1.00  0.00    -0.270 OA
ATOM      5  H   UNL A   1      34.679  31.410  28.207  1.00  0.00     0.163 HD
BRANCH   3   6
ATOM      6  C   UNL A   1      32.400  29.934  26.261  1.00  0.00     0.067 C 
ATOM      7  C   UNL A   1      30.403  27.285  23.689  1.00  0.00     0.069 A 
ATOM      8  C   UNL A   1      29.439  27.770  22.807  1.00  0.00     0.041 A 
ATOM      9  C   UNL A   1      31.103  28.181  24.504  1.00  0.00     0.143 A 
ATOM     10  C   UNL A   1      29.186  29.141  22.749  1.00  0.00     0.043 A 
ATOM     11  C   UNL A   1      30.849  29.557  24.451  1.00  0.00     0.020 A 
ATOM     12  O   UNL A   1      32.077  27.661  25.310  1.00  0.00    -0.474 OA
ATOM     13  Cl  UNL A   1      28.000  29.739  21.653  1.00  0.00    -0.084 Cl
ATOM     14  C   UNL A   1      29.883  30.037  23.565  1.00  0.00     0.032 A 
ATOM     15  C   UNL A   1      31.623  30.461  25.297  1.00  0.00     0.025 C 
ATOM     16  C   UNL A   1      32.456  28.449  26.458  1.00  0.00     0.314 C 
BRANCH   7  17
ATOM     17  C   UNL A   1      30.678  25.880  23.760  1.00  0.00    -0.058 C 
ATOM     18  C   UNL A   1      30.954  24.713  23.863  1.00  0.00    -0.062 C 
BRANCH  18  19
ATOM     19  C   UNL A   1      31.350  23.343  23.960  1.00  0.00     0.025 A 
ATOM     20  C   UNL A   1      32.318  20.733  24.145  1.00  0.00     0.082 A 
ATOM     21  C   UNL A   1      32.262  21.363  22.899  1.00  0.00     0.023 A 
ATOM     22  C   UNL A   1      31.856  21.385  25.294  1.00  0.00     0.023 A 
ATOM     23  C   UNL A   1      31.775  22.669  22.811  1.00  0.00     0.018 A 
ATOM     24  C   UNL A   1      31.375  22.694  25.199  1.00  0.00     0.018 A 
BRANCH  20  25
ATOM     25  S   UNL A   1      32.990  19.107  24.312  1.00  0.00     0.238 S 
ATOM     26  O   UNL A   1      34.385  19.214  24.669  1.00  0.00    -0.207 OA
ATOM     27  O   UNL A   1      32.503  18.295  23.225  1.00  0.00    -0.207 OA
BRANCH  25  28
ATOM     28  N   UNL A   1      32.248  18.480  25.691  1.00  0.00    -0.225 NA
ATOM     29  H   UNL A   1      31.325  18.900  25.803  1.00  0.00     0.137 HD
ATOM     30  H   UNL A   1      32.818  18.690  26.510  1.00  0.00     0.137 HD
ENDBRANCH  25  28
ENDBRANCH  20  25
ENDBRANCH  18  19
ENDBRANCH   7  17
BRANCH  16  31
ATOM     31  C   UNL A   1      31.641  27.987  27.683  1.00  0.00     0.429 C 
ATOM     32  F   UNL A   1      30.787  28.962  28.083  1.00  0.00    -0.167 F 
ATOM     33  F   UNL A   1      30.882  26.894  27.427  1.00  0.00    -0.167 F 
ATOM     34  F   UNL A   1      32.424  27.672  28.740  1.00  0.00    -0.167 F 
ENDBRANCH  16  31
ENDBRANCH   3   6
ENDBRANCH   1   2
BRANCH   1  35
ATOM     35  C   UNL A   1      36.485  29.826  28.624  1.00  0.00     0.042 C 
BRANCH  35  36
ATOM     36  C   UNL A   1      36.360  29.350  30.060  1.00  0.00     0.118 C 
BRANCH  36  37
ATOM     37  N   UNL A   1      36.271  30.465  31.006  1.00  0.00    -0.352 N 
ATOM     38  C   UNL A   1      37.256  31.115  31.713  1.00  0.00     0.251 C 
ATOM     39  H   UNL A   1      35.360  30.803  31.162  1.00  0.00     0.163 HD
ATOM     40  O   UNL A   1      36.954  31.872  32.629  1.00  0.00    -0.269 OA
BRANCH  38  41
ATOM     41  C   UNL A   1      38.668  30.870  31.369  1.00  0.00     0.039 A 
ATOM     42  C   UNL A   1      39.211  31.469  30.235  1.00  0.00     0.014 A 
ATOM     43  C   UNL A   1      39.434  29.996  32.143  1.00  0.00     0.014 A 
ATOM     44  C   UNL A   1      40.410  31.000  29.730  1.00  0.00     0.010 A 
ATOM     45  C   UNL A   1      40.713  29.640  31.708  1.00  0.00     0.010 A 
ATOM     46  C   UNL A   1      41.183  30.089  30.463  1.00  0.00    -0.014 A 
BRANCH  46  47
ATOM     47  C   UNL A   1      42.475  29.624  29.896  1.00  0.00     0.031 A 
ATOM     48  C   UNL A   1      43.708  30.485  29.982  1.00  0.00     0.074 A 
ATOM     49  C   UNL A   1      42.544  28.385  29.369  1.00  0.00     0.049 A 
ATOM     50  N   UNL A   1      44.913  30.239  29.532  1.00  0.00    -0.248 NA
ATOM     51  C   UNL A   1      43.580  31.790  30.653  1.00  0.00     0.031 C 
ATOM     52  C   UNL A   1      41.419  27.450  29.261  1.00  0.00     0.029 A 
ATOM     53  N   UNL A   1      43.602  27.683  28.852  1.00  0.00    -0.354 N 
ATOM     54  C   UNL A   1      45.676  31.357  29.848  1.00  0.00     0.074 A 
ATOM     55  C   UNL A   1      44.793  32.303  30.495  1.00  0.00     0.031 C 
ATOM     56  C   UNL A   1      41.859  26.280  28.778  1.00  0.00     0.029 A 
ATOM     57  C   UNL A   1      43.272  26.410  28.448  1.00  0.00     0.049 A 
ATOM     58  H   UNL A   1      44.510  28.055  28.777  1.00  0.00     0.167 HD
ATOM     59  C   UNL A   1      46.997  31.565  29.636  1.00  0.00     0.037 A 
ATOM     60  C   UNL A   1      44.015  25.461  27.852  1.00  0.00     0.037 A 
ATOM     61  C   UNL A   1      47.871  30.606  29.012  1.00  0.00     0.049 A 
ATOM     62  C   UNL A   1      45.456  25.755  27.553  1.00  0.00     0.074 A 
ATOM     63  C   UNL A   1      49.226  30.720  28.755  1.00  0.00     0.029 A 
ATOM     64  N   UNL A   1      47.482  29.355  28.552  1.00  0.00    -0.354 N 
ATOM     65  N   UNL A   1      46.160  26.820  27.856  1.00  0.00    -0.248 NA
ATOM     66  C   UNL A   1      46.205  24.724  26.822  1.00  0.00     0.031 C 
ATOM     67  C   UNL A   1      49.644  29.566  28.089  1.00  0.00     0.029 A 
ATOM     68  C   UNL A   1      48.566  28.701  27.989  1.00  0.00     0.049 A 
ATOM     69  H   UNL A   1      46.571  28.988  28.617  1.00  0.00     0.167 HD
ATOM     70  C   UNL A   1      47.440  26.577  27.374  1.00  0.00     0.074 A 
ATOM     71  C   UNL A   1      47.419  25.257  26.781  1.00  0.00     0.031 C 
ATOM     72  C   UNL A   1      48.532  27.380  27.414  1.00  0.00     0.037 A 
BRANCH  59  73
ATOM     73  C   UNL A   1      47.594  32.874  30.078  1.00  0.00     0.058 A 
ATOM     74  C   UNL A   1      47.605  34.000  29.240  1.00  0.00     0.135 A 
ATOM     75  C   UNL A   1      48.075  33.032  31.389  1.00  0.00     0.135 A 
ATOM     76  F   UNL A   1      47.177  33.902  27.971  1.00  0.00    -0.206 F 
ATOM     77  C   UNL A   1      48.074  35.232  29.683  1.00  0.00     0.059 A 
ATOM     78  C   UNL A   1      48.521  34.263  31.863  1.00  0.00     0.059 A 
ATOM     79  F   UNL A   1      48.091  31.988  32.233  1.00  0.00    -0.206 F 
ATOM     80  C   UNL A   1      48.518  35.356  31.000  1.00  0.00     0.060 A 
BRANCH  80  81
ATOM     81  S   UNL A   1      49.083  36.975  31.564  1.00  0.00     0.124 S 
ATOM     82  O   UNL A   1      48.138  37.862  30.894  1.00  0.00    -0.237 OA
ATOM     83  O   UNL A   1      48.933  36.864  33.012  1.00  0.00    -0.237 OA
ATOM     84  O   UNL A   1      50.458  37.046  31.081  1.00  0.00    -0.744 OA
ENDBRANCH  80  81
ENDBRANCH  59  73
BRANCH  60  85
ATOM     85  C   UNL A   1      43.401  24.156  27.485  1.00  0.00     0.058 A 
ATOM     86  C   UNL A   1      43.279  23.127  28.430  1.00  0.00     0.135 A 
ATOM     87  C   UNL A   1      42.919  23.911  26.188  1.00  0.00     0.135 A 
ATOM     88  F   UNL A   1      43.726  23.308  29.681  1.00  0.00    -0.206 F 
ATOM     89  C   UNL A   1      42.721  21.897  28.098  1.00  0.00     0.059 A 
ATOM     90  C   UNL A   1      42.325  22.703  25.842  1.00  0.00     0.059 A 
ATOM     91  F   UNL A   1      42.996  24.869  25.249  1.00  0.00    -0.206 F 
ATOM     92  C   UNL A   1      42.244  21.697  26.801  1.00  0.00     0.060 A 
BRANCH  92  93
ATOM     93  S   UNL A   1      41.502  20.102  26.393  1.00  0.00     0.124 S 
ATOM     94  O   UNL A   1      42.304  19.690  25.247  1.00  0.00    -0.237 OA
ATOM     95  O   UNL A   1      41.710  19.348  27.625  1.00  0.00    -0.237 OA
ATOM     96  O   UNL A   1      40.112  20.443  26.102  1.00  0.00    -0.744 OA
ENDBRANCH  92  93
ENDBRANCH  60  85
BRANCH  72  97
ATOM     97  C   UNL A   1      49.809  26.845  26.826  1.00  0.00     0.058 A 
ATOM     98  C   UNL A   1      50.647  25.981  27.548  1.00  0.00     0.135 A 
ATOM     99  C   UNL A   1      50.160  27.142  25.498  1.00  0.00     0.135 A 
ATOM    100  F   UNL A   1      50.361  25.671  28.823  1.00  0.00    -0.206 F 
ATOM    101  C   UNL A   1      51.798  25.446  26.982  1.00  0.00     0.059 A 
ATOM    102  C   UNL A   1      51.287  26.590  24.900  1.00  0.00     0.059 A 
ATOM    103  F   UNL A   1      49.387  27.955  24.760  1.00  0.00    -0.206 F 
ATOM    104  C   UNL A   1      52.105  25.749  25.654  1.00  0.00     0.060 A 
BRANCH 104 105
ATOM    105  S   UNL A   1      53.580  25.009  24.924  1.00  0.00     0.124 S 
ATOM    106  O   UNL A   1      53.514  25.508  23.554  1.00  0.00    -0.237 OA
ATOM    107  O   UNL A   1      54.645  25.565  25.752  1.00  0.00    -0.237 OA
ATOM    108  O   UNL A   1      53.355  23.575  25.078  1.00  0.00    -0.744 OA
ENDBRANCH 104 105
ENDBRANCH  72  97
ENDBRANCH  46  47
ENDBRANCH  38  41
ENDBRANCH  36  37
ENDBRANCH  35  36
ENDBRANCH   1  35
TORSDOF 18
ENDMDL
