MODEL 1
REMARK VINA RESULT:     -13.1      0.000      0.000
REMARK SMILES Cc1ccc(C(=O)N2C[C@H](C(=O)NCCCNC(=O)c3ccc(-c4c5nc(c(-c6c(F)cc(S(=O)(=O)[O-])cc6F)c6ccc([nH]6)c(-c6c(F)cc(S(=O)(=O)[O-])cc6F)c6nc(c(-c7c(F)cc(S(=O)(=O)[O-])cc7F)c7ccc4[nH]7)C=C6)C=C5)cc3)Oc3ccccc32)o1
REMARK SMILES IDX 15 1 14 2 13 3 11 4 12 5 10 7 8 8 9 9 92 10 87 11 91 12
REMARK SMILES IDX 86 13 88 14 90 15 89 16 6 17 7 18 5 19 1 20 2 21 3 22 93 23
REMARK SMILES IDX 4 24 16 25 17 26 18 27 19 29 20 30 21 31 85 32 22 33 84 34
REMARK SMILES IDX 23 35 24 36 25 37 78 38 26 39 83 40 77 41 79 42 27 43 82 44
REMARK SMILES IDX 76 45 75 46 28 48 62 49 41 50 61 51 42 52 45 53 60 54 80 55
REMARK SMILES IDX 43 56 44 57 59 59 81 60 46 61 29 62 30 63 39 64 31 65 32 66
REMARK SMILES IDX 38 67 40 68 33 69 34 70 35 71 36 72 37 73 63 74 64 75 73 76
REMARK SMILES IDX 65 77 66 78 72 79 74 80 67 81 68 82 69 83 70 84 71 85 47 86
REMARK SMILES IDX 48 87 57 88 49 89 50 90 56 91 58 92 51 93 52 94 53 95 54 96
REMARK SMILES IDX 55 97
REMARK H PARENT 13 6 17 28 79 47 45 58
REMARK Flexibility Score: inf
ROOT
ATOM      1  C   UNL A   1      37.063  23.324  25.673  1.00  0.00     0.042 C 
ENDROOT
BRANCH   1   2
ATOM      2  C   UNL A   1      35.823  24.052  25.161  1.00  0.00     0.118 C 
BRANCH   2   3
ATOM      3  N   UNL A   1      34.593  23.553  25.758  1.00  0.00    -0.353 N 
ATOM      4  C   UNL A   1      33.357  24.125  25.861  1.00  0.00     0.262 C 
ATOM      5  O   UNL A   1      32.468  23.457  26.398  1.00  0.00    -0.271 OA
ATOM      6  H   UNL A   1      34.665  22.656  26.154  1.00  0.00     0.163 HD
BRANCH   4   7
ATOM      7  C   UNL A   1      33.080  25.559  25.399  1.00  0.00     0.281 C 
ATOM      8  N   UNL A   1      31.497  26.952  24.125  1.00  0.00    -0.298 N 
ATOM      9  C   UNL A   1      31.771  25.601  24.621  1.00  0.00     0.181 C 
ATOM     10  C   UNL A   1      31.862  28.006  25.025  1.00  0.00     0.087 A 
ATOM     11  C   UNL A   1      32.600  27.709  26.187  1.00  0.00     0.144 A 
ATOM     12  C   UNL A   1      31.428  29.326  24.845  1.00  0.00     0.030 A 
ATOM     13  O   UNL A   1      33.086  26.462  26.501  1.00  0.00    -0.477 OA
ATOM     14  C   UNL A   1      32.869  28.695  27.141  1.00  0.00     0.049 A 
ATOM     15  C   UNL A   1      31.707  30.314  25.795  1.00  0.00     0.002 A 
ATOM     16  C   UNL A   1      32.424  29.998  26.945  1.00  0.00     0.004 A 
BRANCH   8  17
ATOM     17  C   UNL A   1      30.963  27.190  22.845  1.00  0.00     0.294 C 
ATOM     18  O   UNL A   1      31.569  26.843  21.827  1.00  0.00    -0.265 OA
BRANCH  17  19
ATOM     19  C   UNL A   1      29.679  27.877  22.759  1.00  0.00     0.192 A 
ATOM     20  C   UNL A   1      28.109  30.803  21.403  1.00  0.00     0.087 C 
ATOM     21  C   UNL A   1      28.368  29.539  22.121  1.00  0.00     0.101 A 
ATOM     22  C   UNL A   1      27.610  28.754  22.958  1.00  0.00     0.046 A 
ATOM     23  O   UNL A   1      29.614  29.010  21.986  1.00  0.00    -0.456 OA
ATOM     24  C   UNL A   1      28.453  27.697  23.381  1.00  0.00     0.056 A 
ENDBRANCH  17  19
ENDBRANCH   8  17
ENDBRANCH   4   7
ENDBRANCH   2   3
ENDBRANCH   1   2
BRANCH   1  25
ATOM     25  C   UNL A   1      38.023  24.193  26.480  1.00  0.00     0.118 C 
BRANCH  25  26
ATOM     26  N   UNL A   1      39.417  23.928  26.162  1.00  0.00    -0.352 N 
ATOM     27  C   UNL A   1      40.551  24.600  26.548  1.00  0.00     0.251 C 
ATOM     28  H   UNL A   1      39.572  23.148  25.582  1.00  0.00     0.163 HD
ATOM     29  O   UNL A   1      41.625  24.311  26.027  1.00  0.00    -0.269 OA
BRANCH  27  30
ATOM     30  C   UNL A   1      40.490  25.677  27.564  1.00  0.00     0.039 A 
ATOM     31  C   UNL A   1      39.552  25.570  28.597  1.00  0.00     0.014 A 
ATOM     32  C   UNL A   1      41.307  26.808  27.479  1.00  0.00     0.014 A 
ATOM     33  C   UNL A   1      39.473  26.565  29.575  1.00  0.00     0.010 A 
ATOM     34  C   UNL A   1      41.253  27.783  28.475  1.00  0.00     0.010 A 
ATOM     35  C   UNL A   1      40.338  27.668  29.532  1.00  0.00    -0.014 A 
BRANCH  35  36
ATOM     36  C   UNL A   1      40.295  28.715  30.582  1.00  0.00     0.031 A 
ATOM     37  C   UNL A   1      41.221  28.644  31.761  1.00  0.00     0.074 A 
ATOM     38  C   UNL A   1      39.376  29.696  30.509  1.00  0.00     0.049 A 
ATOM     39  N   UNL A   1      41.250  29.394  32.833  1.00  0.00    -0.248 NA
ATOM     40  C   UNL A   1      42.232  27.576  31.742  1.00  0.00     0.031 C 
ATOM     41  C   UNL A   1      38.395  29.861  29.436  1.00  0.00     0.029 A 
ATOM     42  N   UNL A   1      39.110  30.732  31.368  1.00  0.00    -0.354 N 
ATOM     43  C   UNL A   1      42.247  28.861  33.639  1.00  0.00     0.074 A 
ATOM     44  C   UNL A   1      42.808  27.732  32.925  1.00  0.00     0.031 C 
ATOM     45  C   UNL A   1      37.637  30.940  29.697  1.00  0.00     0.029 A 
ATOM     46  C   UNL A   1      38.067  31.528  30.964  1.00  0.00     0.049 A 
ATOM     47  H   UNL A   1      39.618  30.890  32.196  1.00  0.00     0.167 HD
ATOM     48  C   UNL A   1      42.654  29.269  34.865  1.00  0.00     0.037 A 
ATOM     49  C   UNL A   1      37.513  32.606  31.550  1.00  0.00     0.037 A 
ATOM     50  C   UNL A   1      42.140  30.419  35.558  1.00  0.00     0.049 A 
ATOM     51  C   UNL A   1      38.044  33.100  32.860  1.00  0.00     0.074 A 
ATOM     52  C   UNL A   1      42.524  30.933  36.785  1.00  0.00     0.029 A 
ATOM     53  N   UNL A   1      41.137  31.245  35.076  1.00  0.00    -0.354 N 
ATOM     54  N   UNL A   1      38.994  32.587  33.605  1.00  0.00    -0.248 NA
ATOM     55  C   UNL A   1      37.431  34.316  33.411  1.00  0.00     0.031 C 
ATOM     56  C   UNL A   1      41.752  32.073  37.044  1.00  0.00     0.029 A 
ATOM     57  C   UNL A   1      40.892  32.269  35.976  1.00  0.00     0.049 A 
ATOM     58  H   UNL A   1      40.668  31.121  34.219  1.00  0.00     0.167 HD
ATOM     59  C   UNL A   1      39.094  33.418  34.714  1.00  0.00     0.074 A 
ATOM     60  C   UNL A   1      38.114  34.473  34.539  1.00  0.00     0.031 C 
ATOM     61  C   UNL A   1      39.919  33.312  35.783  1.00  0.00     0.037 A 
BRANCH  48  62
ATOM     62  C   UNL A   1      43.704  28.436  35.530  1.00  0.00     0.058 A 
ATOM     63  C   UNL A   1      45.069  28.643  35.284  1.00  0.00     0.135 A 
ATOM     64  C   UNL A   1      43.338  27.392  36.393  1.00  0.00     0.135 A 
ATOM     65  F   UNL A   1      45.464  29.618  34.449  1.00  0.00    -0.206 F 
ATOM     66  C   UNL A   1      46.039  27.821  35.847  1.00  0.00     0.059 A 
ATOM     67  C   UNL A   1      44.291  26.563  36.974  1.00  0.00     0.059 A 
ATOM     68  F   UNL A   1      42.042  27.150  36.650  1.00  0.00    -0.206 F 
ATOM     69  C   UNL A   1      45.639  26.773  36.677  1.00  0.00     0.060 A 
BRANCH  69  70
ATOM     70  S   UNL A   1      46.879  25.664  37.377  1.00  0.00     0.124 S 
ATOM     71  O   UNL A   1      47.956  25.786  36.399  1.00  0.00    -0.237 OA
ATOM     72  O   UNL A   1      47.145  26.250  38.686  1.00  0.00    -0.237 OA
ATOM     73  O   UNL A   1      46.190  24.377  37.401  1.00  0.00    -0.744 OA
ENDBRANCH  69  70
ENDBRANCH  48  62
BRANCH  49  74
ATOM     74  C   UNL A   1      36.389  33.295  30.874  1.00  0.00     0.058 A 
ATOM     75  C   UNL A   1      35.103  33.277  31.431  1.00  0.00     0.135 A 
ATOM     76  C   UNL A   1      36.595  34.033  29.701  1.00  0.00     0.135 A 
ATOM     77  F   UNL A   1      34.868  32.581  32.553  1.00  0.00    -0.206 F 
ATOM     78  C   UNL A   1      34.054  33.982  30.852  1.00  0.00     0.059 A 
ATOM     79  C   UNL A   1      35.563  34.750  29.107  1.00  0.00     0.059 A 
ATOM     80  F   UNL A   1      37.816  34.085  29.145  1.00  0.00    -0.206 F 
ATOM     81  C   UNL A   1      34.296  34.720  29.691  1.00  0.00     0.060 A 
BRANCH  81  82
ATOM     82  S   UNL A   1      32.967  35.723  28.989  1.00  0.00     0.124 S 
ATOM     83  O   UNL A   1      32.351  34.784  28.061  1.00  0.00    -0.237 OA
ATOM     84  O   UNL A   1      32.175  36.073  30.164  1.00  0.00    -0.237 OA
ATOM     85  O   UNL A   1      33.693  36.835  28.382  1.00  0.00    -0.744 OA
ENDBRANCH  81  82
ENDBRANCH  49  74
BRANCH  61  86
ATOM     86  C   UNL A   1      39.802  34.368  36.839  1.00  0.00     0.058 A 
ATOM     87  C   UNL A   1      40.541  35.557  36.754  1.00  0.00     0.135 A 
ATOM     88  C   UNL A   1      38.931  34.203  37.925  1.00  0.00     0.135 A 
ATOM     89  F   UNL A   1      41.391  35.754  35.735  1.00  0.00    -0.206 F 
ATOM     90  C   UNL A   1      40.423  36.551  37.721  1.00  0.00     0.059 A 
ATOM     91  C   UNL A   1      38.795  35.185  38.900  1.00  0.00     0.059 A 
ATOM     92  F   UNL A   1      38.207  33.079  38.046  1.00  0.00    -0.206 F 
ATOM     93  C   UNL A   1      39.553  36.353  38.793  1.00  0.00     0.060 A 
BRANCH  93  94
ATOM     94  S   UNL A   1      39.373  37.648  40.040  1.00  0.00     0.124 S 
ATOM     95  O   UNL A   1      39.164  36.861  41.250  1.00  0.00    -0.237 OA
ATOM     96  O   UNL A   1      40.646  38.357  39.959  1.00  0.00    -0.237 OA
ATOM     97  O   UNL A   1      38.214  38.401  39.567  1.00  0.00    -0.744 OA
ENDBRANCH  93  94
ENDBRANCH  61  86
ENDBRANCH  35  36
ENDBRANCH  27  30
ENDBRANCH  25  26
ENDBRANCH   1  25
TORSDOF 15
ENDMDL
MODEL 2
REMARK VINA RESULT:     -13.1      2.530      3.335
REMARK SMILES Cc1ccc(C(=O)N2C[C@H](C(=O)NCCCNC(=O)c3ccc(-c4c5nc(c(-c6c(F)cc(S(=O)(=O)[O-])cc6F)c6ccc([nH]6)c(-c6c(F)cc(S(=O)(=O)[O-])cc6F)c6nc(c(-c7c(F)cc(S(=O)(=O)[O-])cc7F)c7ccc4[nH]7)C=C6)C=C5)cc3)Oc3ccccc32)o1
REMARK SMILES IDX 15 1 14 2 13 3 11 4 12 5 10 7 8 8 9 9 92 10 87 11 91 12
REMARK SMILES IDX 86 13 88 14 90 15 89 16 6 17 7 18 5 19 1 20 2 21 3 22 93 23
REMARK SMILES IDX 4 24 16 25 17 26 18 27 19 29 20 30 21 31 85 32 22 33 84 34
REMARK SMILES IDX 23 35 24 36 25 37 78 38 26 39 83 40 77 41 79 42 27 43 82 44
REMARK SMILES IDX 76 45 75 46 28 48 62 49 41 50 61 51 42 52 45 53 60 54 80 55
REMARK SMILES IDX 43 56 44 57 59 59 81 60 46 61 29 62 30 63 39 64 31 65 32 66
REMARK SMILES IDX 38 67 40 68 33 69 34 70 35 71 36 72 37 73 63 74 64 75 73 76
REMARK SMILES IDX 65 77 66 78 72 79 74 80 67 81 68 82 69 83 70 84 71 85 47 86
REMARK SMILES IDX 48 87 57 88 49 89 50 90 56 91 58 92 51 93 52 94 53 95 54 96
REMARK SMILES IDX 55 97
REMARK H PARENT 13 6 17 28 79 47 45 58
REMARK Flexibility Score: inf
ROOT
ATOM      1  C   UNL A   1      35.276  23.479  26.105  1.00  0.00     0.042 C 
ENDROOT
BRANCH   1   2
ATOM      2  C   UNL A   1      34.003  23.195  25.312  1.00  0.00     0.118 C 
BRANCH   2   3
ATOM      3  N   UNL A   1      32.816  23.163  26.152  1.00  0.00    -0.353 N 
ATOM      4  C   UNL A   1      31.867  24.116  26.390  1.00  0.00     0.262 C 
ATOM      5  O   UNL A   1      30.931  23.809  27.134  1.00  0.00    -0.271 OA
ATOM      6  H   UNL A   1      32.673  22.313  26.627  1.00  0.00     0.163 HD
BRANCH   4   7
ATOM      7  C   UNL A   1      31.977  25.536  25.824  1.00  0.00     0.281 C 
ATOM      8  N   UNL A   1      30.872  27.159  24.336  1.00  0.00    -0.298 N 
ATOM      9  C   UNL A   1      30.777  25.823  24.932  1.00  0.00     0.181 C 
ATOM     10  C   UNL A   1      31.411  28.163  25.204  1.00  0.00     0.087 A 
ATOM     11  C   UNL A   1      31.969  27.792  26.443  1.00  0.00     0.144 A 
ATOM     12  C   UNL A   1      31.321  29.530  24.910  1.00  0.00     0.030 A 
ATOM     13  O   UNL A   1      32.118  26.494  26.869  1.00  0.00    -0.477 OA
ATOM     14  C   UNL A   1      32.396  28.757  27.359  1.00  0.00     0.049 A 
ATOM     15  C   UNL A   1      31.758  30.496  25.824  1.00  0.00     0.002 A 
ATOM     16  C   UNL A   1      32.291  30.110  27.050  1.00  0.00     0.004 A 
BRANCH   8  17
ATOM     17  C   UNL A   1      30.506  27.416  23.003  1.00  0.00     0.294 C 
ATOM     18  O   UNL A   1      31.192  27.003  22.062  1.00  0.00    -0.265 OA
BRANCH  17  19
ATOM     19  C   UNL A   1      29.301  28.203  22.766  1.00  0.00     0.192 A 
ATOM     20  C   UNL A   1      28.100  31.108  21.039  1.00  0.00     0.087 C 
ATOM     21  C   UNL A   1      28.195  29.904  21.887  1.00  0.00     0.101 A 
ATOM     22  C   UNL A   1      27.317  29.277  22.741  1.00  0.00     0.046 A 
ATOM     23  O   UNL A   1      29.390  29.255  21.887  1.00  0.00    -0.456 OA
ATOM     24  C   UNL A   1      28.029  28.196  23.317  1.00  0.00     0.056 A 
ENDBRANCH  17  19
ENDBRANCH   8  17
ENDBRANCH   4   7
ENDBRANCH   2   3
ENDBRANCH   1   2
BRANCH   1  25
ATOM     25  C   UNL A   1      36.497  23.813  25.253  1.00  0.00     0.118 C 
BRANCH  25  26
ATOM     26  N   UNL A   1      37.544  22.810  25.360  1.00  0.00    -0.352 N 
ATOM     27  C   UNL A   1      38.803  22.905  25.902  1.00  0.00     0.251 C 
ATOM     28  H   UNL A   1      37.318  21.927  24.987  1.00  0.00     0.163 HD
ATOM     29  O   UNL A   1      39.598  21.984  25.737  1.00  0.00    -0.269 OA
BRANCH  27  30
ATOM     30  C   UNL A   1      39.216  24.109  26.661  1.00  0.00     0.039 A 
ATOM     31  C   UNL A   1      38.757  24.263  27.974  1.00  0.00     0.014 A 
ATOM     32  C   UNL A   1      40.003  25.106  26.077  1.00  0.00     0.014 A 
ATOM     33  C   UNL A   1      39.133  25.384  28.720  1.00  0.00     0.010 A 
ATOM     34  C   UNL A   1      40.409  26.206  26.833  1.00  0.00     0.010 A 
ATOM     35  C   UNL A   1      39.979  26.353  28.160  1.00  0.00    -0.014 A 
BRANCH  35  36
ATOM     36  C   UNL A   1      40.421  27.529  28.947  1.00  0.00     0.031 A 
ATOM     37  C   UNL A   1      41.746  27.516  29.652  1.00  0.00     0.074 A 
ATOM     38  C   UNL A   1      39.599  28.587  29.086  1.00  0.00     0.049 A 
ATOM     39  N   UNL A   1      42.249  28.394  30.481  1.00  0.00    -0.248 NA
ATOM     40  C   UNL A   1      42.610  26.350  29.408  1.00  0.00     0.031 C 
ATOM     41  C   UNL A   1      38.271  28.712  28.484  1.00  0.00     0.029 A 
ATOM     42  N   UNL A   1      39.758  29.751  29.793  1.00  0.00    -0.354 N 
ATOM     43  C   UNL A   1      43.464  27.869  30.897  1.00  0.00     0.074 A 
ATOM     44  C   UNL A   1      43.629  26.599  30.218  1.00  0.00     0.031 C 
ATOM     45  C   UNL A   1      37.738  29.893  28.842  1.00  0.00     0.029 A 
ATOM     46  C   UNL A   1      38.679  30.596  29.712  1.00  0.00     0.049 A 
ATOM     47  H   UNL A   1      40.569  29.962  30.309  1.00  0.00     0.167 HD
ATOM     48  C   UNL A   1      44.359  28.390  31.770  1.00  0.00     0.037 A 
ATOM     49  C   UNL A   1      38.465  31.796  30.281  1.00  0.00     0.037 A 
ATOM     50  C   UNL A   1      44.229  29.672  32.409  1.00  0.00     0.049 A 
ATOM     51  C   UNL A   1      39.512  32.400  31.167  1.00  0.00     0.074 A 
ATOM     52  C   UNL A   1      45.108  30.300  33.275  1.00  0.00     0.029 A 
ATOM     53  N   UNL A   1      43.155  30.531  32.237  1.00  0.00    -0.354 N 
ATOM     54  N   UNL A   1      40.660  31.891  31.544  1.00  0.00    -0.248 NA
ATOM     55  C   UNL A   1      39.236  33.739  31.705  1.00  0.00     0.031 C 
ATOM     56  C   UNL A   1      44.564  31.543  33.625  1.00  0.00     0.029 A 
ATOM     57  C   UNL A   1      43.350  31.687  32.974  1.00  0.00     0.049 A 
ATOM     58  H   UNL A   1      42.370  30.346  31.673  1.00  0.00     0.167 HD
ATOM     59  C   UNL A   1      41.245  32.848  32.364  1.00  0.00     0.074 A 
ATOM     60  C   UNL A   1      40.329  33.970  32.422  1.00  0.00     0.031 C 
ATOM     61  C   UNL A   1      42.432  32.796  33.015  1.00  0.00     0.037 A 
BRANCH  48  62
ATOM     62  C   UNL A   1      45.551  27.543  32.089  1.00  0.00     0.058 A 
ATOM     63  C   UNL A   1      45.552  26.661  33.180  1.00  0.00     0.135 A 
ATOM     64  C   UNL A   1      46.718  27.645  31.317  1.00  0.00     0.135 A 
ATOM     65  F   UNL A   1      44.464  26.547  33.957  1.00  0.00    -0.206 F 
ATOM     66  C   UNL A   1      46.685  25.929  33.516  1.00  0.00     0.059 A 
ATOM     67  C   UNL A   1      47.860  26.916  31.631  1.00  0.00     0.059 A 
ATOM     68  F   UNL A   1      46.766  28.484  30.270  1.00  0.00    -0.206 F 
ATOM     69  C   UNL A   1      47.840  26.076  32.745  1.00  0.00     0.060 A 
BRANCH  69  70
ATOM     70  S   UNL A   1      49.336  25.173  33.197  1.00  0.00     0.124 S 
ATOM     71  O   UNL A   1      50.020  26.152  34.036  1.00  0.00    -0.237 OA
ATOM     72  O   UNL A   1      48.816  23.999  33.891  1.00  0.00    -0.237 OA
ATOM     73  O   UNL A   1      49.958  24.904  31.903  1.00  0.00    -0.744 OA
ENDBRANCH  69  70
ENDBRANCH  48  62
BRANCH  49  74
ATOM     74  C   UNL A   1      37.196  32.508  30.007  1.00  0.00     0.058 A 
ATOM     75  C   UNL A   1      36.044  32.227  30.754  1.00  0.00     0.135 A 
ATOM     76  C   UNL A   1      37.130  33.521  29.041  1.00  0.00     0.135 A 
ATOM     77  F   UNL A   1      36.069  31.263  31.688  1.00  0.00    -0.206 F 
ATOM     78  C   UNL A   1      34.865  32.938  30.563  1.00  0.00     0.059 A 
ATOM     79  C   UNL A   1      35.964  34.250  28.835  1.00  0.00     0.059 A 
ATOM     80  F   UNL A   1      38.216  33.829  28.315  1.00  0.00    -0.206 F 
ATOM     81  C   UNL A   1      34.836  33.952  29.603  1.00  0.00     0.060 A 
BRANCH  81  82
ATOM     82  S   UNL A   1      33.344  34.952  29.418  1.00  0.00     0.124 S 
ATOM     83  O   UNL A   1      33.895  36.216  28.946  1.00  0.00    -0.237 OA
ATOM     84  O   UNL A   1      32.566  34.191  28.446  1.00  0.00    -0.237 OA
ATOM     85  O   UNL A   1      32.796  34.963  30.772  1.00  0.00    -0.744 OA
ENDBRANCH  81  82
ENDBRANCH  49  74
BRANCH  61  86
ATOM     86  C   UNL A   1      42.809  33.990  33.836  1.00  0.00     0.058 A 
ATOM     87  C   UNL A   1      42.517  34.044  35.207  1.00  0.00     0.135 A 
ATOM     88  C   UNL A   1      43.487  35.072  33.259  1.00  0.00     0.135 A 
ATOM     89  F   UNL A   1      41.864  33.032  35.800  1.00  0.00    -0.206 F 
ATOM     90  C   UNL A   1      42.882  35.141  35.981  1.00  0.00     0.059 A 
ATOM     91  C   UNL A   1      43.865  36.177  34.015  1.00  0.00     0.059 A 
ATOM     92  F   UNL A   1      43.785  35.063  31.950  1.00  0.00    -0.206 F 
ATOM     93  C   UNL A   1      43.550  36.205  35.375  1.00  0.00     0.060 A 
BRANCH  93  94
ATOM     94  S   UNL A   1      44.052  37.624  36.375  1.00  0.00     0.124 S 
ATOM     95  O   UNL A   1      45.412  37.252  36.746  1.00  0.00    -0.237 OA
ATOM     96  O   UNL A   1      43.933  38.739  35.441  1.00  0.00    -0.237 OA
ATOM     97  O   UNL A   1      43.076  37.620  37.462  1.00  0.00    -0.744 OA
ENDBRANCH  93  94
ENDBRANCH  61  86
ENDBRANCH  35  36
ENDBRANCH  27  30
ENDBRANCH  25  26
ENDBRANCH   1  25
TORSDOF 15
ENDMDL
MODEL 3
REMARK VINA RESULT:     -13.0      4.639      5.727
REMARK SMILES Cc1ccc(C(=O)N2C[C@H](C(=O)NCCCNC(=O)c3ccc(-c4c5nc(c(-c6c(F)cc(S(=O)(=O)[O-])cc6F)c6ccc([nH]6)c(-c6c(F)cc(S(=O)(=O)[O-])cc6F)c6nc(c(-c7c(F)cc(S(=O)(=O)[O-])cc7F)c7ccc4[nH]7)C=C6)C=C5)cc3)Oc3ccccc32)o1
REMARK SMILES IDX 15 1 14 2 13 3 11 4 12 5 10 7 8 8 9 9 92 10 87 11 91 12
REMARK SMILES IDX 86 13 88 14 90 15 89 16 6 17 7 18 5 19 1 20 2 21 3 22 93 23
REMARK SMILES IDX 4 24 16 25 17 26 18 27 19 29 20 30 21 31 85 32 22 33 84 34
REMARK SMILES IDX 23 35 24 36 25 37 78 38 26 39 83 40 77 41 79 42 27 43 82 44
REMARK SMILES IDX 76 45 75 46 28 48 62 49 41 50 61 51 42 52 45 53 60 54 80 55
REMARK SMILES IDX 43 56 44 57 59 59 81 60 46 61 29 62 30 63 39 64 31 65 32 66
REMARK SMILES IDX 38 67 40 68 33 69 34 70 35 71 36 72 37 73 63 74 64 75 73 76
REMARK SMILES IDX 65 77 66 78 72 79 74 80 67 81 68 82 69 83 70 84 71 85 47 86
REMARK SMILES IDX 48 87 57 88 49 89 50 90 56 91 58 92 51 93 52 94 53 95 54 96
REMARK SMILES IDX 55 97
REMARK H PARENT 13 6 17 28 79 47 45 58
REMARK Flexibility Score: inf
ROOT
ATOM      1  C   UNL A   1      34.798  22.971  26.681  1.00  0.00     0.042 C 
ENDROOT
BRANCH   1   2
ATOM      2  C   UNL A   1      33.616  23.093  25.724  1.00  0.00     0.118 C 
BRANCH   2   3
ATOM      3  N   UNL A   1      32.336  23.128  26.416  1.00  0.00    -0.353 N 
ATOM      4  C   UNL A   1      31.407  24.123  26.520  1.00  0.00     0.262 C 
ATOM      5  O   UNL A   1      30.377  23.872  27.152  1.00  0.00    -0.271 OA
ATOM      6  H   UNL A   1      32.102  22.297  26.888  1.00  0.00     0.163 HD
BRANCH   4   7
ATOM      7  C   UNL A   1      31.642  25.523  25.942  1.00  0.00     0.281 C 
ATOM      8  N   UNL A   1      30.716  27.202  24.395  1.00  0.00    -0.298 N 
ATOM      9  C   UNL A   1      30.500  25.885  25.001  1.00  0.00     0.181 C 
ATOM     10  C   UNL A   1      31.296  28.176  25.272  1.00  0.00     0.087 A 
ATOM     11  C   UNL A   1      31.778  27.782  26.535  1.00  0.00     0.144 A 
ATOM     12  C   UNL A   1      31.318  29.542  24.959  1.00  0.00     0.030 A 
ATOM     13  O   UNL A   1      31.815  26.483  26.981  1.00  0.00    -0.477 OA
ATOM     14  C   UNL A   1      32.241  28.726  27.456  1.00  0.00     0.049 A 
ATOM     15  C   UNL A   1      31.791  30.485  25.878  1.00  0.00     0.002 A 
ATOM     16  C   UNL A   1      32.248  30.079  27.128  1.00  0.00     0.004 A 
BRANCH   8  17
ATOM     17  C   UNL A   1      30.421  27.466  23.045  1.00  0.00     0.294 C 
ATOM     18  O   UNL A   1      31.137  27.031  22.138  1.00  0.00    -0.265 OA
BRANCH  17  19
ATOM     19  C   UNL A   1      29.252  28.288  22.752  1.00  0.00     0.192 A 
ATOM     20  C   UNL A   1      28.208  31.189  20.918  1.00  0.00     0.087 C 
ATOM     21  C   UNL A   1      28.234  30.004  21.799  1.00  0.00     0.101 A 
ATOM     22  C   UNL A   1      27.309  29.430  22.640  1.00  0.00     0.046 A 
ATOM     23  O   UNL A   1      29.404  29.314  21.851  1.00  0.00    -0.456 OA
ATOM     24  C   UNL A   1      27.964  28.340  23.263  1.00  0.00     0.056 A 
ENDBRANCH  17  19
ENDBRANCH   8  17
ENDBRANCH   4   7
ENDBRANCH   2   3
ENDBRANCH   1   2
BRANCH   1  25
ATOM     25  C   UNL A   1      36.118  23.507  26.135  1.00  0.00     0.118 C 
BRANCH  25  26
ATOM     26  N   UNL A   1      37.151  22.486  26.069  1.00  0.00    -0.352 N 
ATOM     27  C   UNL A   1      38.513  22.601  26.214  1.00  0.00     0.251 C 
ATOM     28  H   UNL A   1      36.826  21.574  25.895  1.00  0.00     0.163 HD
ATOM     29  O   UNL A   1      39.226  21.636  25.951  1.00  0.00    -0.269 OA
BRANCH  27  30
ATOM     30  C   UNL A   1      39.127  23.873  26.659  1.00  0.00     0.039 A 
ATOM     31  C   UNL A   1      39.004  24.241  28.004  1.00  0.00     0.014 A 
ATOM     32  C   UNL A   1      39.774  24.726  25.760  1.00  0.00     0.014 A 
ATOM     33  C   UNL A   1      39.577  25.432  28.458  1.00  0.00     0.010 A 
ATOM     34  C   UNL A   1      40.379  25.896  26.221  1.00  0.00     0.010 A 
ATOM     35  C   UNL A   1      40.287  26.257  27.573  1.00  0.00    -0.014 A 
BRANCH  35  36
ATOM     36  C   UNL A   1      40.936  27.505  28.044  1.00  0.00     0.031 A 
ATOM     37  C   UNL A   1      42.430  27.643  28.008  1.00  0.00     0.074 A 
ATOM     38  C   UNL A   1      40.184  28.492  28.568  1.00  0.00     0.049 A 
ATOM     39  N   UNL A   1      43.181  28.602  28.484  1.00  0.00    -0.248 NA
ATOM     40  C   UNL A   1      43.177  26.547  27.371  1.00  0.00     0.031 C 
ATOM     41  C   UNL A   1      38.726  28.470  28.695  1.00  0.00     0.029 A 
ATOM     42  N   UNL A   1      40.550  29.698  29.107  1.00  0.00    -0.354 N 
ATOM     43  C   UNL A   1      44.491  28.206  28.251  1.00  0.00     0.074 A 
ATOM     44  C   UNL A   1      44.431  26.924  27.577  1.00  0.00     0.031 C 
ATOM     45  C   UNL A   1      38.320  29.616  29.269  1.00  0.00     0.029 A 
ATOM     46  C   UNL A   1      39.489  30.439  29.567  1.00  0.00     0.049 A 
ATOM     47  H   UNL A   1      41.483  30.005  29.160  1.00  0.00     0.167 HD
ATOM     48  C   UNL A   1      45.640  28.847  28.574  1.00  0.00     0.037 A 
ATOM     49  C   UNL A   1      39.460  31.643  30.169  1.00  0.00     0.037 A 
ATOM     50  C   UNL A   1      45.710  30.141  29.195  1.00  0.00     0.049 A 
ATOM     51  C   UNL A   1      40.739  32.379  30.429  1.00  0.00     0.074 A 
ATOM     52  C   UNL A   1      46.831  30.886  29.519  1.00  0.00     0.029 A 
ATOM     53  N   UNL A   1      44.609  30.893  29.573  1.00  0.00    -0.354 N 
ATOM     54  N   UNL A   1      41.970  31.992  30.194  1.00  0.00    -0.248 NA
ATOM     55  C   UNL A   1      40.628  33.713  31.034  1.00  0.00     0.031 C 
ATOM     56  C   UNL A   1      46.405  32.091  30.093  1.00  0.00     0.029 A 
ATOM     57  C   UNL A   1      45.021  32.096  30.121  1.00  0.00     0.049 A 
ATOM     58  H   UNL A   1      43.671  30.612  29.466  1.00  0.00     0.167 HD
ATOM     59  C   UNL A   1      42.781  33.035  30.622  1.00  0.00     0.074 A 
ATOM     60  C   UNL A   1      41.903  34.074  31.123  1.00  0.00     0.031 C 
ATOM     61  C   UNL A   1      44.133  33.120  30.607  1.00  0.00     0.037 A 
BRANCH  48  62
ATOM     62  C   UNL A   1      46.915  28.124  28.266  1.00  0.00     0.058 A 
ATOM     63  C   UNL A   1      47.567  28.280  27.034  1.00  0.00     0.135 A 
ATOM     64  C   UNL A   1      47.468  27.236  29.202  1.00  0.00     0.135 A 
ATOM     65  F   UNL A   1      47.060  29.104  26.103  1.00  0.00    -0.206 F 
ATOM     66  C   UNL A   1      48.710  27.553  26.724  1.00  0.00     0.059 A 
ATOM     67  C   UNL A   1      48.616  26.506  28.916  1.00  0.00     0.059 A 
ATOM     68  F   UNL A   1      46.873  27.048  30.390  1.00  0.00    -0.206 F 
ATOM     69  C   UNL A   1      49.218  26.656  27.665  1.00  0.00     0.060 A 
BRANCH  69  70
ATOM     70  S   UNL A   1      50.673  25.666  27.262  1.00  0.00     0.124 S 
ATOM     71  O   UNL A   1      50.259  24.346  27.727  1.00  0.00    -0.237 OA
ATOM     72  O   UNL A   1      50.785  25.819  25.815  1.00  0.00    -0.237 OA
ATOM     73  O   UNL A   1      51.730  26.307  28.038  1.00  0.00    -0.744 OA
ENDBRANCH  69  70
ENDBRANCH  48  62
BRANCH  49  74
ATOM     74  C   UNL A   1      38.154  32.225  30.553  1.00  0.00     0.058 A 
ATOM     75  C   UNL A   1      37.599  31.965  31.814  1.00  0.00     0.135 A 
ATOM     76  C   UNL A   1      37.473  33.099  29.695  1.00  0.00     0.135 A 
ATOM     77  F   UNL A   1      38.224  31.134  32.662  1.00  0.00    -0.206 F 
ATOM     78  C   UNL A   1      36.413  32.564  32.220  1.00  0.00     0.059 A 
ATOM     79  C   UNL A   1      36.288  33.715  30.081  1.00  0.00     0.059 A 
ATOM     80  F   UNL A   1      37.979  33.384  28.485  1.00  0.00    -0.206 F 
ATOM     81  C   UNL A   1      35.766  33.442  31.347  1.00  0.00     0.060 A 
BRANCH  81  82
ATOM     82  S   UNL A   1      34.281  34.307  31.904  1.00  0.00     0.124 S 
ATOM     83  O   UNL A   1      34.852  35.473  32.565  1.00  0.00    -0.237 OA
ATOM     84  O   UNL A   1      33.573  34.564  30.654  1.00  0.00    -0.237 OA
ATOM     85  O   UNL A   1      33.647  33.325  32.779  1.00  0.00    -0.744 OA
ENDBRANCH  81  82
ENDBRANCH  49  74
BRANCH  61  86
ATOM     86  C   UNL A   1      44.741  34.381  31.139  1.00  0.00     0.058 A 
ATOM     87  C   UNL A   1      45.096  34.497  32.491  1.00  0.00     0.135 A 
ATOM     88  C   UNL A   1      44.993  35.469  30.291  1.00  0.00     0.135 A 
ATOM     89  F   UNL A   1      44.867  33.482  33.339  1.00  0.00    -0.206 F 
ATOM     90  C   UNL A   1      45.679  35.658  32.989  1.00  0.00     0.059 A 
ATOM     91  C   UNL A   1      45.579  36.637  30.767  1.00  0.00     0.059 A 
ATOM     92  F   UNL A   1      44.668  35.402  28.991  1.00  0.00    -0.206 F 
ATOM     93  C   UNL A   1      45.911  36.725  32.120  1.00  0.00     0.060 A 
BRANCH  93  94
ATOM     94  S   UNL A   1      46.691  38.228  32.750  1.00  0.00     0.124 S 
ATOM     95  O   UNL A   1      45.796  39.259  32.237  1.00  0.00    -0.237 OA
ATOM     96  O   UNL A   1      46.663  38.028  34.195  1.00  0.00    -0.237 OA
ATOM     97  O   UNL A   1      48.020  38.186  32.145  1.00  0.00    -0.744 OA
ENDBRANCH  93  94
ENDBRANCH  61  86
ENDBRANCH  35  36
ENDBRANCH  27  30
ENDBRANCH  25  26
ENDBRANCH   1  25
TORSDOF 15
ENDMDL
