MODEL 1
REMARK VINA RESULT:     -14.0      0.000      0.000
REMARK SMILES Cc1cccc(O[C@H](C)C(=O)NNC(=O)[C@H]2[C@@H]3CC[C@@H](C3)[C@@H]2C(=O)NCCCNC(=O)c2ccc(-c3c4nc(c(-c5c(F)cc(S(=O)(=O)[O-])cc5F)c5ccc([nH]5)c(-c5c(F)cc(S(=O)(=O)[O-])cc5F)c5nc(c(-c6c(F)cc(S(=O)(=O)[O-])cc6F)c6ccc3[nH]6)C=C5)C=C4)cc2)c1
REMARK SMILES IDX 26 1 25 2 23 3 24 4 22 6 16 7 17 8 18 9 21 10 20 11 19 12
REMARK SMILES IDX 14 13 13 14 15 16 12 17 10 18 11 19 8 21 9 22 7 23 6 24 1 25
REMARK SMILES IDX 2 26 3 27 98 28 4 29 5 30 27 31 28 32 29 33 30 34 31 36
REMARK SMILES IDX 32 37 33 38 97 39 34 40 96 41 35 42 36 43 37 44 90 45 38 46
REMARK SMILES IDX 95 47 89 48 91 49 39 50 94 51 88 52 87 53 40 55 74 56 53 57
REMARK SMILES IDX 73 58 54 59 57 60 72 61 92 62 55 63 56 64 71 66 93 67 58 68
REMARK SMILES IDX 41 69 42 70 51 71 43 72 44 73 50 74 52 75 45 76 46 77 47 78
REMARK SMILES IDX 48 79 49 80 75 81 76 82 85 83 77 84 78 85 84 86 86 87 79 88
REMARK SMILES IDX 80 89 81 90 82 91 83 92 59 93 60 94 69 95 61 96 62 97 68 98
REMARK SMILES IDX 70 99 63 100 64 101 65 102 66 103 67 104
REMARK H PARENT 25 5 13 15 12 20 29 35 91 54 57 65
REMARK Flexibility Score: inf
ROOT
ATOM      1  C   UNL A   1      32.281  28.272  26.090  1.00  0.00     0.117 C 
ENDROOT
BRANCH   1   2
ATOM      2  N   UNL A   1      33.304  27.449  25.453  1.00  0.00    -0.356 N 
ATOM      3  C   UNL A   1      33.452  26.088  25.464  1.00  0.00     0.224 C 
ATOM      4  O   UNL A   1      34.402  25.581  24.873  1.00  0.00    -0.275 OA
ATOM      5  H   UNL A   1      33.984  27.942  24.942  1.00  0.00     0.163 HD
BRANCH   3   6
ATOM      6  C   UNL A   1      32.426  25.261  26.227  1.00  0.00     0.094 C 
ATOM      7  C   UNL A   1      32.634  23.735  26.143  1.00  0.00     0.096 C 
ATOM      8  C   UNL A   1      31.226  23.200  25.777  1.00  0.00     0.002 C 
ATOM      9  C   UNL A   1      31.007  23.459  24.272  1.00  0.00     0.005 C 
ATOM     10  C   UNL A   1      30.272  24.236  26.368  1.00  0.00     0.009 C 
ATOM     11  C   UNL A   1      30.978  25.413  25.691  1.00  0.00     0.002 C 
ATOM     12  C   UNL A   1      30.882  24.992  24.210  1.00  0.00     0.005 C 
BRANCH   7  13
ATOM     13  C   UNL A   1      33.291  22.990  27.303  1.00  0.00     0.242 C 
ATOM     14  N   UNL A   1      34.626  22.753  27.442  1.00  0.00    -0.267 N 
ATOM     15  H   UNL A   1      34.870  22.070  28.108  1.00  0.00     0.191 HD
ATOM     16  O   UNL A   1      32.569  22.596  28.230  1.00  0.00    -0.273 OA
BRANCH  14  17
ATOM     17  N   UNL A   1      35.672  23.338  26.779  1.00  0.00    -0.264 N 
ATOM     18  C   UNL A   1      36.406  22.847  25.745  1.00  0.00     0.279 C 
ATOM     19  O   UNL A   1      37.264  23.627  25.298  1.00  0.00    -0.269 OA
ATOM     20  H   UNL A   1      35.927  24.234  27.093  1.00  0.00     0.191 HD
BRANCH  18  21
ATOM     21  C   UNL A   1      36.301  21.419  25.139  1.00  0.00     0.260 C 
ATOM     22  C   UNL A   1      37.674  20.947  24.635  1.00  0.00     0.064 C 
BRANCH  21  23
ATOM     23  O   UNL A   1      35.423  20.389  25.532  1.00  0.00    -0.481 OA
BRANCH  23  24
ATOM     24  C   UNL A   1      34.386  19.901  24.809  1.00  0.00     0.120 A 
ATOM     25  C   UNL A   1      33.688  16.382  23.503  1.00  0.00     0.044 C 
ATOM     26  C   UNL A   1      33.551  17.852  23.774  1.00  0.00    -0.047 A 
ATOM     27  C   UNL A   1      32.547  18.593  23.149  1.00  0.00     0.003 A 
ATOM     28  C   UNL A   1      34.454  18.515  24.613  1.00  0.00     0.049 A 
ATOM     29  C   UNL A   1      32.447  19.966  23.370  1.00  0.00     0.004 A 
ATOM     30  C   UNL A   1      33.362  20.620  24.200  1.00  0.00     0.046 A 
ENDBRANCH  23  24
ENDBRANCH  21  23
ENDBRANCH  18  21
ENDBRANCH  14  17
ENDBRANCH   7  13
ENDBRANCH   3   6
ENDBRANCH   1   2
BRANCH   1  31
ATOM     31  C   UNL A   1      32.869  29.487  26.805  1.00  0.00     0.042 C 
BRANCH  31  32
ATOM     32  C   UNL A   1      34.391  29.466  26.833  1.00  0.00     0.118 C 
BRANCH  32  33
ATOM     33  N   UNL A   1      34.986  30.720  27.269  1.00  0.00    -0.352 N 
ATOM     34  C   UNL A   1      36.144  30.907  28.012  1.00  0.00     0.251 C 
ATOM     35  H   UNL A   1      34.508  31.539  27.005  1.00  0.00     0.163 HD
ATOM     36  O   UNL A   1      36.434  32.006  28.457  1.00  0.00    -0.269 OA
BRANCH  34  37
ATOM     37  C   UNL A   1      37.044  29.749  28.194  1.00  0.00     0.039 A 
ATOM     38  C   UNL A   1      37.063  29.115  29.440  1.00  0.00     0.014 A 
ATOM     39  C   UNL A   1      37.999  29.446  27.227  1.00  0.00     0.014 A 
ATOM     40  C   UNL A   1      38.154  28.320  29.793  1.00  0.00     0.010 A 
ATOM     41  C   UNL A   1      39.114  28.722  27.603  1.00  0.00     0.010 A 
ATOM     42  C   UNL A   1      39.218  28.202  28.904  1.00  0.00    -0.014 A 
BRANCH  42  43
ATOM     43  C   UNL A   1      40.531  27.656  29.244  1.00  0.00     0.031 A 
ATOM     44  C   UNL A   1      40.887  26.267  28.866  1.00  0.00     0.074 A 
ATOM     45  C   UNL A   1      41.497  28.481  29.707  1.00  0.00     0.049 A 
ATOM     46  N   UNL A   1      42.020  25.712  29.137  1.00  0.00    -0.248 NA
ATOM     47  C   UNL A   1      39.951  25.354  28.212  1.00  0.00     0.031 C 
ATOM     48  C   UNL A   1      42.942  28.292  29.602  1.00  0.00     0.029 A 
ATOM     49  N   UNL A   1      41.355  29.558  30.585  1.00  0.00    -0.354 N 
ATOM     50  C   UNL A   1      42.083  24.523  28.456  1.00  0.00     0.074 A 
ATOM     51  C   UNL A   1      40.731  24.284  28.015  1.00  0.00     0.031 C 
ATOM     52  C   UNL A   1      43.552  29.032  30.535  1.00  0.00     0.029 A 
ATOM     53  C   UNL A   1      42.519  29.587  31.388  1.00  0.00     0.049 A 
ATOM     54  H   UNL A   1      40.592  30.177  30.636  1.00  0.00     0.167 HD
ATOM     55  C   UNL A   1      43.304  23.952  28.250  1.00  0.00     0.037 A 
ATOM     56  C   UNL A   1      42.446  29.394  32.740  1.00  0.00     0.037 A 
ATOM     57  C   UNL A   1      44.305  24.514  29.161  1.00  0.00     0.049 A 
ATOM     58  C   UNL A   1      43.158  28.158  33.255  1.00  0.00     0.074 A 
ATOM     59  C   UNL A   1      45.415  25.331  29.053  1.00  0.00     0.029 A 
ATOM     60  N   UNL A   1      44.075  24.371  30.519  1.00  0.00    -0.354 N 
ATOM     61  N   UNL A   1      43.849  27.335  32.515  1.00  0.00    -0.248 NA
ATOM     62  C   UNL A   1      43.076  27.710  34.647  1.00  0.00     0.031 C 
ATOM     63  C   UNL A   1      45.811  25.717  30.374  1.00  0.00     0.029 A 
ATOM     64  C   UNL A   1      44.957  25.111  31.277  1.00  0.00     0.049 A 
ATOM     65  H   UNL A   1      43.365  23.805  30.899  1.00  0.00     0.167 HD
ATOM     66  C   UNL A   1      44.191  26.236  33.257  1.00  0.00     0.074 A 
ATOM     67  C   UNL A   1      43.725  26.534  34.597  1.00  0.00     0.031 C 
ATOM     68  C   UNL A   1      44.770  25.124  32.720  1.00  0.00     0.037 A 
BRANCH  55  69
ATOM     69  C   UNL A   1      43.636  22.956  27.152  1.00  0.00     0.058 A 
ATOM     70  C   UNL A   1      43.028  21.680  27.141  1.00  0.00     0.135 A 
ATOM     71  C   UNL A   1      44.634  23.132  26.168  1.00  0.00     0.135 A 
ATOM     72  F   UNL A   1      42.071  21.358  28.024  1.00  0.00    -0.206 F 
ATOM     73  C   UNL A   1      43.399  20.663  26.253  1.00  0.00     0.059 A 
ATOM     74  C   UNL A   1      44.984  22.150  25.239  1.00  0.00     0.059 A 
ATOM     75  F   UNL A   1      45.383  24.236  26.088  1.00  0.00    -0.206 F 
ATOM     76  C   UNL A   1      44.385  20.906  25.307  1.00  0.00     0.060 A 
BRANCH  76  77
ATOM     77  S   UNL A   1      44.917  19.585  24.204  1.00  0.00     0.124 S 
ATOM     78  O   UNL A   1      44.157  18.447  24.712  1.00  0.00    -0.237 OA
ATOM     79  O   UNL A   1      44.516  20.087  22.894  1.00  0.00    -0.237 OA
ATOM     80  O   UNL A   1      46.360  19.517  24.427  1.00  0.00    -0.744 OA
ENDBRANCH  76  77
ENDBRANCH  55  69
BRANCH  56  81
ATOM     81  C   UNL A   1      41.218  29.998  33.325  1.00  0.00     0.058 A 
ATOM     82  C   UNL A   1      41.229  31.389  33.541  1.00  0.00     0.135 A 
ATOM     83  C   UNL A   1      39.974  29.364  33.194  1.00  0.00     0.135 A 
ATOM     84  F   UNL A   1      42.396  32.037  33.694  1.00  0.00    -0.206 F 
ATOM     85  C   UNL A   1      40.073  32.149  33.424  1.00  0.00     0.059 A 
ATOM     86  C   UNL A   1      38.799  30.106  33.090  1.00  0.00     0.059 A 
ATOM     87  F   UNL A   1      39.907  28.039  32.997  1.00  0.00    -0.206 F 
ATOM     88  C   UNL A   1      38.878  31.500  33.120  1.00  0.00     0.060 A 
BRANCH  88  89
ATOM     89  S   UNL A   1      37.502  32.516  32.533  1.00  0.00     0.124 S 
ATOM     90  O   UNL A   1      36.352  31.666  32.812  1.00  0.00    -0.237 OA
ATOM     91  O   UNL A   1      37.637  33.700  33.380  1.00  0.00    -0.237 OA
ATOM     92  O   UNL A   1      37.813  32.717  31.121  1.00  0.00    -0.744 OA
ENDBRANCH  88  89
ENDBRANCH  56  81
BRANCH  68  93
ATOM     93  C   UNL A   1      45.146  23.922  33.537  1.00  0.00     0.058 A 
ATOM     94  C   UNL A   1      46.449  23.733  34.023  1.00  0.00     0.135 A 
ATOM     95  C   UNL A   1      44.240  22.861  33.751  1.00  0.00     0.135 A 
ATOM     96  F   UNL A   1      47.388  24.678  33.845  1.00  0.00    -0.206 F 
ATOM     97  C   UNL A   1      46.830  22.569  34.693  1.00  0.00     0.059 A 
ATOM     98  C   UNL A   1      44.608  21.673  34.377  1.00  0.00     0.059 A 
ATOM     99  F   UNL A   1      42.953  22.962  33.383  1.00  0.00    -0.206 F 
ATOM    100  C   UNL A   1      45.903  21.541  34.859  1.00  0.00     0.060 A 
BRANCH 100 101
ATOM    101  S   UNL A   1      46.401  20.014  35.681  1.00  0.00     0.124 S 
ATOM    102  O   UNL A   1      45.189  19.201  35.611  1.00  0.00    -0.237 OA
ATOM    103  O   UNL A   1      47.503  19.574  34.833  1.00  0.00    -0.237 OA
ATOM    104  O   UNL A   1      46.773  20.457  37.020  1.00  0.00    -0.744 OA
ENDBRANCH 100 101
ENDBRANCH  68  93
ENDBRANCH  42  43
ENDBRANCH  34  37
ENDBRANCH  32  33
ENDBRANCH  31  32
ENDBRANCH   1  31
TORSDOF 18
ENDMDL
MODEL 2
REMARK VINA RESULT:     -13.6      1.248      2.174
REMARK SMILES Cc1cccc(O[C@H](C)C(=O)NNC(=O)[C@H]2[C@@H]3CC[C@@H](C3)[C@@H]2C(=O)NCCCNC(=O)c2ccc(-c3c4nc(c(-c5c(F)cc(S(=O)(=O)[O-])cc5F)c5ccc([nH]5)c(-c5c(F)cc(S(=O)(=O)[O-])cc5F)c5nc(c(-c6c(F)cc(S(=O)(=O)[O-])cc6F)c6ccc3[nH]6)C=C5)C=C4)cc2)c1
REMARK SMILES IDX 26 1 25 2 23 3 24 4 22 6 16 7 17 8 18 9 21 10 20 11 19 12
REMARK SMILES IDX 14 13 13 14 15 16 12 17 10 18 11 19 8 21 9 22 7 23 6 24 1 25
REMARK SMILES IDX 2 26 3 27 98 28 4 29 5 30 27 31 28 32 29 33 30 34 31 36
REMARK SMILES IDX 32 37 33 38 97 39 34 40 96 41 35 42 36 43 37 44 90 45 38 46
REMARK SMILES IDX 95 47 89 48 91 49 39 50 94 51 88 52 87 53 40 55 74 56 53 57
REMARK SMILES IDX 73 58 54 59 57 60 72 61 92 62 55 63 56 64 71 66 93 67 58 68
REMARK SMILES IDX 41 69 42 70 51 71 43 72 44 73 50 74 52 75 45 76 46 77 47 78
REMARK SMILES IDX 48 79 49 80 75 81 76 82 85 83 77 84 78 85 84 86 86 87 79 88
REMARK SMILES IDX 80 89 81 90 82 91 83 92 59 93 60 94 69 95 61 96 62 97 68 98
REMARK SMILES IDX 70 99 63 100 64 101 65 102 66 103 67 104
REMARK H PARENT 25 5 13 15 12 20 29 35 91 54 57 65
REMARK Flexibility Score: inf
ROOT
ATOM      1  C   UNL A   1      33.240  29.258  24.992  1.00  0.00     0.117 C 
ENDROOT
BRANCH   1   2
ATOM      2  N   UNL A   1      33.739  29.130  23.626  1.00  0.00    -0.356 N 
ATOM      3  C   UNL A   1      33.640  28.072  22.764  1.00  0.00     0.224 C 
ATOM      4  O   UNL A   1      34.147  28.155  21.648  1.00  0.00    -0.275 OA
ATOM      5  H   UNL A   1      34.213  29.916  23.275  1.00  0.00     0.163 HD
BRANCH   3   6
ATOM      6  C   UNL A   1      32.905  26.825  23.239  1.00  0.00     0.094 C 
ATOM      7  C   UNL A   1      33.763  25.544  23.278  1.00  0.00     0.096 C 
ATOM      8  C   UNL A   1      32.880  24.497  22.551  1.00  0.00     0.002 C 
ATOM      9  C   UNL A   1      32.988  24.770  21.037  1.00  0.00     0.005 C 
ATOM     10  C   UNL A   1      31.453  24.977  22.808  1.00  0.00     0.009 C 
ATOM     11  C   UNL A   1      31.738  26.396  22.311  1.00  0.00     0.002 C 
ATOM     12  C   UNL A   1      32.237  26.104  20.881  1.00  0.00     0.005 C 
BRANCH   7  13
ATOM     13  C   UNL A   1      34.335  25.050  24.604  1.00  0.00     0.242 C 
ATOM     14  N   UNL A   1      33.735  25.166  25.823  1.00  0.00    -0.267 N 
ATOM     15  H   UNL A   1      34.319  25.015  26.601  1.00  0.00     0.191 HD
ATOM     16  O   UNL A   1      35.419  24.448  24.587  1.00  0.00    -0.273 OA
BRANCH  14  17
ATOM     17  N   UNL A   1      32.429  25.466  26.107  1.00  0.00    -0.264 N 
ATOM     18  C   UNL A   1      31.445  24.645  26.559  1.00  0.00     0.279 C 
ATOM     19  O   UNL A   1      30.361  25.206  26.788  1.00  0.00    -0.269 OA
ATOM     20  H   UNL A   1      32.168  26.404  25.963  1.00  0.00     0.191 HD
BRANCH  18  21
ATOM     21  C   UNL A   1      31.549  23.105  26.751  1.00  0.00     0.260 C 
ATOM     22  C   UNL A   1      30.188  22.439  26.494  1.00  0.00     0.064 C 
BRANCH  21  23
ATOM     23  O   UNL A   1      32.670  22.288  26.501  1.00  0.00    -0.481 OA
BRANCH  23  24
ATOM     24  C   UNL A   1      32.727  21.249  25.633  1.00  0.00     0.120 A 
ATOM     25  C   UNL A   1      31.926  21.062  21.905  1.00  0.00     0.044 C 
ATOM     26  C   UNL A   1      32.315  20.662  23.298  1.00  0.00    -0.047 A 
ATOM     27  C   UNL A   1      32.506  19.316  23.617  1.00  0.00     0.003 A 
ATOM     28  C   UNL A   1      32.444  21.619  24.311  1.00  0.00     0.049 A 
ATOM     29  C   UNL A   1      32.826  18.942  24.921  1.00  0.00     0.004 A 
ATOM     30  C   UNL A   1      32.940  19.906  25.928  1.00  0.00     0.046 A 
ENDBRANCH  23  24
ENDBRANCH  21  23
ENDBRANCH  18  21
ENDBRANCH  14  17
ENDBRANCH   7  13
ENDBRANCH   3   6
ENDBRANCH   1   2
BRANCH   1  31
ATOM     31  C   UNL A   1      34.253  28.781  26.032  1.00  0.00     0.042 C 
BRANCH  31  32
ATOM     32  C   UNL A   1      34.108  29.508  27.362  1.00  0.00     0.118 C 
BRANCH  32  33
ATOM     33  N   UNL A   1      34.822  30.775  27.418  1.00  0.00    -0.352 N 
ATOM     34  C   UNL A   1      36.113  31.012  27.869  1.00  0.00     0.251 C 
ATOM     35  H   UNL A   1      34.327  31.564  27.096  1.00  0.00     0.163 HD
ATOM     36  O   UNL A   1      36.525  32.151  28.023  1.00  0.00    -0.269 OA
BRANCH  34  37
ATOM     37  C   UNL A   1      36.992  29.846  28.097  1.00  0.00     0.039 A 
ATOM     38  C   UNL A   1      36.990  29.254  29.364  1.00  0.00     0.014 A 
ATOM     39  C   UNL A   1      37.948  29.494  27.149  1.00  0.00     0.014 A 
ATOM     40  C   UNL A   1      38.065  28.453  29.752  1.00  0.00     0.010 A 
ATOM     41  C   UNL A   1      39.048  28.765  27.558  1.00  0.00     0.010 A 
ATOM     42  C   UNL A   1      39.134  28.287  28.876  1.00  0.00    -0.014 A 
BRANCH  42  43
ATOM     43  C   UNL A   1      40.434  27.730  29.245  1.00  0.00     0.031 A 
ATOM     44  C   UNL A   1      40.791  26.342  28.867  1.00  0.00     0.074 A 
ATOM     45  C   UNL A   1      41.394  28.547  29.737  1.00  0.00     0.049 A 
ATOM     46  N   UNL A   1      41.913  25.778  29.164  1.00  0.00    -0.248 NA
ATOM     47  C   UNL A   1      39.865  25.438  28.186  1.00  0.00     0.031 C 
ATOM     48  C   UNL A   1      42.840  28.349  29.665  1.00  0.00     0.029 A 
ATOM     49  N   UNL A   1      41.237  29.620  30.617  1.00  0.00    -0.354 N 
ATOM     50  C   UNL A   1      41.985  24.593  28.477  1.00  0.00     0.074 A 
ATOM     51  C   UNL A   1      40.644  24.365  28.002  1.00  0.00     0.031 C 
ATOM     52  C   UNL A   1      43.431  29.080  30.618  1.00  0.00     0.029 A 
ATOM     53  C   UNL A   1      42.381  29.637  31.448  1.00  0.00     0.049 A 
ATOM     54  H   UNL A   1      40.477  30.243  30.653  1.00  0.00     0.167 HD
ATOM     55  C   UNL A   1      43.207  24.015  28.297  1.00  0.00     0.037 A 
ATOM     56  C   UNL A   1      42.274  29.437  32.797  1.00  0.00     0.037 A 
ATOM     57  C   UNL A   1      44.189  24.565  29.236  1.00  0.00     0.049 A 
ATOM     58  C   UNL A   1      42.966  28.194  33.322  1.00  0.00     0.074 A 
ATOM     59  C   UNL A   1      45.307  25.376  29.160  1.00  0.00     0.029 A 
ATOM     60  N   UNL A   1      43.926  24.416  30.587  1.00  0.00    -0.354 N 
ATOM     61  N   UNL A   1      43.669  27.370  32.594  1.00  0.00    -0.248 NA
ATOM     62  C   UNL A   1      42.846  27.738  34.709  1.00  0.00     0.031 C 
ATOM     63  C   UNL A   1      45.673  25.752  30.492  1.00  0.00     0.029 A 
ATOM     64  C   UNL A   1      44.793  25.146  31.371  1.00  0.00     0.049 A 
ATOM     65  H   UNL A   1      43.203  23.852  30.946  1.00  0.00     0.167 HD
ATOM     66  C   UNL A   1      43.986  26.265  33.338  1.00  0.00     0.074 A 
ATOM     67  C   UNL A   1      43.489  26.558  34.668  1.00  0.00     0.031 C 
ATOM     68  C   UNL A   1      44.571  25.153  32.808  1.00  0.00     0.037 A 
BRANCH  55  69
ATOM     69  C   UNL A   1      43.560  23.023  27.203  1.00  0.00     0.058 A 
ATOM     70  C   UNL A   1      42.977  21.735  27.194  1.00  0.00     0.135 A 
ATOM     71  C   UNL A   1      44.555  23.217  26.218  1.00  0.00     0.135 A 
ATOM     72  F   UNL A   1      42.026  21.396  28.078  1.00  0.00    -0.206 F 
ATOM     73  C   UNL A   1      43.369  20.723  26.308  1.00  0.00     0.059 A 
ATOM     74  C   UNL A   1      44.925  22.239  25.292  1.00  0.00     0.059 A 
ATOM     75  F   UNL A   1      45.282  24.334  26.137  1.00  0.00    -0.206 F 
ATOM     76  C   UNL A   1      44.351  20.983  25.362  1.00  0.00     0.060 A 
BRANCH  76  77
ATOM     77  S   UNL A   1      44.910  19.671  24.263  1.00  0.00     0.124 S 
ATOM     78  O   UNL A   1      44.149  18.526  24.754  1.00  0.00    -0.237 OA
ATOM     79  O   UNL A   1      44.527  20.175  22.949  1.00  0.00    -0.237 OA
ATOM     80  O   UNL A   1      46.349  19.612  24.510  1.00  0.00    -0.744 OA
ENDBRANCH  76  77
ENDBRANCH  55  69
BRANCH  56  81
ATOM     81  C   UNL A   1      41.036  30.045  33.355  1.00  0.00     0.058 A 
ATOM     82  C   UNL A   1      41.043  31.438  33.561  1.00  0.00     0.135 A 
ATOM     83  C   UNL A   1      39.795  29.410  33.207  1.00  0.00     0.135 A 
ATOM     84  F   UNL A   1      42.207  32.087  33.730  1.00  0.00    -0.206 F 
ATOM     85  C   UNL A   1      39.890  32.197  33.418  1.00  0.00     0.059 A 
ATOM     86  C   UNL A   1      38.622  30.152  33.076  1.00  0.00     0.059 A 
ATOM     87  F   UNL A   1      39.731  28.084  33.018  1.00  0.00    -0.206 F 
ATOM     88  C   UNL A   1      38.700  31.545  33.097  1.00  0.00     0.060 A 
BRANCH  88  89
ATOM     89  S   UNL A   1      37.335  32.558  32.477  1.00  0.00     0.124 S 
ATOM     90  O   UNL A   1      36.171  31.862  33.012  1.00  0.00    -0.237 OA
ATOM     91  O   UNL A   1      37.637  33.851  33.088  1.00  0.00    -0.237 OA
ATOM     92  O   UNL A   1      37.502  32.494  31.030  1.00  0.00    -0.744 OA
ENDBRANCH  88  89
ENDBRANCH  56  81
BRANCH  68  93
ATOM     93  C   UNL A   1      44.919  23.943  33.628  1.00  0.00     0.058 A 
ATOM     94  C   UNL A   1      46.247  23.628  33.960  1.00  0.00     0.135 A 
ATOM     95  C   UNL A   1      43.942  22.995  33.999  1.00  0.00     0.135 A 
ATOM     96  F   UNL A   1      47.249  24.459  33.626  1.00  0.00    -0.206 F 
ATOM     97  C   UNL A   1      46.585  22.452  34.630  1.00  0.00     0.059 A 
ATOM     98  C   UNL A   1      44.259  21.794  34.628  1.00  0.00     0.059 A 
ATOM     99  F   UNL A   1      42.637  23.224  33.786  1.00  0.00    -0.206 F 
ATOM    100  C   UNL A   1      45.584  21.537  34.955  1.00  0.00     0.060 A 
BRANCH 100 101
ATOM    101  S   UNL A   1      46.019  19.992  35.778  1.00  0.00     0.124 S 
ATOM    102  O   UNL A   1      45.678  20.263  37.172  1.00  0.00    -0.237 OA
ATOM    103  O   UNL A   1      45.152  19.042  35.090  1.00  0.00    -0.237 OA
ATOM    104  O   UNL A   1      47.446  19.855  35.507  1.00  0.00    -0.744 OA
ENDBRANCH 100 101
ENDBRANCH  68  93
ENDBRANCH  42  43
ENDBRANCH  34  37
ENDBRANCH  32  33
ENDBRANCH  31  32
ENDBRANCH   1  31
TORSDOF 18
ENDMDL
MODEL 3
REMARK VINA RESULT:     -13.2      1.983      3.153
REMARK SMILES Cc1cccc(O[C@H](C)C(=O)NNC(=O)[C@H]2[C@@H]3CC[C@@H](C3)[C@@H]2C(=O)NCCCNC(=O)c2ccc(-c3c4nc(c(-c5c(F)cc(S(=O)(=O)[O-])cc5F)c5ccc([nH]5)c(-c5c(F)cc(S(=O)(=O)[O-])cc5F)c5nc(c(-c6c(F)cc(S(=O)(=O)[O-])cc6F)c6ccc3[nH]6)C=C5)C=C4)cc2)c1
REMARK SMILES IDX 26 1 25 2 23 3 24 4 22 6 16 7 17 8 18 9 21 10 20 11 19 12
REMARK SMILES IDX 14 13 13 14 15 16 12 17 10 18 11 19 8 21 9 22 7 23 6 24 1 25
REMARK SMILES IDX 2 26 3 27 98 28 4 29 5 30 27 31 28 32 29 33 30 34 31 36
REMARK SMILES IDX 32 37 33 38 97 39 34 40 96 41 35 42 36 43 37 44 90 45 38 46
REMARK SMILES IDX 95 47 89 48 91 49 39 50 94 51 88 52 87 53 40 55 74 56 53 57
REMARK SMILES IDX 73 58 54 59 57 60 72 61 92 62 55 63 56 64 71 66 93 67 58 68
REMARK SMILES IDX 41 69 42 70 51 71 43 72 44 73 50 74 52 75 45 76 46 77 47 78
REMARK SMILES IDX 48 79 49 80 75 81 76 82 85 83 77 84 78 85 84 86 86 87 79 88
REMARK SMILES IDX 80 89 81 90 82 91 83 92 59 93 60 94 69 95 61 96 62 97 68 98
REMARK SMILES IDX 70 99 63 100 64 101 65 102 66 103 67 104
REMARK H PARENT 25 5 13 15 12 20 29 35 91 54 57 65
REMARK Flexibility Score: inf
ROOT
ATOM      1  C   UNL A   1      32.165  29.507  24.821  1.00  0.00     0.117 C 
ENDROOT
BRANCH   1   2
ATOM      2  N   UNL A   1      31.050  28.760  24.246  1.00  0.00    -0.356 N 
ATOM      3  C   UNL A   1      30.877  27.407  24.139  1.00  0.00     0.224 C 
ATOM      4  O   UNL A   1      29.864  26.970  23.600  1.00  0.00    -0.275 OA
ATOM      5  H   UNL A   1      30.317  29.308  23.884  1.00  0.00     0.163 HD
BRANCH   3   6
ATOM      6  C   UNL A   1      31.969  26.498  24.691  1.00  0.00     0.094 C 
ATOM      7  C   UNL A   1      32.095  25.135  23.981  1.00  0.00     0.096 C 
ATOM      8  C   UNL A   1      32.133  24.121  25.153  1.00  0.00     0.002 C 
ATOM      9  C   UNL A   1      30.688  23.951  25.667  1.00  0.00     0.005 C 
ATOM     10  C   UNL A   1      32.735  24.917  26.309  1.00  0.00     0.009 C 
ATOM     11  C   UNL A   1      31.738  26.069  26.163  1.00  0.00     0.002 C 
ATOM     12  C   UNL A   1      30.402  25.313  26.324  1.00  0.00     0.005 C 
BRANCH   7  13
ATOM     13  C   UNL A   1      33.193  24.914  22.944  1.00  0.00     0.242 C 
ATOM     14  N   UNL A   1      33.486  23.730  22.334  1.00  0.00    -0.267 N 
ATOM     15  H   UNL A   1      34.355  23.692  21.874  1.00  0.00     0.191 HD
ATOM     16  O   UNL A   1      33.860  25.892  22.579  1.00  0.00    -0.273 OA
BRANCH  14  17
ATOM     17  N   UNL A   1      32.732  22.588  22.279  1.00  0.00    -0.264 N 
ATOM     18  C   UNL A   1      32.738  21.521  23.121  1.00  0.00     0.279 C 
ATOM     19  O   UNL A   1      31.899  20.644  22.859  1.00  0.00    -0.269 OA
ATOM     20  H   UNL A   1      32.100  22.532  21.527  1.00  0.00     0.191 HD
BRANCH  18  21
ATOM     21  C   UNL A   1      33.717  21.293  24.308  1.00  0.00     0.260 C 
ATOM     22  C   UNL A   1      33.046  20.447  25.402  1.00  0.00     0.064 C 
BRANCH  21  23
ATOM     23  O   UNL A   1      35.121  21.186  24.248  1.00  0.00    -0.481 OA
BRANCH  23  24
ATOM     24  C   UNL A   1      36.015  22.057  24.775  1.00  0.00     0.120 A 
ATOM     25  C   UNL A   1      39.531  21.500  26.153  1.00  0.00     0.044 C 
ATOM     26  C   UNL A   1      38.248  22.171  25.757  1.00  0.00    -0.047 A 
ATOM     27  C   UNL A   1      38.011  23.501  26.109  1.00  0.00     0.003 A 
ATOM     28  C   UNL A   1      37.249  21.465  25.077  1.00  0.00     0.049 A 
ATOM     29  C   UNL A   1      36.801  24.110  25.777  1.00  0.00     0.004 A 
ATOM     30  C   UNL A   1      35.805  23.391  25.109  1.00  0.00     0.046 A 
ENDBRANCH  23  24
ENDBRANCH  21  23
ENDBRANCH  18  21
ENDBRANCH  14  17
ENDBRANCH   7  13
ENDBRANCH   3   6
ENDBRANCH   1   2
BRANCH   1  31
ATOM     31  C   UNL A   1      31.985  29.769  26.315  1.00  0.00     0.042 C 
BRANCH  31  32
ATOM     32  C   UNL A   1      33.306  29.760  27.071  1.00  0.00     0.118 C 
BRANCH  32  33
ATOM     33  N   UNL A   1      33.719  31.072  27.545  1.00  0.00    -0.352 N 
ATOM     34  C   UNL A   1      34.842  31.401  28.291  1.00  0.00     0.251 C 
ATOM     35  H   UNL A   1      33.126  31.822  27.307  1.00  0.00     0.163 HD
ATOM     36  O   UNL A   1      34.974  32.516  28.769  1.00  0.00    -0.269 OA
BRANCH  34  37
ATOM     37  C   UNL A   1      35.900  30.378  28.437  1.00  0.00     0.039 A 
ATOM     38  C   UNL A   1      36.060  29.765  29.683  1.00  0.00     0.014 A 
ATOM     39  C   UNL A   1      36.843  30.199  27.429  1.00  0.00     0.014 A 
ATOM     40  C   UNL A   1      37.264  29.131  29.989  1.00  0.00     0.010 A 
ATOM     41  C   UNL A   1      38.062  29.639  27.757  1.00  0.00     0.010 A 
ATOM     42  C   UNL A   1      38.295  29.150  29.053  1.00  0.00    -0.014 A 
BRANCH  42  43
ATOM     43  C   UNL A   1      39.684  28.792  29.335  1.00  0.00     0.031 A 
ATOM     44  C   UNL A   1      40.187  27.434  29.019  1.00  0.00     0.074 A 
ATOM     45  C   UNL A   1      40.565  29.758  29.679  1.00  0.00     0.049 A 
ATOM     46  N   UNL A   1      41.395  27.040  29.246  1.00  0.00    -0.248 NA
ATOM     47  C   UNL A   1      39.336  26.371  28.489  1.00  0.00     0.031 C 
ATOM     48  C   UNL A   1      42.013  29.739  29.487  1.00  0.00     0.029 A 
ATOM     49  N   UNL A   1      40.342  30.868  30.497  1.00  0.00    -0.354 N 
ATOM     50  C   UNL A   1      41.565  25.823  28.637  1.00  0.00     0.074 A 
ATOM     51  C   UNL A   1      40.230  25.392  28.305  1.00  0.00     0.031 C 
ATOM     52  C   UNL A   1      42.580  30.611  30.329  1.00  0.00     0.029 A 
ATOM     53  C   UNL A   1      41.539  31.094  31.215  1.00  0.00     0.049 A 
ATOM     54  H   UNL A   1      39.512  31.392  30.563  1.00  0.00     0.167 HD
ATOM     55  C   UNL A   1      42.833  25.392  28.382  1.00  0.00     0.037 A 
ATOM     56  C   UNL A   1      41.573  30.988  32.579  1.00  0.00     0.037 A 
ATOM     57  C   UNL A   1      43.810  26.132  29.187  1.00  0.00     0.049 A 
ATOM     58  C   UNL A   1      42.465  29.886  33.118  1.00  0.00     0.074 A 
ATOM     59  C   UNL A   1      44.800  27.069  28.953  1.00  0.00     0.029 A 
ATOM     60  N   UNL A   1      43.682  26.057  30.563  1.00  0.00    -0.354 N 
ATOM     61  N   UNL A   1      43.207  29.103  32.384  1.00  0.00    -0.248 NA
ATOM     62  C   UNL A   1      42.523  29.529  34.538  1.00  0.00     0.031 C 
ATOM     63  C   UNL A   1      45.223  27.590  30.217  1.00  0.00     0.029 A 
ATOM     64  C   UNL A   1      44.508  26.949  31.212  1.00  0.00     0.049 A 
ATOM     65  H   UNL A   1      43.072  25.437  31.025  1.00  0.00     0.167 HD
ATOM     66  C   UNL A   1      43.729  28.108  33.168  1.00  0.00     0.074 A 
ATOM     67  C   UNL A   1      43.310  28.439  34.516  1.00  0.00     0.031 C 
ATOM     68  C   UNL A   1      44.408  27.040  32.661  1.00  0.00     0.037 A 
BRANCH  55  69
ATOM     69  C   UNL A   1      43.221  24.369  27.328  1.00  0.00     0.058 A 
ATOM     70  C   UNL A   1      42.993  22.992  27.554  1.00  0.00     0.135 A 
ATOM     71  C   UNL A   1      43.937  24.653  26.143  1.00  0.00     0.135 A 
ATOM     72  F   UNL A   1      42.338  22.565  28.644  1.00  0.00    -0.206 F 
ATOM     73  C   UNL A   1      43.461  21.988  26.697  1.00  0.00     0.059 A 
ATOM     74  C   UNL A   1      44.369  23.671  25.249  1.00  0.00     0.059 A 
ATOM     75  F   UNL A   1      44.329  25.887  25.814  1.00  0.00    -0.206 F 
ATOM     76  C   UNL A   1      44.155  22.338  25.546  1.00  0.00     0.060 A 
BRANCH  76  77
ATOM     77  S   UNL A   1      44.819  21.054  24.472  1.00  0.00     0.124 S 
ATOM     78  O   UNL A   1      44.674  21.662  23.154  1.00  0.00    -0.237 OA
ATOM     79  O   UNL A   1      46.186  20.909  24.962  1.00  0.00    -0.237 OA
ATOM     80  O   UNL A   1      43.944  19.912  24.729  1.00  0.00    -0.744 OA
ENDBRANCH  76  77
ENDBRANCH  55  69
BRANCH  56  81
ATOM     81  C   UNL A   1      40.316  31.477  33.207  1.00  0.00     0.058 A 
ATOM     82  C   UNL A   1      39.374  30.505  33.594  1.00  0.00     0.135 A 
ATOM     83  C   UNL A   1      40.270  32.726  33.843  1.00  0.00     0.135 A 
ATOM     84  F   UNL A   1      39.366  29.302  32.998  1.00  0.00    -0.206 F 
ATOM     85  C   UNL A   1      38.560  30.688  34.704  1.00  0.00     0.059 A 
ATOM     86  C   UNL A   1      39.449  32.936  34.950  1.00  0.00     0.059 A 
ATOM     87  F   UNL A   1      41.139  33.690  33.505  1.00  0.00    -0.206 F 
ATOM     88  C   UNL A   1      38.666  31.880  35.419  1.00  0.00     0.060 A 
BRANCH  88  89
ATOM     89  S   UNL A   1      37.955  31.922  37.081  1.00  0.00     0.124 S 
ATOM     90  O   UNL A   1      39.069  32.420  37.878  1.00  0.00    -0.237 OA
ATOM     91  O   UNL A   1      36.843  32.852  36.893  1.00  0.00    -0.237 OA
ATOM     92  O   UNL A   1      37.577  30.533  37.318  1.00  0.00    -0.744 OA
ENDBRANCH  88  89
ENDBRANCH  56  81
BRANCH  68  93
ATOM     93  C   UNL A   1      44.981  25.951  33.523  1.00  0.00     0.058 A 
ATOM     94  C   UNL A   1      46.362  25.712  33.596  1.00  0.00     0.135 A 
ATOM     95  C   UNL A   1      44.151  25.036  34.205  1.00  0.00     0.135 A 
ATOM     96  F   UNL A   1      47.229  26.516  32.959  1.00  0.00    -0.206 F 
ATOM     97  C   UNL A   1      46.892  24.637  34.312  1.00  0.00     0.059 A 
ATOM     98  C   UNL A   1      44.653  23.932  34.889  1.00  0.00     0.059 A 
ATOM     99  F   UNL A   1      42.821  25.206  34.252  1.00  0.00    -0.206 F 
ATOM    100  C   UNL A   1      46.029  23.748  34.950  1.00  0.00     0.060 A 
BRANCH 100 101
ATOM    101  S   UNL A   1      46.703  22.329  35.837  1.00  0.00     0.124 S 
ATOM    102  O   UNL A   1      47.920  22.029  35.088  1.00  0.00    -0.237 OA
ATOM    103  O   UNL A   1      46.906  22.889  37.169  1.00  0.00    -0.237 OA
ATOM    104  O   UNL A   1      45.646  21.329  35.727  1.00  0.00    -0.744 OA
ENDBRANCH 100 101
ENDBRANCH  68  93
ENDBRANCH  42  43
ENDBRANCH  34  37
ENDBRANCH  32  33
ENDBRANCH  31  32
ENDBRANCH   1  31
TORSDOF 18
ENDMDL
