MODEL 1
REMARK VINA RESULT:     -11.3      0.000      0.000
REMARK SMILES CC[NH+](CC)[C@](C)(C(=O)NCCCNC(=O)c1ccc(-c2c3nc(c(-c4c(F)cc(S(=O)(=O)[O-])cc4F)c4ccc([nH]4)c(-c4c(F)cc(S(=O)(=O)[O-])cc4F)c4nc(c(-c5c(F)cc(S(=O)(=O)[O-])cc5F)c5ccc2[nH]5)C=C4)C=C3)cc1)c1cc(F)c(C)cc1F
REMARK SMILES IDX 12 1 11 2 10 3 8 4 9 5 6 7 7 8 3 9 2 11 1 12 4 13 5 14 83 15
REMARK SMILES IDX 84 16 90 17 85 18 89 19 91 20 86 21 87 22 88 23 13 24 14 25
REMARK SMILES IDX 15 26 16 28 17 29 18 30 82 31 19 32 81 33 20 34 21 35 22 36
REMARK SMILES IDX 75 37 23 38 80 39 74 40 76 41 24 42 79 43 73 44 72 45 25 47
REMARK SMILES IDX 59 48 38 49 58 50 39 51 42 52 57 53 77 54 40 55 41 56 56 58
REMARK SMILES IDX 78 59 43 60 26 61 27 62 36 63 28 64 29 65 35 66 37 67 30 68
REMARK SMILES IDX 31 69 32 70 33 71 34 72 60 73 61 74 70 75 62 76 63 77 69 78
REMARK SMILES IDX 71 79 64 80 65 81 66 82 67 83 68 84 44 85 45 86 54 87 46 88
REMARK SMILES IDX 47 89 53 90 55 91 48 92 49 93 50 94 51 95 52 96
REMARK H PARENT 10 6 3 10 14 27 76 46 42 57
REMARK Flexibility Score: inf
ROOT
ATOM      1  C   UNL A   1      32.127  28.315  26.518  1.00  0.00     0.042 C 
ENDROOT
BRANCH   1   2
ATOM      2  C   UNL A   1      31.812  26.834  26.550  1.00  0.00     0.118 C 
BRANCH   2   3
ATOM      3  N   UNL A   1      32.903  26.009  26.058  1.00  0.00    -0.350 N 
ATOM      4  C   UNL A   1      33.183  25.534  24.805  1.00  0.00     0.286 C 
ATOM      5  O   UNL A   1      34.397  25.583  24.564  1.00  0.00    -0.267 OA
ATOM      6  H   UNL A   1      33.555  25.744  26.747  1.00  0.00     0.163 HD
BRANCH   4   7
ATOM      7  C   UNL A   1      32.082  25.023  23.746  1.00  0.00     0.202 C 
ATOM      8  C   UNL A   1      32.800  25.008  22.362  1.00  0.00     0.096 C 
BRANCH   7   9
ATOM      9  N   UNL A   1      31.487  23.681  24.224  1.00  0.00    -0.319 N 
ATOM     10  H   UNL A   1      30.505  23.935  24.330  1.00  0.00     0.349 HD
BRANCH   9  11
ATOM     11  C   UNL A   1      31.836  23.198  25.569  1.00  0.00     0.259 C 
ATOM     12  C   UNL A   1      30.689  23.028  26.568  1.00  0.00     0.071 C 
ENDBRANCH   9  11
BRANCH   9  13
ATOM     13  C   UNL A   1      31.621  22.603  23.212  1.00  0.00     0.259 C 
ATOM     14  C   UNL A   1      32.539  21.408  23.493  1.00  0.00     0.071 C 
ENDBRANCH   9  13
ENDBRANCH   7   9
BRANCH   7  15
ATOM     15  C   UNL A   1      30.908  26.101  23.577  1.00  0.00     0.060 A 
ATOM     16  C   UNL A   1      29.573  25.890  23.982  1.00  0.00     0.053 A 
ATOM     17  C   UNL A   1      31.144  27.379  23.016  1.00  0.00     0.133 A 
ATOM     18  C   UNL A   1      28.566  26.848  23.784  1.00  0.00     0.126 A 
ATOM     19  C   UNL A   1      30.135  28.325  22.791  1.00  0.00     0.046 A 
ATOM     20  F   UNL A   1      32.376  27.776  22.666  1.00  0.00    -0.206 F 
ATOM     21  F   UNL A   1      27.327  26.578  24.218  1.00  0.00    -0.207 F 
ATOM     22  C   UNL A   1      28.822  28.058  23.154  1.00  0.00    -0.012 A 
ATOM     23  C   UNL A   1      27.732  29.056  22.930  1.00  0.00     0.047 C 
ENDBRANCH   7  15
ENDBRANCH   4   7
ENDBRANCH   2   3
ENDBRANCH   1   2
BRANCH   1  24
ATOM     24  C   UNL A   1      33.425  28.662  27.234  1.00  0.00     0.118 C 
BRANCH  24  25
ATOM     25  N   UNL A   1      33.481  30.052  27.682  1.00  0.00    -0.352 N 
ATOM     26  C   UNL A   1      34.491  30.748  28.309  1.00  0.00     0.251 C 
ATOM     27  H   UNL A   1      32.666  30.575  27.507  1.00  0.00     0.163 HD
ATOM     28  O   UNL A   1      34.277  31.859  28.769  1.00  0.00    -0.269 OA
BRANCH  26  29
ATOM     29  C   UNL A   1      35.824  30.123  28.451  1.00  0.00     0.039 A 
ATOM     30  C   UNL A   1      36.700  30.114  27.365  1.00  0.00     0.014 A 
ATOM     31  C   UNL A   1      36.218  29.586  29.676  1.00  0.00     0.014 A 
ATOM     32  C   UNL A   1      38.012  29.667  27.545  1.00  0.00     0.010 A 
ATOM     33  C   UNL A   1      37.551  29.265  29.885  1.00  0.00     0.010 A 
ATOM     34  C   UNL A   1      38.465  29.299  28.823  1.00  0.00    -0.014 A 
BRANCH  34  35
ATOM     35  C   UNL A   1      39.883  28.940  29.087  1.00  0.00     0.031 A 
ATOM     36  C   UNL A   1      40.822  29.975  29.650  1.00  0.00     0.074 A 
ATOM     37  C   UNL A   1      40.349  27.728  28.724  1.00  0.00     0.049 A 
ATOM     38  N   UNL A   1      42.119  29.916  29.808  1.00  0.00    -0.248 NA
ATOM     39  C   UNL A   1      40.230  31.267  30.039  1.00  0.00     0.031 C 
ATOM     40  C   UNL A   1      39.557  26.662  28.102  1.00  0.00     0.029 A 
ATOM     41  N   UNL A   1      41.609  27.191  28.810  1.00  0.00    -0.354 N 
ATOM     42  C   UNL A   1      42.499  31.170  30.275  1.00  0.00     0.074 A 
ATOM     43  C   UNL A   1      41.306  31.986  30.315  1.00  0.00     0.031 C 
ATOM     44  C   UNL A   1      40.341  25.591  27.896  1.00  0.00     0.029 A 
ATOM     45  C   UNL A   1      41.698  25.906  28.328  1.00  0.00     0.049 A 
ATOM     46  H   UNL A   1      42.378  27.680  29.182  1.00  0.00     0.167 HD
ATOM     47  C   UNL A   1      43.723  31.594  30.666  1.00  0.00     0.037 A 
ATOM     48  C   UNL A   1      42.755  25.075  28.242  1.00  0.00     0.037 A 
ATOM     49  C   UNL A   1      44.892  30.756  30.684  1.00  0.00     0.049 A 
ATOM     50  C   UNL A   1      44.096  25.550  28.732  1.00  0.00     0.074 A 
ATOM     51  C   UNL A   1      46.165  31.061  31.134  1.00  0.00     0.029 A 
ATOM     52  N   UNL A   1      44.927  29.441  30.245  1.00  0.00    -0.354 N 
ATOM     53  N   UNL A   1      44.425  26.721  29.223  1.00  0.00    -0.248 NA
ATOM     54  C   UNL A   1      45.207  24.590  28.663  1.00  0.00     0.031 C 
ATOM     55  C   UNL A   1      46.975  29.937  30.943  1.00  0.00     0.029 A 
ATOM     56  C   UNL A   1      46.199  28.921  30.408  1.00  0.00     0.049 A 
ATOM     57  H   UNL A   1      44.159  28.950  29.872  1.00  0.00     0.167 HD
ATOM     58  C   UNL A   1      45.775  26.631  29.543  1.00  0.00     0.074 A 
ATOM     59  C   UNL A   1      46.197  25.289  29.201  1.00  0.00     0.031 C 
ATOM     60  C   UNL A   1      46.592  27.576  30.072  1.00  0.00     0.037 A 
BRANCH  47  61
ATOM     61  C   UNL A   1      43.849  33.019  31.127  1.00  0.00     0.058 A 
ATOM     62  C   UNL A   1      44.024  34.075  30.215  1.00  0.00     0.135 A 
ATOM     63  C   UNL A   1      43.787  33.339  32.492  1.00  0.00     0.135 A 
ATOM     64  F   UNL A   1      44.109  33.824  28.899  1.00  0.00    -0.206 F 
ATOM     65  C   UNL A   1      44.172  35.389  30.643  1.00  0.00     0.059 A 
ATOM     66  C   UNL A   1      43.903  34.652  32.941  1.00  0.00     0.059 A 
ATOM     67  F   UNL A   1      43.621  32.370  33.407  1.00  0.00    -0.206 F 
ATOM     68  C   UNL A   1      44.114  35.667  32.009  1.00  0.00     0.060 A 
BRANCH  68  69
ATOM     69  S   UNL A   1      44.316  37.378  32.549  1.00  0.00     0.124 S 
ATOM     70  O   UNL A   1      45.624  37.326  33.195  1.00  0.00    -0.237 OA
ATOM     71  O   UNL A   1      44.259  38.114  31.291  1.00  0.00    -0.237 OA
ATOM     72  O   UNL A   1      43.181  37.586  33.444  1.00  0.00    -0.744 OA
ENDBRANCH  68  69
ENDBRANCH  47  61
BRANCH  48  73
ATOM     73  C   UNL A   1      42.580  23.700  27.708  1.00  0.00     0.058 A 
ATOM     74  C   UNL A   1      42.574  23.465  26.325  1.00  0.00     0.135 A 
ATOM     75  C   UNL A   1      42.437  22.593  28.558  1.00  0.00     0.135 A 
ATOM     76  F   UNL A   1      42.703  24.492  25.471  1.00  0.00    -0.206 F 
ATOM     77  C   UNL A   1      42.413  22.187  25.802  1.00  0.00     0.059 A 
ATOM     78  C   UNL A   1      42.298  21.301  28.060  1.00  0.00     0.059 A 
ATOM     79  F   UNL A   1      42.458  22.762  29.890  1.00  0.00    -0.206 F 
ATOM     80  C   UNL A   1      42.278  21.110  26.679  1.00  0.00     0.060 A 
BRANCH  80  81
ATOM     81  S   UNL A   1      42.122  19.446  25.991  1.00  0.00     0.124 S 
ATOM     82  O   UNL A   1      42.978  19.534  24.814  1.00  0.00    -0.237 OA
ATOM     83  O   UNL A   1      42.619  18.615  27.083  1.00  0.00    -0.237 OA
ATOM     84  O   UNL A   1      40.692  19.328  25.726  1.00  0.00    -0.744 OA
ENDBRANCH  80  81
ENDBRANCH  48  73
BRANCH  60  85
ATOM     85  C   UNL A   1      48.014  27.181  30.347  1.00  0.00     0.058 A 
ATOM     86  C   UNL A   1      49.018  27.331  29.380  1.00  0.00     0.135 A 
ATOM     87  C   UNL A   1      48.385  26.699  31.613  1.00  0.00     0.135 A 
ATOM     88  F   UNL A   1      48.713  27.781  28.153  1.00  0.00    -0.206 F 
ATOM     89  C   UNL A   1      50.342  27.001  29.652  1.00  0.00     0.059 A 
ATOM     90  C   UNL A   1      49.705  26.385  31.915  1.00  0.00     0.059 A 
ATOM     91  F   UNL A   1      47.461  26.547  32.576  1.00  0.00    -0.206 F 
ATOM     92  C   UNL A   1      50.675  26.530  30.923  1.00  0.00     0.060 A 
BRANCH  92  93
ATOM     93  S   UNL A   1      52.402  26.141  31.278  1.00  0.00     0.124 S 
ATOM     94  O   UNL A   1      52.995  26.198  29.947  1.00  0.00    -0.237 OA
ATOM     95  O   UNL A   1      52.784  27.215  32.190  1.00  0.00    -0.237 OA
ATOM     96  O   UNL A   1      52.334  24.813  31.880  1.00  0.00    -0.744 OA
ENDBRANCH  92  93
ENDBRANCH  60  85
ENDBRANCH  34  35
ENDBRANCH  26  29
ENDBRANCH  24  25
ENDBRANCH   1  24
TORSDOF 17
ENDMDL
MODEL 2
REMARK VINA RESULT:     -10.9      2.845      4.361
REMARK SMILES CC[NH+](CC)[C@](C)(C(=O)NCCCNC(=O)c1ccc(-c2c3nc(c(-c4c(F)cc(S(=O)(=O)[O-])cc4F)c4ccc([nH]4)c(-c4c(F)cc(S(=O)(=O)[O-])cc4F)c4nc(c(-c5c(F)cc(S(=O)(=O)[O-])cc5F)c5ccc2[nH]5)C=C4)C=C3)cc1)c1cc(F)c(C)cc1F
REMARK SMILES IDX 12 1 11 2 10 3 8 4 9 5 6 7 7 8 3 9 2 11 1 12 4 13 5 14 83 15
REMARK SMILES IDX 84 16 90 17 85 18 89 19 91 20 86 21 87 22 88 23 13 24 14 25
REMARK SMILES IDX 15 26 16 28 17 29 18 30 82 31 19 32 81 33 20 34 21 35 22 36
REMARK SMILES IDX 75 37 23 38 80 39 74 40 76 41 24 42 79 43 73 44 72 45 25 47
REMARK SMILES IDX 59 48 38 49 58 50 39 51 42 52 57 53 77 54 40 55 41 56 56 58
REMARK SMILES IDX 78 59 43 60 26 61 27 62 36 63 28 64 29 65 35 66 37 67 30 68
REMARK SMILES IDX 31 69 32 70 33 71 34 72 60 73 61 74 70 75 62 76 63 77 69 78
REMARK SMILES IDX 71 79 64 80 65 81 66 82 67 83 68 84 44 85 45 86 54 87 46 88
REMARK SMILES IDX 47 89 53 90 55 91 48 92 49 93 50 94 51 95 52 96
REMARK H PARENT 10 6 3 10 14 27 76 46 42 57
REMARK Flexibility Score: inf
ROOT
ATOM      1  C   UNL A   1      34.774  28.930  27.108  1.00  0.00     0.042 C 
ENDROOT
BRANCH   1   2
ATOM      2  C   UNL A   1      33.534  29.490  26.443  1.00  0.00     0.118 C 
BRANCH   2   3
ATOM      3  N   UNL A   1      32.307  28.858  26.901  1.00  0.00    -0.350 N 
ATOM      4  C   UNL A   1      31.649  27.740  26.464  1.00  0.00     0.286 C 
ATOM      5  O   UNL A   1      31.199  27.081  27.412  1.00  0.00    -0.267 OA
ATOM      6  H   UNL A   1      31.874  29.314  27.659  1.00  0.00     0.163 HD
BRANCH   4   7
ATOM      7  C   UNL A   1      31.514  27.294  24.922  1.00  0.00     0.202 C 
ATOM      8  C   UNL A   1      30.129  26.588  24.805  1.00  0.00     0.096 C 
BRANCH   7   9
ATOM      9  N   UNL A   1      31.739  28.518  24.007  1.00  0.00    -0.319 N 
ATOM     10  H   UNL A   1      32.242  29.139  24.642  1.00  0.00     0.349 HD
BRANCH   9  11
ATOM     11  C   UNL A   1      30.575  29.331  23.624  1.00  0.00     0.259 C 
ATOM     12  C   UNL A   1      30.119  29.252  22.165  1.00  0.00     0.071 C 
ENDBRANCH   9  11
BRANCH   9  13
ATOM     13  C   UNL A   1      32.590  28.204  22.832  1.00  0.00     0.259 C 
ATOM     14  C   UNL A   1      34.019  28.754  22.762  1.00  0.00     0.071 C 
ENDBRANCH   9  13
ENDBRANCH   7   9
BRANCH   7  15
ATOM     15  C   UNL A   1      32.579  26.151  24.562  1.00  0.00     0.060 A 
ATOM     16  C   UNL A   1      33.746  25.891  25.309  1.00  0.00     0.053 A 
ATOM     17  C   UNL A   1      32.402  25.290  23.452  1.00  0.00     0.133 A 
ATOM     18  C   UNL A   1      34.672  24.903  24.940  1.00  0.00     0.126 A 
ATOM     19  C   UNL A   1      33.338  24.323  23.065  1.00  0.00     0.046 A 
ATOM     20  F   UNL A   1      31.298  25.341  22.692  1.00  0.00    -0.206 F 
ATOM     21  F   UNL A   1      35.745  24.703  25.718  1.00  0.00    -0.207 F 
ATOM     22  C   UNL A   1      34.503  24.134  23.797  1.00  0.00    -0.012 A 
ATOM     23  C   UNL A   1      35.512  23.102  23.405  1.00  0.00     0.047 C 
ENDBRANCH   7  15
ENDBRANCH   4   7
ENDBRANCH   2   3
ENDBRANCH   1   2
BRANCH   1  24
ATOM     24  C   UNL A   1      35.643  30.005  27.746  1.00  0.00     0.118 C 
BRANCH  24  25
ATOM     25  N   UNL A   1      35.486  30.086  29.196  1.00  0.00    -0.352 N 
ATOM     26  C   UNL A   1      36.410  29.923  30.206  1.00  0.00     0.251 C 
ATOM     27  H   UNL A   1      34.573  30.291  29.502  1.00  0.00     0.163 HD
ATOM     28  O   UNL A   1      36.042  29.850  31.368  1.00  0.00    -0.269 OA
BRANCH  26  29
ATOM     29  C   UNL A   1      37.844  29.802  29.864  1.00  0.00     0.039 A 
ATOM     30  C   UNL A   1      38.774  29.549  30.874  1.00  0.00     0.014 A 
ATOM     31  C   UNL A   1      38.257  29.896  28.536  1.00  0.00     0.014 A 
ATOM     32  C   UNL A   1      40.101  29.278  30.532  1.00  0.00     0.010 A 
ATOM     33  C   UNL A   1      39.541  29.501  28.190  1.00  0.00     0.010 A 
ATOM     34  C   UNL A   1      40.480  29.189  29.182  1.00  0.00    -0.014 A 
BRANCH  34  35
ATOM     35  C   UNL A   1      41.848  28.779  28.769  1.00  0.00     0.031 A 
ATOM     36  C   UNL A   1      42.944  29.810  28.690  1.00  0.00     0.074 A 
ATOM     37  C   UNL A   1      42.078  27.514  28.363  1.00  0.00     0.049 A 
ATOM     38  N   UNL A   1      44.155  29.695  28.210  1.00  0.00    -0.248 NA
ATOM     39  C   UNL A   1      42.618  31.164  29.170  1.00  0.00     0.031 C 
ATOM     40  C   UNL A   1      41.082  26.439  28.323  1.00  0.00     0.029 A 
ATOM     41  N   UNL A   1      43.221  26.919  27.892  1.00  0.00    -0.354 N 
ATOM     42  C   UNL A   1      44.716  30.965  28.294  1.00  0.00     0.074 A 
ATOM     43  C   UNL A   1      43.694  31.846  28.812  1.00  0.00     0.031 C 
ATOM     44  C   UNL A   1      41.665  25.311  27.886  1.00  0.00     0.029 A 
ATOM     45  C   UNL A   1      43.063  25.590  27.573  1.00  0.00     0.049 A 
ATOM     46  H   UNL A   1      44.074  27.398  27.790  1.00  0.00     0.167 HD
ATOM     47  C   UNL A   1      45.977  31.356  27.996  1.00  0.00     0.037 A 
ATOM     48  C   UNL A   1      43.945  24.698  27.082  1.00  0.00     0.037 A 
ATOM     49  C   UNL A   1      47.007  30.461  27.543  1.00  0.00     0.049 A 
ATOM     50  C   UNL A   1      45.356  25.143  26.809  1.00  0.00     0.074 A 
ATOM     51  C   UNL A   1      48.339  30.737  27.288  1.00  0.00     0.029 A 
ATOM     52  N   UNL A   1      46.822  29.109  27.291  1.00  0.00    -0.354 N 
ATOM     53  N   UNL A   1      45.883  26.335  26.947  1.00  0.00    -0.248 NA
ATOM     54  C   UNL A   1      46.292  24.120  26.321  1.00  0.00     0.031 C 
ATOM     55  C   UNL A   1      48.953  29.556  26.857  1.00  0.00     0.029 A 
ATOM     56  C   UNL A   1      48.013  28.538  26.879  1.00  0.00     0.049 A 
ATOM     57  H   UNL A   1      45.969  28.628  27.391  1.00  0.00     0.167 HD
ATOM     58  C   UNL A   1      47.219  26.202  26.586  1.00  0.00     0.074 A 
ATOM     59  C   UNL A   1      47.420  24.811  26.235  1.00  0.00     0.031 C 
ATOM     60  C   UNL A   1      48.192  27.146  26.547  1.00  0.00     0.037 A 
BRANCH  47  61
ATOM     61  C   UNL A   1      46.313  32.810  28.178  1.00  0.00     0.058 A 
ATOM     62  C   UNL A   1      46.800  33.306  29.399  1.00  0.00     0.135 A 
ATOM     63  C   UNL A   1      46.156  33.719  27.120  1.00  0.00     0.135 A 
ATOM     64  F   UNL A   1      46.953  32.483  30.450  1.00  0.00    -0.206 F 
ATOM     65  C   UNL A   1      47.081  34.656  29.578  1.00  0.00     0.059 A 
ATOM     66  C   UNL A   1      46.459  35.071  27.267  1.00  0.00     0.059 A 
ATOM     67  F   UNL A   1      45.694  33.301  25.931  1.00  0.00    -0.206 F 
ATOM     68  C   UNL A   1      46.903  35.532  28.505  1.00  0.00     0.060 A 
BRANCH  68  69
ATOM     69  S   UNL A   1      47.265  37.283  28.754  1.00  0.00     0.124 S 
ATOM     70  O   UNL A   1      46.396  37.903  27.758  1.00  0.00    -0.237 OA
ATOM     71  O   UNL A   1      46.878  37.489  30.147  1.00  0.00    -0.237 OA
ATOM     72  O   UNL A   1      48.696  37.374  28.485  1.00  0.00    -0.744 OA
ENDBRANCH  68  69
ENDBRANCH  47  61
BRANCH  48  73
ATOM     73  C   UNL A   1      43.530  23.289  26.855  1.00  0.00     0.058 A 
ATOM     74  C   UNL A   1      43.320  22.421  27.937  1.00  0.00     0.135 A 
ATOM     75  C   UNL A   1      43.316  22.785  25.563  1.00  0.00     0.135 A 
ATOM     76  F   UNL A   1      43.516  22.856  29.191  1.00  0.00    -0.206 F 
ATOM     77  C   UNL A   1      42.930  21.100  27.748  1.00  0.00     0.059 A 
ATOM     78  C   UNL A   1      42.904  21.473  25.349  1.00  0.00     0.059 A 
ATOM     79  F   UNL A   1      43.483  23.581  24.495  1.00  0.00    -0.206 F 
ATOM     80  C   UNL A   1      42.723  20.635  26.449  1.00  0.00     0.060 A 
BRANCH  80  81
ATOM     81  S   UNL A   1      42.167  18.932  26.216  1.00  0.00     0.124 S 
ATOM     82  O   UNL A   1      42.331  18.384  27.557  1.00  0.00    -0.237 OA
ATOM     83  O   UNL A   1      40.791  19.117  25.764  1.00  0.00    -0.237 OA
ATOM     84  O   UNL A   1      43.085  18.416  25.205  1.00  0.00    -0.744 OA
ENDBRANCH  80  81
ENDBRANCH  48  73
BRANCH  60  85
ATOM     85  C   UNL A   1      49.568  26.701  26.146  1.00  0.00     0.058 A 
ATOM     86  C   UNL A   1      50.020  26.816  24.823  1.00  0.00     0.135 A 
ATOM     87  C   UNL A   1      50.464  26.208  27.109  1.00  0.00     0.135 A 
ATOM     88  F   UNL A   1      49.200  27.275  23.865  1.00  0.00    -0.206 F 
ATOM     89  C   UNL A   1      51.310  26.439  24.463  1.00  0.00     0.059 A 
ATOM     90  C   UNL A   1      51.764  25.848  26.776  1.00  0.00     0.059 A 
ATOM     91  F   UNL A   1      50.081  26.089  28.390  1.00  0.00    -0.206 F 
ATOM     92  C   UNL A   1      52.175  25.957  25.447  1.00  0.00     0.060 A 
BRANCH  92  93
ATOM     93  S   UNL A   1      53.859  25.508  24.977  1.00  0.00     0.124 S 
ATOM     94  O   UNL A   1      54.633  26.089  26.068  1.00  0.00    -0.237 OA
ATOM     95  O   UNL A   1      53.798  24.049  24.948  1.00  0.00    -0.237 OA
ATOM     96  O   UNL A   1      54.029  26.146  23.675  1.00  0.00    -0.744 OA
ENDBRANCH  92  93
ENDBRANCH  60  85
ENDBRANCH  34  35
ENDBRANCH  26  29
ENDBRANCH  24  25
ENDBRANCH   1  24
TORSDOF 17
ENDMDL
MODEL 3
REMARK VINA RESULT:     -10.7      3.256      9.468
REMARK SMILES CC[NH+](CC)[C@](C)(C(=O)NCCCNC(=O)c1ccc(-c2c3nc(c(-c4c(F)cc(S(=O)(=O)[O-])cc4F)c4ccc([nH]4)c(-c4c(F)cc(S(=O)(=O)[O-])cc4F)c4nc(c(-c5c(F)cc(S(=O)(=O)[O-])cc5F)c5ccc2[nH]5)C=C4)C=C3)cc1)c1cc(F)c(C)cc1F
REMARK SMILES IDX 12 1 11 2 10 3 8 4 9 5 6 7 7 8 3 9 2 11 1 12 4 13 5 14 83 15
REMARK SMILES IDX 84 16 90 17 85 18 89 19 91 20 86 21 87 22 88 23 13 24 14 25
REMARK SMILES IDX 15 26 16 28 17 29 18 30 82 31 19 32 81 33 20 34 21 35 22 36
REMARK SMILES IDX 75 37 23 38 80 39 74 40 76 41 24 42 79 43 73 44 72 45 25 47
REMARK SMILES IDX 59 48 38 49 58 50 39 51 42 52 57 53 77 54 40 55 41 56 56 58
REMARK SMILES IDX 78 59 43 60 26 61 27 62 36 63 28 64 29 65 35 66 37 67 30 68
REMARK SMILES IDX 31 69 32 70 33 71 34 72 60 73 61 74 70 75 62 76 63 77 69 78
REMARK SMILES IDX 71 79 64 80 65 81 66 82 67 83 68 84 44 85 45 86 54 87 46 88
REMARK SMILES IDX 47 89 53 90 55 91 48 92 49 93 50 94 51 95 52 96
REMARK H PARENT 10 6 3 10 14 27 76 46 42 57
REMARK Flexibility Score: inf
ROOT
ATOM      1  C   UNL A   1      35.906  22.924  24.843  1.00  0.00     0.042 C 
ENDROOT
BRANCH   1   2
ATOM      2  C   UNL A   1      35.458  21.933  25.897  1.00  0.00     0.118 C 
BRANCH   2   3
ATOM      3  N   UNL A   1      34.686  22.549  26.965  1.00  0.00    -0.350 N 
ATOM      4  C   UNL A   1      33.337  22.603  27.189  1.00  0.00     0.286 C 
ATOM      5  O   UNL A   1      33.074  22.467  28.393  1.00  0.00    -0.267 OA
ATOM      6  H   UNL A   1      35.229  23.010  27.645  1.00  0.00     0.163 HD
BRANCH   4   7
ATOM      7  C   UNL A   1      32.217  22.766  26.042  1.00  0.00     0.202 C 
ATOM      8  C   UNL A   1      30.847  22.560  26.756  1.00  0.00     0.096 C 
BRANCH   7   9
ATOM      9  N   UNL A   1      32.415  24.114  25.314  1.00  0.00    -0.319 N 
ATOM     10  H   UNL A   1      33.032  23.829  24.553  1.00  0.00     0.349 HD
BRANCH   9  11
ATOM     11  C   UNL A   1      33.200  25.164  25.982  1.00  0.00     0.259 C 
ATOM     12  C   UNL A   1      34.082  26.045  25.095  1.00  0.00     0.071 C 
ENDBRANCH   9  11
BRANCH   9  13
ATOM     13  C   UNL A   1      31.149  24.655  24.760  1.00  0.00     0.259 C 
ATOM     14  C   UNL A   1      30.469  25.845  25.444  1.00  0.00     0.071 C 
ENDBRANCH   9  13
ENDBRANCH   7   9
BRANCH   7  15
ATOM     15  C   UNL A   1      32.303  21.566  24.984  1.00  0.00     0.060 A 
ATOM     16  C   UNL A   1      32.135  21.721  23.592  1.00  0.00     0.053 A 
ATOM     17  C   UNL A   1      32.583  20.237  25.385  1.00  0.00     0.133 A 
ATOM     18  C   UNL A   1      32.183  20.637  22.703  1.00  0.00     0.126 A 
ATOM     19  C   UNL A   1      32.603  19.150  24.502  1.00  0.00     0.046 A 
ATOM     20  F   UNL A   1      32.862  19.932  26.661  1.00  0.00    -0.206 F 
ATOM     21  F   UNL A   1      32.036  20.874  21.391  1.00  0.00    -0.207 F 
ATOM     22  C   UNL A   1      32.378  19.336  23.145  1.00  0.00    -0.012 A 
ATOM     23  C   UNL A   1      32.403  18.190  22.185  1.00  0.00     0.047 C 
ENDBRANCH   7  15
ENDBRANCH   4   7
ENDBRANCH   2   3
ENDBRANCH   1   2
BRANCH   1  24
ATOM     24  C   UNL A   1      37.139  23.715  25.258  1.00  0.00     0.118 C 
BRANCH  24  25
ATOM     25  N   UNL A   1      38.286  22.867  25.579  1.00  0.00    -0.352 N 
ATOM     26  C   UNL A   1      39.452  23.159  26.251  1.00  0.00     0.251 C 
ATOM     27  H   UNL A   1      38.212  21.936  25.266  1.00  0.00     0.163 HD
ATOM     28  O   UNL A   1      40.374  22.356  26.259  1.00  0.00    -0.269 OA
BRANCH  26  29
ATOM     29  C   UNL A   1      39.591  24.465  26.930  1.00  0.00     0.039 A 
ATOM     30  C   UNL A   1      39.129  24.615  28.239  1.00  0.00     0.014 A 
ATOM     31  C   UNL A   1      40.220  25.528  26.282  1.00  0.00     0.014 A 
ATOM     32  C   UNL A   1      39.402  25.797  28.932  1.00  0.00     0.010 A 
ATOM     33  C   UNL A   1      40.601  26.645  27.011  1.00  0.00     0.010 A 
ATOM     34  C   UNL A   1      40.196  26.796  28.344  1.00  0.00    -0.014 A 
BRANCH  34  35
ATOM     35  C   UNL A   1      40.618  28.012  29.087  1.00  0.00     0.031 A 
ATOM     36  C   UNL A   1      41.971  28.048  29.751  1.00  0.00     0.074 A 
ATOM     37  C   UNL A   1      39.753  29.031  29.256  1.00  0.00     0.049 A 
ATOM     38  N   UNL A   1      42.467  28.939  30.569  1.00  0.00    -0.248 NA
ATOM     39  C   UNL A   1      42.863  26.903  29.501  1.00  0.00     0.031 C 
ATOM     40  C   UNL A   1      38.387  29.087  28.726  1.00  0.00     0.029 A 
ATOM     41  N   UNL A   1      39.887  30.215  29.938  1.00  0.00    -0.354 N 
ATOM     42  C   UNL A   1      43.707  28.444  30.958  1.00  0.00     0.074 A 
ATOM     43  C   UNL A   1      43.860  27.148  30.337  1.00  0.00     0.031 C 
ATOM     44  C   UNL A   1      37.825  30.256  29.072  1.00  0.00     0.029 A 
ATOM     45  C   UNL A   1      38.769  31.015  29.885  1.00  0.00     0.049 A 
ATOM     46  H   UNL A   1      40.706  30.468  30.421  1.00  0.00     0.167 HD
ATOM     47  C   UNL A   1      44.647  29.030  31.736  1.00  0.00     0.037 A 
ATOM     48  C   UNL A   1      38.531  32.222  30.432  1.00  0.00     0.037 A 
ATOM     49  C   UNL A   1      44.515  30.347  32.298  1.00  0.00     0.049 A 
ATOM     50  C   UNL A   1      39.611  32.877  31.250  1.00  0.00     0.074 A 
ATOM     51  C   UNL A   1      45.438  31.067  33.035  1.00  0.00     0.029 A 
ATOM     52  N   UNL A   1      43.390  31.150  32.169  1.00  0.00    -0.354 N 
ATOM     53  N   UNL A   1      40.799  32.418  31.561  1.00  0.00    -0.248 NA
ATOM     54  C   UNL A   1      39.321  34.215  31.783  1.00  0.00     0.031 C 
ATOM     55  C   UNL A   1      44.861  32.295  33.374  1.00  0.00     0.029 A 
ATOM     56  C   UNL A   1      43.593  32.355  32.818  1.00  0.00     0.049 A 
ATOM     57  H   UNL A   1      42.569  30.898  31.687  1.00  0.00     0.167 HD
ATOM     58  C   UNL A   1      41.408  33.421  32.308  1.00  0.00     0.074 A 
ATOM     59  C   UNL A   1      40.461  34.514  32.390  1.00  0.00     0.031 C 
ATOM     60  C   UNL A   1      42.640  33.435  32.875  1.00  0.00     0.037 A 
BRANCH  47  61
ATOM     61  C   UNL A   1      45.907  28.255  32.002  1.00  0.00     0.058 A 
ATOM     62  C   UNL A   1      47.063  28.442  31.225  1.00  0.00     0.135 A 
ATOM     63  C   UNL A   1      45.967  27.321  33.048  1.00  0.00     0.135 A 
ATOM     64  F   UNL A   1      47.056  29.309  30.200  1.00  0.00    -0.206 F 
ATOM     65  C   UNL A   1      48.219  27.703  31.449  1.00  0.00     0.059 A 
ATOM     66  C   UNL A   1      47.124  26.591  33.310  1.00  0.00     0.059 A 
ATOM     67  F   UNL A   1      44.893  27.102  33.822  1.00  0.00    -0.206 F 
ATOM     68  C   UNL A   1      48.238  26.776  32.493  1.00  0.00     0.060 A 
BRANCH  68  69
ATOM     69  S   UNL A   1      49.744  25.819  32.768  1.00  0.00     0.124 S 
ATOM     70  O   UNL A   1      49.551  25.362  34.141  1.00  0.00    -0.237 OA
ATOM     71  O   UNL A   1      49.654  24.789  31.739  1.00  0.00    -0.237 OA
ATOM     72  O   UNL A   1      50.808  26.800  32.576  1.00  0.00    -0.744 OA
ENDBRANCH  68  69
ENDBRANCH  47  61
BRANCH  48  73
ATOM     73  C   UNL A   1      37.233  32.906  30.192  1.00  0.00     0.058 A 
ATOM     74  C   UNL A   1      36.186  32.799  31.119  1.00  0.00     0.135 A 
ATOM     75  C   UNL A   1      37.016  33.692  29.051  1.00  0.00     0.135 A 
ATOM     76  F   UNL A   1      36.344  32.055  32.225  1.00  0.00    -0.206 F 
ATOM     77  C   UNL A   1      34.964  33.431  30.917  1.00  0.00     0.059 A 
ATOM     78  C   UNL A   1      35.811  34.353  28.836  1.00  0.00     0.059 A 
ATOM     79  F   UNL A   1      37.994  33.844  28.143  1.00  0.00    -0.206 F 
ATOM     80  C   UNL A   1      34.787  34.209  29.772  1.00  0.00     0.060 A 
BRANCH  80  81
ATOM     81  S   UNL A   1      33.214  35.069  29.543  1.00  0.00     0.124 S 
ATOM     82  O   UNL A   1      33.663  36.401  29.154  1.00  0.00    -0.237 OA
ATOM     83  O   UNL A   1      32.580  34.275  28.494  1.00  0.00    -0.237 OA
ATOM     84  O   UNL A   1      32.587  34.971  30.857  1.00  0.00    -0.744 OA
ENDBRANCH  80  81
ENDBRANCH  48  73
BRANCH  60  85
ATOM     85  C   UNL A   1      43.049  34.682  33.603  1.00  0.00     0.058 A 
ATOM     86  C   UNL A   1      42.936  34.789  34.997  1.00  0.00     0.135 A 
ATOM     87  C   UNL A   1      43.613  35.761  32.902  1.00  0.00     0.135 A 
ATOM     88  F   UNL A   1      42.397  33.789  35.710  1.00  0.00    -0.206 F 
ATOM     89  C   UNL A   1      43.354  35.932  35.671  1.00  0.00     0.059 A 
ATOM     90  C   UNL A   1      44.058  36.902  33.558  1.00  0.00     0.059 A 
ATOM     91  F   UNL A   1      43.751  35.701  31.567  1.00  0.00    -0.206 F 
ATOM     92  C   UNL A   1      43.914  36.983  34.943  1.00  0.00     0.060 A 
BRANCH  92  93
ATOM     93  S   UNL A   1      44.488  38.445  35.833  1.00  0.00     0.124 S 
ATOM     94  O   UNL A   1      43.845  38.270  37.130  1.00  0.00    -0.237 OA
ATOM     95  O   UNL A   1      45.938  38.274  35.814  1.00  0.00    -0.237 OA
ATOM     96  O   UNL A   1      43.985  39.552  35.025  1.00  0.00    -0.744 OA
ENDBRANCH  92  93
ENDBRANCH  60  85
ENDBRANCH  34  35
ENDBRANCH  26  29
ENDBRANCH  24  25
ENDBRANCH   1  24
TORSDOF 17
ENDMDL
