MODEL 1
REMARK VINA RESULT:     -11.3      0.000      0.000
REMARK SMILES CCCC[C@@H](Sc1nc(OCCC2CCCCC2)cc(OCCC2CCCCC2)n1)C(=O)NCCCNC(=O)c1ccc(-c2c3nc(c(-c4c(F)cc(S(=O)(=O)[O-])cc4F)c4ccc([nH]4)c(-c4c(F)cc(S(=O)(=O)[O-])cc4F)c4nc(c(-c5c(F)cc(S(=O)(=O)[O-])cc5F)c5ccc2[nH]5)C=C4)C=C3)cc1
REMARK SMILES IDX 31 1 32 2 33 3 5 5 4 6 3 7 2 8 1 9 6 10 7 11 8 12 30 13 9 14
REMARK SMILES IDX 20 15 19 16 10 17 11 18 12 19 13 20 14 21 18 22 15 23 17 24
REMARK SMILES IDX 16 25 21 26 22 27 23 28 24 29 25 30 29 31 26 32 28 33 27 34
REMARK SMILES IDX 34 35 35 36 36 37 37 38 38 39 39 41 40 42 41 43 105 44 42 45
REMARK SMILES IDX 104 46 43 47 44 48 45 49 98 50 46 51 103 52 97 53 99 54
REMARK SMILES IDX 47 55 102 56 96 57 95 58 48 60 82 61 61 62 81 63 62 64 65 65
REMARK SMILES IDX 80 66 100 67 63 68 64 69 79 71 101 72 66 73 49 74 50 75
REMARK SMILES IDX 59 76 51 77 52 78 58 79 60 80 53 81 54 82 55 83 56 84 57 85
REMARK SMILES IDX 83 86 84 87 93 88 85 89 86 90 92 91 94 92 87 93 88 94 89 95
REMARK SMILES IDX 90 96 91 97 67 98 68 99 77 100 69 101 70 102 76 103 78 104
REMARK SMILES IDX 71 105 72 106 73 107 74 108 75 109
REMARK H PARENT 33 4 37 40 99 59 65 70
REMARK Flexibility Score: inf
ROOT
ATOM      1  C   UNL A   1      31.525  27.202  22.859  1.00  0.00     0.233 C 
ATOM      2  O   UNL A   1      31.091  27.234  21.706  1.00  0.00    -0.274 OA
ATOM      3  N   UNL A   1      32.797  26.732  23.059  1.00  0.00    -0.355 N 
ATOM      4  H   UNL A   1      33.263  26.431  22.245  1.00  0.00     0.163 HD
ENDROOT
BRANCH   1   5
ATOM      5  C   UNL A   1      30.666  27.652  24.054  1.00  0.00     0.144 C 
BRANCH   5   6
ATOM      6  C   UNL A   1      30.322  29.148  23.820  1.00  0.00     0.025 C 
BRANCH   6   7
ATOM      7  C   UNL A   1      29.150  29.537  22.921  1.00  0.00     0.001 C 
BRANCH   7   8
ATOM      8  C   UNL A   1      28.282  30.700  23.402  1.00  0.00    -0.003 C 
ATOM      9  C   UNL A   1      28.187  31.847  22.412  1.00  0.00     0.004 C 
ENDBRANCH   7   8
ENDBRANCH   6   7
ENDBRANCH   5   6
BRANCH   5  10
ATOM     10  S   UNL A   1      29.385  26.295  24.194  1.00  0.00    -0.073 SA
BRANCH  10  11
ATOM     11  C   UNL A   1      30.346  24.866  24.477  1.00  0.00     0.195 A 
ATOM     12  N   UNL A   1      30.741  24.638  25.738  1.00  0.00    -0.187 NA
ATOM     13  N   UNL A   1      30.630  24.102  23.429  1.00  0.00    -0.187 NA
ATOM     14  C   UNL A   1      31.602  23.635  25.932  1.00  0.00     0.221 A 
ATOM     15  C   UNL A   1      31.518  23.135  23.637  1.00  0.00     0.221 A 
ATOM     16  C   UNL A   1      32.099  22.930  24.866  1.00  0.00     0.136 A 
BRANCH  14  17
ATOM     17  O   UNL A   1      31.789  23.345  27.254  1.00  0.00    -0.477 OA
BRANCH  17  18
ATOM     18  C   UNL A   1      32.819  22.488  27.739  1.00  0.00     0.231 C 
BRANCH  18  19
ATOM     19  C   UNL A   1      34.297  22.947  27.614  1.00  0.00     0.045 C 
BRANCH  19  20
ATOM     20  C   UNL A   1      34.970  22.741  26.257  1.00  0.00    -0.008 C 
ATOM     21  C   UNL A   1      35.927  23.850  25.803  1.00  0.00     0.004 C 
ATOM     22  C   UNL A   1      35.690  21.394  26.156  1.00  0.00     0.004 C 
ATOM     23  C   UNL A   1      36.318  23.608  24.334  1.00  0.00     0.000 C 
ATOM     24  C   UNL A   1      35.985  21.089  24.695  1.00  0.00     0.000 C 
ATOM     25  C   UNL A   1      36.827  22.188  24.056  1.00  0.00     0.000 C 
ENDBRANCH  19  20
ENDBRANCH  18  19
ENDBRANCH  17  18
ENDBRANCH  14  17
BRANCH  15  26
ATOM     26  O   UNL A   1      31.858  22.495  22.482  1.00  0.00    -0.477 OA
BRANCH  26  27
ATOM     27  C   UNL A   1      31.855  21.076  22.435  1.00  0.00     0.231 C 
BRANCH  27  28
ATOM     28  C   UNL A   1      32.688  20.466  23.579  1.00  0.00     0.045 C 
BRANCH  28  29
ATOM     29  C   UNL A   1      32.469  18.966  23.920  1.00  0.00    -0.008 C 
ATOM     30  C   UNL A   1      33.152  18.028  22.908  1.00  0.00     0.004 C 
ATOM     31  C   UNL A   1      32.724  18.684  25.409  1.00  0.00     0.004 C 
ATOM     32  C   UNL A   1      33.561  16.637  23.380  1.00  0.00     0.000 C 
ATOM     33  C   UNL A   1      32.913  17.212  25.744  1.00  0.00     0.000 C 
ATOM     34  C   UNL A   1      33.943  16.566  24.841  1.00  0.00     0.000 C 
ENDBRANCH  28  29
ENDBRANCH  27  28
ENDBRANCH  26  27
ENDBRANCH  15  26
ENDBRANCH  10  11
ENDBRANCH   5  10
ENDBRANCH   1   5
BRANCH   3  35
ATOM     35  C   UNL A   1      33.565  26.613  24.293  1.00  0.00     0.117 C 
BRANCH  35  36
ATOM     36  C   UNL A   1      34.093  27.958  24.756  1.00  0.00     0.042 C 
BRANCH  36  37
ATOM     37  C   UNL A   1      34.110  28.074  26.268  1.00  0.00     0.118 C 
BRANCH  37  38
ATOM     38  N   UNL A   1      33.621  29.371  26.721  1.00  0.00    -0.352 N 
ATOM     39  C   UNL A   1      34.197  30.256  27.601  1.00  0.00     0.251 C 
ATOM     40  H   UNL A   1      32.756  29.653  26.343  1.00  0.00     0.163 HD
ATOM     41  O   UNL A   1      33.554  31.189  28.048  1.00  0.00    -0.269 OA
BRANCH  39  42
ATOM     42  C   UNL A   1      35.601  30.039  28.002  1.00  0.00     0.039 A 
ATOM     43  C   UNL A   1      35.877  29.555  29.279  1.00  0.00     0.014 A 
ATOM     44  C   UNL A   1      36.633  30.281  27.091  1.00  0.00     0.014 A 
ATOM     45  C   UNL A   1      37.195  29.253  29.622  1.00  0.00     0.010 A 
ATOM     46  C   UNL A   1      37.923  29.877  27.394  1.00  0.00     0.010 A 
ATOM     47  C   UNL A   1      38.220  29.374  28.669  1.00  0.00    -0.014 A 
BRANCH  47  48
ATOM     48  C   UNL A   1      39.623  29.015  28.987  1.00  0.00     0.031 A 
ATOM     49  C   UNL A   1      40.521  30.041  29.623  1.00  0.00     0.074 A 
ATOM     50  C   UNL A   1      40.095  27.798  28.653  1.00  0.00     0.049 A 
ATOM     51  N   UNL A   1      41.799  29.966  29.891  1.00  0.00    -0.248 NA
ATOM     52  C   UNL A   1      39.912  31.337  29.974  1.00  0.00     0.031 C 
ATOM     53  C   UNL A   1      39.325  26.739  27.995  1.00  0.00     0.029 A 
ATOM     54  N   UNL A   1      41.341  27.248  28.812  1.00  0.00    -0.354 N 
ATOM     55  C   UNL A   1      42.141  31.196  30.440  1.00  0.00     0.074 A 
ATOM     56  C   UNL A   1      40.960  32.028  30.396  1.00  0.00     0.031 C 
ATOM     57  C   UNL A   1      40.106  25.659  27.836  1.00  0.00     0.029 A 
ATOM     58  C   UNL A   1      41.443  25.963  28.334  1.00  0.00     0.049 A 
ATOM     59  H   UNL A   1      42.091  27.728  29.230  1.00  0.00     0.167 HD
ATOM     60  C   UNL A   1      43.324  31.584  30.969  1.00  0.00     0.037 A 
ATOM     61  C   UNL A   1      42.502  25.130  28.295  1.00  0.00     0.037 A 
ATOM     62  C   UNL A   1      44.487  30.742  31.031  1.00  0.00     0.049 A 
ATOM     63  C   UNL A   1      43.818  25.604  28.855  1.00  0.00     0.074 A 
ATOM     64  C   UNL A   1      45.730  31.028  31.567  1.00  0.00     0.029 A 
ATOM     65  N   UNL A   1      44.548  29.442  30.548  1.00  0.00    -0.354 N 
ATOM     66  N   UNL A   1      44.112  26.756  29.412  1.00  0.00    -0.248 NA
ATOM     67  C   UNL A   1      44.946  24.665  28.787  1.00  0.00     0.031 C 
ATOM     68  C   UNL A   1      46.555  29.918  31.372  1.00  0.00     0.029 A 
ATOM     69  C   UNL A   1      45.811  28.918  30.763  1.00  0.00     0.049 A 
ATOM     70  H   UNL A   1      43.804  28.964  30.116  1.00  0.00     0.167 HD
ATOM     71  C   UNL A   1      45.445  26.662  29.797  1.00  0.00     0.074 A 
ATOM     72  C   UNL A   1      45.896  25.339  29.420  1.00  0.00     0.031 C 
ATOM     73  C   UNL A   1      46.228  27.586  30.407  1.00  0.00     0.037 A 
BRANCH  60  74
ATOM     74  C   UNL A   1      43.411  32.968  31.552  1.00  0.00     0.058 A 
ATOM     75  C   UNL A   1      43.175  33.202  32.916  1.00  0.00     0.135 A 
ATOM     76  C   UNL A   1      43.790  34.060  30.757  1.00  0.00     0.135 A 
ATOM     77  F   UNL A   1      42.788  32.197  33.718  1.00  0.00    -0.206 F 
ATOM     78  C   UNL A   1      43.299  34.472  33.469  1.00  0.00     0.059 A 
ATOM     79  C   UNL A   1      43.949  35.335  31.295  1.00  0.00     0.059 A 
ATOM     80  F   UNL A   1      44.019  33.895  29.445  1.00  0.00    -0.206 F 
ATOM     81  C   UNL A   1      43.695  35.531  32.652  1.00  0.00     0.060 A 
BRANCH  81  82
ATOM     82  S   UNL A   1      43.892  37.162  33.398  1.00  0.00     0.124 S 
ATOM     83  O   UNL A   1      43.912  38.022  32.217  1.00  0.00    -0.237 OA
ATOM     84  O   UNL A   1      42.702  37.265  34.236  1.00  0.00    -0.237 OA
ATOM     85  O   UNL A   1      45.156  37.057  34.118  1.00  0.00    -0.744 OA
ENDBRANCH  81  82
ENDBRANCH  60  74
BRANCH  61  86
ATOM     86  C   UNL A   1      42.373  23.763  27.718  1.00  0.00     0.058 A 
ATOM     87  C   UNL A   1      42.308  22.633  28.548  1.00  0.00     0.135 A 
ATOM     88  C   UNL A   1      42.355  23.553  26.331  1.00  0.00     0.135 A 
ATOM     89  F   UNL A   1      42.322  22.779  29.882  1.00  0.00    -0.206 F 
ATOM     90  C   UNL A   1      42.277  21.344  28.026  1.00  0.00     0.059 A 
ATOM     91  C   UNL A   1      42.291  22.276  25.784  1.00  0.00     0.059 A 
ATOM     92  F   UNL A   1      42.392  24.599  25.490  1.00  0.00    -0.206 F 
ATOM     93  C   UNL A   1      42.277  21.176  26.641  1.00  0.00     0.060 A 
BRANCH  93  94
ATOM     94  S   UNL A   1      42.250  19.499  25.971  1.00  0.00     0.124 S 
ATOM     95  O   UNL A   1      42.701  18.719  27.118  1.00  0.00    -0.237 OA
ATOM     96  O   UNL A   1      40.847  19.339  25.601  1.00  0.00    -0.237 OA
ATOM     97  O   UNL A   1      43.182  19.570  24.849  1.00  0.00    -0.744 OA
ENDBRANCH  93  94
ENDBRANCH  61  86
BRANCH  73  98
ATOM     98  C   UNL A   1      47.631  27.181  30.763  1.00  0.00     0.058 A 
ATOM     99  C   UNL A   1      47.918  26.435  31.915  1.00  0.00     0.135 A 
ATOM    100  C   UNL A   1      48.696  27.495  29.902  1.00  0.00     0.135 A 
ATOM    101  F   UNL A   1      46.938  26.114  32.775  1.00  0.00    -0.206 F 
ATOM    102  C   UNL A   1      49.216  26.032  32.216  1.00  0.00     0.059 A 
ATOM    103  C   UNL A   1      49.995  27.076  30.165  1.00  0.00     0.059 A 
ATOM    104  F   UNL A   1      48.475  28.198  28.780  1.00  0.00    -0.206 F 
ATOM    105  C   UNL A   1      50.248  26.354  31.330  1.00  0.00     0.060 A 
BRANCH 105 106
ATOM    106  S   UNL A   1      51.918  25.788  31.712  1.00  0.00     0.124 S 
ATOM    107  O   UNL A   1      51.675  24.412  32.130  1.00  0.00    -0.237 OA
ATOM    108  O   UNL A   1      52.601  25.952  30.432  1.00  0.00    -0.237 OA
ATOM    109  O   UNL A   1      52.353  26.699  32.768  1.00  0.00    -0.744 OA
ENDBRANCH 105 106
ENDBRANCH  73  98
ENDBRANCH  47  48
ENDBRANCH  39  42
ENDBRANCH  37  38
ENDBRANCH  36  37
ENDBRANCH  35  36
ENDBRANCH   3  35
TORSDOF 26
ENDMDL
MODEL 2
REMARK VINA RESULT:     -10.6      2.291      3.005
REMARK SMILES CCCC[C@@H](Sc1nc(OCCC2CCCCC2)cc(OCCC2CCCCC2)n1)C(=O)NCCCNC(=O)c1ccc(-c2c3nc(c(-c4c(F)cc(S(=O)(=O)[O-])cc4F)c4ccc([nH]4)c(-c4c(F)cc(S(=O)(=O)[O-])cc4F)c4nc(c(-c5c(F)cc(S(=O)(=O)[O-])cc5F)c5ccc2[nH]5)C=C4)C=C3)cc1
REMARK SMILES IDX 31 1 32 2 33 3 5 5 4 6 3 7 2 8 1 9 6 10 7 11 8 12 30 13 9 14
REMARK SMILES IDX 20 15 19 16 10 17 11 18 12 19 13 20 14 21 18 22 15 23 17 24
REMARK SMILES IDX 16 25 21 26 22 27 23 28 24 29 25 30 29 31 26 32 28 33 27 34
REMARK SMILES IDX 34 35 35 36 36 37 37 38 38 39 39 41 40 42 41 43 105 44 42 45
REMARK SMILES IDX 104 46 43 47 44 48 45 49 98 50 46 51 103 52 97 53 99 54
REMARK SMILES IDX 47 55 102 56 96 57 95 58 48 60 82 61 61 62 81 63 62 64 65 65
REMARK SMILES IDX 80 66 100 67 63 68 64 69 79 71 101 72 66 73 49 74 50 75
REMARK SMILES IDX 59 76 51 77 52 78 58 79 60 80 53 81 54 82 55 83 56 84 57 85
REMARK SMILES IDX 83 86 84 87 93 88 85 89 86 90 92 91 94 92 87 93 88 94 89 95
REMARK SMILES IDX 90 96 91 97 67 98 68 99 77 100 69 101 70 102 76 103 78 104
REMARK SMILES IDX 71 105 72 106 73 107 74 108 75 109
REMARK H PARENT 33 4 37 40 99 59 65 70
REMARK Flexibility Score: inf
ROOT
ATOM      1  C   UNL A   1      31.888  26.711  22.784  1.00  0.00     0.233 C 
ATOM      2  O   UNL A   1      31.715  26.348  21.619  1.00  0.00    -0.274 OA
ATOM      3  N   UNL A   1      33.119  26.506  23.350  1.00  0.00    -0.355 N 
ATOM      4  H   UNL A   1      33.774  26.053  22.771  1.00  0.00     0.163 HD
ENDROOT
BRANCH   1   5
ATOM      5  C   UNL A   1      30.754  27.359  23.600  1.00  0.00     0.144 C 
BRANCH   5   6
ATOM      6  C   UNL A   1      30.439  28.721  22.925  1.00  0.00     0.025 C 
BRANCH   6   7
ATOM      7  C   UNL A   1      29.590  29.762  23.652  1.00  0.00     0.001 C 
BRANCH   7   8
ATOM      8  C   UNL A   1      28.850  30.769  22.772  1.00  0.00    -0.003 C 
ATOM      9  C   UNL A   1      27.841  31.619  23.523  1.00  0.00     0.004 C 
ENDBRANCH   7   8
ENDBRANCH   6   7
ENDBRANCH   5   6
BRANCH   5  10
ATOM     10  S   UNL A   1      29.513  25.971  23.783  1.00  0.00    -0.073 SA
BRANCH  10  11
ATOM     11  C   UNL A   1      30.499  24.613  24.259  1.00  0.00     0.195 A 
ATOM     12  N   UNL A   1      31.027  24.646  25.491  1.00  0.00    -0.187 NA
ATOM     13  N   UNL A   1      30.669  23.638  23.373  1.00  0.00    -0.187 NA
ATOM     14  C   UNL A   1      31.904  23.687  25.801  1.00  0.00     0.221 A 
ATOM     15  C   UNL A   1      31.574  22.717  23.685  1.00  0.00     0.221 A 
ATOM     16  C   UNL A   1      32.284  22.762  24.862  1.00  0.00     0.136 A 
BRANCH  14  17
ATOM     17  O   UNL A   1      32.232  23.677  27.128  1.00  0.00    -0.477 OA
BRANCH  17  18
ATOM     18  C   UNL A   1      33.404  23.057  27.649  1.00  0.00     0.231 C 
BRANCH  18  19
ATOM     19  C   UNL A   1      33.844  21.682  27.077  1.00  0.00     0.045 C 
BRANCH  19  20
ATOM     20  C   UNL A   1      35.224  21.618  26.424  1.00  0.00    -0.008 C 
ATOM     21  C   UNL A   1      35.401  20.565  25.323  1.00  0.00     0.004 C 
ATOM     22  C   UNL A   1      35.686  22.975  25.889  1.00  0.00     0.004 C 
ATOM     23  C   UNL A   1      36.892  20.469  24.953  1.00  0.00     0.000 C 
ATOM     24  C   UNL A   1      37.183  22.929  25.623  1.00  0.00     0.000 C 
ATOM     25  C   UNL A   1      37.538  21.823  24.635  1.00  0.00     0.000 C 
ENDBRANCH  19  20
ENDBRANCH  18  19
ENDBRANCH  17  18
ENDBRANCH  14  17
BRANCH  15  26
ATOM     26  O   UNL A   1      31.789  21.842  22.663  1.00  0.00    -0.477 OA
BRANCH  26  27
ATOM     27  C   UNL A   1      32.520  20.647  22.899  1.00  0.00     0.231 C 
BRANCH  27  28
ATOM     28  C   UNL A   1      31.889  19.807  24.026  1.00  0.00     0.045 C 
BRANCH  28  29
ATOM     29  C   UNL A   1      32.304  18.313  24.140  1.00  0.00    -0.008 C 
ATOM     30  C   UNL A   1      33.218  17.867  22.984  1.00  0.00     0.004 C 
ATOM     31  C   UNL A   1      32.764  17.964  25.563  1.00  0.00     0.004 C 
ATOM     32  C   UNL A   1      34.174  16.707  23.231  1.00  0.00     0.000 C 
ATOM     33  C   UNL A   1      33.541  16.660  25.668  1.00  0.00     0.000 C 
ATOM     34  C   UNL A   1      34.667  16.603  24.657  1.00  0.00     0.000 C 
ENDBRANCH  28  29
ENDBRANCH  27  28
ENDBRANCH  26  27
ENDBRANCH  15  26
ENDBRANCH  10  11
ENDBRANCH   5  10
ENDBRANCH   1   5
BRANCH   3  35
ATOM     35  C   UNL A   1      33.606  26.858  24.678  1.00  0.00     0.117 C 
BRANCH  35  36
ATOM     36  C   UNL A   1      34.030  28.313  24.752  1.00  0.00     0.042 C 
BRANCH  36  37
ATOM     37  C   UNL A   1      34.386  28.733  26.166  1.00  0.00     0.118 C 
BRANCH  37  38
ATOM     38  N   UNL A   1      33.898  30.071  26.476  1.00  0.00    -0.352 N 
ATOM     39  C   UNL A   1      34.292  30.928  27.475  1.00  0.00     0.251 C 
ATOM     40  H   UNL A   1      33.184  30.409  25.886  1.00  0.00     0.163 HD
ATOM     41  O   UNL A   1      33.628  31.916  27.740  1.00  0.00    -0.269 OA
BRANCH  39  42
ATOM     42  C   UNL A   1      35.523  30.616  28.227  1.00  0.00     0.039 A 
ATOM     43  C   UNL A   1      35.483  29.645  29.226  1.00  0.00     0.014 A 
ATOM     44  C   UNL A   1      36.720  31.264  27.907  1.00  0.00     0.014 A 
ATOM     45  C   UNL A   1      36.667  29.278  29.865  1.00  0.00     0.010 A 
ATOM     46  C   UNL A   1      37.909  30.819  28.463  1.00  0.00     0.010 A 
ATOM     47  C   UNL A   1      37.893  29.833  29.460  1.00  0.00    -0.014 A 
BRANCH  47  48
ATOM     48  C   UNL A   1      39.174  29.428  30.085  1.00  0.00     0.031 A 
ATOM     49  C   UNL A   1      39.665  30.162  31.304  1.00  0.00     0.074 A 
ATOM     50  C   UNL A   1      39.912  28.449  29.527  1.00  0.00     0.049 A 
ATOM     51  N   UNL A   1      40.798  30.034  31.943  1.00  0.00    -0.248 NA
ATOM     52  C   UNL A   1      38.780  31.203  31.859  1.00  0.00     0.031 C 
ATOM     53  C   UNL A   1      39.553  27.697  28.321  1.00  0.00     0.029 A 
ATOM     54  N   UNL A   1      41.124  27.923  29.894  1.00  0.00    -0.354 N 
ATOM     55  C   UNL A   1      40.760  30.970  32.970  1.00  0.00     0.074 A 
ATOM     56  C   UNL A   1      39.530  31.714  32.823  1.00  0.00     0.031 C 
ATOM     57  C   UNL A   1      40.508  26.788  28.068  1.00  0.00     0.029 A 
ATOM     58  C   UNL A   1      41.568  26.923  29.061  1.00  0.00     0.049 A 
ATOM     59  H   UNL A   1      41.628  28.231  30.681  1.00  0.00     0.167 HD
ATOM     60  C   UNL A   1      41.652  31.166  33.967  1.00  0.00     0.037 A 
ATOM     61  C   UNL A   1      42.708  26.205  29.093  1.00  0.00     0.037 A 
ATOM     62  C   UNL A   1      42.862  30.404  34.119  1.00  0.00     0.049 A 
ATOM     63  C   UNL A   1      43.703  26.474  30.192  1.00  0.00     0.074 A 
ATOM     64  C   UNL A   1      43.824  30.506  35.107  1.00  0.00     0.029 A 
ATOM     65  N   UNL A   1      43.271  29.392  33.262  1.00  0.00    -0.354 N 
ATOM     66  N   UNL A   1      43.629  27.334  31.181  1.00  0.00    -0.248 NA
ATOM     67  C   UNL A   1      44.934  25.672  30.185  1.00  0.00     0.031 C 
ATOM     68  C   UNL A   1      44.836  29.584  34.826  1.00  0.00     0.029 A 
ATOM     69  C   UNL A   1      44.478  28.869  33.693  1.00  0.00     0.049 A 
ATOM     70  H   UNL A   1      42.777  29.091  32.466  1.00  0.00     0.167 HD
ATOM     71  C   UNL A   1      44.783  27.145  31.935  1.00  0.00     0.074 A 
ATOM     72  C   UNL A   1      45.530  26.084  31.294  1.00  0.00     0.031 C 
ATOM     73  C   UNL A   1      45.189  27.791  33.056  1.00  0.00     0.037 A 
BRANCH  60  74
ATOM     74  C   UNL A   1      41.339  32.223  34.991  1.00  0.00     0.058 A 
ATOM     75  C   UNL A   1      41.860  33.522  34.883  1.00  0.00     0.135 A 
ATOM     76  C   UNL A   1      40.465  31.955  36.056  1.00  0.00     0.135 A 
ATOM     77  F   UNL A   1      42.719  33.827  33.896  1.00  0.00    -0.206 F 
ATOM     78  C   UNL A   1      41.537  34.514  35.801  1.00  0.00     0.059 A 
ATOM     79  C   UNL A   1      40.103  32.942  36.970  1.00  0.00     0.059 A 
ATOM     80  F   UNL A   1      39.944  30.728  36.212  1.00  0.00    -0.206 F 
ATOM     81  C   UNL A   1      40.651  34.217  36.836  1.00  0.00     0.060 A 
BRANCH  81  82
ATOM     82  S   UNL A   1      40.211  35.531  37.992  1.00  0.00     0.124 S 
ATOM     83  O   UNL A   1      39.065  34.943  38.680  1.00  0.00    -0.237 OA
ATOM     84  O   UNL A   1      41.427  35.664  38.788  1.00  0.00    -0.237 OA
ATOM     85  O   UNL A   1      39.906  36.663  37.123  1.00  0.00    -0.744 OA
ENDBRANCH  81  82
ENDBRANCH  60  74
BRANCH  61  86
ATOM     86  C   UNL A   1      42.978  25.161  28.066  1.00  0.00     0.058 A 
ATOM     87  C   UNL A   1      42.640  23.819  28.297  1.00  0.00     0.135 A 
ATOM     88  C   UNL A   1      43.614  25.472  26.855  1.00  0.00     0.135 A 
ATOM     89  F   UNL A   1      42.029  23.468  29.440  1.00  0.00    -0.206 F 
ATOM     90  C   UNL A   1      42.964  22.817  27.388  1.00  0.00     0.059 A 
ATOM     91  C   UNL A   1      43.920  24.493  25.915  1.00  0.00     0.059 A 
ATOM     92  F   UNL A   1      43.940  26.743  26.571  1.00  0.00    -0.206 F 
ATOM     93  C   UNL A   1      43.612  23.163  26.203  1.00  0.00     0.060 A 
BRANCH  93  94
ATOM     94  S   UNL A   1      44.040  21.855  25.034  1.00  0.00     0.124 S 
ATOM     95  O   UNL A   1      43.038  20.843  25.348  1.00  0.00    -0.237 OA
ATOM     96  O   UNL A   1      43.887  22.529  23.749  1.00  0.00    -0.237 OA
ATOM     97  O   UNL A   1      45.414  21.518  25.397  1.00  0.00    -0.744 OA
ENDBRANCH  93  94
ENDBRANCH  61  86
BRANCH  73  98
ATOM     98  C   UNL A   1      46.467  27.328  33.699  1.00  0.00     0.058 A 
ATOM     99  C   UNL A   1      47.710  27.884  33.362  1.00  0.00     0.135 A 
ATOM    100  C   UNL A   1      46.435  26.357  34.713  1.00  0.00     0.135 A 
ATOM    101  F   UNL A   1      47.796  28.811  32.394  1.00  0.00    -0.206 F 
ATOM    102  C   UNL A   1      48.882  27.477  33.990  1.00  0.00     0.059 A 
ATOM    103  C   UNL A   1      47.590  25.958  35.378  1.00  0.00     0.059 A 
ATOM    104  F   UNL A   1      45.271  25.801  35.082  1.00  0.00    -0.206 F 
ATOM    105  C   UNL A   1      48.811  26.516  35.002  1.00  0.00     0.060 A 
BRANCH 105 106
ATOM    106  S   UNL A   1      50.334  26.029  35.838  1.00  0.00     0.124 S 
ATOM    107  O   UNL A   1      50.407  27.010  36.914  1.00  0.00    -0.237 OA
ATOM    108  O   UNL A   1      50.039  24.658  36.247  1.00  0.00    -0.237 OA
ATOM    109  O   UNL A   1      51.350  26.160  34.797  1.00  0.00    -0.744 OA
ENDBRANCH 105 106
ENDBRANCH  73  98
ENDBRANCH  47  48
ENDBRANCH  39  42
ENDBRANCH  37  38
ENDBRANCH  36  37
ENDBRANCH  35  36
ENDBRANCH   3  35
TORSDOF 26
ENDMDL
MODEL 3
REMARK VINA RESULT:     -10.2      2.339      7.926
REMARK SMILES CCCC[C@@H](Sc1nc(OCCC2CCCCC2)cc(OCCC2CCCCC2)n1)C(=O)NCCCNC(=O)c1ccc(-c2c3nc(c(-c4c(F)cc(S(=O)(=O)[O-])cc4F)c4ccc([nH]4)c(-c4c(F)cc(S(=O)(=O)[O-])cc4F)c4nc(c(-c5c(F)cc(S(=O)(=O)[O-])cc5F)c5ccc2[nH]5)C=C4)C=C3)cc1
REMARK SMILES IDX 31 1 32 2 33 3 5 5 4 6 3 7 2 8 1 9 6 10 7 11 8 12 30 13 9 14
REMARK SMILES IDX 20 15 19 16 10 17 11 18 12 19 13 20 14 21 18 22 15 23 17 24
REMARK SMILES IDX 16 25 21 26 22 27 23 28 24 29 25 30 29 31 26 32 28 33 27 34
REMARK SMILES IDX 34 35 35 36 36 37 37 38 38 39 39 41 40 42 41 43 105 44 42 45
REMARK SMILES IDX 104 46 43 47 44 48 45 49 98 50 46 51 103 52 97 53 99 54
REMARK SMILES IDX 47 55 102 56 96 57 95 58 48 60 82 61 61 62 81 63 62 64 65 65
REMARK SMILES IDX 80 66 100 67 63 68 64 69 79 71 101 72 66 73 49 74 50 75
REMARK SMILES IDX 59 76 51 77 52 78 58 79 60 80 53 81 54 82 55 83 56 84 57 85
REMARK SMILES IDX 83 86 84 87 93 88 85 89 86 90 92 91 94 92 87 93 88 94 89 95
REMARK SMILES IDX 90 96 91 97 67 98 68 99 77 100 69 101 70 102 76 103 78 104
REMARK SMILES IDX 71 105 72 106 73 107 74 108 75 109
REMARK H PARENT 33 4 37 40 99 59 65 70
REMARK Flexibility Score: inf
ROOT
ATOM      1  C   UNL A   1      31.772  27.132  22.830  1.00  0.00     0.233 C 
ATOM      2  O   UNL A   1      31.375  27.019  21.668  1.00  0.00    -0.274 OA
ATOM      3  N   UNL A   1      33.052  26.737  23.117  1.00  0.00    -0.355 N 
ATOM      4  H   UNL A   1      33.555  26.365  22.357  1.00  0.00     0.163 HD
ENDROOT
BRANCH   1   5
ATOM      5  C   UNL A   1      30.858  27.680  23.941  1.00  0.00     0.144 C 
BRANCH   5   6
ATOM      6  C   UNL A   1      30.623  29.182  23.628  1.00  0.00     0.025 C 
BRANCH   6   7
ATOM      7  C   UNL A   1      29.208  29.709  23.398  1.00  0.00     0.001 C 
BRANCH   7   8
ATOM      8  C   UNL A   1      29.059  30.823  22.362  1.00  0.00    -0.003 C 
ATOM      9  C   UNL A   1      28.182  30.450  21.179  1.00  0.00     0.004 C 
ENDBRANCH   7   8
ENDBRANCH   6   7
ENDBRANCH   5   6
BRANCH   5  10
ATOM     10  S   UNL A   1      29.491  26.406  24.035  1.00  0.00    -0.073 SA
BRANCH  10  11
ATOM     11  C   UNL A   1      30.344  24.929  24.400  1.00  0.00     0.195 A 
ATOM     12  N   UNL A   1      30.899  24.830  25.617  1.00  0.00    -0.187 NA
ATOM     13  N   UNL A   1      30.398  24.001  23.451  1.00  0.00    -0.187 NA
ATOM     14  C   UNL A   1      31.682  23.772  25.843  1.00  0.00     0.221 A 
ATOM     15  C   UNL A   1      31.211  22.976  23.682  1.00  0.00     0.221 A 
ATOM     16  C   UNL A   1      31.947  22.876  24.839  1.00  0.00     0.136 A 
BRANCH  14  17
ATOM     17  O   UNL A   1      32.034  23.645  27.158  1.00  0.00    -0.477 OA
BRANCH  17  18
ATOM     18  C   UNL A   1      32.815  22.567  27.666  1.00  0.00     0.231 C 
BRANCH  18  19
ATOM     19  C   UNL A   1      34.334  22.786  27.903  1.00  0.00     0.045 C 
BRANCH  19  20
ATOM     20  C   UNL A   1      35.262  22.510  26.721  1.00  0.00    -0.008 C 
ATOM     21  C   UNL A   1      34.984  21.226  25.929  1.00  0.00     0.004 C 
ATOM     22  C   UNL A   1      35.338  23.687  25.746  1.00  0.00     0.004 C 
ATOM     23  C   UNL A   1      36.142  20.980  24.946  1.00  0.00     0.000 C 
ATOM     24  C   UNL A   1      36.547  23.511  24.838  1.00  0.00     0.000 C 
ATOM     25  C   UNL A   1      36.480  22.193  24.073  1.00  0.00     0.000 C 
ENDBRANCH  19  20
ENDBRANCH  18  19
ENDBRANCH  17  18
ENDBRANCH  14  17
BRANCH  15  26
ATOM     26  O   UNL A   1      31.315  22.151  22.602  1.00  0.00    -0.477 OA
BRANCH  26  27
ATOM     27  C   UNL A   1      32.281  21.111  22.600  1.00  0.00     0.231 C 
BRANCH  27  28
ATOM     28  C   UNL A   1      32.408  20.449  23.986  1.00  0.00     0.045 C 
BRANCH  28  29
ATOM     29  C   UNL A   1      32.376  18.896  24.057  1.00  0.00    -0.008 C 
ATOM     30  C   UNL A   1      33.192  18.239  22.928  1.00  0.00     0.004 C 
ATOM     31  C   UNL A   1      32.637  18.393  25.485  1.00  0.00     0.004 C 
ATOM     32  C   UNL A   1      33.765  16.848  23.173  1.00  0.00     0.000 C 
ATOM     33  C   UNL A   1      33.006  16.919  25.572  1.00  0.00     0.000 C 
ATOM     34  C   UNL A   1      34.126  16.571  24.615  1.00  0.00     0.000 C 
ENDBRANCH  28  29
ENDBRANCH  27  28
ENDBRANCH  26  27
ENDBRANCH  15  26
ENDBRANCH  10  11
ENDBRANCH   5  10
ENDBRANCH   1   5
BRANCH   3  35
ATOM     35  C   UNL A   1      33.783  26.785  24.379  1.00  0.00     0.117 C 
BRANCH  35  36
ATOM     36  C   UNL A   1      34.431  28.139  24.599  1.00  0.00     0.042 C 
BRANCH  36  37
ATOM     37  C   UNL A   1      34.470  28.520  26.067  1.00  0.00     0.118 C 
BRANCH  37  38
ATOM     38  N   UNL A   1      33.848  29.816  26.310  1.00  0.00    -0.352 N 
ATOM     39  C   UNL A   1      34.124  30.740  27.289  1.00  0.00     0.251 C 
ATOM     40  H   UNL A   1      33.128  30.064  25.685  1.00  0.00     0.163 HD
ATOM     41  O   UNL A   1      33.361  31.669  27.495  1.00  0.00    -0.269 OA
BRANCH  39  42
ATOM     42  C   UNL A   1      35.350  30.573  28.092  1.00  0.00     0.039 A 
ATOM     43  C   UNL A   1      35.407  29.557  29.045  1.00  0.00     0.014 A 
ATOM     44  C   UNL A   1      36.452  31.403  27.866  1.00  0.00     0.014 A 
ATOM     45  C   UNL A   1      36.601  29.333  29.730  1.00  0.00     0.010 A 
ATOM     46  C   UNL A   1      37.666  31.108  28.466  1.00  0.00     0.010 A 
ATOM     47  C   UNL A   1      37.749  30.081  29.417  1.00  0.00    -0.014 A 
BRANCH  47  48
ATOM     48  C   UNL A   1      39.045  29.834  30.092  1.00  0.00     0.031 A 
ATOM     49  C   UNL A   1      39.936  28.726  29.597  1.00  0.00     0.074 A 
ATOM     50  C   UNL A   1      39.386  30.562  31.173  1.00  0.00     0.049 A 
ATOM     51  N   UNL A   1      41.057  28.283  30.103  1.00  0.00    -0.248 NA
ATOM     52  C   UNL A   1      39.492  27.998  28.395  1.00  0.00     0.031 C 
ATOM     53  C   UNL A   1      38.580  31.634  31.765  1.00  0.00     0.029 A 
ATOM     54  N   UNL A   1      40.497  30.507  31.974  1.00  0.00    -0.354 N 
ATOM     55  C   UNL A   1      41.450  27.232  29.283  1.00  0.00     0.074 A 
ATOM     56  C   UNL A   1      40.411  27.050  28.294  1.00  0.00     0.031 C 
ATOM     57  C   UNL A   1      39.238  32.153  32.814  1.00  0.00     0.029 A 
ATOM     58  C   UNL A   1      40.486  31.422  33.000  1.00  0.00     0.049 A 
ATOM     59  H   UNL A   1      41.235  29.871  31.828  1.00  0.00     0.167 HD
ATOM     60  C   UNL A   1      42.591  26.507  29.326  1.00  0.00     0.037 A 
ATOM     61  C   UNL A   1      41.381  31.637  33.985  1.00  0.00     0.037 A 
ATOM     62  C   UNL A   1      43.630  26.711  30.299  1.00  0.00     0.049 A 
ATOM     63  C   UNL A   1      42.624  30.788  34.033  1.00  0.00     0.074 A 
ATOM     64  C   UNL A   1      44.839  26.048  30.418  1.00  0.00     0.029 A 
ATOM     65  N   UNL A   1      43.588  27.656  31.314  1.00  0.00    -0.354 N 
ATOM     66  N   UNL A   1      43.000  29.827  33.221  1.00  0.00    -0.248 NA
ATOM     67  C   UNL A   1      43.569  31.054  35.126  1.00  0.00     0.031 C 
ATOM     68  C   UNL A   1      45.509  26.563  31.531  1.00  0.00     0.029 A 
ATOM     69  C   UNL A   1      44.744  27.585  32.072  1.00  0.00     0.049 A 
ATOM     70  H   UNL A   1      42.846  28.283  31.473  1.00  0.00     0.167 HD
ATOM     71  C   UNL A   1      44.243  29.405  33.682  1.00  0.00     0.074 A 
ATOM     72  C   UNL A   1      44.559  30.222  34.835  1.00  0.00     0.031 C 
ATOM     73  C   UNL A   1      45.051  28.430  33.197  1.00  0.00     0.037 A 
BRANCH  60  74
ATOM     74  C   UNL A   1      42.792  25.451  28.275  1.00  0.00     0.058 A 
ATOM     75  C   UNL A   1      43.230  25.780  26.982  1.00  0.00     0.135 A 
ATOM     76  C   UNL A   1      42.603  24.093  28.575  1.00  0.00     0.135 A 
ATOM     77  F   UNL A   1      43.405  27.065  26.634  1.00  0.00    -0.206 F 
ATOM     78  C   UNL A   1      43.461  24.803  26.021  1.00  0.00     0.059 A 
ATOM     79  C   UNL A   1      42.858  23.095  27.637  1.00  0.00     0.059 A 
ATOM     80  F   UNL A   1      42.177  23.722  29.793  1.00  0.00    -0.206 F 
ATOM     81  C   UNL A   1      43.281  23.462  26.361  1.00  0.00     0.060 A 
BRANCH  81  82
ATOM     82  S   UNL A   1      43.628  22.207  25.111  1.00  0.00     0.124 S 
ATOM     83  O   UNL A   1      42.549  21.252  25.350  1.00  0.00    -0.237 OA
ATOM     84  O   UNL A   1      43.535  22.971  23.871  1.00  0.00    -0.237 OA
ATOM     85  O   UNL A   1      44.966  21.740  25.459  1.00  0.00    -0.744 OA
ENDBRANCH  81  82
ENDBRANCH  60  74
BRANCH  61  86
ATOM     86  C   UNL A   1      41.150  32.700  35.002  1.00  0.00     0.058 A 
ATOM     87  C   UNL A   1      41.671  33.991  34.827  1.00  0.00     0.135 A 
ATOM     88  C   UNL A   1      40.444  32.439  36.186  1.00  0.00     0.135 A 
ATOM     89  F   UNL A   1      42.354  34.293  33.712  1.00  0.00    -0.206 F 
ATOM     90  C   UNL A   1      41.542  34.970  35.807  1.00  0.00     0.059 A 
ATOM     91  C   UNL A   1      40.272  33.411  37.167  1.00  0.00     0.059 A 
ATOM     92  F   UNL A   1      39.904  31.227  36.397  1.00  0.00    -0.206 F 
ATOM     93  C   UNL A   1      40.847  34.667  36.978  1.00  0.00     0.060 A 
BRANCH  93  94
ATOM     94  S   UNL A   1      40.694  35.940  38.249  1.00  0.00     0.124 S 
ATOM     95  O   UNL A   1      39.817  36.904  37.594  1.00  0.00    -0.237 OA
ATOM     96  O   UNL A   1      40.110  35.196  39.360  1.00  0.00    -0.237 OA
ATOM     97  O   UNL A   1      42.073  36.378  38.453  1.00  0.00    -0.744 OA
ENDBRANCH  93  94
ENDBRANCH  61  86
BRANCH  73  98
ATOM     98  C   UNL A   1      46.381  28.232  33.870  1.00  0.00     0.058 A 
ATOM     99  C   UNL A   1      47.524  28.945  33.476  1.00  0.00     0.135 A 
ATOM    100  C   UNL A   1      46.495  27.360  34.965  1.00  0.00     0.135 A 
ATOM    101  F   UNL A   1      47.470  29.786  32.431  1.00  0.00    -0.206 F 
ATOM    102  C   UNL A   1      48.741  28.782  34.130  1.00  0.00     0.059 A 
ATOM    103  C   UNL A   1      47.693  27.207  35.654  1.00  0.00     0.059 A 
ATOM    104  F   UNL A   1      45.430  26.663  35.389  1.00  0.00    -0.206 F 
ATOM    105  C   UNL A   1      48.814  27.914  35.222  1.00  0.00     0.060 A 
BRANCH 105 106
ATOM    106  S   UNL A   1      50.389  27.747  36.087  1.00  0.00     0.124 S 
ATOM    107  O   UNL A   1      49.950  27.540  37.462  1.00  0.00    -0.237 OA
ATOM    108  O   UNL A   1      50.983  26.586  35.429  1.00  0.00    -0.237 OA
ATOM    109  O   UNL A   1      51.058  29.018  35.825  1.00  0.00    -0.744 OA
ENDBRANCH 105 106
ENDBRANCH  73  98
ENDBRANCH  47  48
ENDBRANCH  39  42
ENDBRANCH  37  38
ENDBRANCH  36  37
ENDBRANCH  35  36
ENDBRANCH   3  35
TORSDOF 26
ENDMDL
