MODEL 1
REMARK VINA RESULT:     -13.0      0.000      0.000
REMARK SMILES Cc1cc(NC(=O)CCC(=O)NCCCNC(=O)c2ccc(-c3c4nc(c(-c5c(F)cc(S(=O)(=O)[O-])cc5F)c5ccc([nH]5)c(-c5c(F)cc(S(=O)(=O)[O-])cc5F)c5nc(c(-c6c(F)cc(S(=O)(=O)[O-])cc6F)c6ccc3[nH]6)C=C5)C=C4)cc2)ccc1S(=O)(=O)[O-]
REMARK SMILES IDX 13 1 12 2 10 3 11 4 9 6 8 7 6 8 5 9 7 11 4 12 1 13 2 14 3 15
REMARK SMILES IDX 87 16 86 17 85 18 88 19 89 20 90 21 91 22 14 23 15 24 16 25
REMARK SMILES IDX 17 26 18 28 19 29 20 30 84 31 21 32 83 33 22 34 23 35 24 36
REMARK SMILES IDX 77 37 25 38 82 39 76 40 78 41 26 42 81 43 75 44 74 45 27 47
REMARK SMILES IDX 61 48 40 49 60 50 41 51 44 52 59 53 79 54 42 55 43 56 58 58
REMARK SMILES IDX 80 59 45 60 28 61 29 62 38 63 30 64 31 65 37 66 39 67 32 68
REMARK SMILES IDX 33 69 34 70 35 71 36 72 62 73 63 74 72 75 64 76 65 77 71 78
REMARK SMILES IDX 73 79 66 80 67 81 68 82 69 83 70 84 46 85 47 86 56 87 48 88
REMARK SMILES IDX 49 89 55 90 57 91 50 92 51 93 52 94 53 95 54 96
REMARK H PARENT 12 5 5 10 16 27 78 46 44 57
REMARK Flexibility Score: inf
ROOT
ATOM      1  C   UNL A   1      35.772  22.394  25.633  1.00  0.00     0.117 C 
ENDROOT
BRANCH   1   2
ATOM      2  N   UNL A   1      35.303  22.618  24.270  1.00  0.00    -0.356 N 
ATOM      3  C   UNL A   1      34.411  23.523  23.784  1.00  0.00     0.220 C 
ATOM      4  O   UNL A   1      34.423  23.785  22.581  1.00  0.00    -0.275 OA
ATOM      5  H   UNL A   1      35.694  22.018  23.594  1.00  0.00     0.163 HD
BRANCH   3   6
ATOM      6  C   UNL A   1      33.424  24.212  24.697  1.00  0.00     0.110 C 
BRANCH   6   7
ATOM      7  C   UNL A   1      32.289  23.364  25.263  1.00  0.00     0.110 C 
BRANCH   7   8
ATOM      8  C   UNL A   1      31.761  23.719  26.639  1.00  0.00     0.224 C 
ATOM      9  N   UNL A   1      31.095  24.874  26.920  1.00  0.00    -0.326 N 
ATOM     10  H   UNL A   1      30.726  24.910  27.832  1.00  0.00     0.169 HD
ATOM     11  O   UNL A   1      31.893  22.897  27.555  1.00  0.00    -0.275 OA
BRANCH   9  12
ATOM     12  C   UNL A   1      30.835  26.024  26.158  1.00  0.00     0.041 A 
ATOM     13  C   UNL A   1      32.284  29.470  25.624  1.00  0.00     0.046 C 
ATOM     14  C   UNL A   1      31.360  28.306  25.417  1.00  0.00    -0.032 A 
ATOM     15  C   UNL A   1      31.492  27.239  26.333  1.00  0.00     0.030 A 
ATOM     16  C   UNL A   1      30.486  28.134  24.333  1.00  0.00     0.057 A 
ATOM     17  C   UNL A   1      29.720  26.958  24.228  1.00  0.00     0.021 A 
ATOM     18  C   UNL A   1      29.886  25.917  25.142  1.00  0.00     0.027 A 
BRANCH  16  19
ATOM     19  S   UNL A   1      30.265  29.283  22.993  1.00  0.00     0.124 S 
ATOM     20  O   UNL A   1      29.741  30.505  23.539  1.00  0.00    -0.237 OA
ATOM     21  O   UNL A   1      31.489  29.253  22.207  1.00  0.00    -0.237 OA
ATOM     22  O   UNL A   1      29.150  28.703  21.986  1.00  0.00    -0.744 OA
ENDBRANCH  16  19
ENDBRANCH   9  12
ENDBRANCH   7   8
ENDBRANCH   6   7
ENDBRANCH   3   6
ENDBRANCH   1   2
BRANCH   1  23
ATOM     23  C   UNL A   1      36.541  23.557  26.244  1.00  0.00     0.042 C 
BRANCH  23  24
ATOM     24  C   UNL A   1      38.036  23.556  25.966  1.00  0.00     0.118 C 
BRANCH  24  25
ATOM     25  N   UNL A   1      38.887  23.306  27.123  1.00  0.00    -0.352 N 
ATOM     26  C   UNL A   1      40.048  24.048  27.330  1.00  0.00     0.251 C 
ATOM     27  H   UNL A   1      38.638  22.604  27.767  1.00  0.00     0.163 HD
ATOM     28  O   UNL A   1      41.180  23.584  27.336  1.00  0.00    -0.269 OA
BRANCH  26  29
ATOM     29  C   UNL A   1      39.808  25.490  27.557  1.00  0.00     0.039 A 
ATOM     30  C   UNL A   1      40.281  26.436  26.646  1.00  0.00     0.014 A 
ATOM     31  C   UNL A   1      39.337  25.873  28.810  1.00  0.00     0.014 A 
ATOM     32  C   UNL A   1      40.460  27.755  27.067  1.00  0.00     0.010 A 
ATOM     33  C   UNL A   1      39.624  27.135  29.261  1.00  0.00     0.010 A 
ATOM     34  C   UNL A   1      40.220  28.066  28.402  1.00  0.00    -0.014 A 
BRANCH  34  35
ATOM     35  C   UNL A   1      40.469  29.346  29.042  1.00  0.00     0.031 A 
ATOM     36  C   UNL A   1      39.366  30.326  29.095  1.00  0.00     0.074 A 
ATOM     37  C   UNL A   1      41.563  29.481  29.820  1.00  0.00     0.049 A 
ATOM     38  N   UNL A   1      39.468  31.520  29.561  1.00  0.00    -0.248 NA
ATOM     39  C   UNL A   1      38.032  30.025  28.584  1.00  0.00     0.031 C 
ATOM     40  C   UNL A   1      41.759  30.411  30.926  1.00  0.00     0.029 A 
ATOM     41  N   UNL A   1      42.821  28.901  29.631  1.00  0.00    -0.354 N 
ATOM     42  C   UNL A   1      38.203  32.057  29.651  1.00  0.00     0.074 A 
ATOM     43  C   UNL A   1      37.358  31.114  28.960  1.00  0.00     0.031 C 
ATOM     44  C   UNL A   1      43.074  30.549  31.152  1.00  0.00     0.029 A 
ATOM     45  C   UNL A   1      43.765  29.856  30.079  1.00  0.00     0.049 A 
ATOM     46  H   UNL A   1      43.010  28.009  29.261  1.00  0.00     0.167 HD
ATOM     47  C   UNL A   1      38.031  33.190  30.394  1.00  0.00     0.037 A 
ATOM     48  C   UNL A   1      44.610  30.455  29.182  1.00  0.00     0.037 A 
ATOM     49  C   UNL A   1      39.329  33.702  30.836  1.00  0.00     0.049 A 
ATOM     50  C   UNL A   1      44.408  31.951  29.023  1.00  0.00     0.074 A 
ATOM     51  C   UNL A   1      40.082  33.581  31.992  1.00  0.00     0.029 A 
ATOM     52  N   UNL A   1      40.173  34.232  29.883  1.00  0.00    -0.354 N 
ATOM     53  N   UNL A   1      43.467  32.637  29.610  1.00  0.00    -0.248 NA
ATOM     54  C   UNL A   1      45.213  32.781  28.123  1.00  0.00     0.031 C 
ATOM     55  C   UNL A   1      41.413  33.999  31.691  1.00  0.00     0.029 A 
ATOM     56  C   UNL A   1      41.456  34.389  30.364  1.00  0.00     0.049 A 
ATOM     57  H   UNL A   1      39.893  34.469  28.969  1.00  0.00     0.167 HD
ATOM     58  C   UNL A   1      43.458  33.916  29.120  1.00  0.00     0.074 A 
ATOM     59  C   UNL A   1      44.589  33.968  28.213  1.00  0.00     0.031 C 
ATOM     60  C   UNL A   1      42.494  34.824  29.441  1.00  0.00     0.037 A 
BRANCH  47  61
ATOM     61  C   UNL A   1      36.722  33.778  30.882  1.00  0.00     0.058 A 
ATOM     62  C   UNL A   1      35.717  34.118  29.944  1.00  0.00     0.135 A 
ATOM     63  C   UNL A   1      36.392  34.091  32.216  1.00  0.00     0.135 A 
ATOM     64  F   UNL A   1      35.839  33.816  28.644  1.00  0.00    -0.206 F 
ATOM     65  C   UNL A   1      34.542  34.791  30.287  1.00  0.00     0.059 A 
ATOM     66  C   UNL A   1      35.234  34.786  32.582  1.00  0.00     0.059 A 
ATOM     67  F   UNL A   1      37.147  33.713  33.248  1.00  0.00    -0.206 F 
ATOM     68  C   UNL A   1      34.323  35.150  31.607  1.00  0.00     0.060 A 
BRANCH  68  69
ATOM     69  S   UNL A   1      32.842  36.082  32.025  1.00  0.00     0.124 S 
ATOM     70  O   UNL A   1      32.572  36.793  30.778  1.00  0.00    -0.237 OA
ATOM     71  O   UNL A   1      31.899  35.025  32.373  1.00  0.00    -0.237 OA
ATOM     72  O   UNL A   1      33.271  36.926  33.138  1.00  0.00    -0.744 OA
ENDBRANCH  68  69
ENDBRANCH  47  61
BRANCH  48  73
ATOM     73  C   UNL A   1      45.000  29.517  28.084  1.00  0.00     0.058 A 
ATOM     74  C   UNL A   1      45.993  28.560  28.377  1.00  0.00     0.135 A 
ATOM     75  C   UNL A   1      44.092  29.217  27.058  1.00  0.00     0.135 A 
ATOM     76  F   UNL A   1      46.915  28.816  29.320  1.00  0.00    -0.206 F 
ATOM     77  C   UNL A   1      45.941  27.275  27.846  1.00  0.00     0.059 A 
ATOM     78  C   UNL A   1      44.037  27.940  26.499  1.00  0.00     0.059 A 
ATOM     79  F   UNL A   1      43.141  30.101  26.718  1.00  0.00    -0.206 F 
ATOM     80  C   UNL A   1      44.901  26.952  26.979  1.00  0.00     0.060 A 
BRANCH  80  81
ATOM     81  S   UNL A   1      44.594  25.203  26.628  1.00  0.00     0.124 S 
ATOM     82  O   UNL A   1      44.016  24.733  27.882  1.00  0.00    -0.237 OA
ATOM     83  O   UNL A   1      43.670  25.266  25.492  1.00  0.00    -0.237 OA
ATOM     84  O   UNL A   1      45.923  24.685  26.318  1.00  0.00    -0.744 OA
ENDBRANCH  80  81
ENDBRANCH  48  73
BRANCH  60  85
ATOM     85  C   UNL A   1      42.447  36.213  28.873  1.00  0.00     0.058 A 
ATOM     86  C   UNL A   1      41.942  36.473  27.591  1.00  0.00     0.135 A 
ATOM     87  C   UNL A   1      43.030  37.307  29.550  1.00  0.00     0.135 A 
ATOM     88  F   UNL A   1      41.392  35.490  26.862  1.00  0.00    -0.206 F 
ATOM     89  C   UNL A   1      41.996  37.746  27.021  1.00  0.00     0.059 A 
ATOM     90  C   UNL A   1      43.146  38.569  28.980  1.00  0.00     0.059 A 
ATOM     91  F   UNL A   1      43.479  37.188  30.809  1.00  0.00    -0.206 F 
ATOM     92  C   UNL A   1      42.607  38.786  27.721  1.00  0.00     0.060 A 
BRANCH  92  93
ATOM     93  S   UNL A   1      42.699  40.425  26.976  1.00  0.00     0.124 S 
ATOM     94  O   UNL A   1      43.467  40.180  25.759  1.00  0.00    -0.237 OA
ATOM     95  O   UNL A   1      41.286  40.733  26.780  1.00  0.00    -0.237 OA
ATOM     96  O   UNL A   1      43.382  41.221  27.991  1.00  0.00    -0.744 OA
ENDBRANCH  92  93
ENDBRANCH  60  85
ENDBRANCH  34  35
ENDBRANCH  26  29
ENDBRANCH  24  25
ENDBRANCH  23  24
ENDBRANCH   1  23
TORSDOF 17
ENDMDL
MODEL 2
REMARK VINA RESULT:     -12.9      4.827     11.410
REMARK SMILES Cc1cc(NC(=O)CCC(=O)NCCCNC(=O)c2ccc(-c3c4nc(c(-c5c(F)cc(S(=O)(=O)[O-])cc5F)c5ccc([nH]5)c(-c5c(F)cc(S(=O)(=O)[O-])cc5F)c5nc(c(-c6c(F)cc(S(=O)(=O)[O-])cc6F)c6ccc3[nH]6)C=C5)C=C4)cc2)ccc1S(=O)(=O)[O-]
REMARK SMILES IDX 13 1 12 2 10 3 11 4 9 6 8 7 6 8 5 9 7 11 4 12 1 13 2 14 3 15
REMARK SMILES IDX 87 16 86 17 85 18 88 19 89 20 90 21 91 22 14 23 15 24 16 25
REMARK SMILES IDX 17 26 18 28 19 29 20 30 84 31 21 32 83 33 22 34 23 35 24 36
REMARK SMILES IDX 77 37 25 38 82 39 76 40 78 41 26 42 81 43 75 44 74 45 27 47
REMARK SMILES IDX 61 48 40 49 60 50 41 51 44 52 59 53 79 54 42 55 43 56 58 58
REMARK SMILES IDX 80 59 45 60 28 61 29 62 38 63 30 64 31 65 37 66 39 67 32 68
REMARK SMILES IDX 33 69 34 70 35 71 36 72 62 73 63 74 72 75 64 76 65 77 71 78
REMARK SMILES IDX 73 79 66 80 67 81 68 82 69 83 70 84 46 85 47 86 56 87 48 88
REMARK SMILES IDX 49 89 55 90 57 91 50 92 51 93 52 94 53 95 54 96
REMARK H PARENT 12 5 5 10 16 27 78 46 44 57
REMARK Flexibility Score: inf
ROOT
ATOM      1  C   UNL A   1      32.850  28.009  25.709  1.00  0.00     0.117 C 
ENDROOT
BRANCH   1   2
ATOM      2  N   UNL A   1      32.019  28.893  24.898  1.00  0.00    -0.356 N 
ATOM      3  C   UNL A   1      31.554  28.743  23.628  1.00  0.00     0.220 C 
ATOM      4  O   UNL A   1      30.592  29.419  23.263  1.00  0.00    -0.275 OA
ATOM      5  H   UNL A   1      31.753  29.731  25.341  1.00  0.00     0.163 HD
BRANCH   3   6
ATOM      6  C   UNL A   1      32.192  27.758  22.677  1.00  0.00     0.110 C 
BRANCH   6   7
ATOM      7  C   UNL A   1      31.284  26.699  22.059  1.00  0.00     0.110 C 
BRANCH   7   8
ATOM      8  C   UNL A   1      31.911  25.698  21.108  1.00  0.00     0.224 C 
ATOM      9  N   UNL A   1      32.487  24.530  21.510  1.00  0.00    -0.326 N 
ATOM     10  H   UNL A   1      32.756  23.942  20.768  1.00  0.00     0.169 HD
ATOM     11  O   UNL A   1      31.859  25.922  19.892  1.00  0.00    -0.275 OA
BRANCH   9  12
ATOM     12  C   UNL A   1      32.772  24.006  22.780  1.00  0.00     0.041 A 
ATOM     13  C   UNL A   1      30.917  22.725  25.811  1.00  0.00     0.046 C 
ATOM     14  C   UNL A   1      32.096  23.063  24.945  1.00  0.00    -0.032 A 
ATOM     15  C   UNL A   1      31.812  23.784  23.764  1.00  0.00     0.030 A 
ATOM     16  C   UNL A   1      33.413  22.618  25.140  1.00  0.00     0.057 A 
ATOM     17  C   UNL A   1      34.413  22.957  24.211  1.00  0.00     0.021 A 
ATOM     18  C   UNL A   1      34.095  23.657  23.046  1.00  0.00     0.027 A 
BRANCH  16  19
ATOM     19  S   UNL A   1      33.965  21.585  26.479  1.00  0.00     0.124 S 
ATOM     20  O   UNL A   1      33.719  22.286  27.710  1.00  0.00    -0.237 OA
ATOM     21  O   UNL A   1      33.433  20.254  26.231  1.00  0.00    -0.237 OA
ATOM     22  O   UNL A   1      35.559  21.388  26.362  1.00  0.00    -0.744 OA
ENDBRANCH  16  19
ENDBRANCH   9  12
ENDBRANCH   7   8
ENDBRANCH   6   7
ENDBRANCH   3   6
ENDBRANCH   1   2
BRANCH   1  23
ATOM     23  C   UNL A   1      34.244  28.542  26.013  1.00  0.00     0.042 C 
BRANCH  23  24
ATOM     24  C   UNL A   1      34.331  29.459  27.222  1.00  0.00     0.118 C 
BRANCH  24  25
ATOM     25  N   UNL A   1      35.311  30.534  27.121  1.00  0.00    -0.352 N 
ATOM     26  C   UNL A   1      36.218  30.773  28.151  1.00  0.00     0.251 C 
ATOM     27  H   UNL A   1      35.333  31.098  26.314  1.00  0.00     0.163 HD
ATOM     28  O   UNL A   1      36.268  31.801  28.812  1.00  0.00    -0.269 OA
BRANCH  26  29
ATOM     29  C   UNL A   1      37.159  29.657  28.395  1.00  0.00     0.039 A 
ATOM     30  C   UNL A   1      37.179  29.009  29.632  1.00  0.00     0.014 A 
ATOM     31  C   UNL A   1      38.175  29.459  27.465  1.00  0.00     0.014 A 
ATOM     32  C   UNL A   1      38.322  28.304  30.011  1.00  0.00     0.010 A 
ATOM     33  C   UNL A   1      39.341  28.872  27.882  1.00  0.00     0.010 A 
ATOM     34  C   UNL A   1      39.429  28.328  29.168  1.00  0.00    -0.014 A 
BRANCH  34  35
ATOM     35  C   UNL A   1      40.735  27.760  29.454  1.00  0.00     0.031 A 
ATOM     36  C   UNL A   1      41.042  26.414  28.927  1.00  0.00     0.074 A 
ATOM     37  C   UNL A   1      41.711  28.573  29.906  1.00  0.00     0.049 A 
ATOM     38  N   UNL A   1      42.124  25.764  29.166  1.00  0.00    -0.248 NA
ATOM     39  C   UNL A   1      40.104  25.675  28.087  1.00  0.00     0.031 C 
ATOM     40  C   UNL A   1      43.153  28.392  29.774  1.00  0.00     0.029 A 
ATOM     41  N   UNL A   1      41.579  29.669  30.764  1.00  0.00    -0.354 N 
ATOM     42  C   UNL A   1      42.154  24.660  28.341  1.00  0.00     0.074 A 
ATOM     43  C   UNL A   1      40.841  24.614  27.748  1.00  0.00     0.031 C 
ATOM     44  C   UNL A   1      43.772  29.142  30.699  1.00  0.00     0.029 A 
ATOM     45  C   UNL A   1      42.743  29.679  31.571  1.00  0.00     0.049 A 
ATOM     46  H   UNL A   1      40.828  30.303  30.801  1.00  0.00     0.167 HD
ATOM     47  C   UNL A   1      43.335  23.990  28.198  1.00  0.00     0.037 A 
ATOM     48  C   UNL A   1      42.647  29.424  32.913  1.00  0.00     0.037 A 
ATOM     49  C   UNL A   1      44.334  24.530  29.122  1.00  0.00     0.049 A 
ATOM     50  C   UNL A   1      43.346  28.156  33.368  1.00  0.00     0.074 A 
ATOM     51  C   UNL A   1      45.353  25.462  29.020  1.00  0.00     0.029 A 
ATOM     52  N   UNL A   1      44.155  24.305  30.471  1.00  0.00    -0.354 N 
ATOM     53  N   UNL A   1      43.932  27.307  32.570  1.00  0.00    -0.248 NA
ATOM     54  C   UNL A   1      43.373  27.706  34.762  1.00  0.00     0.031 C 
ATOM     55  C   UNL A   1      45.740  25.832  30.343  1.00  0.00     0.029 A 
ATOM     56  C   UNL A   1      44.971  25.109  31.238  1.00  0.00     0.049 A 
ATOM     57  H   UNL A   1      43.520  23.649  30.840  1.00  0.00     0.167 HD
ATOM     58  C   UNL A   1      44.306  26.195  33.278  1.00  0.00     0.074 A 
ATOM     59  C   UNL A   1      43.963  26.504  34.652  1.00  0.00     0.031 C 
ATOM     60  C   UNL A   1      44.814  25.077  32.684  1.00  0.00     0.037 A 
BRANCH  47  61
ATOM     61  C   UNL A   1      43.686  22.962  27.140  1.00  0.00     0.058 A 
ATOM     62  C   UNL A   1      42.964  21.746  27.083  1.00  0.00     0.135 A 
ATOM     63  C   UNL A   1      44.729  23.056  26.197  1.00  0.00     0.135 A 
ATOM     64  F   UNL A   1      41.892  21.528  27.857  1.00  0.00    -0.206 F 
ATOM     65  C   UNL A   1      43.307  20.688  26.237  1.00  0.00     0.059 A 
ATOM     66  C   UNL A   1      45.107  22.003  25.358  1.00  0.00     0.059 A 
ATOM     67  F   UNL A   1      45.420  24.180  26.004  1.00  0.00    -0.206 F 
ATOM     68  C   UNL A   1      44.402  20.814  25.398  1.00  0.00     0.060 A 
BRANCH  68  69
ATOM     69  S   UNL A   1      44.879  19.418  24.369  1.00  0.00     0.124 S 
ATOM     70  O   UNL A   1      44.441  19.855  23.047  1.00  0.00    -0.237 OA
ATOM     71  O   UNL A   1      46.321  19.359  24.576  1.00  0.00    -0.237 OA
ATOM     72  O   UNL A   1      44.122  18.303  24.934  1.00  0.00    -0.744 OA
ENDBRANCH  68  69
ENDBRANCH  47  61
BRANCH  48  73
ATOM     73  C   UNL A   1      41.372  29.956  33.484  1.00  0.00     0.058 A 
ATOM     74  C   UNL A   1      41.296  31.346  33.708  1.00  0.00     0.135 A 
ATOM     75  C   UNL A   1      40.167  29.265  33.284  1.00  0.00     0.135 A 
ATOM     76  F   UNL A   1      42.416  32.048  33.951  1.00  0.00    -0.206 F 
ATOM     77  C   UNL A   1      40.115  32.051  33.506  1.00  0.00     0.059 A 
ATOM     78  C   UNL A   1      38.967  29.953  33.097  1.00  0.00     0.059 A 
ATOM     79  F   UNL A   1      40.175  27.937  33.091  1.00  0.00    -0.206 F 
ATOM     80  C   UNL A   1      38.978  31.350  33.109  1.00  0.00     0.060 A 
BRANCH  80  81
ATOM     81  S   UNL A   1      37.582  32.293  32.447  1.00  0.00     0.124 S 
ATOM     82  O   UNL A   1      37.419  33.344  33.445  1.00  0.00    -0.237 OA
ATOM     83  O   UNL A   1      38.087  32.734  31.144  1.00  0.00    -0.237 OA
ATOM     84  O   UNL A   1      36.507  31.308  32.395  1.00  0.00    -0.744 OA
ENDBRANCH  80  81
ENDBRANCH  48  73
BRANCH  60  85
ATOM     85  C   UNL A   1      45.183  23.836  33.445  1.00  0.00     0.058 A 
ATOM     86  C   UNL A   1      44.244  22.833  33.725  1.00  0.00     0.135 A 
ATOM     87  C   UNL A   1      46.460  23.680  34.026  1.00  0.00     0.135 A 
ATOM     88  F   UNL A   1      42.996  22.908  33.235  1.00  0.00    -0.206 F 
ATOM     89  C   UNL A   1      44.558  21.730  34.520  1.00  0.00     0.059 A 
ATOM     90  C   UNL A   1      46.778  22.620  34.869  1.00  0.00     0.059 A 
ATOM     91  F   UNL A   1      47.455  24.541  33.766  1.00  0.00    -0.206 F 
ATOM     92  C   UNL A   1      45.826  21.637  35.094  1.00  0.00     0.060 A 
BRANCH  92  93
ATOM     93  S   UNL A   1      46.227  20.226  36.143  1.00  0.00     0.124 S 
ATOM     94  O   UNL A   1      45.458  19.146  35.532  1.00  0.00    -0.237 OA
ATOM     95  O   UNL A   1      47.674  20.144  35.975  1.00  0.00    -0.237 OA
ATOM     96  O   UNL A   1      45.768  20.645  37.464  1.00  0.00    -0.744 OA
ENDBRANCH  92  93
ENDBRANCH  60  85
ENDBRANCH  34  35
ENDBRANCH  26  29
ENDBRANCH  24  25
ENDBRANCH  23  24
ENDBRANCH   1  23
TORSDOF 17
ENDMDL
MODEL 3
REMARK VINA RESULT:     -12.9      4.721     11.373
REMARK SMILES Cc1cc(NC(=O)CCC(=O)NCCCNC(=O)c2ccc(-c3c4nc(c(-c5c(F)cc(S(=O)(=O)[O-])cc5F)c5ccc([nH]5)c(-c5c(F)cc(S(=O)(=O)[O-])cc5F)c5nc(c(-c6c(F)cc(S(=O)(=O)[O-])cc6F)c6ccc3[nH]6)C=C5)C=C4)cc2)ccc1S(=O)(=O)[O-]
REMARK SMILES IDX 13 1 12 2 10 3 11 4 9 6 8 7 6 8 5 9 7 11 4 12 1 13 2 14 3 15
REMARK SMILES IDX 87 16 86 17 85 18 88 19 89 20 90 21 91 22 14 23 15 24 16 25
REMARK SMILES IDX 17 26 18 28 19 29 20 30 84 31 21 32 83 33 22 34 23 35 24 36
REMARK SMILES IDX 77 37 25 38 82 39 76 40 78 41 26 42 81 43 75 44 74 45 27 47
REMARK SMILES IDX 61 48 40 49 60 50 41 51 44 52 59 53 79 54 42 55 43 56 58 58
REMARK SMILES IDX 80 59 45 60 28 61 29 62 38 63 30 64 31 65 37 66 39 67 32 68
REMARK SMILES IDX 33 69 34 70 35 71 36 72 62 73 63 74 72 75 64 76 65 77 71 78
REMARK SMILES IDX 73 79 66 80 67 81 68 82 69 83 70 84 46 85 47 86 56 87 48 88
REMARK SMILES IDX 49 89 55 90 57 91 50 92 51 93 52 94 53 95 54 96
REMARK H PARENT 12 5 5 10 16 27 78 46 44 57
REMARK Flexibility Score: inf
ROOT
ATOM      1  C   UNL A   1      32.830  27.722  25.975  1.00  0.00     0.117 C 
ENDROOT
BRANCH   1   2
ATOM      2  N   UNL A   1      31.739  27.682  25.007  1.00  0.00    -0.356 N 
ATOM      3  C   UNL A   1      30.868  26.682  24.704  1.00  0.00     0.220 C 
ATOM      4  O   UNL A   1      29.816  26.963  24.128  1.00  0.00    -0.275 OA
ATOM      5  H   UNL A   1      31.614  28.511  24.491  1.00  0.00     0.163 HD
BRANCH   3   6
ATOM      6  C   UNL A   1      31.169  25.248  25.072  1.00  0.00     0.110 C 
BRANCH   6   7
ATOM      7  C   UNL A   1      31.224  24.907  26.558  1.00  0.00     0.110 C 
BRANCH   7   8
ATOM      8  C   UNL A   1      30.754  23.530  26.984  1.00  0.00     0.224 C 
ATOM      9  N   UNL A   1      31.574  22.445  27.078  1.00  0.00    -0.326 N 
ATOM     10  H   UNL A   1      31.141  21.652  27.467  1.00  0.00     0.169 HD
ATOM     11  O   UNL A   1      29.571  23.384  27.315  1.00  0.00    -0.275 OA
BRANCH   9  12
ATOM     12  C   UNL A   1      32.917  22.244  26.725  1.00  0.00     0.041 A 
ATOM     13  C   UNL A   1      35.002  19.789  24.752  1.00  0.00     0.046 C 
ATOM     14  C   UNL A   1      34.701  21.009  25.573  1.00  0.00    -0.032 A 
ATOM     15  C   UNL A   1      33.394  21.093  26.103  1.00  0.00     0.030 A 
ATOM     16  C   UNL A   1      35.548  22.115  25.743  1.00  0.00     0.057 A 
ATOM     17  C   UNL A   1      35.111  23.226  26.487  1.00  0.00     0.021 A 
ATOM     18  C   UNL A   1      33.809  23.283  26.984  1.00  0.00     0.027 A 
BRANCH  16  19
ATOM     19  S   UNL A   1      37.177  22.283  25.047  1.00  0.00     0.124 S 
ATOM     20  O   UNL A   1      38.017  21.278  25.639  1.00  0.00    -0.237 OA
ATOM     21  O   UNL A   1      37.010  22.396  23.607  1.00  0.00    -0.237 OA
ATOM     22  O   UNL A   1      37.782  23.712  25.475  1.00  0.00    -0.744 OA
ENDBRANCH  16  19
ENDBRANCH   9  12
ENDBRANCH   7   8
ENDBRANCH   6   7
ENDBRANCH   3   6
ENDBRANCH   1   2
BRANCH   1  23
ATOM     23  C   UNL A   1      33.735  28.942  25.870  1.00  0.00     0.042 C 
BRANCH  23  24
ATOM     24  C   UNL A   1      34.105  29.583  27.198  1.00  0.00     0.118 C 
BRANCH  24  25
ATOM     25  N   UNL A   1      35.091  30.654  27.122  1.00  0.00    -0.352 N 
ATOM     26  C   UNL A   1      35.971  30.892  28.176  1.00  0.00     0.251 C 
ATOM     27  H   UNL A   1      35.135  31.217  26.315  1.00  0.00     0.163 HD
ATOM     28  O   UNL A   1      36.006  31.921  28.835  1.00  0.00    -0.269 OA
BRANCH  26  29
ATOM     29  C   UNL A   1      36.901  29.774  28.446  1.00  0.00     0.039 A 
ATOM     30  C   UNL A   1      36.931  29.170  29.705  1.00  0.00     0.014 A 
ATOM     31  C   UNL A   1      37.901  29.530  27.509  1.00  0.00     0.014 A 
ATOM     32  C   UNL A   1      38.071  28.465  30.093  1.00  0.00     0.010 A 
ATOM     33  C   UNL A   1      39.066  28.944  27.931  1.00  0.00     0.010 A 
ATOM     34  C   UNL A   1      39.166  28.445  29.235  1.00  0.00    -0.014 A 
BRANCH  34  35
ATOM     35  C   UNL A   1      40.469  27.871  29.522  1.00  0.00     0.031 A 
ATOM     36  C   UNL A   1      40.754  26.506  29.034  1.00  0.00     0.074 A 
ATOM     37  C   UNL A   1      41.460  28.687  29.936  1.00  0.00     0.049 A 
ATOM     38  N   UNL A   1      41.832  25.850  29.281  1.00  0.00    -0.248 NA
ATOM     39  C   UNL A   1      39.798  25.751  28.230  1.00  0.00     0.031 C 
ATOM     40  C   UNL A   1      42.898  28.485  29.792  1.00  0.00     0.029 A 
ATOM     41  N   UNL A   1      41.351  29.810  30.761  1.00  0.00    -0.354 N 
ATOM     42  C   UNL A   1      41.839  24.721  28.492  1.00  0.00     0.074 A 
ATOM     43  C   UNL A   1      40.517  24.672  27.916  1.00  0.00     0.031 C 
ATOM     44  C   UNL A   1      43.537  29.256  30.685  1.00  0.00     0.029 A 
ATOM     45  C   UNL A   1      42.525  29.833  31.552  1.00  0.00     0.049 A 
ATOM     46  H   UNL A   1      40.607  30.454  30.786  1.00  0.00     0.167 HD
ATOM     47  C   UNL A   1      43.010  24.032  28.355  1.00  0.00     0.037 A 
ATOM     48  C   UNL A   1      42.443  29.621  32.903  1.00  0.00     0.037 A 
ATOM     49  C   UNL A   1      44.027  24.590  29.249  1.00  0.00     0.049 A 
ATOM     50  C   UNL A   1      43.134  28.360  33.389  1.00  0.00     0.074 A 
ATOM     51  C   UNL A   1      45.055  25.507  29.105  1.00  0.00     0.029 A 
ATOM     52  N   UNL A   1      43.863  24.411  30.606  1.00  0.00    -0.354 N 
ATOM     53  N   UNL A   1      43.700  27.480  32.612  1.00  0.00    -0.248 NA
ATOM     54  C   UNL A   1      43.173  27.955  34.796  1.00  0.00     0.031 C 
ATOM     55  C   UNL A   1      45.463  25.914  30.411  1.00  0.00     0.029 A 
ATOM     56  C   UNL A   1      44.697  25.229  31.338  1.00  0.00     0.049 A 
ATOM     57  H   UNL A   1      43.225  23.774  31.005  1.00  0.00     0.167 HD
ATOM     58  C   UNL A   1      44.070  26.387  33.350  1.00  0.00     0.074 A 
ATOM     59  C   UNL A   1      43.748  26.743  34.718  1.00  0.00     0.031 C 
ATOM     60  C   UNL A   1      44.558  25.245  32.786  1.00  0.00     0.037 A 
BRANCH  47  61
ATOM     61  C   UNL A   1      43.336  22.968  27.326  1.00  0.00     0.058 A 
ATOM     62  C   UNL A   1      42.577  21.773  27.295  1.00  0.00     0.135 A 
ATOM     63  C   UNL A   1      44.387  23.005  26.389  1.00  0.00     0.135 A 
ATOM     64  F   UNL A   1      41.494  21.609  28.067  1.00  0.00    -0.206 F 
ATOM     65  C   UNL A   1      42.893  20.684  26.479  1.00  0.00     0.059 A 
ATOM     66  C   UNL A   1      44.738  21.920  25.579  1.00  0.00     0.059 A 
ATOM     67  F   UNL A   1      45.114  24.102  26.172  1.00  0.00    -0.206 F 
ATOM     68  C   UNL A   1      43.997  20.754  25.645  1.00  0.00     0.060 A 
BRANCH  68  69
ATOM     69  S   UNL A   1      44.437  19.318  24.656  1.00  0.00     0.124 S 
ATOM     70  O   UNL A   1      43.386  18.371  25.015  1.00  0.00    -0.237 OA
ATOM     71  O   UNL A   1      44.380  19.849  23.298  1.00  0.00    -0.237 OA
ATOM     72  O   UNL A   1      45.773  18.971  25.133  1.00  0.00    -0.744 OA
ENDBRANCH  68  69
ENDBRANCH  47  61
BRANCH  48  73
ATOM     73  C   UNL A   1      41.182  30.186  33.472  1.00  0.00     0.058 A 
ATOM     74  C   UNL A   1      41.121  31.584  33.644  1.00  0.00     0.135 A 
ATOM     75  C   UNL A   1      39.968  29.499  33.316  1.00  0.00     0.135 A 
ATOM     76  F   UNL A   1      42.250  32.285  33.842  1.00  0.00    -0.206 F 
ATOM     77  C   UNL A   1      39.942  32.292  33.432  1.00  0.00     0.059 A 
ATOM     78  C   UNL A   1      38.772  30.190  33.122  1.00  0.00     0.059 A 
ATOM     79  F   UNL A   1      39.962  28.165  33.174  1.00  0.00    -0.206 F 
ATOM     80  C   UNL A   1      38.794  31.586  33.079  1.00  0.00     0.060 A 
BRANCH  80  81
ATOM     81  S   UNL A   1      37.395  32.516  32.404  1.00  0.00     0.124 S 
ATOM     82  O   UNL A   1      37.911  32.952  31.111  1.00  0.00    -0.237 OA
ATOM     83  O   UNL A   1      36.338  31.502  32.351  1.00  0.00    -0.237 OA
ATOM     84  O   UNL A   1      37.191  33.575  33.386  1.00  0.00    -0.744 OA
ENDBRANCH  80  81
ENDBRANCH  48  73
BRANCH  60  85
ATOM     85  C   UNL A   1      44.922  24.024  33.581  1.00  0.00     0.058 A 
ATOM     86  C   UNL A   1      46.254  23.712  33.891  1.00  0.00     0.135 A 
ATOM     87  C   UNL A   1      43.953  23.064  33.943  1.00  0.00     0.135 A 
ATOM     88  F   UNL A   1      47.247  24.554  33.563  1.00  0.00    -0.206 F 
ATOM     89  C   UNL A   1      46.602  22.525  34.537  1.00  0.00     0.059 A 
ATOM     90  C   UNL A   1      44.282  21.850  34.535  1.00  0.00     0.059 A 
ATOM     91  F   UNL A   1      42.643  23.292  33.760  1.00  0.00    -0.206 F 
ATOM     92  C   UNL A   1      45.609  21.597  34.848  1.00  0.00     0.060 A 
BRANCH  92  93
ATOM     93  S   UNL A   1      46.059  20.052  35.661  1.00  0.00     0.124 S 
ATOM     94  O   UNL A   1      47.432  19.843  35.212  1.00  0.00    -0.237 OA
ATOM     95  O   UNL A   1      45.902  20.409  37.068  1.00  0.00    -0.237 OA
ATOM     96  O   UNL A   1      45.084  19.098  35.141  1.00  0.00    -0.744 OA
ENDBRANCH  92  93
ENDBRANCH  60  85
ENDBRANCH  34  35
ENDBRANCH  26  29
ENDBRANCH  24  25
ENDBRANCH  23  24
ENDBRANCH   1  23
TORSDOF 17
ENDMDL
