MODEL 1
REMARK VINA RESULT:     -13.7      0.000      0.000
REMARK SMILES Cc1ccc(NC(=O)N[C@@H](C(=O)NCCCNC(=O)c2ccc(-c3c4nc(c(-c5c(F)cc(S(=O)(=O)[O-])cc5F)c5ccc([nH]5)c(-c5c(F)cc(S(=O)(=O)[O-])cc5F)c5nc(c(-c6c(F)cc(S(=O)(=O)[O-])cc6F)c6ccc3[nH]6)C=C5)C=C4)cc2)C(C)C)cc1
REMARK SMILES IDX 15 1 14 2 13 3 11 4 12 5 10 7 9 8 6 9 7 10 8 12 5 14 1 15
REMARK SMILES IDX 2 16 3 17 90 18 4 19 89 20 86 21 87 22 88 23 16 24 17 25
REMARK SMILES IDX 18 26 19 28 20 29 21 30 85 31 22 32 84 33 23 34 24 35 25 36
REMARK SMILES IDX 78 37 26 38 83 39 77 40 79 41 27 42 82 43 76 44 75 45 28 47
REMARK SMILES IDX 62 48 41 49 61 50 42 51 45 52 60 53 80 54 43 55 44 56 59 58
REMARK SMILES IDX 81 59 46 60 29 61 30 62 39 63 31 64 32 65 38 66 40 67 33 68
REMARK SMILES IDX 34 69 35 70 36 71 37 72 63 73 64 74 73 75 65 76 66 77 72 78
REMARK SMILES IDX 74 79 67 80 68 81 69 82 70 83 71 84 47 85 48 86 57 87 49 88
REMARK SMILES IDX 50 89 56 90 58 91 51 92 52 93 53 94 54 95 55 96
REMARK H PARENT 13 6 6 11 9 13 17 27 79 46 45 57
REMARK Flexibility Score: inf
ROOT
ATOM      1  C   UNL A   1      33.111  29.942  27.227  1.00  0.00     0.042 C 
ENDROOT
BRANCH   1   2
ATOM      2  C   UNL A   1      32.527  29.186  26.042  1.00  0.00     0.117 C 
BRANCH   2   3
ATOM      3  N   UNL A   1      33.225  29.439  24.781  1.00  0.00    -0.354 N 
ATOM      4  C   UNL A   1      33.175  28.814  23.562  1.00  0.00     0.242 C 
ATOM      5  O   UNL A   1      33.818  29.339  22.646  1.00  0.00    -0.273 OA
ATOM      6  H   UNL A   1      33.848  30.200  24.814  1.00  0.00     0.163 HD
BRANCH   4   7
ATOM      7  C   UNL A   1      32.237  27.598  23.293  1.00  0.00     0.175 C 
BRANCH   7   8
ATOM      8  N   UNL A   1      32.559  27.023  22.000  1.00  0.00    -0.326 N 
ATOM      9  N   UNL A   1      33.221  24.743  22.320  1.00  0.00    -0.308 N 
ATOM     10  C   UNL A   1      32.968  25.829  21.575  1.00  0.00     0.319 C 
ATOM     11  H   UNL A   1      33.329  23.959  21.736  1.00  0.00     0.171 HD
ATOM     12  O   UNL A   1      33.056  25.694  20.348  1.00  0.00    -0.248 OA
ATOM     13  H   UNL A   1      32.448  27.667  21.263  1.00  0.00     0.166 HD
BRANCH   9  14
ATOM     14  C   UNL A   1      33.385  24.358  23.666  1.00  0.00     0.042 A 
ATOM     15  C   UNL A   1      34.265  22.722  27.570  1.00  0.00     0.044 C 
ATOM     16  C   UNL A   1      33.984  23.387  26.260  1.00  0.00    -0.051 A 
ATOM     17  C   UNL A   1      32.672  23.655  25.888  1.00  0.00     0.005 A 
ATOM     18  C   UNL A   1      35.007  23.692  25.362  1.00  0.00     0.005 A 
ATOM     19  C   UNL A   1      32.390  24.172  24.622  1.00  0.00     0.026 A 
ATOM     20  C   UNL A   1      34.708  24.186  24.086  1.00  0.00     0.026 A 
ENDBRANCH   9  14
ENDBRANCH   7   8
BRANCH   7  21
ATOM     21  C   UNL A   1      30.729  27.945  23.451  1.00  0.00     0.015 C 
ATOM     22  C   UNL A   1      30.200  28.850  22.329  1.00  0.00     0.010 C 
ATOM     23  C   UNL A   1      29.896  26.648  23.442  1.00  0.00     0.010 C 
ENDBRANCH   7  21
ENDBRANCH   4   7
ENDBRANCH   2   3
ENDBRANCH   1   2
BRANCH   1  24
ATOM     24  C   UNL A   1      34.619  29.793  27.284  1.00  0.00     0.118 C 
BRANCH  24  25
ATOM     25  N   UNL A   1      35.328  30.985  27.733  1.00  0.00    -0.352 N 
ATOM     26  C   UNL A   1      36.536  31.036  28.405  1.00  0.00     0.251 C 
ATOM     27  H   UNL A   1      34.899  31.849  27.538  1.00  0.00     0.163 HD
ATOM     28  O   UNL A   1      36.939  32.052  28.958  1.00  0.00    -0.269 OA
BRANCH  26  29
ATOM     29  C   UNL A   1      37.394  29.836  28.315  1.00  0.00     0.039 A 
ATOM     30  C   UNL A   1      37.518  29.054  29.470  1.00  0.00     0.014 A 
ATOM     31  C   UNL A   1      38.291  29.712  27.260  1.00  0.00     0.014 A 
ATOM     32  C   UNL A   1      38.661  28.278  29.647  1.00  0.00     0.010 A 
ATOM     33  C   UNL A   1      39.476  29.044  27.490  1.00  0.00     0.010 A 
ATOM     34  C   UNL A   1      39.676  28.353  28.695  1.00  0.00    -0.014 A 
BRANCH  34  35
ATOM     35  C   UNL A   1      41.004  27.780  28.881  1.00  0.00     0.031 A 
ATOM     36  C   UNL A   1      41.255  26.382  28.463  1.00  0.00     0.074 A 
ATOM     37  C   UNL A   1      42.020  28.541  29.340  1.00  0.00     0.049 A 
ATOM     38  N   UNL A   1      42.215  25.643  28.906  1.00  0.00    -0.248 NA
ATOM     39  C   UNL A   1      40.391  25.685  27.515  1.00  0.00     0.031 C 
ATOM     40  C   UNL A   1      43.445  28.231  29.285  1.00  0.00     0.029 A 
ATOM     41  N   UNL A   1      41.947  29.687  30.131  1.00  0.00    -0.354 N 
ATOM     42  C   UNL A   1      42.276  24.514  28.116  1.00  0.00     0.074 A 
ATOM     43  C   UNL A   1      41.083  24.564  27.305  1.00  0.00     0.031 C 
ATOM     44  C   UNL A   1      44.093  28.988  30.184  1.00  0.00     0.029 A 
ATOM     45  C   UNL A   1      43.089  29.702  30.954  1.00  0.00     0.049 A 
ATOM     46  H   UNL A   1      41.229  30.361  30.118  1.00  0.00     0.167 HD
ATOM     47  C   UNL A   1      43.401  23.740  28.138  1.00  0.00     0.037 A 
ATOM     48  C   UNL A   1      42.974  29.646  32.314  1.00  0.00     0.037 A 
ATOM     49  C   UNL A   1      44.351  24.230  29.138  1.00  0.00     0.049 A 
ATOM     50  C   UNL A   1      43.574  28.401  32.929  1.00  0.00     0.074 A 
ATOM     51  C   UNL A   1      45.466  25.047  29.041  1.00  0.00     0.029 A 
ATOM     52  N   UNL A   1      44.033  24.160  30.491  1.00  0.00    -0.354 N 
ATOM     53  N   UNL A   1      43.907  27.337  32.251  1.00  0.00    -0.248 NA
ATOM     54  C   UNL A   1      43.833  28.248  34.358  1.00  0.00     0.031 C 
ATOM     55  C   UNL A   1      45.774  25.527  30.336  1.00  0.00     0.029 A 
ATOM     56  C   UNL A   1      44.861  24.989  31.226  1.00  0.00     0.049 A 
ATOM     57  H   UNL A   1      43.318  23.599  30.871  1.00  0.00     0.167 HD
ATOM     58  C   UNL A   1      44.358  26.365  33.107  1.00  0.00     0.074 A 
ATOM     59  C   UNL A   1      44.325  26.998  34.412  1.00  0.00     0.031 C 
ATOM     60  C   UNL A   1      44.710  25.119  32.668  1.00  0.00     0.037 A 
BRANCH  47  61
ATOM     61  C   UNL A   1      43.762  22.764  27.029  1.00  0.00     0.058 A 
ATOM     62  C   UNL A   1      43.018  21.578  26.840  1.00  0.00     0.135 A 
ATOM     63  C   UNL A   1      44.869  22.897  26.169  1.00  0.00     0.135 A 
ATOM     64  F   UNL A   1      41.867  21.358  27.489  1.00  0.00    -0.206 F 
ATOM     65  C   UNL A   1      43.421  20.553  25.980  1.00  0.00     0.059 A 
ATOM     66  C   UNL A   1      45.328  21.863  25.344  1.00  0.00     0.059 A 
ATOM     67  F   UNL A   1      45.522  24.061  26.051  1.00  0.00    -0.206 F 
ATOM     68  C   UNL A   1      44.602  20.684  25.267  1.00  0.00     0.060 A 
BRANCH  68  69
ATOM     69  S   UNL A   1      45.156  19.313  24.237  1.00  0.00     0.124 S 
ATOM     70  O   UNL A   1      44.522  19.612  22.956  1.00  0.00    -0.237 OA
ATOM     71  O   UNL A   1      46.606  19.468  24.281  1.00  0.00    -0.237 OA
ATOM     72  O   UNL A   1      44.631  18.137  24.926  1.00  0.00    -0.744 OA
ENDBRANCH  68  69
ENDBRANCH  47  61
BRANCH  48  73
ATOM     73  C   UNL A   1      41.783  30.379  32.824  1.00  0.00     0.058 A 
ATOM     74  C   UNL A   1      40.660  29.613  33.197  1.00  0.00     0.135 A 
ATOM     75  C   UNL A   1      41.893  31.670  33.359  1.00  0.00     0.135 A 
ATOM     76  F   UNL A   1      40.496  28.376  32.698  1.00  0.00    -0.206 F 
ATOM     77  C   UNL A   1      39.784  30.035  34.190  1.00  0.00     0.059 A 
ATOM     78  C   UNL A   1      41.019  32.117  34.353  1.00  0.00     0.059 A 
ATOM     79  F   UNL A   1      42.936  32.448  33.037  1.00  0.00    -0.206 F 
ATOM     80  C   UNL A   1      40.017  31.259  34.811  1.00  0.00     0.060 A 
BRANCH  80  81
ATOM     81  S   UNL A   1      39.115  31.609  36.340  1.00  0.00     0.124 S 
ATOM     82  O   UNL A   1      38.390  30.360  36.555  1.00  0.00    -0.237 OA
ATOM     83  O   UNL A   1      40.210  31.871  37.274  1.00  0.00    -0.237 OA
ATOM     84  O   UNL A   1      38.296  32.761  35.987  1.00  0.00    -0.744 OA
ENDBRANCH  80  81
ENDBRANCH  48  73
BRANCH  60  85
ATOM     85  C   UNL A   1      45.039  23.934  33.546  1.00  0.00     0.058 A 
ATOM     86  C   UNL A   1      44.131  22.907  33.858  1.00  0.00     0.135 A 
ATOM     87  C   UNL A   1      46.364  23.733  34.004  1.00  0.00     0.135 A 
ATOM     88  F   UNL A   1      42.876  22.920  33.388  1.00  0.00    -0.206 F 
ATOM     89  C   UNL A   1      44.489  21.801  34.632  1.00  0.00     0.059 A 
ATOM     90  C   UNL A   1      46.756  22.611  34.729  1.00  0.00     0.059 A 
ATOM     91  F   UNL A   1      47.334  24.625  33.750  1.00  0.00    -0.206 F 
ATOM     92  C   UNL A   1      45.803  21.662  35.066  1.00  0.00     0.060 A 
BRANCH  92  93
ATOM     93  S   UNL A   1      46.288  20.213  36.024  1.00  0.00     0.124 S 
ATOM     94  O   UNL A   1      45.629  19.142  35.285  1.00  0.00    -0.237 OA
ATOM     95  O   UNL A   1      47.745  20.236  35.935  1.00  0.00    -0.237 OA
ATOM     96  O   UNL A   1      45.745  20.495  37.349  1.00  0.00    -0.744 OA
ENDBRANCH  92  93
ENDBRANCH  60  85
ENDBRANCH  34  35
ENDBRANCH  26  29
ENDBRANCH  24  25
ENDBRANCH   1  24
TORSDOF 16
ENDMDL
MODEL 2
REMARK VINA RESULT:     -13.4      5.234     11.573
REMARK SMILES Cc1ccc(NC(=O)N[C@@H](C(=O)NCCCNC(=O)c2ccc(-c3c4nc(c(-c5c(F)cc(S(=O)(=O)[O-])cc5F)c5ccc([nH]5)c(-c5c(F)cc(S(=O)(=O)[O-])cc5F)c5nc(c(-c6c(F)cc(S(=O)(=O)[O-])cc6F)c6ccc3[nH]6)C=C5)C=C4)cc2)C(C)C)cc1
REMARK SMILES IDX 15 1 14 2 13 3 11 4 12 5 10 7 9 8 6 9 7 10 8 12 5 14 1 15
REMARK SMILES IDX 2 16 3 17 90 18 4 19 89 20 86 21 87 22 88 23 16 24 17 25
REMARK SMILES IDX 18 26 19 28 20 29 21 30 85 31 22 32 84 33 23 34 24 35 25 36
REMARK SMILES IDX 78 37 26 38 83 39 77 40 79 41 27 42 82 43 76 44 75 45 28 47
REMARK SMILES IDX 62 48 41 49 61 50 42 51 45 52 60 53 80 54 43 55 44 56 59 58
REMARK SMILES IDX 81 59 46 60 29 61 30 62 39 63 31 64 32 65 38 66 40 67 33 68
REMARK SMILES IDX 34 69 35 70 36 71 37 72 63 73 64 74 73 75 65 76 66 77 72 78
REMARK SMILES IDX 74 79 67 80 68 81 69 82 70 83 71 84 47 85 48 86 57 87 49 88
REMARK SMILES IDX 50 89 56 90 58 91 51 92 52 93 53 94 54 95 55 96
REMARK H PARENT 13 6 6 11 9 13 17 27 79 46 45 57
REMARK Flexibility Score: inf
ROOT
ATOM      1  C   UNL A   1      37.653  22.166  25.316  1.00  0.00     0.042 C 
ENDROOT
BRANCH   1   2
ATOM      2  C   UNL A   1      36.135  22.251  25.248  1.00  0.00     0.117 C 
BRANCH   2   3
ATOM      3  N   UNL A   1      35.469  21.876  26.496  1.00  0.00    -0.354 N 
ATOM      4  C   UNL A   1      34.160  21.951  26.898  1.00  0.00     0.242 C 
ATOM      5  O   UNL A   1      33.890  21.447  27.993  1.00  0.00    -0.273 OA
ATOM      6  H   UNL A   1      36.074  21.499  27.174  1.00  0.00     0.163 HD
BRANCH   4   7
ATOM      7  C   UNL A   1      33.039  22.501  25.965  1.00  0.00     0.175 C 
BRANCH   7   8
ATOM      8  N   UNL A   1      31.778  22.505  26.684  1.00  0.00    -0.326 N 
ATOM      9  N   UNL A   1      30.760  24.659  26.430  1.00  0.00    -0.308 N 
ATOM     10  C   UNL A   1      30.811  23.399  26.886  1.00  0.00     0.319 C 
ATOM     11  H   UNL A   1      29.859  25.027  26.574  1.00  0.00     0.171 HD
ATOM     12  O   UNL A   1      29.820  22.991  27.505  1.00  0.00    -0.248 OA
ATOM     13  H   UNL A   1      31.594  21.646  27.128  1.00  0.00     0.166 HD
BRANCH   9  14
ATOM     14  C   UNL A   1      31.575  25.629  25.814  1.00  0.00     0.042 A 
ATOM     15  C   UNL A   1      34.071  28.223  23.417  1.00  0.00     0.044 C 
ATOM     16  C   UNL A   1      33.147  27.413  24.270  1.00  0.00    -0.051 A 
ATOM     17  C   UNL A   1      33.511  27.091  25.572  1.00  0.00     0.005 A 
ATOM     18  C   UNL A   1      31.943  26.912  23.771  1.00  0.00     0.005 A 
ATOM     19  C   UNL A   1      32.709  26.244  26.339  1.00  0.00     0.026 A 
ATOM     20  C   UNL A   1      31.162  26.043  24.542  1.00  0.00     0.026 A 
ENDBRANCH   9  14
ENDBRANCH   7   8
BRANCH   7  21
ATOM     21  C   UNL A   1      32.962  21.758  24.600  1.00  0.00     0.015 C 
ATOM     22  C   UNL A   1      32.528  20.292  24.738  1.00  0.00     0.010 C 
ATOM     23  C   UNL A   1      31.947  22.466  23.682  1.00  0.00     0.010 C 
ENDBRANCH   7  21
ENDBRANCH   4   7
ENDBRANCH   2   3
ENDBRANCH   1   2
BRANCH   1  24
ATOM     24  C   UNL A   1      38.236  23.344  26.072  1.00  0.00     0.118 C 
BRANCH  24  25
ATOM     25  N   UNL A   1      39.515  23.075  26.716  1.00  0.00    -0.352 N 
ATOM     26  C   UNL A   1      40.407  24.003  27.225  1.00  0.00     0.251 C 
ATOM     27  H   UNL A   1      39.774  22.129  26.797  1.00  0.00     0.163 HD
ATOM     28  O   UNL A   1      41.558  23.712  27.526  1.00  0.00    -0.269 OA
BRANCH  26  29
ATOM     29  C   UNL A   1      39.867  25.346  27.519  1.00  0.00     0.039 A 
ATOM     30  C   UNL A   1      40.350  26.410  26.747  1.00  0.00     0.014 A 
ATOM     31  C   UNL A   1      39.201  25.570  28.719  1.00  0.00     0.014 A 
ATOM     32  C   UNL A   1      40.333  27.698  27.276  1.00  0.00     0.010 A 
ATOM     33  C   UNL A   1      39.298  26.822  29.292  1.00  0.00     0.010 A 
ATOM     34  C   UNL A   1      39.893  27.878  28.586  1.00  0.00    -0.014 A 
BRANCH  34  35
ATOM     35  C   UNL A   1      40.045  29.125  29.327  1.00  0.00     0.031 A 
ATOM     36  C   UNL A   1      38.982  30.152  29.246  1.00  0.00     0.074 A 
ATOM     37  C   UNL A   1      41.097  29.305  30.154  1.00  0.00     0.049 A 
ATOM     38  N   UNL A   1      39.148  31.404  29.508  1.00  0.00    -0.248 NA
ATOM     39  C   UNL A   1      37.625  29.836  28.812  1.00  0.00     0.031 C 
ATOM     40  C   UNL A   1      41.239  30.326  31.188  1.00  0.00     0.029 A 
ATOM     41  N   UNL A   1      42.352  28.699  30.093  1.00  0.00    -0.354 N 
ATOM     42  C   UNL A   1      37.900  31.990  29.564  1.00  0.00     0.074 A 
ATOM     43  C   UNL A   1      36.994  30.984  29.066  1.00  0.00     0.031 C 
ATOM     44  C   UNL A   1      42.537  30.457  31.498  1.00  0.00     0.029 A 
ATOM     45  C   UNL A   1      43.292  29.634  30.569  1.00  0.00     0.049 A 
ATOM     46  H   UNL A   1      42.546  27.788  29.776  1.00  0.00     0.167 HD
ATOM     47  C   UNL A   1      37.759  33.211  30.160  1.00  0.00     0.037 A 
ATOM     48  C   UNL A   1      44.290  30.098  29.760  1.00  0.00     0.037 A 
ATOM     49  C   UNL A   1      39.060  33.749  30.562  1.00  0.00     0.049 A 
ATOM     50  C   UNL A   1      44.208  31.582  29.475  1.00  0.00     0.074 A 
ATOM     51  C   UNL A   1      39.736  33.743  31.772  1.00  0.00     0.029 A 
ATOM     52  N   UNL A   1      39.993  34.104  29.593  1.00  0.00    -0.354 N 
ATOM     53  N   UNL A   1      43.154  32.315  29.708  1.00  0.00    -0.248 NA
ATOM     54  C   UNL A   1      45.299  32.355  28.888  1.00  0.00     0.031 C 
ATOM     55  C   UNL A   1      41.098  34.029  31.516  1.00  0.00     0.029 A 
ATOM     56  C   UNL A   1      41.251  34.227  30.155  1.00  0.00     0.049 A 
ATOM     57  H   UNL A   1      39.787  34.249  28.641  1.00  0.00     0.167 HD
ATOM     58  C   UNL A   1      43.378  33.598  29.279  1.00  0.00     0.074 A 
ATOM     59  C   UNL A   1      44.749  33.580  28.805  1.00  0.00     0.031 C 
ATOM     60  C   UNL A   1      42.411  34.562  29.340  1.00  0.00     0.037 A 
BRANCH  47  61
ATOM     61  C   UNL A   1      36.427  33.740  30.669  1.00  0.00     0.058 A 
ATOM     62  C   UNL A   1      35.442  34.201  29.768  1.00  0.00     0.135 A 
ATOM     63  C   UNL A   1      36.088  33.892  32.027  1.00  0.00     0.135 A 
ATOM     64  F   UNL A   1      35.554  34.016  28.446  1.00  0.00    -0.206 F 
ATOM     65  C   UNL A   1      34.292  34.882  30.177  1.00  0.00     0.059 A 
ATOM     66  C   UNL A   1      34.975  34.622  32.463  1.00  0.00     0.059 A 
ATOM     67  F   UNL A   1      36.794  33.288  32.992  1.00  0.00    -0.206 F 
ATOM     68  C   UNL A   1      34.087  35.128  31.526  1.00  0.00     0.060 A 
BRANCH  68  69
ATOM     69  S   UNL A   1      32.649  36.091  32.028  1.00  0.00     0.124 S 
ATOM     70  O   UNL A   1      32.208  36.671  30.762  1.00  0.00    -0.237 OA
ATOM     71  O   UNL A   1      31.780  35.065  32.593  1.00  0.00    -0.237 OA
ATOM     72  O   UNL A   1      33.197  37.045  32.987  1.00  0.00    -0.744 OA
ENDBRANCH  68  69
ENDBRANCH  47  61
BRANCH  48  73
ATOM     73  C   UNL A   1      44.805  29.061  28.824  1.00  0.00     0.058 A 
ATOM     74  C   UNL A   1      44.290  29.057  27.512  1.00  0.00     0.135 A 
ATOM     75  C   UNL A   1      46.041  28.434  29.037  1.00  0.00     0.135 A 
ATOM     76  F   UNL A   1      43.100  29.628  27.257  1.00  0.00    -0.206 F 
ATOM     77  C   UNL A   1      45.043  28.614  26.432  1.00  0.00     0.059 A 
ATOM     78  C   UNL A   1      46.811  27.974  27.966  1.00  0.00     0.059 A 
ATOM     79  F   UNL A   1      46.579  28.401  30.264  1.00  0.00    -0.206 F 
ATOM     80  C   UNL A   1      46.332  28.140  26.665  1.00  0.00     0.060 A 
BRANCH  80  81
ATOM     81  S   UNL A   1      47.421  27.936  25.235  1.00  0.00     0.124 S 
ATOM     82  O   UNL A   1      48.670  28.515  25.722  1.00  0.00    -0.237 OA
ATOM     83  O   UNL A   1      47.423  26.483  25.071  1.00  0.00    -0.237 OA
ATOM     84  O   UNL A   1      46.742  28.689  24.189  1.00  0.00    -0.744 OA
ENDBRANCH  80  81
ENDBRANCH  48  73
BRANCH  60  85
ATOM     85  C   UNL A   1      42.499  35.941  28.729  1.00  0.00     0.058 A 
ATOM     86  C   UNL A   1      41.919  36.297  27.499  1.00  0.00     0.135 A 
ATOM     87  C   UNL A   1      43.081  37.007  29.458  1.00  0.00     0.135 A 
ATOM     88  F   UNL A   1      41.237  35.406  26.766  1.00  0.00    -0.206 F 
ATOM     89  C   UNL A   1      41.979  37.597  26.992  1.00  0.00     0.059 A 
ATOM     90  C   UNL A   1      43.103  38.321  28.996  1.00  0.00     0.059 A 
ATOM     91  F   UNL A   1      43.645  36.807  30.659  1.00  0.00    -0.206 F 
ATOM     92  C   UNL A   1      42.575  38.603  27.745  1.00  0.00     0.060 A 
BRANCH  92  93
ATOM     93  S   UNL A   1      42.614  40.294  27.123  1.00  0.00     0.124 S 
ATOM     94  O   UNL A   1      43.575  40.180  26.031  1.00  0.00    -0.237 OA
ATOM     95  O   UNL A   1      41.230  40.527  26.722  1.00  0.00    -0.237 OA
ATOM     96  O   UNL A   1      43.060  41.063  28.280  1.00  0.00    -0.744 OA
ENDBRANCH  92  93
ENDBRANCH  60  85
ENDBRANCH  34  35
ENDBRANCH  26  29
ENDBRANCH  24  25
ENDBRANCH   1  24
TORSDOF 16
ENDMDL
MODEL 3
REMARK VINA RESULT:     -12.9      1.604      2.361
REMARK SMILES Cc1ccc(NC(=O)N[C@@H](C(=O)NCCCNC(=O)c2ccc(-c3c4nc(c(-c5c(F)cc(S(=O)(=O)[O-])cc5F)c5ccc([nH]5)c(-c5c(F)cc(S(=O)(=O)[O-])cc5F)c5nc(c(-c6c(F)cc(S(=O)(=O)[O-])cc6F)c6ccc3[nH]6)C=C5)C=C4)cc2)C(C)C)cc1
REMARK SMILES IDX 15 1 14 2 13 3 11 4 12 5 10 7 9 8 6 9 7 10 8 12 5 14 1 15
REMARK SMILES IDX 2 16 3 17 90 18 4 19 89 20 86 21 87 22 88 23 16 24 17 25
REMARK SMILES IDX 18 26 19 28 20 29 21 30 85 31 22 32 84 33 23 34 24 35 25 36
REMARK SMILES IDX 78 37 26 38 83 39 77 40 79 41 27 42 82 43 76 44 75 45 28 47
REMARK SMILES IDX 62 48 41 49 61 50 42 51 45 52 60 53 80 54 43 55 44 56 59 58
REMARK SMILES IDX 81 59 46 60 29 61 30 62 39 63 31 64 32 65 38 66 40 67 33 68
REMARK SMILES IDX 34 69 35 70 36 71 37 72 63 73 64 74 73 75 65 76 66 77 72 78
REMARK SMILES IDX 74 79 67 80 68 81 69 82 70 83 71 84 47 85 48 86 57 87 49 88
REMARK SMILES IDX 50 89 56 90 58 91 51 92 52 93 53 94 54 95 55 96
REMARK H PARENT 13 6 6 11 9 13 17 27 79 46 45 57
REMARK Flexibility Score: inf
ROOT
ATOM      1  C   UNL A   1      34.471  28.774  25.890  1.00  0.00     0.042 C 
ENDROOT
BRANCH   1   2
ATOM      2  C   UNL A   1      33.541  27.604  25.598  1.00  0.00     0.117 C 
BRANCH   2   3
ATOM      3  N   UNL A   1      33.583  27.152  24.208  1.00  0.00    -0.354 N 
ATOM      4  C   UNL A   1      33.650  25.901  23.650  1.00  0.00     0.242 C 
ATOM      5  O   UNL A   1      33.562  25.841  22.419  1.00  0.00    -0.273 OA
ATOM      6  H   UNL A   1      33.560  27.882  23.549  1.00  0.00     0.163 HD
BRANCH   4   7
ATOM      7  C   UNL A   1      33.677  24.608  24.519  1.00  0.00     0.175 C 
BRANCH   7   8
ATOM      8  N   UNL A   1      32.740  24.751  25.619  1.00  0.00    -0.326 N 
ATOM      9  N   UNL A   1      31.788  22.605  26.096  1.00  0.00    -0.308 N 
ATOM     10  C   UNL A   1      31.945  23.922  26.292  1.00  0.00     0.319 C 
ATOM     11  H   UNL A   1      31.284  22.216  26.846  1.00  0.00     0.171 HD
ATOM     12  O   UNL A   1      31.338  24.417  27.251  1.00  0.00    -0.248 OA
ATOM     13  H   UNL A   1      32.678  25.678  25.943  1.00  0.00     0.166 HD
BRANCH   9  14
ATOM     14  C   UNL A   1      32.108  21.596  25.165  1.00  0.00     0.042 A 
ATOM     15  C   UNL A   1      32.525  18.629  22.047  1.00  0.00     0.044 C 
ATOM     16  C   UNL A   1      32.481  19.690  23.101  1.00  0.00    -0.051 A 
ATOM     17  C   UNL A   1      32.742  19.362  24.425  1.00  0.00     0.005 A 
ATOM     18  C   UNL A   1      32.120  21.004  22.798  1.00  0.00     0.005 A 
ATOM     19  C   UNL A   1      32.594  20.319  25.431  1.00  0.00     0.026 A 
ATOM     20  C   UNL A   1      31.951  21.947  23.819  1.00  0.00     0.026 A 
ENDBRANCH   9  14
ENDBRANCH   7   8
BRANCH   7  21
ATOM     21  C   UNL A   1      35.109  24.215  24.983  1.00  0.00     0.015 C 
ATOM     22  C   UNL A   1      35.124  23.480  26.330  1.00  0.00     0.010 C 
ATOM     23  C   UNL A   1      35.758  23.290  23.935  1.00  0.00     0.010 C 
ENDBRANCH   7  21
ENDBRANCH   4   7
ENDBRANCH   2   3
ENDBRANCH   1   2
BRANCH   1  24
ATOM     24  C   UNL A   1      34.211  29.350  27.268  1.00  0.00     0.118 C 
BRANCH  24  25
ATOM     25  N   UNL A   1      34.906  30.602  27.540  1.00  0.00    -0.352 N 
ATOM     26  C   UNL A   1      36.137  30.760  28.152  1.00  0.00     0.251 C 
ATOM     27  H   UNL A   1      34.450  31.427  27.257  1.00  0.00     0.163 HD
ATOM     28  O   UNL A   1      36.535  31.844  28.560  1.00  0.00    -0.269 OA
BRANCH  26  29
ATOM     29  C   UNL A   1      37.020  29.575  28.177  1.00  0.00     0.039 A 
ATOM     30  C   UNL A   1      37.213  28.950  29.414  1.00  0.00     0.014 A 
ATOM     31  C   UNL A   1      37.873  29.334  27.105  1.00  0.00     0.014 A 
ATOM     32  C   UNL A   1      38.381  28.225  29.635  1.00  0.00     0.010 A 
ATOM     33  C   UNL A   1      39.083  28.723  27.364  1.00  0.00     0.010 A 
ATOM     34  C   UNL A   1      39.352  28.197  28.636  1.00  0.00    -0.014 A 
BRANCH  34  35
ATOM     35  C   UNL A   1      40.700  27.677  28.832  1.00  0.00     0.031 A 
ATOM     36  C   UNL A   1      41.008  26.287  28.424  1.00  0.00     0.074 A 
ATOM     37  C   UNL A   1      41.684  28.481  29.291  1.00  0.00     0.049 A 
ATOM     38  N   UNL A   1      41.995  25.590  28.877  1.00  0.00    -0.248 NA
ATOM     39  C   UNL A   1      40.178  25.551  27.477  1.00  0.00     0.031 C 
ATOM     40  C   UNL A   1      43.120  28.227  29.244  1.00  0.00     0.029 A 
ATOM     41  N   UNL A   1      41.561  29.629  30.074  1.00  0.00    -0.354 N 
ATOM     42  C   UNL A   1      42.104  24.459  28.095  1.00  0.00     0.074 A 
ATOM     43  C   UNL A   1      40.914  24.457  27.278  1.00  0.00     0.031 C 
ATOM     44  C   UNL A   1      43.733  29.015  30.141  1.00  0.00     0.029 A 
ATOM     45  C   UNL A   1      42.698  29.694  30.902  1.00  0.00     0.049 A 
ATOM     46  H   UNL A   1      40.817  30.274  30.053  1.00  0.00     0.167 HD
ATOM     47  C   UNL A   1      43.258  23.730  28.128  1.00  0.00     0.037 A 
ATOM     48  C   UNL A   1      42.578  29.642  32.262  1.00  0.00     0.037 A 
ATOM     49  C   UNL A   1      44.184  24.264  29.128  1.00  0.00     0.049 A 
ATOM     50  C   UNL A   1      43.224  28.426  32.888  1.00  0.00     0.074 A 
ATOM     51  C   UNL A   1      45.266  25.124  29.031  1.00  0.00     0.029 A 
ATOM     52  N   UNL A   1      43.862  24.191  30.480  1.00  0.00    -0.354 N 
ATOM     53  N   UNL A   1      43.602  27.371  32.219  1.00  0.00    -0.248 NA
ATOM     54  C   UNL A   1      43.481  28.292  34.320  1.00  0.00     0.031 C 
ATOM     55  C   UNL A   1      45.549  25.624  30.324  1.00  0.00     0.029 A 
ATOM     56  C   UNL A   1      44.653  25.056  31.214  1.00  0.00     0.049 A 
ATOM     57  H   UNL A   1      43.168  23.605  30.861  1.00  0.00     0.167 HD
ATOM     58  C   UNL A   1      44.087  26.424  33.083  1.00  0.00     0.074 A 
ATOM     59  C   UNL A   1      44.023  27.063  34.384  1.00  0.00     0.031 C 
ATOM     60  C   UNL A   1      44.489  25.189  32.654  1.00  0.00     0.037 A 
BRANCH  47  61
ATOM     61  C   UNL A   1      43.663  22.762  27.027  1.00  0.00     0.058 A 
ATOM     62  C   UNL A   1      42.964  21.550  26.838  1.00  0.00     0.135 A 
ATOM     63  C   UNL A   1      44.773  22.930  26.175  1.00  0.00     0.135 A 
ATOM     64  F   UNL A   1      41.815  21.293  27.479  1.00  0.00    -0.206 F 
ATOM     65  C   UNL A   1      43.410  20.536  25.987  1.00  0.00     0.059 A 
ATOM     66  C   UNL A   1      45.275  21.910  25.360  1.00  0.00     0.059 A 
ATOM     67  F   UNL A   1      45.385  24.116  26.057  1.00  0.00    -0.206 F 
ATOM     68  C   UNL A   1      44.592  20.705  25.283  1.00  0.00     0.060 A 
BRANCH  68  69
ATOM     69  S   UNL A   1      45.202  19.349  24.265  1.00  0.00     0.124 S 
ATOM     70  O   UNL A   1      46.641  19.595  24.252  1.00  0.00    -0.237 OA
ATOM     71  O   UNL A   1      44.764  18.181  25.023  1.00  0.00    -0.237 OA
ATOM     72  O   UNL A   1      44.528  19.554  22.986  1.00  0.00    -0.744 OA
ENDBRANCH  68  69
ENDBRANCH  47  61
BRANCH  48  73
ATOM     73  C   UNL A   1      41.356  30.331  32.761  1.00  0.00     0.058 A 
ATOM     74  C   UNL A   1      40.253  29.525  33.108  1.00  0.00     0.135 A 
ATOM     75  C   UNL A   1      41.417  31.618  33.313  1.00  0.00     0.135 A 
ATOM     76  F   UNL A   1      40.137  28.289  32.593  1.00  0.00    -0.206 F 
ATOM     77  C   UNL A   1      39.350  29.907  34.093  1.00  0.00     0.059 A 
ATOM     78  C   UNL A   1      40.514  32.025  34.297  1.00  0.00     0.059 A 
ATOM     79  F   UNL A   1      42.440  32.433  33.015  1.00  0.00    -0.206 F 
ATOM     80  C   UNL A   1      39.533  31.131  34.730  1.00  0.00     0.060 A 
BRANCH  80  81
ATOM     81  S   UNL A   1      38.598  31.434  36.249  1.00  0.00     0.124 S 
ATOM     82  O   UNL A   1      38.215  30.081  36.642  1.00  0.00    -0.237 OA
ATOM     83  O   UNL A   1      39.606  32.075  37.093  1.00  0.00    -0.237 OA
ATOM     84  O   UNL A   1      37.508  32.294  35.803  1.00  0.00    -0.744 OA
ENDBRANCH  80  81
ENDBRANCH  48  73
BRANCH  60  85
ATOM     85  C   UNL A   1      44.860  24.024  33.542  1.00  0.00     0.058 A 
ATOM     86  C   UNL A   1      43.952  23.044  33.977  1.00  0.00     0.135 A 
ATOM     87  C   UNL A   1      46.216  23.789  33.879  1.00  0.00     0.135 A 
ATOM     88  F   UNL A   1      42.659  23.087  33.628  1.00  0.00    -0.206 F 
ATOM     89  C   UNL A   1      44.345  21.952  34.756  1.00  0.00     0.059 A 
ATOM     90  C   UNL A   1      46.637  22.679  34.607  1.00  0.00     0.059 A 
ATOM     91  F   UNL A   1      47.187  24.635  33.501  1.00  0.00    -0.206 F 
ATOM     92  C   UNL A   1      45.689  21.779  35.068  1.00  0.00     0.060 A 
BRANCH  92  93
ATOM     93  S   UNL A   1      46.214  20.347  36.030  1.00  0.00     0.124 S 
ATOM     94  O   UNL A   1      45.597  19.255  35.286  1.00  0.00    -0.237 OA
ATOM     95  O   UNL A   1      47.670  20.418  35.953  1.00  0.00    -0.237 OA
ATOM     96  O   UNL A   1      45.651  20.611  37.351  1.00  0.00    -0.744 OA
ENDBRANCH  92  93
ENDBRANCH  60  85
ENDBRANCH  34  35
ENDBRANCH  26  29
ENDBRANCH  24  25
ENDBRANCH   1  24
TORSDOF 16
ENDMDL
