MODEL 1
REMARK VINA RESULT:     -12.3      0.000      0.000
REMARK SMILES COc1ccc(/C=C(/Sc2nc(C)n[nH]2)C(=O)NCCCNC(=O)c2ccc(-c3c4nc(c(-c5c(F)cc(S(=O)(=O)[O-])cc5F)c5ccc([nH]5)c(-c5c(F)cc(S(=O)(=O)[O-])cc5F)c5nc(c(-c6c(F)cc(S(=O)(=O)[O-])cc6F)c6ccc3[nH]6)C=C5)C=C4)cc2)cc1OC
REMARK SMILES IDX 20 1 19 2 18 3 16 4 17 5 8 7 7 8 6 9 3 10 4 11 92 12 5 13
REMARK SMILES IDX 91 14 2 15 1 16 93 17 94 18 9 19 10 20 11 21 15 22 12 23
REMARK SMILES IDX 14 24 13 26 21 27 22 28 23 29 24 31 25 32 26 33 90 34 27 35
REMARK SMILES IDX 89 36 28 37 29 38 30 39 83 40 31 41 88 42 82 43 84 44 32 45
REMARK SMILES IDX 87 46 81 47 80 48 33 50 67 51 46 52 66 53 47 54 50 55 65 56
REMARK SMILES IDX 85 57 48 58 49 59 64 61 86 62 51 63 34 64 35 65 44 66 36 67
REMARK SMILES IDX 37 68 43 69 45 70 38 71 39 72 40 73 41 74 42 75 68 76 69 77
REMARK SMILES IDX 78 78 70 79 71 80 77 81 79 82 72 83 73 84 74 85 75 86 76 87
REMARK SMILES IDX 52 88 53 89 62 90 54 91 55 92 61 93 63 94 56 95 57 96 58 97
REMARK SMILES IDX 59 98 60 99
REMARK H PARENT 18 6 15 25 22 30 84 49 50 60
REMARK Flexibility Score: inf
ROOT
ATOM      1  C   UNL A   1      32.700  29.013  27.360  1.00  0.00     0.042 C 
ENDROOT
BRANCH   1   2
ATOM      2  C   UNL A   1      32.488  27.561  26.923  1.00  0.00     0.118 C 
BRANCH   2   3
ATOM      3  N   UNL A   1      31.418  27.370  25.951  1.00  0.00    -0.352 N 
ATOM      4  C   UNL A   1      31.399  26.620  24.803  1.00  0.00     0.258 C 
ATOM      5  O   UNL A   1      30.387  25.934  24.645  1.00  0.00    -0.269 OA
ATOM      6  H   UNL A   1      30.583  27.854  26.148  1.00  0.00     0.163 HD
BRANCH   4   7
ATOM      7  C   UNL A   1      32.487  26.675  23.744  1.00  0.00     0.081 C 
ATOM      8  C   UNL A   1      33.171  25.570  23.360  1.00  0.00     0.029 C 
BRANCH   8   9
ATOM      9  C   UNL A   1      33.082  24.129  23.707  1.00  0.00    -0.020 A 
ATOM     10  C   UNL A   1      33.343  21.371  24.313  1.00  0.00     0.160 A 
ATOM     11  C   UNL A   1      32.661  21.791  23.167  1.00  0.00     0.051 A 
ATOM     12  C   UNL A   1      33.929  22.319  25.155  1.00  0.00     0.161 A 
ATOM     13  C   UNL A   1      32.551  23.154  22.857  1.00  0.00     0.012 A 
ATOM     14  C   UNL A   1      33.766  23.684  24.852  1.00  0.00     0.058 A 
BRANCH  10  15
ATOM     15  O   UNL A   1      33.527  20.026  24.479  1.00  0.00    -0.493 OA
ATOM     16  C   UNL A   1      32.585  19.259  23.730  1.00  0.00     0.278 C 
ENDBRANCH  10  15
BRANCH  12  17
ATOM     17  O   UNL A   1      34.704  22.117  26.267  1.00  0.00    -0.493 OA
ATOM     18  C   UNL A   1      34.070  21.834  27.504  1.00  0.00     0.278 C 
ENDBRANCH  12  17
ENDBRANCH   8   9
BRANCH   7  19
ATOM     19  S   UNL A   1      32.659  28.133  22.799  1.00  0.00    -0.045 SA
BRANCH  19  20
ATOM     20  C   UNL A   1      31.094  28.840  22.836  1.00  0.00     0.188 A 
ATOM     21  N   UNL A   1      30.052  28.683  22.056  1.00  0.00    -0.206 NA
ATOM     22  N   UNL A   1      30.863  29.852  23.715  1.00  0.00    -0.254 N 
ATOM     23  C   UNL A   1      29.185  29.652  22.515  1.00  0.00     0.148 A 
ATOM     24  N   UNL A   1      29.647  30.389  23.534  1.00  0.00    -0.158 NA
ATOM     25  H   UNL A   1      31.506  30.152  24.397  1.00  0.00     0.192 HD
ATOM     26  C   UNL A   1      27.861  29.906  21.909  1.00  0.00     0.092 C 
ENDBRANCH  19  20
ENDBRANCH   7  19
ENDBRANCH   4   7
ENDBRANCH   2   3
ENDBRANCH   1   2
BRANCH   1  27
ATOM     27  C   UNL A   1      34.008  29.595  26.847  1.00  0.00     0.118 C 
BRANCH  27  28
ATOM     28  N   UNL A   1      34.128  31.039  27.072  1.00  0.00    -0.352 N 
ATOM     29  C   UNL A   1      35.004  31.717  27.907  1.00  0.00     0.251 C 
ATOM     30  H   UNL A   1      33.502  31.603  26.562  1.00  0.00     0.163 HD
ATOM     31  O   UNL A   1      34.792  32.873  28.222  1.00  0.00    -0.269 OA
BRANCH  29  32
ATOM     32  C   UNL A   1      36.195  31.002  28.404  1.00  0.00     0.039 A 
ATOM     33  C   UNL A   1      36.282  29.607  28.390  1.00  0.00     0.014 A 
ATOM     34  C   UNL A   1      37.261  31.772  28.853  1.00  0.00     0.014 A 
ATOM     35  C   UNL A   1      37.487  29.009  28.753  1.00  0.00     0.010 A 
ATOM     36  C   UNL A   1      38.493  31.202  29.005  1.00  0.00     0.010 A 
ATOM     37  C   UNL A   1      38.597  29.820  29.038  1.00  0.00    -0.014 A 
BRANCH  37  38
ATOM     38  C   UNL A   1      39.923  29.259  29.264  1.00  0.00     0.031 A 
ATOM     39  C   UNL A   1      40.253  29.077  30.701  1.00  0.00     0.074 A 
ATOM     40  C   UNL A   1      40.666  28.723  28.269  1.00  0.00     0.049 A 
ATOM     41  N   UNL A   1      41.051  29.791  31.422  1.00  0.00    -0.248 NA
ATOM     42  C   UNL A   1      39.447  28.124  31.484  1.00  0.00     0.031 C 
ATOM     43  C   UNL A   1      40.304  28.539  26.856  1.00  0.00     0.029 A 
ATOM     44  N   UNL A   1      41.882  28.120  28.334  1.00  0.00    -0.354 N 
ATOM     45  C   UNL A   1      41.067  29.184  32.676  1.00  0.00     0.074 A 
ATOM     46  C   UNL A   1      39.889  28.362  32.722  1.00  0.00     0.031 C 
ATOM     47  C   UNL A   1      41.157  27.671  26.271  1.00  0.00     0.029 A 
ATOM     48  C   UNL A   1      42.230  27.383  27.202  1.00  0.00     0.049 A 
ATOM     49  H   UNL A   1      42.472  28.197  29.118  1.00  0.00     0.167 HD
ATOM     50  C   UNL A   1      42.206  29.173  33.426  1.00  0.00     0.037 A 
ATOM     51  C   UNL A   1      43.320  26.587  27.051  1.00  0.00     0.037 A 
ATOM     52  C   UNL A   1      43.162  30.123  32.897  1.00  0.00     0.049 A 
ATOM     53  C   UNL A   1      44.304  27.022  28.077  1.00  0.00     0.074 A 
ATOM     54  C   UNL A   1      43.169  31.485  32.662  1.00  0.00     0.029 A 
ATOM     55  N   UNL A   1      44.194  29.607  32.148  1.00  0.00    -0.354 N 
ATOM     56  N   UNL A   1      44.873  28.197  28.081  1.00  0.00    -0.248 NA
ATOM     57  C   UNL A   1      44.292  26.332  29.358  1.00  0.00     0.031 C 
ATOM     58  C   UNL A   1      43.896  31.647  31.444  1.00  0.00     0.029 A 
ATOM     59  C   UNL A   1      44.362  30.395  31.041  1.00  0.00     0.049 A 
ATOM     60  H   UNL A   1      44.723  28.808  32.371  1.00  0.00     0.167 HD
ATOM     61  C   UNL A   1      44.893  28.578  29.415  1.00  0.00     0.074 A 
ATOM     62  C   UNL A   1      44.612  27.351  30.160  1.00  0.00     0.031 C 
ATOM     63  C   UNL A   1      44.842  29.898  29.768  1.00  0.00     0.037 A 
BRANCH  50  64
ATOM     64  C   UNL A   1      42.653  28.024  34.318  1.00  0.00     0.058 A 
ATOM     65  C   UNL A   1      42.786  28.268  35.703  1.00  0.00     0.135 A 
ATOM     66  C   UNL A   1      43.249  26.826  33.864  1.00  0.00     0.135 A 
ATOM     67  F   UNL A   1      42.226  29.351  36.265  1.00  0.00    -0.206 F 
ATOM     68  C   UNL A   1      43.570  27.470  36.537  1.00  0.00     0.059 A 
ATOM     69  C   UNL A   1      43.995  25.989  34.688  1.00  0.00     0.059 A 
ATOM     70  F   UNL A   1      43.217  26.433  32.587  1.00  0.00    -0.206 F 
ATOM     71  C   UNL A   1      44.195  26.347  36.009  1.00  0.00     0.060 A 
BRANCH  71  72
ATOM     72  S   UNL A   1      45.308  25.385  37.044  1.00  0.00     0.124 S 
ATOM     73  O   UNL A   1      45.436  24.160  36.266  1.00  0.00    -0.237 OA
ATOM     74  O   UNL A   1      46.489  26.243  37.091  1.00  0.00    -0.237 OA
ATOM     75  O   UNL A   1      44.576  25.265  38.301  1.00  0.00    -0.744 OA
ENDBRANCH  71  72
ENDBRANCH  50  64
BRANCH  51  76
ATOM     76  C   UNL A   1      43.431  25.285  26.337  1.00  0.00     0.058 A 
ATOM     77  C   UNL A   1      44.375  25.095  25.310  1.00  0.00     0.135 A 
ATOM     78  C   UNL A   1      42.827  24.117  26.844  1.00  0.00     0.135 A 
ATOM     79  F   UNL A   1      45.011  26.149  24.778  1.00  0.00    -0.206 F 
ATOM     80  C   UNL A   1      44.743  23.822  24.856  1.00  0.00     0.059 A 
ATOM     81  C   UNL A   1      43.173  22.838  26.403  1.00  0.00     0.059 A 
ATOM     82  F   UNL A   1      41.947  24.179  27.856  1.00  0.00    -0.206 F 
ATOM     83  C   UNL A   1      44.152  22.695  25.428  1.00  0.00     0.060 A 
BRANCH  83  84
ATOM     84  S   UNL A   1      44.754  21.048  24.978  1.00  0.00     0.124 S 
ATOM     85  O   UNL A   1      43.796  20.181  25.658  1.00  0.00    -0.237 OA
ATOM     86  O   UNL A   1      44.670  21.073  23.522  1.00  0.00    -0.237 OA
ATOM     87  O   UNL A   1      46.110  21.024  25.521  1.00  0.00    -0.744 OA
ENDBRANCH  83  84
ENDBRANCH  51  76
BRANCH  63  88
ATOM     88  C   UNL A   1      45.121  30.931  28.706  1.00  0.00     0.058 A 
ATOM     89  C   UNL A   1      44.177  31.429  27.791  1.00  0.00     0.135 A 
ATOM     90  C   UNL A   1      46.380  31.550  28.723  1.00  0.00     0.135 A 
ATOM     91  F   UNL A   1      42.920  30.962  27.772  1.00  0.00    -0.206 F 
ATOM     92  C   UNL A   1      44.484  32.469  26.909  1.00  0.00     0.059 A 
ATOM     93  C   UNL A   1      46.699  32.606  27.877  1.00  0.00     0.059 A 
ATOM     94  F   UNL A   1      47.308  31.161  29.614  1.00  0.00    -0.206 F 
ATOM     95  C   UNL A   1      45.749  33.053  26.961  1.00  0.00     0.060 A 
BRANCH  95  96
ATOM     96  S   UNL A   1      46.130  34.442  25.871  1.00  0.00     0.124 S 
ATOM     97  O   UNL A   1      45.804  35.590  26.710  1.00  0.00    -0.237 OA
ATOM     98  O   UNL A   1      47.549  34.245  25.590  1.00  0.00    -0.237 OA
ATOM     99  O   UNL A   1      45.244  34.234  24.728  1.00  0.00    -0.744 OA
ENDBRANCH  95  96
ENDBRANCH  63  88
ENDBRANCH  37  38
ENDBRANCH  29  32
ENDBRANCH  27  28
ENDBRANCH   1  27
TORSDOF 18
ENDMDL
MODEL 2
REMARK VINA RESULT:     -12.2      3.418      9.715
REMARK SMILES COc1ccc(/C=C(/Sc2nc(C)n[nH]2)C(=O)NCCCNC(=O)c2ccc(-c3c4nc(c(-c5c(F)cc(S(=O)(=O)[O-])cc5F)c5ccc([nH]5)c(-c5c(F)cc(S(=O)(=O)[O-])cc5F)c5nc(c(-c6c(F)cc(S(=O)(=O)[O-])cc6F)c6ccc3[nH]6)C=C5)C=C4)cc2)cc1OC
REMARK SMILES IDX 20 1 19 2 18 3 16 4 17 5 8 7 7 8 6 9 3 10 4 11 92 12 5 13
REMARK SMILES IDX 91 14 2 15 1 16 93 17 94 18 9 19 10 20 11 21 15 22 12 23
REMARK SMILES IDX 14 24 13 26 21 27 22 28 23 29 24 31 25 32 26 33 90 34 27 35
REMARK SMILES IDX 89 36 28 37 29 38 30 39 83 40 31 41 88 42 82 43 84 44 32 45
REMARK SMILES IDX 87 46 81 47 80 48 33 50 67 51 46 52 66 53 47 54 50 55 65 56
REMARK SMILES IDX 85 57 48 58 49 59 64 61 86 62 51 63 34 64 35 65 44 66 36 67
REMARK SMILES IDX 37 68 43 69 45 70 38 71 39 72 40 73 41 74 42 75 68 76 69 77
REMARK SMILES IDX 78 78 70 79 71 80 77 81 79 82 72 83 73 84 74 85 75 86 76 87
REMARK SMILES IDX 52 88 53 89 62 90 54 91 55 92 61 93 63 94 56 95 57 96 58 97
REMARK SMILES IDX 59 98 60 99
REMARK H PARENT 18 6 15 25 22 30 84 49 50 60
REMARK Flexibility Score: inf
ROOT
ATOM      1  C   UNL A   1      36.798  22.182  24.395  1.00  0.00     0.042 C 
ENDROOT
BRANCH   1   2
ATOM      2  C   UNL A   1      35.701  23.065  23.793  1.00  0.00     0.118 C 
BRANCH   2   3
ATOM      3  N   UNL A   1      34.553  22.334  23.270  1.00  0.00    -0.352 N 
ATOM      4  C   UNL A   1      33.222  22.455  23.577  1.00  0.00     0.258 C 
ATOM      5  O   UNL A   1      32.463  22.472  22.605  1.00  0.00    -0.269 OA
ATOM      6  H   UNL A   1      34.766  21.650  22.594  1.00  0.00     0.163 HD
BRANCH   4   7
ATOM      7  C   UNL A   1      32.685  22.479  24.997  1.00  0.00     0.081 C 
ATOM      8  C   UNL A   1      32.377  23.638  25.628  1.00  0.00     0.029 C 
BRANCH   8   9
ATOM      9  C   UNL A   1      32.372  25.066  25.220  1.00  0.00    -0.020 A 
ATOM     10  C   UNL A   1      32.100  27.854  24.782  1.00  0.00     0.160 A 
ATOM     11  C   UNL A   1      31.579  26.931  23.869  1.00  0.00     0.051 A 
ATOM     12  C   UNL A   1      32.736  27.398  25.939  1.00  0.00     0.161 A 
ATOM     13  C   UNL A   1      31.695  25.553  24.098  1.00  0.00     0.012 A 
ATOM     14  C   UNL A   1      32.885  26.011  26.126  1.00  0.00     0.058 A 
BRANCH  10  15
ATOM     15  O   UNL A   1      31.831  29.177  24.562  1.00  0.00    -0.493 OA
ATOM     16  C   UNL A   1      30.648  29.364  23.787  1.00  0.00     0.278 C 
ENDBRANCH  10  15
BRANCH  12  17
ATOM     17  O   UNL A   1      33.234  28.125  26.988  1.00  0.00    -0.493 OA
ATOM     18  C   UNL A   1      34.394  28.916  26.786  1.00  0.00     0.278 C 
ENDBRANCH  12  17
ENDBRANCH   8   9
BRANCH   7  19
ATOM     19  S   UNL A   1      32.182  20.973  25.725  1.00  0.00    -0.045 SA
BRANCH  19  20
ATOM     20  C   UNL A   1      33.106  19.783  24.900  1.00  0.00     0.188 A 
ATOM     21  N   UNL A   1      32.759  18.865  24.031  1.00  0.00    -0.206 NA
ATOM     22  N   UNL A   1      34.405  19.608  25.260  1.00  0.00    -0.254 N 
ATOM     23  C   UNL A   1      33.919  18.133  23.888  1.00  0.00     0.148 A 
ATOM     24  N   UNL A   1      34.953  18.560  24.627  1.00  0.00    -0.158 NA
ATOM     25  H   UNL A   1      34.884  20.179  25.904  1.00  0.00     0.192 HD
ATOM     26  C   UNL A   1      34.021  16.935  23.029  1.00  0.00     0.092 C 
ENDBRANCH  19  20
ENDBRANCH   7  19
ENDBRANCH   4   7
ENDBRANCH   2   3
ENDBRANCH   1   2
BRANCH   1  27
ATOM     27  C   UNL A   1      37.661  22.924  25.403  1.00  0.00     0.118 C 
BRANCH  27  28
ATOM     28  N   UNL A   1      38.559  22.042  26.157  1.00  0.00    -0.352 N 
ATOM     29  C   UNL A   1      39.708  22.372  26.863  1.00  0.00     0.251 C 
ATOM     30  H   UNL A   1      38.313  21.089  26.164  1.00  0.00     0.163 HD
ATOM     31  O   UNL A   1      40.510  21.513  27.179  1.00  0.00    -0.269 OA
BRANCH  29  32
ATOM     32  C   UNL A   1      39.932  23.787  27.217  1.00  0.00     0.039 A 
ATOM     33  C   UNL A   1      38.924  24.749  27.101  1.00  0.00     0.014 A 
ATOM     34  C   UNL A   1      41.182  24.129  27.717  1.00  0.00     0.014 A 
ATOM     35  C   UNL A   1      39.172  26.035  27.577  1.00  0.00     0.010 A 
ATOM     36  C   UNL A   1      41.350  25.318  28.368  1.00  0.00     0.010 A 
ATOM     37  C   UNL A   1      40.385  26.303  28.231  1.00  0.00    -0.014 A 
BRANCH  37  38
ATOM     38  C   UNL A   1      40.637  27.577  28.893  1.00  0.00     0.031 A 
ATOM     39  C   UNL A   1      41.702  28.383  28.242  1.00  0.00     0.074 A 
ATOM     40  C   UNL A   1      39.814  28.082  29.840  1.00  0.00     0.049 A 
ATOM     41  N   UNL A   1      42.910  28.572  28.656  1.00  0.00    -0.248 NA
ATOM     42  C   UNL A   1      41.469  28.863  26.868  1.00  0.00     0.031 C 
ATOM     43  C   UNL A   1      38.541  27.532  30.330  1.00  0.00     0.029 A 
ATOM     44  N   UNL A   1      39.887  29.267  30.501  1.00  0.00    -0.354 N 
ATOM     45  C   UNL A   1      43.489  29.442  27.735  1.00  0.00     0.074 A 
ATOM     46  C   UNL A   1      42.668  29.361  26.558  1.00  0.00     0.031 C 
ATOM     47  C   UNL A   1      37.861  28.481  31.009  1.00  0.00     0.029 A 
ATOM     48  C   UNL A   1      38.720  29.638  31.167  1.00  0.00     0.049 A 
ATOM     49  H   UNL A   1      40.701  29.820  30.508  1.00  0.00     0.167 HD
ATOM     50  C   UNL A   1      44.397  30.376  28.140  1.00  0.00     0.037 A 
ATOM     51  C   UNL A   1      38.479  30.819  31.793  1.00  0.00     0.037 A 
ATOM     52  C   UNL A   1      44.865  30.071  29.476  1.00  0.00     0.049 A 
ATOM     53  C   UNL A   1      39.808  31.425  32.073  1.00  0.00     0.074 A 
ATOM     54  C   UNL A   1      45.496  29.000  30.077  1.00  0.00     0.029 A 
ATOM     55  N   UNL A   1      44.327  30.814  30.501  1.00  0.00    -0.354 N 
ATOM     56  N   UNL A   1      40.683  30.903  32.890  1.00  0.00    -0.248 NA
ATOM     57  C   UNL A   1      40.349  32.348  31.088  1.00  0.00     0.031 C 
ATOM     58  C   UNL A   1      44.914  28.908  31.377  1.00  0.00     0.029 A 
ATOM     59  C   UNL A   1      44.022  29.970  31.534  1.00  0.00     0.049 A 
ATOM     60  H   UNL A   1      44.187  31.788  30.494  1.00  0.00     0.167 HD
ATOM     61  C   UNL A   1      41.907  31.078  32.258  1.00  0.00     0.074 A 
ATOM     62  C   UNL A   1      41.647  32.058  31.203  1.00  0.00     0.031 C 
ATOM     63  C   UNL A   1      42.932  30.196  32.461  1.00  0.00     0.037 A 
BRANCH  50  64
ATOM     64  C   UNL A   1      44.522  31.780  27.565  1.00  0.00     0.058 A 
ATOM     65  C   UNL A   1      45.649  32.074  26.765  1.00  0.00     0.135 A 
ATOM     66  C   UNL A   1      43.791  32.906  28.004  1.00  0.00     0.135 A 
ATOM     67  F   UNL A   1      46.401  31.089  26.250  1.00  0.00    -0.206 F 
ATOM     68  C   UNL A   1      46.096  33.377  26.545  1.00  0.00     0.059 A 
ATOM     69  C   UNL A   1      44.193  34.215  27.756  1.00  0.00     0.059 A 
ATOM     70  F   UNL A   1      42.696  32.815  28.764  1.00  0.00    -0.206 F 
ATOM     71  C   UNL A   1      45.374  34.441  27.073  1.00  0.00     0.060 A 
BRANCH  71  72
ATOM     72  S   UNL A   1      46.012  36.114  26.904  1.00  0.00     0.124 S 
ATOM     73  O   UNL A   1      44.780  36.873  26.726  1.00  0.00    -0.237 OA
ATOM     74  O   UNL A   1      46.704  36.300  28.175  1.00  0.00    -0.237 OA
ATOM     75  O   UNL A   1      46.876  36.025  25.731  1.00  0.00    -0.744 OA
ENDBRANCH  71  72
ENDBRANCH  50  64
BRANCH  51  76
ATOM     76  C   UNL A   1      37.215  31.603  31.850  1.00  0.00     0.058 A 
ATOM     77  C   UNL A   1      36.659  32.002  33.081  1.00  0.00     0.135 A 
ATOM     78  C   UNL A   1      36.689  32.231  30.704  1.00  0.00     0.135 A 
ATOM     79  F   UNL A   1      37.109  31.467  34.226  1.00  0.00    -0.206 F 
ATOM     80  C   UNL A   1      35.686  33.005  33.174  1.00  0.00     0.059 A 
ATOM     81  C   UNL A   1      35.714  33.228  30.771  1.00  0.00     0.059 A 
ATOM     82  F   UNL A   1      37.177  31.960  29.483  1.00  0.00    -0.206 F 
ATOM     83  C   UNL A   1      35.236  33.631  32.013  1.00  0.00     0.060 A 
BRANCH  83  84
ATOM     84  S   UNL A   1      34.118  35.049  32.139  1.00  0.00     0.124 S 
ATOM     85  O   UNL A   1      34.935  36.014  32.869  1.00  0.00    -0.237 OA
ATOM     86  O   UNL A   1      33.856  35.365  30.740  1.00  0.00    -0.237 OA
ATOM     87  O   UNL A   1      32.977  34.515  32.878  1.00  0.00    -0.744 OA
ENDBRANCH  83  84
ENDBRANCH  51  76
BRANCH  63  88
ATOM     88  C   UNL A   1      42.840  29.253  33.633  1.00  0.00     0.058 A 
ATOM     89  C   UNL A   1      43.126  29.589  34.969  1.00  0.00     0.135 A 
ATOM     90  C   UNL A   1      42.290  27.984  33.398  1.00  0.00     0.135 A 
ATOM     91  F   UNL A   1      43.563  30.813  35.294  1.00  0.00    -0.206 F 
ATOM     92  C   UNL A   1      42.908  28.689  36.016  1.00  0.00     0.059 A 
ATOM     93  C   UNL A   1      42.036  27.084  34.428  1.00  0.00     0.059 A 
ATOM     94  F   UNL A   1      41.940  27.624  32.152  1.00  0.00    -0.206 F 
ATOM     95  C   UNL A   1      42.360  27.438  35.736  1.00  0.00     0.060 A 
BRANCH  95  96
ATOM     96  S   UNL A   1      42.013  26.297  37.092  1.00  0.00     0.124 S 
ATOM     97  O   UNL A   1      42.165  24.997  36.446  1.00  0.00    -0.237 OA
ATOM     98  O   UNL A   1      43.041  26.644  38.069  1.00  0.00    -0.237 OA
ATOM     99  O   UNL A   1      40.649  26.640  37.488  1.00  0.00    -0.744 OA
ENDBRANCH  95  96
ENDBRANCH  63  88
ENDBRANCH  37  38
ENDBRANCH  29  32
ENDBRANCH  27  28
ENDBRANCH   1  27
TORSDOF 18
ENDMDL
MODEL 3
REMARK VINA RESULT:     -12.2      1.412      2.109
REMARK SMILES COc1ccc(/C=C(/Sc2nc(C)n[nH]2)C(=O)NCCCNC(=O)c2ccc(-c3c4nc(c(-c5c(F)cc(S(=O)(=O)[O-])cc5F)c5ccc([nH]5)c(-c5c(F)cc(S(=O)(=O)[O-])cc5F)c5nc(c(-c6c(F)cc(S(=O)(=O)[O-])cc6F)c6ccc3[nH]6)C=C5)C=C4)cc2)cc1OC
REMARK SMILES IDX 20 1 19 2 18 3 16 4 17 5 8 7 7 8 6 9 3 10 4 11 92 12 5 13
REMARK SMILES IDX 91 14 2 15 1 16 93 17 94 18 9 19 10 20 11 21 15 22 12 23
REMARK SMILES IDX 14 24 13 26 21 27 22 28 23 29 24 31 25 32 26 33 90 34 27 35
REMARK SMILES IDX 89 36 28 37 29 38 30 39 83 40 31 41 88 42 82 43 84 44 32 45
REMARK SMILES IDX 87 46 81 47 80 48 33 50 67 51 46 52 66 53 47 54 50 55 65 56
REMARK SMILES IDX 85 57 48 58 49 59 64 61 86 62 51 63 34 64 35 65 44 66 36 67
REMARK SMILES IDX 37 68 43 69 45 70 38 71 39 72 40 73 41 74 42 75 68 76 69 77
REMARK SMILES IDX 78 78 70 79 71 80 77 81 79 82 72 83 73 84 74 85 75 86 76 87
REMARK SMILES IDX 52 88 53 89 62 90 54 91 55 92 61 93 63 94 56 95 57 96 58 97
REMARK SMILES IDX 59 98 60 99
REMARK H PARENT 18 6 15 25 22 30 84 49 50 60
REMARK Flexibility Score: inf
ROOT
ATOM      1  C   UNL A   1      32.131  29.007  26.742  1.00  0.00     0.042 C 
ENDROOT
BRANCH   1   2
ATOM      2  C   UNL A   1      31.639  29.842  25.556  1.00  0.00     0.118 C 
BRANCH   2   3
ATOM      3  N   UNL A   1      32.028  29.327  24.249  1.00  0.00    -0.352 N 
ATOM      4  C   UNL A   1      31.249  28.974  23.177  1.00  0.00     0.258 C 
ATOM      5  O   UNL A   1      31.646  29.389  22.085  1.00  0.00    -0.269 OA
ATOM      6  H   UNL A   1      32.998  29.214  24.116  1.00  0.00     0.163 HD
BRANCH   4   7
ATOM      7  C   UNL A   1      30.034  28.069  23.282  1.00  0.00     0.081 C 
ATOM      8  C   UNL A   1      30.127  26.791  23.721  1.00  0.00     0.029 C 
BRANCH   8   9
ATOM      9  C   UNL A   1      31.239  25.959  24.248  1.00  0.00    -0.020 A 
ATOM     10  C   UNL A   1      33.340  24.625  25.607  1.00  0.00     0.160 A 
ATOM     11  C   UNL A   1      33.592  25.357  24.442  1.00  0.00     0.051 A 
ATOM     12  C   UNL A   1      32.044  24.574  26.125  1.00  0.00     0.161 A 
ATOM     13  C   UNL A   1      32.556  26.034  23.783  1.00  0.00     0.012 A 
ATOM     14  C   UNL A   1      31.010  25.220  25.422  1.00  0.00     0.058 A 
BRANCH  10  15
ATOM     15  O   UNL A   1      34.418  24.104  26.268  1.00  0.00    -0.493 OA
ATOM     16  C   UNL A   1      35.597  24.112  25.465  1.00  0.00     0.278 C 
ENDBRANCH  10  15
BRANCH  12  17
ATOM     17  O   UNL A   1      31.606  23.992  27.286  1.00  0.00    -0.493 OA
ATOM     18  C   UNL A   1      30.731  22.878  27.207  1.00  0.00     0.278 C 
ENDBRANCH  12  17
ENDBRANCH   8   9
BRANCH   7  19
ATOM     19  S   UNL A   1      28.447  28.779  23.110  1.00  0.00    -0.045 SA
BRANCH  19  20
ATOM     20  C   UNL A   1      28.763  30.447  22.851  1.00  0.00     0.188 A 
ATOM     21  N   UNL A   1      28.919  31.441  23.691  1.00  0.00    -0.206 NA
ATOM     22  N   UNL A   1      28.721  30.922  21.578  1.00  0.00    -0.254 N 
ATOM     23  C   UNL A   1      28.970  32.536  22.854  1.00  0.00     0.148 A 
ATOM     24  N   UNL A   1      28.853  32.257  21.549  1.00  0.00    -0.158 NA
ATOM     25  H   UNL A   1      28.609  30.359  20.779  1.00  0.00     0.192 HD
ATOM     26  C   UNL A   1      29.093  33.925  23.344  1.00  0.00     0.092 C 
ENDBRANCH  19  20
ENDBRANCH   7  19
ENDBRANCH   4   7
ENDBRANCH   2   3
ENDBRANCH   1   2
BRANCH   1  27
ATOM     27  C   UNL A   1      33.519  29.415  27.210  1.00  0.00     0.118 C 
BRANCH  27  28
ATOM     28  N   UNL A   1      33.781  30.851  27.065  1.00  0.00    -0.352 N 
ATOM     29  C   UNL A   1      34.815  31.604  27.603  1.00  0.00     0.251 C 
ATOM     30  H   UNL A   1      33.136  31.348  26.510  1.00  0.00     0.163 HD
ATOM     31  O   UNL A   1      34.739  32.817  27.652  1.00  0.00    -0.269 OA
BRANCH  29  32
ATOM     32  C   UNL A   1      36.005  30.896  28.115  1.00  0.00     0.039 A 
ATOM     33  C   UNL A   1      36.190  29.524  27.924  1.00  0.00     0.014 A 
ATOM     34  C   UNL A   1      36.969  31.656  28.765  1.00  0.00     0.014 A 
ATOM     35  C   UNL A   1      37.398  28.952  28.322  1.00  0.00     0.010 A 
ATOM     36  C   UNL A   1      38.219  31.144  28.960  1.00  0.00     0.010 A 
ATOM     37  C   UNL A   1      38.418  29.779  28.819  1.00  0.00    -0.014 A 
BRANCH  37  38
ATOM     38  C   UNL A   1      39.754  29.270  29.098  1.00  0.00     0.031 A 
ATOM     39  C   UNL A   1      39.999  29.002  30.538  1.00  0.00     0.074 A 
ATOM     40  C   UNL A   1      40.590  28.843  28.123  1.00  0.00     0.049 A 
ATOM     41  N   UNL A   1      40.708  29.701  31.360  1.00  0.00    -0.248 NA
ATOM     42  C   UNL A   1      39.196  27.956  31.197  1.00  0.00     0.031 C 
ATOM     43  C   UNL A   1      40.331  28.744  26.678  1.00  0.00     0.029 A 
ATOM     44  N   UNL A   1      41.830  28.299  28.229  1.00  0.00    -0.354 N 
ATOM     45  C   UNL A   1      40.674  29.007  32.567  1.00  0.00     0.074 A 
ATOM     46  C   UNL A   1      39.543  28.126  32.475  1.00  0.00     0.031 C 
ATOM     47  C   UNL A   1      41.267  27.964  26.096  1.00  0.00     0.029 A 
ATOM     48  C   UNL A   1      42.291  27.663  27.077  1.00  0.00     0.049 A 
ATOM     49  H   UNL A   1      42.361  28.349  29.056  1.00  0.00     0.167 HD
ATOM     50  C   UNL A   1      41.761  28.998  33.392  1.00  0.00     0.037 A 
ATOM     51  C   UNL A   1      43.430  26.935  26.948  1.00  0.00     0.037 A 
ATOM     52  C   UNL A   1      42.696  30.031  32.996  1.00  0.00     0.049 A 
ATOM     53  C   UNL A   1      44.319  27.344  28.067  1.00  0.00     0.074 A 
ATOM     54  C   UNL A   1      42.645  31.404  32.856  1.00  0.00     0.029 A 
ATOM     55  N   UNL A   1      43.802  29.622  32.287  1.00  0.00    -0.354 N 
ATOM     56  N   UNL A   1      44.822  28.542  28.191  1.00  0.00    -0.248 NA
ATOM     57  C   UNL A   1      44.261  26.564  29.294  1.00  0.00     0.031 C 
ATOM     58  C   UNL A   1      43.440  31.690  31.706  1.00  0.00     0.029 A 
ATOM     59  C   UNL A   1      43.999  30.494  31.251  1.00  0.00     0.049 A 
ATOM     60  H   UNL A   1      44.358  28.836  32.492  1.00  0.00     0.167 HD
ATOM     61  C   UNL A   1      44.734  28.827  29.546  1.00  0.00     0.074 A 
ATOM     62  C   UNL A   1      44.472  27.537  30.184  1.00  0.00     0.031 C 
ATOM     63  C   UNL A   1      44.587  30.115  29.984  1.00  0.00     0.037 A 
BRANCH  50  64
ATOM     64  C   UNL A   1      42.211  27.812  34.232  1.00  0.00     0.058 A 
ATOM     65  C   UNL A   1      42.078  27.902  35.637  1.00  0.00     0.135 A 
ATOM     66  C   UNL A   1      43.033  26.758  33.777  1.00  0.00     0.135 A 
ATOM     67  F   UNL A   1      41.290  28.835  36.193  1.00  0.00    -0.206 F 
ATOM     68  C   UNL A   1      42.818  27.108  36.514  1.00  0.00     0.059 A 
ATOM     69  C   UNL A   1      43.742  25.923  34.635  1.00  0.00     0.059 A 
ATOM     70  F   UNL A   1      43.266  26.521  32.483  1.00  0.00    -0.206 F 
ATOM     71  C   UNL A   1      43.671  26.140  35.999  1.00  0.00     0.060 A 
BRANCH  71  72
ATOM     72  S   UNL A   1      44.721  25.201  37.117  1.00  0.00     0.124 S 
ATOM     73  O   UNL A   1      44.391  23.833  36.738  1.00  0.00    -0.237 OA
ATOM     74  O   UNL A   1      46.052  25.669  36.740  1.00  0.00    -0.237 OA
ATOM     75  O   UNL A   1      44.264  25.622  38.438  1.00  0.00    -0.744 OA
ENDBRANCH  71  72
ENDBRANCH  50  64
BRANCH  51  76
ATOM     76  C   UNL A   1      43.659  25.695  26.157  1.00  0.00     0.058 A 
ATOM     77  C   UNL A   1      44.870  25.480  25.472  1.00  0.00     0.135 A 
ATOM     78  C   UNL A   1      42.822  24.570  26.299  1.00  0.00     0.135 A 
ATOM     79  F   UNL A   1      45.735  26.491  25.302  1.00  0.00    -0.206 F 
ATOM     80  C   UNL A   1      45.255  24.215  25.010  1.00  0.00     0.059 A 
ATOM     81  C   UNL A   1      43.182  23.301  25.841  1.00  0.00     0.059 A 
ATOM     82  F   UNL A   1      41.665  24.652  26.974  1.00  0.00    -0.206 F 
ATOM     83  C   UNL A   1      44.413  23.124  25.222  1.00  0.00     0.060 A 
BRANCH  83  84
ATOM     84  S   UNL A   1      44.985  21.460  24.794  1.00  0.00     0.124 S 
ATOM     85  O   UNL A   1      46.401  21.530  25.137  1.00  0.00    -0.237 OA
ATOM     86  O   UNL A   1      44.161  20.618  25.655  1.00  0.00    -0.237 OA
ATOM     87  O   UNL A   1      44.693  21.360  23.367  1.00  0.00    -0.744 OA
ENDBRANCH  83  84
ENDBRANCH  51  76
BRANCH  63  88
ATOM     88  C   UNL A   1      44.879  31.234  29.017  1.00  0.00     0.058 A 
ATOM     89  C   UNL A   1      46.160  31.728  28.711  1.00  0.00     0.135 A 
ATOM     90  C   UNL A   1      43.808  31.724  28.255  1.00  0.00     0.135 A 
ATOM     91  F   UNL A   1      47.251  31.245  29.322  1.00  0.00    -0.206 F 
ATOM     92  C   UNL A   1      46.359  32.692  27.718  1.00  0.00     0.059 A 
ATOM     93  C   UNL A   1      43.986  32.660  27.242  1.00  0.00     0.059 A 
ATOM     94  F   UNL A   1      42.568  31.250  28.457  1.00  0.00    -0.206 F 
ATOM     95  C   UNL A   1      45.265  33.151  26.987  1.00  0.00     0.060 A 
BRANCH  95  96
ATOM     96  S   UNL A   1      45.524  34.346  25.658  1.00  0.00     0.124 S 
ATOM     97  O   UNL A   1      46.967  34.274  25.457  1.00  0.00    -0.237 OA
ATOM     98  O   UNL A   1      44.705  33.802  24.578  1.00  0.00    -0.237 OA
ATOM     99  O   UNL A   1      45.035  35.601  26.225  1.00  0.00    -0.744 OA
ENDBRANCH  95  96
ENDBRANCH  63  88
ENDBRANCH  37  38
ENDBRANCH  29  32
ENDBRANCH  27  28
ENDBRANCH   1  27
TORSDOF 18
ENDMDL
