MODEL 1
REMARK VINA RESULT:     -12.6      0.000      0.000
REMARK SMILES O=C(CCCC(=O)Nc1nc2n(n1)[C@@H](c1ccc(Cl)cc1)C[C@@H](c1ccc(Cl)cc1)N2)NCCCNC(=O)c1ccc(-c2c3nc(c(-c4c(F)cc(S(=O)(=O)[O-])cc4F)c4ccc([nH]4)c(-c4c(F)cc(S(=O)(=O)[O-])cc4F)c4nc(c(-c5c(F)cc(S(=O)(=O)[O-])cc5F)c5ccc2[nH]5)C=C4)C=C3)cc1
REMARK SMILES IDX 33 1 32 2 1 3 2 4 3 6 4 7 5 8 6 9 7 10 8 11 9 13 10 14 13 15
REMARK SMILES IDX 11 16 12 17 31 18 14 19 23 20 22 22 15 23 16 24 21 25 17 26
REMARK SMILES IDX 20 27 18 28 19 29 24 30 25 31 30 32 26 33 29 34 27 35 28 36
REMARK SMILES IDX 34 37 35 38 36 39 37 40 38 42 39 43 40 44 104 45 41 46
REMARK SMILES IDX 103 47 42 48 43 49 44 50 97 51 45 52 102 53 96 54 98 55
REMARK SMILES IDX 46 56 101 57 95 58 94 59 47 61 81 62 60 63 80 64 61 65 64 66
REMARK SMILES IDX 79 67 99 68 62 69 63 70 78 72 100 73 65 74 48 75 49 76 58 77
REMARK SMILES IDX 50 78 51 79 57 80 59 81 52 82 53 83 54 84 55 85 56 86 82 87
REMARK SMILES IDX 83 88 92 89 84 90 85 91 91 92 93 93 86 94 87 95 88 96 89 97
REMARK SMILES IDX 90 98 66 99 67 100 76 101 68 102 69 103 75 104 77 105 70 106
REMARK SMILES IDX 71 107 72 108 73 109 74 110
REMARK H PARENT 32 5 8 12 31 21 36 41 98 60 64 71
REMARK Flexibility Score: inf
ROOT
ATOM      1  C   UNL A   1      39.543  21.550  25.819  1.00  0.00     0.117 C 
ENDROOT
BRANCH   1   2
ATOM      2  N   UNL A   1      38.454  22.407  26.251  1.00  0.00    -0.356 N 
ATOM      3  O   UNL A   1      37.364  22.580  24.257  1.00  0.00    -0.275 OA
ATOM      4  C   UNL A   1      37.377  22.744  25.475  1.00  0.00     0.220 C 
ATOM      5  H   UNL A   1      38.493  22.771  27.165  1.00  0.00     0.163 HD
BRANCH   4   6
ATOM      6  C   UNL A   1      36.195  23.383  26.204  1.00  0.00     0.100 C 
BRANCH   6   7
ATOM      7  C   UNL A   1      34.818  22.733  26.043  1.00  0.00     0.020 C 
BRANCH   7   8
ATOM      8  C   UNL A   1      34.615  21.218  26.135  1.00  0.00     0.101 C 
BRANCH   8   9
ATOM      9  C   UNL A   1      33.326  20.471  25.759  1.00  0.00     0.226 C 
ATOM     10  O   UNL A   1      33.425  19.272  25.486  1.00  0.00    -0.275 OA
ATOM     11  N   UNL A   1      32.062  20.942  25.964  1.00  0.00    -0.293 N 
ATOM     12  H   UNL A   1      31.443  20.313  26.398  1.00  0.00     0.173 HD
BRANCH  11  13
ATOM     13  C   UNL A   1      31.536  22.160  25.655  1.00  0.00     0.250 A 
ATOM     14  N   UNL A   1      31.182  22.435  24.386  1.00  0.00    -0.176 NA
ATOM     15  N   UNL A   1      31.301  23.153  26.531  1.00  0.00    -0.130 NA
ATOM     16  C   UNL A   1      30.713  23.648  24.431  1.00  0.00     0.224 A 
ATOM     17  N   UNL A   1      30.813  24.129  25.715  1.00  0.00    -0.222 N 
ATOM     18  N   UNL A   1      30.270  24.387  23.405  1.00  0.00    -0.347 N 
ATOM     19  C   UNL A   1      30.355  25.478  26.134  1.00  0.00     0.144 C 
ATOM     20  C   UNL A   1      30.084  25.811  23.546  1.00  0.00     0.115 C 
ATOM     21  H   UNL A   1      30.068  23.953  22.545  1.00  0.00     0.164 HD
ATOM     22  C   UNL A   1      29.503  26.067  24.960  1.00  0.00     0.062 C 
BRANCH  19  23
ATOM     23  C   UNL A   1      31.454  26.461  26.598  1.00  0.00    -0.023 A 
ATOM     24  C   UNL A   1      31.116  27.614  27.342  1.00  0.00     0.007 A 
ATOM     25  C   UNL A   1      32.813  26.294  26.292  1.00  0.00     0.007 A 
ATOM     26  C   UNL A   1      32.028  28.654  27.547  1.00  0.00     0.021 A 
ATOM     27  C   UNL A   1      33.734  27.335  26.493  1.00  0.00     0.021 A 
ATOM     28  C   UNL A   1      33.324  28.531  27.074  1.00  0.00     0.041 A 
ATOM     29  Cl  UNL A   1      34.410  29.856  27.201  1.00  0.00    -0.084 Cl
ENDBRANCH  19  23
BRANCH  20  30
ATOM     30  C   UNL A   1      31.351  26.547  23.113  1.00  0.00    -0.025 A 
ATOM     31  C   UNL A   1      32.406  25.897  22.461  1.00  0.00     0.007 A 
ATOM     32  C   UNL A   1      31.481  27.935  23.274  1.00  0.00     0.007 A 
ATOM     33  C   UNL A   1      33.575  26.553  22.069  1.00  0.00     0.021 A 
ATOM     34  C   UNL A   1      32.632  28.615  22.835  1.00  0.00     0.021 A 
ATOM     35  C   UNL A   1      33.682  27.917  22.249  1.00  0.00     0.041 A 
ATOM     36  Cl  UNL A   1      35.102  28.731  21.725  1.00  0.00    -0.084 Cl
ENDBRANCH  20  30
ENDBRANCH  11  13
ENDBRANCH   8   9
ENDBRANCH   7   8
ENDBRANCH   6   7
ENDBRANCH   4   6
ENDBRANCH   1   2
BRANCH   1  37
ATOM     37  C   UNL A   1      40.283  20.917  27.001  1.00  0.00     0.042 C 
BRANCH  37  38
ATOM     38  C   UNL A   1      41.471  21.728  27.456  1.00  0.00     0.118 C 
BRANCH  38  39
ATOM     39  N   UNL A   1      42.403  22.099  26.388  1.00  0.00    -0.352 N 
ATOM     40  C   UNL A   1      42.655  23.352  25.814  1.00  0.00     0.251 C 
ATOM     41  H   UNL A   1      42.932  21.355  26.019  1.00  0.00     0.163 HD
ATOM     42  O   UNL A   1      43.282  23.432  24.785  1.00  0.00    -0.269 OA
BRANCH  40  43
ATOM     43  C   UNL A   1      42.117  24.574  26.471  1.00  0.00     0.039 A 
ATOM     44  C   UNL A   1      40.904  25.190  26.164  1.00  0.00     0.014 A 
ATOM     45  C   UNL A   1      42.895  25.170  27.430  1.00  0.00     0.014 A 
ATOM     46  C   UNL A   1      40.600  26.404  26.803  1.00  0.00     0.010 A 
ATOM     47  C   UNL A   1      42.307  25.925  28.381  1.00  0.00     0.010 A 
ATOM     48  C   UNL A   1      41.383  26.800  27.890  1.00  0.00    -0.014 A 
BRANCH  48  49
ATOM     49  C   UNL A   1      41.294  28.056  28.608  1.00  0.00     0.031 A 
ATOM     50  C   UNL A   1      42.325  29.038  28.246  1.00  0.00     0.074 A 
ATOM     51  C   UNL A   1      40.186  28.452  29.278  1.00  0.00     0.049 A 
ATOM     52  N   UNL A   1      43.389  29.325  28.911  1.00  0.00    -0.248 NA
ATOM     53  C   UNL A   1      42.262  29.649  26.912  1.00  0.00     0.031 C 
ATOM     54  C   UNL A   1      38.873  27.803  29.385  1.00  0.00     0.029 A 
ATOM     55  N   UNL A   1      39.993  29.621  29.944  1.00  0.00    -0.354 N 
ATOM     56  C   UNL A   1      44.022  30.324  28.187  1.00  0.00     0.074 A 
ATOM     57  C   UNL A   1      43.426  30.299  26.875  1.00  0.00     0.031 C 
ATOM     58  C   UNL A   1      37.980  28.673  29.915  1.00  0.00     0.029 A 
ATOM     59  C   UNL A   1      38.680  29.879  30.319  1.00  0.00     0.049 A 
ATOM     60  H   UNL A   1      40.731  30.240  30.148  1.00  0.00     0.167 HD
ATOM     61  C   UNL A   1      44.818  31.244  28.799  1.00  0.00     0.037 A 
ATOM     62  C   UNL A   1      38.221  31.031  30.876  1.00  0.00     0.037 A 
ATOM     63  C   UNL A   1      45.020  30.902  30.190  1.00  0.00     0.049 A 
ATOM     64  C   UNL A   1      39.404  31.716  31.473  1.00  0.00     0.074 A 
ATOM     65  C   UNL A   1      45.549  29.808  30.848  1.00  0.00     0.029 A 
ATOM     66  N   UNL A   1      44.255  31.565  31.126  1.00  0.00    -0.354 N 
ATOM     67  N   UNL A   1      40.092  31.236  32.478  1.00  0.00    -0.248 NA
ATOM     68  C   UNL A   1      40.111  32.691  30.655  1.00  0.00     0.031 C 
ATOM     69  C   UNL A   1      44.697  29.604  31.975  1.00  0.00     0.029 A 
ATOM     70  C   UNL A   1      43.739  30.622  31.983  1.00  0.00     0.049 A 
ATOM     71  H   UNL A   1      44.104  32.536  31.172  1.00  0.00     0.167 HD
ATOM     72  C   UNL A   1      41.419  31.513  32.174  1.00  0.00     0.074 A 
ATOM     73  C   UNL A   1      41.358  32.499  31.095  1.00  0.00     0.031 C 
ATOM     74  C   UNL A   1      42.435  30.712  32.614  1.00  0.00     0.037 A 
BRANCH  61  75
ATOM     75  C   UNL A   1      45.152  32.609  28.257  1.00  0.00     0.058 A 
ATOM     76  C   UNL A   1      46.501  32.918  27.980  1.00  0.00     0.135 A 
ATOM     77  C   UNL A   1      44.257  33.700  28.213  1.00  0.00     0.135 A 
ATOM     78  F   UNL A   1      47.438  31.957  27.991  1.00  0.00    -0.206 F 
ATOM     79  C   UNL A   1      46.937  34.221  27.753  1.00  0.00     0.059 A 
ATOM     80  C   UNL A   1      44.662  34.999  27.925  1.00  0.00     0.059 A 
ATOM     81  F   UNL A   1      42.966  33.583  28.544  1.00  0.00    -0.206 F 
ATOM     82  C   UNL A   1      46.010  35.258  27.746  1.00  0.00     0.060 A 
BRANCH  82  83
ATOM     83  S   UNL A   1      46.584  36.955  27.583  1.00  0.00     0.124 S 
ATOM     84  O   UNL A   1      46.449  37.168  26.147  1.00  0.00    -0.237 OA
ATOM     85  O   UNL A   1      45.643  37.680  28.430  1.00  0.00    -0.237 OA
ATOM     86  O   UNL A   1      47.953  36.895  28.087  1.00  0.00    -0.744 OA
ENDBRANCH  82  83
ENDBRANCH  61  75
BRANCH  62  87
ATOM     87  C   UNL A   1      36.915  31.707  30.635  1.00  0.00     0.058 A 
ATOM     88  C   UNL A   1      36.178  32.309  31.667  1.00  0.00     0.135 A 
ATOM     89  C   UNL A   1      36.494  32.020  29.328  1.00  0.00     0.135 A 
ATOM     90  F   UNL A   1      36.526  32.109  32.947  1.00  0.00    -0.206 F 
ATOM     91  C   UNL A   1      35.119  33.194  31.414  1.00  0.00     0.059 A 
ATOM     92  C   UNL A   1      35.424  32.867  29.045  1.00  0.00     0.059 A 
ATOM     93  F   UNL A   1      37.201  31.608  28.274  1.00  0.00    -0.206 F 
ATOM     94  C   UNL A   1      34.760  33.480  30.096  1.00  0.00     0.060 A 
BRANCH  94  95
ATOM     95  S   UNL A   1      33.541  34.771  29.752  1.00  0.00     0.124 S 
ATOM     96  O   UNL A   1      34.367  35.824  29.171  1.00  0.00    -0.237 OA
ATOM     97  O   UNL A   1      32.628  34.097  28.835  1.00  0.00    -0.237 OA
ATOM     98  O   UNL A   1      32.980  35.074  31.067  1.00  0.00    -0.744 OA
ENDBRANCH  94  95
ENDBRANCH  62  87
BRANCH  74  99
ATOM     99  C   UNL A   1      42.122  29.667  33.663  1.00  0.00     0.058 A 
ATOM    100  C   UNL A   1      41.718  28.351  33.371  1.00  0.00     0.135 A 
ATOM    101  C   UNL A   1      42.408  29.953  35.007  1.00  0.00     0.135 A 
ATOM    102  F   UNL A   1      41.530  27.951  32.110  1.00  0.00    -0.206 F 
ATOM    103  C   UNL A   1      41.564  27.381  34.364  1.00  0.00     0.059 A 
ATOM    104  C   UNL A   1      42.292  28.993  36.012  1.00  0.00     0.059 A 
ATOM    105  F   UNL A   1      42.862  31.169  35.352  1.00  0.00    -0.206 F 
ATOM    106  C   UNL A   1      41.858  27.710  35.685  1.00  0.00     0.060 A 
BRANCH 106 107
ATOM    107  S   UNL A   1      41.747  26.428  36.952  1.00  0.00     0.124 S 
ATOM    108  O   UNL A   1      42.895  26.732  37.798  1.00  0.00    -0.237 OA
ATOM    109  O   UNL A   1      40.436  26.677  37.547  1.00  0.00    -0.237 OA
ATOM    110  O   UNL A   1      41.847  25.186  36.187  1.00  0.00    -0.744 OA
ENDBRANCH 106 107
ENDBRANCH  74  99
ENDBRANCH  48  49
ENDBRANCH  40  43
ENDBRANCH  38  39
ENDBRANCH  37  38
ENDBRANCH   1  37
TORSDOF 19
ENDMDL
MODEL 2
REMARK VINA RESULT:     -12.5      3.225      9.387
REMARK SMILES O=C(CCCC(=O)Nc1nc2n(n1)[C@@H](c1ccc(Cl)cc1)C[C@@H](c1ccc(Cl)cc1)N2)NCCCNC(=O)c1ccc(-c2c3nc(c(-c4c(F)cc(S(=O)(=O)[O-])cc4F)c4ccc([nH]4)c(-c4c(F)cc(S(=O)(=O)[O-])cc4F)c4nc(c(-c5c(F)cc(S(=O)(=O)[O-])cc5F)c5ccc2[nH]5)C=C4)C=C3)cc1
REMARK SMILES IDX 33 1 32 2 1 3 2 4 3 6 4 7 5 8 6 9 7 10 8 11 9 13 10 14 13 15
REMARK SMILES IDX 11 16 12 17 31 18 14 19 23 20 22 22 15 23 16 24 21 25 17 26
REMARK SMILES IDX 20 27 18 28 19 29 24 30 25 31 30 32 26 33 29 34 27 35 28 36
REMARK SMILES IDX 34 37 35 38 36 39 37 40 38 42 39 43 40 44 104 45 41 46
REMARK SMILES IDX 103 47 42 48 43 49 44 50 97 51 45 52 102 53 96 54 98 55
REMARK SMILES IDX 46 56 101 57 95 58 94 59 47 61 81 62 60 63 80 64 61 65 64 66
REMARK SMILES IDX 79 67 99 68 62 69 63 70 78 72 100 73 65 74 48 75 49 76 58 77
REMARK SMILES IDX 50 78 51 79 57 80 59 81 52 82 53 83 54 84 55 85 56 86 82 87
REMARK SMILES IDX 83 88 92 89 84 90 85 91 91 92 93 93 86 94 87 95 88 96 89 97
REMARK SMILES IDX 90 98 66 99 67 100 76 101 68 102 69 103 75 104 77 105 70 106
REMARK SMILES IDX 71 107 72 108 73 109 74 110
REMARK H PARENT 32 5 8 12 31 21 36 41 98 60 64 71
REMARK Flexibility Score: inf
ROOT
ATOM      1  C   UNL A   1      35.994  31.984  28.137  1.00  0.00     0.117 C 
ENDROOT
BRANCH   1   2
ATOM      2  N   UNL A   1      35.289  31.058  27.269  1.00  0.00    -0.356 N 
ATOM      3  O   UNL A   1      36.337  29.141  27.918  1.00  0.00    -0.275 OA
ATOM      4  C   UNL A   1      35.416  29.695  27.322  1.00  0.00     0.220 C 
ATOM      5  H   UNL A   1      34.677  31.436  26.597  1.00  0.00     0.163 HD
BRANCH   4   6
ATOM      6  C   UNL A   1      34.366  28.891  26.556  1.00  0.00     0.100 C 
BRANCH   6   7
ATOM      7  C   UNL A   1      33.134  29.637  26.035  1.00  0.00     0.020 C 
BRANCH   7   8
ATOM      8  C   UNL A   1      31.716  29.080  26.194  1.00  0.00     0.101 C 
BRANCH   8   9
ATOM      9  C   UNL A   1      31.330  27.874  27.065  1.00  0.00     0.226 C 
ATOM     10  O   UNL A   1      31.210  28.067  28.278  1.00  0.00    -0.275 OA
ATOM     11  N   UNL A   1      30.845  26.690  26.591  1.00  0.00    -0.293 N 
ATOM     12  H   UNL A   1      30.035  26.356  27.038  1.00  0.00     0.173 HD
BRANCH  11  13
ATOM     13  C   UNL A   1      31.323  25.905  25.585  1.00  0.00     0.250 A 
ATOM     14  N   UNL A   1      30.492  25.079  24.926  1.00  0.00    -0.176 NA
ATOM     15  N   UNL A   1      32.595  25.887  25.149  1.00  0.00    -0.130 NA
ATOM     16  C   UNL A   1      31.243  24.494  24.039  1.00  0.00     0.224 A 
ATOM     17  N   UNL A   1      32.539  24.932  24.178  1.00  0.00    -0.222 N 
ATOM     18  N   UNL A   1      30.881  23.547  23.164  1.00  0.00    -0.347 N 
ATOM     19  C   UNL A   1      33.663  24.485  23.318  1.00  0.00     0.144 C 
ATOM     20  C   UNL A   1      31.874  22.765  22.468  1.00  0.00     0.115 C 
ATOM     21  H   UNL A   1      29.925  23.384  22.992  1.00  0.00     0.164 HD
ATOM     22  C   UNL A   1      33.044  23.715  22.103  1.00  0.00     0.062 C 
BRANCH  19  23
ATOM     23  C   UNL A   1      34.774  23.667  24.013  1.00  0.00    -0.023 A 
ATOM     24  C   UNL A   1      34.994  23.795  25.404  1.00  0.00     0.007 A 
ATOM     25  C   UNL A   1      35.631  22.795  23.327  1.00  0.00     0.007 A 
ATOM     26  C   UNL A   1      36.142  23.288  26.020  1.00  0.00     0.021 A 
ATOM     27  C   UNL A   1      36.788  22.284  23.938  1.00  0.00     0.021 A 
ATOM     28  C   UNL A   1      37.064  22.576  25.270  1.00  0.00     0.041 A 
ATOM     29  Cl  UNL A   1      38.540  22.068  25.987  1.00  0.00    -0.084 Cl
ENDBRANCH  19  23
BRANCH  20  30
ATOM     30  C   UNL A   1      32.166  21.483  23.246  1.00  0.00    -0.025 A 
ATOM     31  C   UNL A   1      32.258  21.462  24.643  1.00  0.00     0.007 A 
ATOM     32  C   UNL A   1      32.273  20.243  22.598  1.00  0.00     0.007 A 
ATOM     33  C   UNL A   1      32.537  20.301  25.368  1.00  0.00     0.021 A 
ATOM     34  C   UNL A   1      32.499  19.059  23.323  1.00  0.00     0.021 A 
ATOM     35  C   UNL A   1      32.647  19.096  24.705  1.00  0.00     0.041 A 
ATOM     36  Cl  UNL A   1      32.944  17.660  25.602  1.00  0.00    -0.084 Cl
ENDBRANCH  20  30
ENDBRANCH  11  13
ENDBRANCH   8   9
ENDBRANCH   7   8
ENDBRANCH   6   7
ENDBRANCH   4   6
ENDBRANCH   1   2
BRANCH   1  37
ATOM     37  C   UNL A   1      35.042  32.733  29.074  1.00  0.00     0.042 C 
BRANCH  37  38
ATOM     38  C   UNL A   1      35.748  33.737  29.953  1.00  0.00     0.118 C 
BRANCH  38  39
ATOM     39  N   UNL A   1      35.514  33.564  31.388  1.00  0.00    -0.352 N 
ATOM     40  C   UNL A   1      35.919  32.531  32.245  1.00  0.00     0.251 C 
ATOM     41  H   UNL A   1      34.995  34.283  31.816  1.00  0.00     0.163 HD
ATOM     42  O   UNL A   1      35.435  32.434  33.347  1.00  0.00    -0.269 OA
BRANCH  40  43
ATOM     43  C   UNL A   1      36.926  31.545  31.769  1.00  0.00     0.039 A 
ATOM     44  C   UNL A   1      36.656  30.226  31.404  1.00  0.00     0.014 A 
ATOM     45  C   UNL A   1      38.235  31.951  31.723  1.00  0.00     0.014 A 
ATOM     46  C   UNL A   1      37.744  29.395  31.085  1.00  0.00     0.010 A 
ATOM     47  C   UNL A   1      39.085  31.340  30.872  1.00  0.00     0.010 A 
ATOM     48  C   UNL A   1      38.997  29.979  30.894  1.00  0.00    -0.014 A 
BRANCH  48  49
ATOM     49  C   UNL A   1      40.250  29.286  30.665  1.00  0.00     0.031 A 
ATOM     50  C   UNL A   1      41.050  29.058  31.876  1.00  0.00     0.074 A 
ATOM     51  C   UNL A   1      40.517  28.590  29.534  1.00  0.00     0.049 A 
ATOM     52  N   UNL A   1      42.082  29.724  32.258  1.00  0.00    -0.248 NA
ATOM     53  C   UNL A   1      40.550  28.095  32.865  1.00  0.00     0.031 C 
ATOM     54  C   UNL A   1      39.658  28.319  28.375  1.00  0.00     0.029 A 
ATOM     55  N   UNL A   1      41.638  27.879  29.244  1.00  0.00    -0.354 N 
ATOM     56  C   UNL A   1      42.503  29.117  33.432  1.00  0.00     0.074 A 
ATOM     57  C   UNL A   1      41.399  28.303  33.873  1.00  0.00     0.031 C 
ATOM     58  C   UNL A   1      40.224  27.358  27.606  1.00  0.00     0.029 A 
ATOM     59  C   UNL A   1      41.544  27.053  28.131  1.00  0.00     0.049 A 
ATOM     60  H   UNL A   1      42.460  27.945  29.783  1.00  0.00     0.167 HD
ATOM     61  C   UNL A   1      43.810  29.150  33.815  1.00  0.00     0.037 A 
ATOM     62  C   UNL A   1      42.480  26.156  27.720  1.00  0.00     0.037 A 
ATOM     63  C   UNL A   1      44.575  30.023  32.952  1.00  0.00     0.049 A 
ATOM     64  C   UNL A   1      43.773  26.582  28.329  1.00  0.00     0.074 A 
ATOM     65  C   UNL A   1      44.498  31.363  32.621  1.00  0.00     0.029 A 
ATOM     66  N   UNL A   1      45.323  29.435  31.954  1.00  0.00    -0.354 N 
ATOM     67  N   UNL A   1      44.384  27.701  28.032  1.00  0.00    -0.248 NA
ATOM     68  C   UNL A   1      44.145  26.001  29.612  1.00  0.00     0.031 C 
ATOM     69  C   UNL A   1      44.773  31.416  31.221  1.00  0.00     0.029 A 
ATOM     70  C   UNL A   1      45.070  30.121  30.789  1.00  0.00     0.049 A 
ATOM     71  H   UNL A   1      45.926  28.665  32.055  1.00  0.00     0.167 HD
ATOM     72  C   UNL A   1      44.878  28.176  29.241  1.00  0.00     0.074 A 
ATOM     73  C   UNL A   1      44.791  27.038  30.155  1.00  0.00     0.031 C 
ATOM     74  C   UNL A   1      45.038  29.515  29.470  1.00  0.00     0.037 A 
BRANCH  61  75
ATOM     75  C   UNL A   1      44.473  28.169  34.746  1.00  0.00     0.058 A 
ATOM     76  C   UNL A   1      44.697  26.851  34.296  1.00  0.00     0.135 A 
ATOM     77  C   UNL A   1      44.689  28.387  36.124  1.00  0.00     0.135 A 
ATOM     78  F   UNL A   1      44.526  26.531  33.003  1.00  0.00    -0.206 F 
ATOM     79  C   UNL A   1      45.035  25.814  35.162  1.00  0.00     0.059 A 
ATOM     80  C   UNL A   1      45.088  27.379  36.995  1.00  0.00     0.059 A 
ATOM     81  F   UNL A   1      44.427  29.558  36.716  1.00  0.00    -0.206 F 
ATOM     82  C   UNL A   1      45.210  26.086  36.515  1.00  0.00     0.060 A 
BRANCH  82  83
ATOM     83  S   UNL A   1      45.518  24.729  37.656  1.00  0.00     0.124 S 
ATOM     84  O   UNL A   1      44.705  23.670  37.069  1.00  0.00    -0.237 OA
ATOM     85  O   UNL A   1      46.963  24.561  37.549  1.00  0.00    -0.237 OA
ATOM     86  O   UNL A   1      45.046  25.253  38.934  1.00  0.00    -0.744 OA
ENDBRANCH  82  83
ENDBRANCH  61  75
BRANCH  62  87
ATOM     87  C   UNL A   1      42.257  24.810  27.123  1.00  0.00     0.058 A 
ATOM     88  C   UNL A   1      42.882  24.401  25.934  1.00  0.00     0.135 A 
ATOM     89  C   UNL A   1      41.634  23.785  27.861  1.00  0.00     0.135 A 
ATOM     90  F   UNL A   1      43.541  25.294  25.179  1.00  0.00    -0.206 F 
ATOM     91  C   UNL A   1      42.920  23.058  25.530  1.00  0.00     0.059 A 
ATOM     92  C   UNL A   1      41.624  22.448  27.468  1.00  0.00     0.059 A 
ATOM     93  F   UNL A   1      41.123  24.038  29.068  1.00  0.00    -0.206 F 
ATOM     94  C   UNL A   1      42.299  22.085  26.314  1.00  0.00     0.060 A 
BRANCH  94  95
ATOM     95  S   UNL A   1      42.516  20.333  25.918  1.00  0.00     0.124 S 
ATOM     96  O   UNL A   1      42.797  19.756  27.228  1.00  0.00    -0.237 OA
ATOM     97  O   UNL A   1      41.224  19.988  25.333  1.00  0.00    -0.237 OA
ATOM     98  O   UNL A   1      43.636  20.328  24.981  1.00  0.00    -0.744 OA
ENDBRANCH  94  95
ENDBRANCH  62  87
BRANCH  74  99
ATOM     99  C   UNL A   1      44.923  30.463  28.297  1.00  0.00     0.058 A 
ATOM    100  C   UNL A   1      43.712  31.019  27.846  1.00  0.00     0.135 A 
ATOM    101  C   UNL A   1      46.099  30.963  27.716  1.00  0.00     0.135 A 
ATOM    102  F   UNL A   1      42.548  30.689  28.415  1.00  0.00    -0.206 F 
ATOM    103  C   UNL A   1      43.665  31.989  26.842  1.00  0.00     0.059 A 
ATOM    104  C   UNL A   1      46.080  31.954  26.735  1.00  0.00     0.059 A 
ATOM    105  F   UNL A   1      47.296  30.527  28.142  1.00  0.00    -0.206 F 
ATOM    106  C   UNL A   1      44.857  32.455  26.294  1.00  0.00     0.060 A 
BRANCH 106 107
ATOM    107  S   UNL A   1      44.796  33.776  25.064  1.00  0.00     0.124 S 
ATOM    108  O   UNL A   1      44.318  33.072  23.880  1.00  0.00    -0.237 OA
ATOM    109  O   UNL A   1      43.859  34.726  25.659  1.00  0.00    -0.237 OA
ATOM    110  O   UNL A   1      46.180  34.241  24.997  1.00  0.00    -0.744 OA
ENDBRANCH 106 107
ENDBRANCH  74  99
ENDBRANCH  48  49
ENDBRANCH  40  43
ENDBRANCH  38  39
ENDBRANCH  37  38
ENDBRANCH   1  37
TORSDOF 19
ENDMDL
MODEL 3
REMARK VINA RESULT:     -11.4      1.839      2.958
REMARK SMILES O=C(CCCC(=O)Nc1nc2n(n1)[C@@H](c1ccc(Cl)cc1)C[C@@H](c1ccc(Cl)cc1)N2)NCCCNC(=O)c1ccc(-c2c3nc(c(-c4c(F)cc(S(=O)(=O)[O-])cc4F)c4ccc([nH]4)c(-c4c(F)cc(S(=O)(=O)[O-])cc4F)c4nc(c(-c5c(F)cc(S(=O)(=O)[O-])cc5F)c5ccc2[nH]5)C=C4)C=C3)cc1
REMARK SMILES IDX 33 1 32 2 1 3 2 4 3 6 4 7 5 8 6 9 7 10 8 11 9 13 10 14 13 15
REMARK SMILES IDX 11 16 12 17 31 18 14 19 23 20 22 22 15 23 16 24 21 25 17 26
REMARK SMILES IDX 20 27 18 28 19 29 24 30 25 31 30 32 26 33 29 34 27 35 28 36
REMARK SMILES IDX 34 37 35 38 36 39 37 40 38 42 39 43 40 44 104 45 41 46
REMARK SMILES IDX 103 47 42 48 43 49 44 50 97 51 45 52 102 53 96 54 98 55
REMARK SMILES IDX 46 56 101 57 95 58 94 59 47 61 81 62 60 63 80 64 61 65 64 66
REMARK SMILES IDX 79 67 99 68 62 69 63 70 78 72 100 73 65 74 48 75 49 76 58 77
REMARK SMILES IDX 50 78 51 79 57 80 59 81 52 82 53 83 54 84 55 85 56 86 82 87
REMARK SMILES IDX 83 88 92 89 84 90 85 91 91 92 93 93 86 94 87 95 88 96 89 97
REMARK SMILES IDX 90 98 66 99 67 100 76 101 68 102 69 103 75 104 77 105 70 106
REMARK SMILES IDX 71 107 72 108 73 109 74 110
REMARK H PARENT 32 5 8 12 31 21 36 41 98 60 64 71
REMARK Flexibility Score: inf
ROOT
ATOM      1  C   UNL A   1      37.469  21.851  25.458  1.00  0.00     0.117 C 
ENDROOT
BRANCH   1   2
ATOM      2  N   UNL A   1      36.345  21.971  26.368  1.00  0.00    -0.356 N 
ATOM      3  O   UNL A   1      35.801  24.140  25.930  1.00  0.00    -0.275 OA
ATOM      4  C   UNL A   1      35.513  23.058  26.435  1.00  0.00     0.220 C 
ATOM      5  H   UNL A   1      36.168  21.220  26.980  1.00  0.00     0.163 HD
BRANCH   4   6
ATOM      6  C   UNL A   1      34.216  22.865  27.219  1.00  0.00     0.100 C 
BRANCH   6   7
ATOM      7  C   UNL A   1      33.595  21.465  27.242  1.00  0.00     0.020 C 
BRANCH   7   8
ATOM      8  C   UNL A   1      33.672  20.519  26.040  1.00  0.00     0.101 C 
BRANCH   8   9
ATOM      9  C   UNL A   1      32.534  20.262  25.040  1.00  0.00     0.226 C 
ATOM     10  O   UNL A   1      32.167  19.094  24.888  1.00  0.00    -0.275 OA
ATOM     11  N   UNL A   1      31.719  21.225  24.519  1.00  0.00    -0.293 N 
ATOM     12  H   UNL A   1      30.756  21.029  24.561  1.00  0.00     0.173 HD
BRANCH  11  13
ATOM     13  C   UNL A   1      32.050  22.418  23.950  1.00  0.00     0.250 A 
ATOM     14  N   UNL A   1      33.280  22.929  24.132  1.00  0.00    -0.176 NA
ATOM     15  N   UNL A   1      31.243  23.159  23.171  1.00  0.00    -0.130 NA
ATOM     16  C   UNL A   1      33.275  24.044  23.461  1.00  0.00     0.224 A 
ATOM     17  N   UNL A   1      32.035  24.235  22.900  1.00  0.00    -0.222 N 
ATOM     18  N   UNL A   1      34.266  24.942  23.369  1.00  0.00    -0.347 N 
ATOM     19  C   UNL A   1      31.677  25.399  22.052  1.00  0.00     0.144 C 
ATOM     20  C   UNL A   1      34.014  26.270  22.865  1.00  0.00     0.115 C 
ATOM     21  H   UNL A   1      35.176  24.692  23.648  1.00  0.00     0.164 HD
ATOM     22  C   UNL A   1      33.008  26.141  21.692  1.00  0.00     0.062 C 
BRANCH  19  23
ATOM     23  C   UNL A   1      30.617  26.365  22.626  1.00  0.00    -0.023 A 
ATOM     24  C   UNL A   1      29.592  25.882  23.472  1.00  0.00     0.007 A 
ATOM     25  C   UNL A   1      30.583  27.735  22.329  1.00  0.00     0.007 A 
ATOM     26  C   UNL A   1      28.473  26.656  23.793  1.00  0.00     0.021 A 
ATOM     27  C   UNL A   1      29.460  28.518  22.645  1.00  0.00     0.021 A 
ATOM     28  C   UNL A   1      28.388  27.960  23.332  1.00  0.00     0.041 A 
ATOM     29  Cl  UNL A   1      26.958  28.872  23.605  1.00  0.00    -0.084 Cl
ENDBRANCH  19  23
BRANCH  20  30
ATOM     30  C   UNL A   1      33.697  27.216  24.022  1.00  0.00    -0.025 A 
ATOM     31  C   UNL A   1      33.610  28.603  23.850  1.00  0.00     0.007 A 
ATOM     32  C   UNL A   1      33.392  26.728  25.302  1.00  0.00     0.007 A 
ATOM     33  C   UNL A   1      33.333  29.482  24.899  1.00  0.00     0.021 A 
ATOM     34  C   UNL A   1      33.058  27.601  26.354  1.00  0.00     0.021 A 
ATOM     35  C   UNL A   1      33.047  28.977  26.151  1.00  0.00     0.041 A 
ATOM     36  Cl  UNL A   1      32.661  30.056  27.432  1.00  0.00    -0.084 Cl
ENDBRANCH  20  30
ENDBRANCH  11  13
ENDBRANCH   8   9
ENDBRANCH   7   8
ENDBRANCH   6   7
ENDBRANCH   4   6
ENDBRANCH   1   2
BRANCH   1  37
ATOM     37  C   UNL A   1      38.802  22.160  26.145  1.00  0.00     0.042 C 
BRANCH  37  38
ATOM     38  C   UNL A   1      39.953  21.360  25.588  1.00  0.00     0.118 C 
BRANCH  38  39
ATOM     39  N   UNL A   1      40.697  20.583  26.582  1.00  0.00    -0.352 N 
ATOM     40  C   UNL A   1      41.713  20.988  27.458  1.00  0.00     0.251 C 
ATOM     41  H   UNL A   1      40.444  19.634  26.646  1.00  0.00     0.163 HD
ATOM     42  O   UNL A   1      42.375  20.163  28.041  1.00  0.00    -0.269 OA
BRANCH  40  43
ATOM     43  C   UNL A   1      41.983  22.441  27.637  1.00  0.00     0.039 A 
ATOM     44  C   UNL A   1      43.120  23.113  27.191  1.00  0.00     0.014 A 
ATOM     45  C   UNL A   1      41.057  23.174  28.334  1.00  0.00     0.014 A 
ATOM     46  C   UNL A   1      43.268  24.465  27.543  1.00  0.00     0.010 A 
ATOM     47  C   UNL A   1      40.965  24.501  28.113  1.00  0.00     0.010 A 
ATOM     48  C   UNL A   1      42.172  25.137  28.088  1.00  0.00    -0.014 A 
BRANCH  48  49
ATOM     49  C   UNL A   1      42.156  26.490  28.607  1.00  0.00     0.031 A 
ATOM     50  C   UNL A   1      43.194  27.368  28.051  1.00  0.00     0.074 A 
ATOM     51  C   UNL A   1      41.094  27.023  29.257  1.00  0.00     0.049 A 
ATOM     52  N   UNL A   1      44.298  27.715  28.615  1.00  0.00    -0.248 NA
ATOM     53  C   UNL A   1      43.082  27.769  26.643  1.00  0.00     0.031 C 
ATOM     54  C   UNL A   1      39.771  26.446  29.523  1.00  0.00     0.029 A 
ATOM     55  N   UNL A   1      40.968  28.287  29.743  1.00  0.00    -0.354 N 
ATOM     56  C   UNL A   1      44.922  28.567  27.717  1.00  0.00     0.074 A 
ATOM     57  C   UNL A   1      44.261  28.364  26.453  1.00  0.00     0.031 C 
ATOM     58  C   UNL A   1      38.930  27.418  29.952  1.00  0.00     0.029 A 
ATOM     59  C   UNL A   1      39.684  28.646  30.132  1.00  0.00     0.049 A 
ATOM     60  H   UNL A   1      41.733  28.903  29.815  1.00  0.00     0.167 HD
ATOM     61  C   UNL A   1      45.773  29.542  28.143  1.00  0.00     0.037 A 
ATOM     62  C   UNL A   1      39.286  29.885  30.525  1.00  0.00     0.037 A 
ATOM     63  C   UNL A   1      46.035  29.409  29.560  1.00  0.00     0.049 A 
ATOM     64  C   UNL A   1      40.516  30.610  30.955  1.00  0.00     0.074 A 
ATOM     65  C   UNL A   1      46.566  28.410  30.355  1.00  0.00     0.029 A 
ATOM     66  N   UNL A   1      45.338  30.235  30.416  1.00  0.00    -0.354 N 
ATOM     67  N   UNL A   1      41.240  30.266  31.989  1.00  0.00    -0.248 NA
ATOM     68  C   UNL A   1      41.209  31.423  29.965  1.00  0.00     0.031 C 
ATOM     69  C   UNL A   1      45.766  28.412  31.537  1.00  0.00     0.029 A 
ATOM     70  C   UNL A   1      44.839  29.453  31.430  1.00  0.00     0.049 A 
ATOM     71  H   UNL A   1      45.217  31.206  30.318  1.00  0.00     0.167 HD
ATOM     72  C   UNL A   1      42.558  30.446  31.586  1.00  0.00     0.074 A 
ATOM     73  C   UNL A   1      42.471  31.256  30.372  1.00  0.00     0.031 C 
ATOM     74  C   UNL A   1      43.572  29.685  32.099  1.00  0.00     0.037 A 
BRANCH  61  75
ATOM     75  C   UNL A   1      46.119  30.795  27.382  1.00  0.00     0.058 A 
ATOM     76  C   UNL A   1      47.478  31.135  27.217  1.00  0.00     0.135 A 
ATOM     77  C   UNL A   1      45.192  31.792  27.009  1.00  0.00     0.135 A 
ATOM     78  F   UNL A   1      48.446  30.261  27.536  1.00  0.00    -0.206 F 
ATOM     79  C   UNL A   1      47.885  32.396  26.786  1.00  0.00     0.059 A 
ATOM     80  C   UNL A   1      45.576  33.035  26.517  1.00  0.00     0.059 A 
ATOM     81  F   UNL A   1      43.874  31.653  27.196  1.00  0.00    -0.206 F 
ATOM     82  C   UNL A   1      46.923  33.346  26.457  1.00  0.00     0.060 A 
BRANCH  82  83
ATOM     83  S   UNL A   1      47.442  35.015  26.026  1.00  0.00     0.124 S 
ATOM     84  O   UNL A   1      48.105  35.435  27.256  1.00  0.00    -0.237 OA
ATOM     85  O   UNL A   1      48.310  34.779  24.878  1.00  0.00    -0.237 OA
ATOM     86  O   UNL A   1      46.183  35.689  25.725  1.00  0.00    -0.744 OA
ENDBRANCH  82  83
ENDBRANCH  61  75
BRANCH  62  87
ATOM     87  C   UNL A   1      37.990  30.563  30.242  1.00  0.00     0.058 A 
ATOM     88  C   UNL A   1      37.239  31.200  31.243  1.00  0.00     0.135 A 
ATOM     89  C   UNL A   1      37.593  30.840  28.919  1.00  0.00     0.135 A 
ATOM     90  F   UNL A   1      37.564  31.035  32.534  1.00  0.00    -0.206 F 
ATOM     91  C   UNL A   1      36.192  32.085  30.946  1.00  0.00     0.059 A 
ATOM     92  C   UNL A   1      36.534  31.686  28.593  1.00  0.00     0.059 A 
ATOM     93  F   UNL A   1      38.315  30.393  27.890  1.00  0.00    -0.206 F 
ATOM     94  C   UNL A   1      35.857  32.334  29.614  1.00  0.00     0.060 A 
BRANCH  94  95
ATOM     95  S   UNL A   1      34.653  33.623  29.212  1.00  0.00     0.124 S 
ATOM     96  O   UNL A   1      33.997  33.839  30.497  1.00  0.00    -0.237 OA
ATOM     97  O   UNL A   1      35.509  34.708  28.743  1.00  0.00    -0.237 OA
ATOM     98  O   UNL A   1      33.820  33.007  28.182  1.00  0.00    -0.744 OA
ENDBRANCH  94  95
ENDBRANCH  62  87
BRANCH  74  99
ATOM     99  C   UNL A   1      43.282  28.825  33.310  1.00  0.00     0.058 A 
ATOM    100  C   UNL A   1      43.201  29.314  34.626  1.00  0.00     0.135 A 
ATOM    101  C   UNL A   1      42.900  27.488  33.111  1.00  0.00     0.135 A 
ATOM    102  F   UNL A   1      43.436  30.601  34.899  1.00  0.00    -0.206 F 
ATOM    103  C   UNL A   1      42.804  28.510  35.697  1.00  0.00     0.059 A 
ATOM    104  C   UNL A   1      42.469  26.676  34.159  1.00  0.00     0.059 A 
ATOM    105  F   UNL A   1      42.888  26.971  31.871  1.00  0.00    -0.206 F 
ATOM    106  C   UNL A   1      42.435  27.190  35.454  1.00  0.00     0.060 A 
BRANCH 106 107
ATOM    107  S   UNL A   1      41.832  26.182  36.826  1.00  0.00     0.124 S 
ATOM    108  O   UNL A   1      41.447  24.947  36.154  1.00  0.00    -0.237 OA
ATOM    109  O   UNL A   1      43.002  26.093  37.696  1.00  0.00    -0.237 OA
ATOM    110  O   UNL A   1      40.726  26.970  37.366  1.00  0.00    -0.744 OA
ENDBRANCH 106 107
ENDBRANCH  74  99
ENDBRANCH  48  49
ENDBRANCH  40  43
ENDBRANCH  38  39
ENDBRANCH  37  38
ENDBRANCH   1  37
TORSDOF 19
ENDMDL
