MODEL 1
REMARK VINA RESULT:     -12.2      0.000      0.000
REMARK SMILES C[C@H]1CCCC[C@H]1[N@H+]1[C@@H](C(=O)NCCCNC(=O)c2ccc(-c3c4nc(c(-c5c(F)cc(S(=O)(=O)[O-])cc5F)c5ccc([nH]5)c(-c5c(F)cc(S(=O)(=O)[O-])cc5F)c5nc(c(-c6c(F)cc(S(=O)(=O)[O-])cc6F)c6ccc3[nH]6)C=C5)C=C4)cc2)CC[C@@H]2CCCC[C@@H]21
REMARK SMILES IDX 15 1 14 2 13 3 12 4 10 5 11 6 9 8 8 9 92 10 85 12 87 13
REMARK SMILES IDX 91 14 86 15 88 16 90 17 89 18 7 19 1 20 2 21 3 22 4 23 6 24
REMARK SMILES IDX 5 25 16 26 17 27 18 29 19 30 20 31 84 32 21 33 83 34 22 35
REMARK SMILES IDX 23 36 24 37 77 38 25 39 82 40 76 41 78 42 26 43 81 44 75 45
REMARK SMILES IDX 74 46 27 48 61 49 40 50 60 51 41 52 44 53 59 54 79 55 42 56
REMARK SMILES IDX 43 57 58 59 80 60 45 61 28 62 29 63 38 64 30 65 31 66 37 67
REMARK SMILES IDX 39 68 32 69 33 70 34 71 35 72 36 73 62 74 63 75 72 76 64 77
REMARK SMILES IDX 65 78 71 79 73 80 66 81 67 82 68 83 69 84 70 85 46 86 47 87
REMARK SMILES IDX 56 88 48 89 49 90 55 91 57 92 50 93 51 94 52 95 53 96 54 97
REMARK H PARENT 12 7 8 11 16 28 78 47 44 58
REMARK Flexibility Score: inf
ROOT
ATOM      1  C   UNL A   1      33.397  28.264  27.351  1.00  0.00     0.118 C 
ENDROOT
BRANCH   1   2
ATOM      2  C   UNL A   1      34.129  27.859  26.076  1.00  0.00     0.042 C 
BRANCH   2   3
ATOM      3  C   UNL A   1      33.824  28.745  24.874  1.00  0.00     0.118 C 
BRANCH   3   4
ATOM      4  N   UNL A   1      34.173  28.149  23.587  1.00  0.00    -0.351 N 
ATOM      5  C   UNL A   1      33.480  27.261  22.797  1.00  0.00     0.278 C 
ATOM      6  O   UNL A   1      33.828  27.156  21.619  1.00  0.00    -0.268 OA
ATOM      7  H   UNL A   1      35.045  28.429  23.226  1.00  0.00     0.163 HD
BRANCH   5   8
ATOM      8  C   UNL A   1      32.262  26.535  23.347  1.00  0.00     0.274 C 
ATOM      9  N   UNL A   1      32.315  25.094  23.723  1.00  0.00    -0.319 N 
ATOM     10  C   UNL A   1      30.935  24.563  23.986  1.00  0.00     0.188 C 
ATOM     11  H   UNL A   1      32.879  25.180  24.569  1.00  0.00     0.349 HD
ATOM     12  C   UNL A   1      31.002  26.900  22.553  1.00  0.00     0.076 C 
ATOM     13  C   UNL A   1      29.942  25.648  24.497  1.00  0.00     0.048 C 
ATOM     14  C   UNL A   1      30.823  23.349  24.945  1.00  0.00     0.065 C 
ATOM     15  C   UNL A   1      29.782  26.786  23.471  1.00  0.00     0.016 C 
ATOM     16  C   UNL A   1      30.296  26.151  25.919  1.00  0.00     0.010 C 
ATOM     17  C   UNL A   1      30.568  23.704  26.412  1.00  0.00     0.006 C 
ATOM     18  C   UNL A   1      31.039  25.106  26.754  1.00  0.00     0.001 C 
BRANCH   9  19
ATOM     19  C   UNL A   1      33.297  24.115  23.183  1.00  0.00     0.187 C 
ATOM     20  C   UNL A   1      35.335  24.355  24.852  1.00  0.00     0.014 C 
ATOM     21  C   UNL A   1      34.402  23.448  24.055  1.00  0.00     0.044 C 
ATOM     22  C   UNL A   1      33.811  22.349  24.924  1.00  0.00     0.009 C 
ATOM     23  C   UNL A   1      33.311  21.202  24.057  1.00  0.00     0.001 C 
ATOM     24  C   UNL A   1      32.747  23.013  22.238  1.00  0.00     0.065 C 
ATOM     25  C   UNL A   1      32.548  21.596  22.790  1.00  0.00     0.006 C 
ENDBRANCH   9  19
ENDBRANCH   5   8
ENDBRANCH   3   4
ENDBRANCH   2   3
ENDBRANCH   1   2
BRANCH   1  26
ATOM     26  N   UNL A   1      33.371  29.709  27.543  1.00  0.00    -0.352 N 
ATOM     27  C   UNL A   1      34.307  30.567  28.062  1.00  0.00     0.251 C 
ATOM     28  H   UNL A   1      32.538  30.144  27.249  1.00  0.00     0.163 HD
ATOM     29  O   UNL A   1      33.973  31.725  28.316  1.00  0.00    -0.269 OA
BRANCH  27  30
ATOM     30  C   UNL A   1      35.697  30.130  28.334  1.00  0.00     0.039 A 
ATOM     31  C   UNL A   1      36.623  30.145  27.285  1.00  0.00     0.014 A 
ATOM     32  C   UNL A   1      36.085  29.653  29.588  1.00  0.00     0.014 A 
ATOM     33  C   UNL A   1      37.946  29.750  27.511  1.00  0.00     0.010 A 
ATOM     34  C   UNL A   1      37.420  29.329  29.831  1.00  0.00     0.010 A 
ATOM     35  C   UNL A   1      38.367  29.374  28.796  1.00  0.00    -0.014 A 
BRANCH  35  36
ATOM     36  C   UNL A   1      39.790  29.043  29.078  1.00  0.00     0.031 A 
ATOM     37  C   UNL A   1      40.720  30.081  29.649  1.00  0.00     0.074 A 
ATOM     38  C   UNL A   1      40.265  27.823  28.755  1.00  0.00     0.049 A 
ATOM     39  N   UNL A   1      42.006  30.000  29.880  1.00  0.00    -0.248 NA
ATOM     40  C   UNL A   1      40.132  31.388  29.981  1.00  0.00     0.031 C 
ATOM     41  C   UNL A   1      39.478  26.741  28.159  1.00  0.00     0.029 A 
ATOM     42  N   UNL A   1      41.525  27.290  28.870  1.00  0.00    -0.354 N 
ATOM     43  C   UNL A   1      42.384  31.245  30.370  1.00  0.00     0.074 A 
ATOM     44  C   UNL A   1      41.200  32.078  30.358  1.00  0.00     0.031 C 
ATOM     45  C   UNL A   1      40.269  25.670  27.976  1.00  0.00     0.029 A 
ATOM     46  C   UNL A   1      41.625  26.001  28.402  1.00  0.00     0.049 A 
ATOM     47  H   UNL A   1      42.286  27.786  29.251  1.00  0.00     0.167 HD
ATOM     48  C   UNL A   1      43.601  31.652  30.806  1.00  0.00     0.037 A 
ATOM     49  C   UNL A   1      42.690  25.179  28.314  1.00  0.00     0.037 A 
ATOM     50  C   UNL A   1      44.773  30.814  30.836  1.00  0.00     0.049 A 
ATOM     51  C   UNL A   1      44.032  25.656  28.798  1.00  0.00     0.074 A 
ATOM     52  C   UNL A   1      46.036  31.120  31.313  1.00  0.00     0.029 A 
ATOM     53  N   UNL A   1      44.829  29.509  30.371  1.00  0.00    -0.354 N 
ATOM     54  N   UNL A   1      44.357  26.818  29.310  1.00  0.00    -0.248 NA
ATOM     55  C   UNL A   1      45.150  24.707  28.696  1.00  0.00     0.031 C 
ATOM     56  C   UNL A   1      46.866  30.014  31.097  1.00  0.00     0.029 A 
ATOM     57  C   UNL A   1      46.109  29.002  30.530  1.00  0.00     0.049 A 
ATOM     58  H   UNL A   1      44.070  29.014  29.985  1.00  0.00     0.167 HD
ATOM     59  C   UNL A   1      45.711  26.732  29.616  1.00  0.00     0.074 A 
ATOM     60  C   UNL A   1      46.141  25.400  29.242  1.00  0.00     0.031 C 
ATOM     61  C   UNL A   1      46.524  27.672  30.158  1.00  0.00     0.037 A 
BRANCH  48  62
ATOM     62  C   UNL A   1      43.729  33.071  31.290  1.00  0.00     0.058 A 
ATOM     63  C   UNL A   1      44.023  34.125  30.411  1.00  0.00     0.135 A 
ATOM     64  C   UNL A   1      43.519  33.388  32.643  1.00  0.00     0.135 A 
ATOM     65  F   UNL A   1      44.246  33.879  29.110  1.00  0.00    -0.206 F 
ATOM     66  C   UNL A   1      44.136  35.438  30.859  1.00  0.00     0.059 A 
ATOM     67  C   UNL A   1      43.599  34.698  33.108  1.00  0.00     0.059 A 
ATOM     68  F   UNL A   1      43.232  32.420  33.527  1.00  0.00    -0.206 F 
ATOM     69  C   UNL A   1      43.925  35.714  32.211  1.00  0.00     0.060 A 
BRANCH  69  70
ATOM     70  S   UNL A   1      44.076  37.422  32.775  1.00  0.00     0.124 S 
ATOM     71  O   UNL A   1      42.996  37.501  33.754  1.00  0.00    -0.237 OA
ATOM     72  O   UNL A   1      45.427  37.456  33.317  1.00  0.00    -0.237 OA
ATOM     73  O   UNL A   1      43.873  38.201  31.554  1.00  0.00    -0.744 OA
ENDBRANCH  69  70
ENDBRANCH  48  62
BRANCH  49  74
ATOM     74  C   UNL A   1      42.523  23.810  27.757  1.00  0.00     0.058 A 
ATOM     75  C   UNL A   1      42.418  22.697  28.603  1.00  0.00     0.135 A 
ATOM     76  C   UNL A   1      42.449  23.588  26.373  1.00  0.00     0.135 A 
ATOM     77  F   UNL A   1      42.491  22.857  29.934  1.00  0.00    -0.206 F 
ATOM     78  C   UNL A   1      42.260  21.410  28.100  1.00  0.00     0.059 A 
ATOM     79  C   UNL A   1      42.265  22.314  25.846  1.00  0.00     0.059 A 
ATOM     80  F   UNL A   1      42.527  24.623  25.521  1.00  0.00    -0.206 F 
ATOM     81  C   UNL A   1      42.182  21.230  26.718  1.00  0.00     0.060 A 
BRANCH  81  82
ATOM     82  S   UNL A   1      41.923  19.562  26.076  1.00  0.00     0.124 S 
ATOM     83  O   UNL A   1      42.349  18.743  27.205  1.00  0.00    -0.237 OA
ATOM     84  O   UNL A   1      40.492  19.561  25.790  1.00  0.00    -0.237 OA
ATOM     85  O   UNL A   1      42.788  19.518  24.900  1.00  0.00    -0.744 OA
ENDBRANCH  81  82
ENDBRANCH  49  74
BRANCH  61  86
ATOM     86  C   UNL A   1      47.955  27.287  30.415  1.00  0.00     0.058 A 
ATOM     87  C   UNL A   1      48.977  27.589  29.502  1.00  0.00     0.135 A 
ATOM     88  C   UNL A   1      48.316  26.649  31.614  1.00  0.00     0.135 A 
ATOM     89  F   UNL A   1      48.686  28.192  28.338  1.00  0.00    -0.206 F 
ATOM     90  C   UNL A   1      50.303  27.254  29.757  1.00  0.00     0.059 A 
ATOM     91  C   UNL A   1      49.638  26.328  31.901  1.00  0.00     0.059 A 
ATOM     92  F   UNL A   1      47.379  26.344  32.525  1.00  0.00    -0.206 F 
ATOM     93  C   UNL A   1      50.624  26.624  30.960  1.00  0.00     0.060 A 
BRANCH  93  94
ATOM     94  S   UNL A   1      52.353  26.224  31.295  1.00  0.00     0.124 S 
ATOM     95  O   UNL A   1      52.230  24.952  31.998  1.00  0.00    -0.237 OA
ATOM     96  O   UNL A   1      52.924  26.154  29.953  1.00  0.00    -0.237 OA
ATOM     97  O   UNL A   1      52.811  27.347  32.106  1.00  0.00    -0.744 OA
ENDBRANCH  93  94
ENDBRANCH  61  86
ENDBRANCH  35  36
ENDBRANCH  27  30
ENDBRANCH   1  26
TORSDOF 14
ENDMDL
MODEL 2
REMARK VINA RESULT:     -11.8      4.772     10.199
REMARK SMILES C[C@H]1CCCC[C@H]1[N@H+]1[C@@H](C(=O)NCCCNC(=O)c2ccc(-c3c4nc(c(-c5c(F)cc(S(=O)(=O)[O-])cc5F)c5ccc([nH]5)c(-c5c(F)cc(S(=O)(=O)[O-])cc5F)c5nc(c(-c6c(F)cc(S(=O)(=O)[O-])cc6F)c6ccc3[nH]6)C=C5)C=C4)cc2)CC[C@@H]2CCCC[C@@H]21
REMARK SMILES IDX 15 1 14 2 13 3 12 4 10 5 11 6 9 8 8 9 92 10 85 12 87 13
REMARK SMILES IDX 91 14 86 15 88 16 90 17 89 18 7 19 1 20 2 21 3 22 4 23 6 24
REMARK SMILES IDX 5 25 16 26 17 27 18 29 19 30 20 31 84 32 21 33 83 34 22 35
REMARK SMILES IDX 23 36 24 37 77 38 25 39 82 40 76 41 78 42 26 43 81 44 75 45
REMARK SMILES IDX 74 46 27 48 61 49 40 50 60 51 41 52 44 53 59 54 79 55 42 56
REMARK SMILES IDX 43 57 58 59 80 60 45 61 28 62 29 63 38 64 30 65 31 66 37 67
REMARK SMILES IDX 39 68 32 69 33 70 34 71 35 72 36 73 62 74 63 75 72 76 64 77
REMARK SMILES IDX 65 78 71 79 73 80 66 81 67 82 68 83 69 84 70 85 46 86 47 87
REMARK SMILES IDX 56 88 48 89 49 90 55 91 57 92 50 93 51 94 52 95 53 96 54 97
REMARK H PARENT 12 7 8 11 16 28 78 47 44 58
REMARK Flexibility Score: inf
ROOT
ATOM      1  C   UNL A   1      37.962  24.098  26.504  1.00  0.00     0.118 C 
ENDROOT
BRANCH   1   2
ATOM      2  C   UNL A   1      37.106  23.736  25.294  1.00  0.00     0.042 C 
BRANCH   2   3
ATOM      3  C   UNL A   1      35.750  24.430  25.259  1.00  0.00     0.118 C 
BRANCH   3   4
ATOM      4  N   UNL A   1      34.936  24.095  24.094  1.00  0.00    -0.351 N 
ATOM      5  C   UNL A   1      34.073  24.871  23.356  1.00  0.00     0.278 C 
ATOM      6  O   UNL A   1      33.753  24.459  22.238  1.00  0.00    -0.268 OA
ATOM      7  H   UNL A   1      35.018  23.163  23.787  1.00  0.00     0.163 HD
BRANCH   5   8
ATOM      8  C   UNL A   1      33.635  26.234  23.871  1.00  0.00     0.274 C 
ATOM      9  N   UNL A   1      32.602  26.373  24.935  1.00  0.00    -0.319 N 
ATOM     10  C   UNL A   1      32.171  27.804  25.073  1.00  0.00     0.188 C 
ATOM     11  H   UNL A   1      33.157  26.044  25.726  1.00  0.00     0.349 HD
ATOM     12  C   UNL A   1      33.436  27.219  22.712  1.00  0.00     0.076 C 
ATOM     13  C   UNL A   1      33.279  28.825  24.677  1.00  0.00     0.048 C 
ATOM     14  C   UNL A   1      31.618  28.240  26.456  1.00  0.00     0.065 C 
ATOM     15  C   UNL A   1      33.711  28.640  23.210  1.00  0.00     0.016 C 
ATOM     16  C   UNL A   1      34.468  28.821  25.670  1.00  0.00     0.010 C 
ATOM     17  C   UNL A   1      32.655  28.844  27.407  1.00  0.00     0.006 C 
ATOM     18  C   UNL A   1      34.066  28.389  27.082  1.00  0.00     0.001 C 
BRANCH   9  19
ATOM     19  C   UNL A   1      31.569  25.349  25.250  1.00  0.00     0.187 C 
ATOM     20  C   UNL A   1      29.434  26.269  23.988  1.00  0.00     0.014 C 
ATOM     21  C   UNL A   1      30.329  25.085  24.347  1.00  0.00     0.044 C 
ATOM     22  C   UNL A   1      30.720  24.286  23.113  1.00  0.00     0.009 C 
ATOM     23  C   UNL A   1      31.166  22.885  23.512  1.00  0.00     0.001 C 
ATOM     24  C   UNL A   1      32.076  23.962  25.730  1.00  0.00     0.065 C 
ATOM     25  C   UNL A   1      32.072  22.789  24.741  1.00  0.00     0.006 C 
ENDBRANCH   9  19
ENDBRANCH   5   8
ENDBRANCH   3   4
ENDBRANCH   2   3
ENDBRANCH   1   2
BRANCH   1  26
ATOM     26  N   UNL A   1      39.382  23.865  26.270  1.00  0.00    -0.352 N 
ATOM     27  C   UNL A   1      40.490  24.571  26.667  1.00  0.00     0.251 C 
ATOM     28  H   UNL A   1      39.581  23.064  25.733  1.00  0.00     0.163 HD
ATOM     29  O   UNL A   1      41.580  24.293  26.167  1.00  0.00    -0.269 OA
BRANCH  27  30
ATOM     30  C   UNL A   1      40.399  25.661  27.667  1.00  0.00     0.039 A 
ATOM     31  C   UNL A   1      39.416  25.581  28.660  1.00  0.00     0.014 A 
ATOM     32  C   UNL A   1      41.228  26.783  27.608  1.00  0.00     0.014 A 
ATOM     33  C   UNL A   1      39.311  26.587  29.626  1.00  0.00     0.010 A 
ATOM     34  C   UNL A   1      41.171  27.749  28.614  1.00  0.00     0.010 A 
ATOM     35  C   UNL A   1      40.214  27.662  29.636  1.00  0.00    -0.014 A 
BRANCH  35  36
ATOM     36  C   UNL A   1      40.180  28.692  30.710  1.00  0.00     0.031 A 
ATOM     37  C   UNL A   1      41.069  28.566  31.919  1.00  0.00     0.074 A 
ATOM     38  C   UNL A   1      39.297  29.707  30.630  1.00  0.00     0.049 A 
ATOM     39  N   UNL A   1      41.117  29.317  32.991  1.00  0.00    -0.248 NA
ATOM     40  C   UNL A   1      42.011  27.436  31.937  1.00  0.00     0.031 C 
ATOM     41  C   UNL A   1      38.352  29.921  29.531  1.00  0.00     0.029 A 
ATOM     42  N   UNL A   1      39.040  30.744  31.493  1.00  0.00    -0.354 N 
ATOM     43  C   UNL A   1      42.079  28.744  33.815  1.00  0.00     0.074 A 
ATOM     44  C   UNL A   1      42.558  27.557  33.139  1.00  0.00     0.031 C 
ATOM     45  C   UNL A   1      37.631  31.027  29.779  1.00  0.00     0.029 A 
ATOM     46  C   UNL A   1      38.032  31.578  31.071  1.00  0.00     0.049 A 
ATOM     47  H   UNL A   1      39.531  30.876  32.337  1.00  0.00     0.167 HD
ATOM     48  C   UNL A   1      42.536  29.178  35.014  1.00  0.00     0.037 A 
ATOM     49  C   UNL A   1      37.481  32.659  31.658  1.00  0.00     0.037 A 
ATOM     50  C   UNL A   1      42.074  30.372  35.675  1.00  0.00     0.049 A 
ATOM     51  C   UNL A   1      38.000  33.116  32.994  1.00  0.00     0.074 A 
ATOM     52  C   UNL A   1      42.517  30.923  36.865  1.00  0.00     0.029 A 
ATOM     53  N   UNL A   1      41.065  31.200  35.205  1.00  0.00    -0.354 N 
ATOM     54  N   UNL A   1      38.950  32.593  33.731  1.00  0.00    -0.248 NA
ATOM     55  C   UNL A   1      37.376  34.313  33.575  1.00  0.00     0.031 C 
ATOM     56  C   UNL A   1      41.747  32.059  37.136  1.00  0.00     0.029 A 
ATOM     57  C   UNL A   1      40.856  32.245  36.091  1.00  0.00     0.049 A 
ATOM     58  H   UNL A   1      40.570  31.064  34.364  1.00  0.00     0.167 HD
ATOM     59  C   UNL A   1      39.056  33.412  34.851  1.00  0.00     0.074 A 
ATOM     60  C   UNL A   1      38.081  34.471  34.687  1.00  0.00     0.031 C 
ATOM     61  C   UNL A   1      39.886  33.297  35.916  1.00  0.00     0.037 A 
BRANCH  48  62
ATOM     62  C   UNL A   1      43.596  28.354  35.696  1.00  0.00     0.058 A 
ATOM     63  C   UNL A   1      44.962  28.562  35.450  1.00  0.00     0.135 A 
ATOM     64  C   UNL A   1      43.244  27.370  36.635  1.00  0.00     0.135 A 
ATOM     65  F   UNL A   1      45.356  29.481  34.554  1.00  0.00    -0.206 F 
ATOM     66  C   UNL A   1      45.942  27.804  36.085  1.00  0.00     0.059 A 
ATOM     67  C   UNL A   1      44.207  26.618  37.303  1.00  0.00     0.059 A 
ATOM     68  F   UNL A   1      41.952  27.131  36.911  1.00  0.00    -0.206 F 
ATOM     69  C   UNL A   1      45.553  26.832  37.009  1.00  0.00     0.060 A 
BRANCH  69  70
ATOM     70  S   UNL A   1      46.836  25.857  37.823  1.00  0.00     0.124 S 
ATOM     71  O   UNL A   1      46.929  24.702  36.934  1.00  0.00    -0.237 OA
ATOM     72  O   UNL A   1      47.976  26.762  37.808  1.00  0.00    -0.237 OA
ATOM     73  O   UNL A   1      46.270  25.587  39.143  1.00  0.00    -0.744 OA
ENDBRANCH  69  70
ENDBRANCH  48  62
BRANCH  49  74
ATOM     74  C   UNL A   1      36.384  33.394  30.975  1.00  0.00     0.058 A 
ATOM     75  C   UNL A   1      35.070  33.341  31.462  1.00  0.00     0.135 A 
ATOM     76  C   UNL A   1      36.628  34.175  29.834  1.00  0.00     0.135 A 
ATOM     77  F   UNL A   1      34.786  32.601  32.545  1.00  0.00    -0.206 F 
ATOM     78  C   UNL A   1      34.032  34.024  30.836  1.00  0.00     0.059 A 
ATOM     79  C   UNL A   1      35.612  34.888  29.206  1.00  0.00     0.059 A 
ATOM     80  F   UNL A   1      37.871  34.271  29.339  1.00  0.00    -0.206 F 
ATOM     81  C   UNL A   1      34.314  34.798  29.709  1.00  0.00     0.060 A 
BRANCH  81  82
ATOM     82  S   UNL A   1      32.970  35.723  28.936  1.00  0.00     0.124 S 
ATOM     83  O   UNL A   1      32.192  36.136  30.097  1.00  0.00    -0.237 OA
ATOM     84  O   UNL A   1      33.690  36.784  28.238  1.00  0.00    -0.237 OA
ATOM     85  O   UNL A   1      32.338  34.733  28.068  1.00  0.00    -0.744 OA
ENDBRANCH  81  82
ENDBRANCH  49  74
BRANCH  61  86
ATOM     86  C   UNL A   1      39.805  34.360  36.976  1.00  0.00     0.058 A 
ATOM     87  C   UNL A   1      40.489  35.580  36.853  1.00  0.00     0.135 A 
ATOM     88  C   UNL A   1      38.994  34.176  38.109  1.00  0.00     0.135 A 
ATOM     89  F   UNL A   1      41.283  35.804  35.794  1.00  0.00    -0.206 F 
ATOM     90  C   UNL A   1      40.389  36.571  37.824  1.00  0.00     0.059 A 
ATOM     91  C   UNL A   1      38.859  35.163  39.079  1.00  0.00     0.059 A 
ATOM     92  F   UNL A   1      38.312  33.031  38.272  1.00  0.00    -0.206 F 
ATOM     93  C   UNL A   1      39.570  36.353  38.934  1.00  0.00     0.060 A 
BRANCH  93  94
ATOM     94  S   UNL A   1      39.422  37.660  40.171  1.00  0.00     0.124 S 
ATOM     95  O   UNL A   1      40.745  38.271  40.114  1.00  0.00    -0.237 OA
ATOM     96  O   UNL A   1      38.327  38.468  39.643  1.00  0.00    -0.237 OA
ATOM     97  O   UNL A   1      39.119  36.933  41.400  1.00  0.00    -0.744 OA
ENDBRANCH  93  94
ENDBRANCH  61  86
ENDBRANCH  35  36
ENDBRANCH  27  30
ENDBRANCH   1  26
TORSDOF 14
ENDMDL
MODEL 3
REMARK VINA RESULT:     -11.6      2.878      9.123
REMARK SMILES C[C@H]1CCCC[C@H]1[N@H+]1[C@@H](C(=O)NCCCNC(=O)c2ccc(-c3c4nc(c(-c5c(F)cc(S(=O)(=O)[O-])cc5F)c5ccc([nH]5)c(-c5c(F)cc(S(=O)(=O)[O-])cc5F)c5nc(c(-c6c(F)cc(S(=O)(=O)[O-])cc6F)c6ccc3[nH]6)C=C5)C=C4)cc2)CC[C@@H]2CCCC[C@@H]21
REMARK SMILES IDX 15 1 14 2 13 3 12 4 10 5 11 6 9 8 8 9 92 10 85 12 87 13
REMARK SMILES IDX 91 14 86 15 88 16 90 17 89 18 7 19 1 20 2 21 3 22 4 23 6 24
REMARK SMILES IDX 5 25 16 26 17 27 18 29 19 30 20 31 84 32 21 33 83 34 22 35
REMARK SMILES IDX 23 36 24 37 77 38 25 39 82 40 76 41 78 42 26 43 81 44 75 45
REMARK SMILES IDX 74 46 27 48 61 49 40 50 60 51 41 52 44 53 59 54 79 55 42 56
REMARK SMILES IDX 43 57 58 59 80 60 45 61 28 62 29 63 38 64 30 65 31 66 37 67
REMARK SMILES IDX 39 68 32 69 33 70 34 71 35 72 36 73 62 74 63 75 72 76 64 77
REMARK SMILES IDX 65 78 71 79 73 80 66 81 67 82 68 83 69 84 70 85 46 86 47 87
REMARK SMILES IDX 56 88 48 89 49 90 55 91 57 92 50 93 51 94 52 95 53 96 54 97
REMARK H PARENT 12 7 8 11 16 28 78 47 44 58
REMARK Flexibility Score: inf
ROOT
ATOM      1  C   UNL A   1      36.903  23.755  24.905  1.00  0.00     0.118 C 
ENDROOT
BRANCH   1   2
ATOM      2  C   UNL A   1      35.902  24.057  26.015  1.00  0.00     0.042 C 
BRANCH   2   3
ATOM      3  C   UNL A   1      35.320  22.818  26.685  1.00  0.00     0.118 C 
BRANCH   3   4
ATOM      4  N   UNL A   1      34.077  23.058  27.412  1.00  0.00    -0.351 N 
ATOM      5  C   UNL A   1      32.775  23.087  26.969  1.00  0.00     0.278 C 
ATOM      6  O   UNL A   1      31.884  22.989  27.817  1.00  0.00    -0.268 OA
ATOM      7  H   UNL A   1      34.189  23.226  28.376  1.00  0.00     0.163 HD
BRANCH   5   8
ATOM      8  C   UNL A   1      32.473  23.122  25.479  1.00  0.00     0.274 C 
ATOM      9  N   UNL A   1      31.953  24.351  24.816  1.00  0.00    -0.319 N 
ATOM     10  C   UNL A   1      31.498  24.048  23.418  1.00  0.00     0.188 C 
ATOM     11  H   UNL A   1      32.805  24.910  24.847  1.00  0.00     0.349 HD
ATOM     12  C   UNL A   1      31.739  21.850  25.039  1.00  0.00     0.076 C 
ATOM     13  C   UNL A   1      32.260  22.858  22.763  1.00  0.00     0.048 C 
ATOM     14  C   UNL A   1      31.519  25.222  22.403  1.00  0.00     0.065 C 
ATOM     15  C   UNL A   1      32.074  21.562  23.573  1.00  0.00     0.016 C 
ATOM     16  C   UNL A   1      33.746  23.194  22.480  1.00  0.00     0.010 C 
ATOM     17  C   UNL A   1      32.798  25.333  21.570  1.00  0.00     0.006 C 
ATOM     18  C   UNL A   1      33.989  24.688  22.255  1.00  0.00     0.001 C 
BRANCH   9  19
ATOM     19  C   UNL A   1      31.225  25.445  25.514  1.00  0.00     0.187 C 
ATOM     20  C   UNL A   1      33.190  26.986  26.388  1.00  0.00     0.014 C 
ATOM     21  C   UNL A   1      31.822  26.868  25.722  1.00  0.00     0.044 C 
ATOM     22  C   UNL A   1      31.758  27.673  24.432  1.00  0.00     0.009 C 
ATOM     23  C   UNL A   1      30.308  27.953  24.058  1.00  0.00     0.001 C 
ATOM     24  C   UNL A   1      29.727  25.637  25.155  1.00  0.00     0.065 C 
ATOM     25  C   UNL A   1      29.331  26.787  24.220  1.00  0.00     0.006 C 
ENDBRANCH   9  19
ENDBRANCH   5   8
ENDBRANCH   3   4
ENDBRANCH   2   3
ENDBRANCH   1   2
BRANCH   1  26
ATOM     26  N   UNL A   1      37.877  22.742  25.295  1.00  0.00    -0.352 N 
ATOM     27  C   UNL A   1      39.049  22.843  26.001  1.00  0.00     0.251 C 
ATOM     28  H   UNL A   1      37.655  21.829  25.001  1.00  0.00     0.163 HD
ATOM     29  O   UNL A   1      39.811  21.875  26.024  1.00  0.00    -0.269 OA
BRANCH  27  30
ATOM     30  C   UNL A   1      39.421  24.085  26.718  1.00  0.00     0.039 A 
ATOM     31  C   UNL A   1      38.943  24.277  28.020  1.00  0.00     0.014 A 
ATOM     32  C   UNL A   1      40.183  25.084  26.110  1.00  0.00     0.014 A 
ATOM     33  C   UNL A   1      39.284  25.434  28.729  1.00  0.00     0.010 A 
ATOM     34  C   UNL A   1      40.584  26.203  26.843  1.00  0.00     0.010 A 
ATOM     35  C   UNL A   1      40.141  26.390  28.161  1.00  0.00    -0.014 A 
BRANCH  35  36
ATOM     36  C   UNL A   1      40.593  27.579  28.933  1.00  0.00     0.031 A 
ATOM     37  C   UNL A   1      41.928  27.576  29.631  1.00  0.00     0.074 A 
ATOM     38  C   UNL A   1      39.771  28.639  29.064  1.00  0.00     0.049 A 
ATOM     39  N   UNL A   1      42.451  28.484  30.416  1.00  0.00    -0.248 NA
ATOM     40  C   UNL A   1      42.775  26.389  29.441  1.00  0.00     0.031 C 
ATOM     41  C   UNL A   1      38.436  28.751  28.472  1.00  0.00     0.029 A 
ATOM     42  N   UNL A   1      39.929  29.820  29.748  1.00  0.00    -0.354 N 
ATOM     43  C   UNL A   1      43.678  27.974  30.825  1.00  0.00     0.074 A 
ATOM     44  C   UNL A   1      43.801  26.656  30.237  1.00  0.00     0.031 C 
ATOM     45  C   UNL A   1      37.905  29.939  28.804  1.00  0.00     0.029 A 
ATOM     46  C   UNL A   1      38.841  30.656  29.665  1.00  0.00     0.049 A 
ATOM     47  H   UNL A   1      40.745  30.045  30.251  1.00  0.00     0.167 HD
ATOM     48  C   UNL A   1      44.624  28.555  31.601  1.00  0.00     0.037 A 
ATOM     49  C   UNL A   1      38.614  31.861  30.226  1.00  0.00     0.037 A 
ATOM     50  C   UNL A   1      44.509  29.876  32.167  1.00  0.00     0.049 A 
ATOM     51  C   UNL A   1      39.676  32.483  31.090  1.00  0.00     0.074 A 
ATOM     52  C   UNL A   1      45.438  30.572  32.920  1.00  0.00     0.029 A 
ATOM     53  N   UNL A   1      43.399  30.699  32.044  1.00  0.00    -0.354 N 
ATOM     54  N   UNL A   1      40.853  32.008  31.419  1.00  0.00    -0.248 NA
ATOM     55  C   UNL A   1      39.380  33.806  31.657  1.00  0.00     0.031 C 
ATOM     56  C   UNL A   1      44.874  31.799  33.288  1.00  0.00     0.029 A 
ATOM     57  C   UNL A   1      43.611  31.887  32.725  1.00  0.00     0.049 A 
ATOM     58  H   UNL A   1      42.580  30.471  31.546  1.00  0.00     0.167 HD
ATOM     59  C   UNL A   1      41.450  32.986  32.208  1.00  0.00     0.074 A 
ATOM     60  C   UNL A   1      40.508  34.082  32.298  1.00  0.00     0.031 C 
ATOM     61  C   UNL A   1      42.668  32.975  32.804  1.00  0.00     0.037 A 
BRANCH  48  62
ATOM     62  C   UNL A   1      45.874  27.767  31.887  1.00  0.00     0.058 A 
ATOM     63  C   UNL A   1      45.972  26.919  33.002  1.00  0.00     0.135 A 
ATOM     64  C   UNL A   1      46.974  27.829  31.015  1.00  0.00     0.135 A 
ATOM     65  F   UNL A   1      44.955  26.831  33.874  1.00  0.00    -0.206 F 
ATOM     66  C   UNL A   1      47.125  26.186  33.262  1.00  0.00     0.059 A 
ATOM     67  C   UNL A   1      48.128  27.083  31.240  1.00  0.00     0.059 A 
ATOM     68  F   UNL A   1      46.935  28.620  29.932  1.00  0.00    -0.206 F 
ATOM     69  C   UNL A   1      48.200  26.277  32.375  1.00  0.00     0.060 A 
BRANCH  69  70
ATOM     70  S   UNL A   1      49.690  25.320  32.729  1.00  0.00     0.124 S 
ATOM     71  O   UNL A   1      50.525  26.318  33.391  1.00  0.00    -0.237 OA
ATOM     72  O   UNL A   1      49.183  24.253  33.579  1.00  0.00    -0.237 OA
ATOM     73  O   UNL A   1      50.146  24.901  31.405  1.00  0.00    -0.744 OA
ENDBRANCH  69  70
ENDBRANCH  48  62
BRANCH  49  74
ATOM     74  C   UNL A   1      37.329  32.565  29.971  1.00  0.00     0.058 A 
ATOM     75  C   UNL A   1      37.253  33.608  29.036  1.00  0.00     0.135 A 
ATOM     76  C   UNL A   1      36.152  32.202  30.643  1.00  0.00     0.135 A 
ATOM     77  F   UNL A   1      38.354  33.996  28.374  1.00  0.00    -0.206 F 
ATOM     78  C   UNL A   1      36.059  34.275  28.785  1.00  0.00     0.059 A 
ATOM     79  C   UNL A   1      34.941  32.838  30.390  1.00  0.00     0.059 A 
ATOM     80  F   UNL A   1      36.169  31.200  31.536  1.00  0.00    -0.206 F 
ATOM     81  C   UNL A   1      34.907  33.881  29.466  1.00  0.00     0.060 A 
BRANCH  81  82
ATOM     82  S   UNL A   1      33.351  34.719  29.094  1.00  0.00     0.124 S 
ATOM     83  O   UNL A   1      32.746  34.816  30.416  1.00  0.00    -0.237 OA
ATOM     84  O   UNL A   1      33.811  35.975  28.508  1.00  0.00    -0.237 OA
ATOM     85  O   UNL A   1      32.694  33.807  28.161  1.00  0.00    -0.744 OA
ENDBRANCH  81  82
ENDBRANCH  49  74
BRANCH  61  86
ATOM     86  C   UNL A   1      43.072  34.199  33.578  1.00  0.00     0.058 A 
ATOM     87  C   UNL A   1      42.884  34.290  34.966  1.00  0.00     0.135 A 
ATOM     88  C   UNL A   1      43.700  35.276  32.930  1.00  0.00     0.135 A 
ATOM     89  F   UNL A   1      42.282  33.292  35.633  1.00  0.00    -0.206 F 
ATOM     90  C   UNL A   1      43.284  35.414  35.682  1.00  0.00     0.059 A 
ATOM     91  C   UNL A   1      44.132  36.398  33.629  1.00  0.00     0.059 A 
ATOM     92  F   UNL A   1      43.912  35.236  31.605  1.00  0.00    -0.206 F 
ATOM     93  C   UNL A   1      43.909  36.463  35.004  1.00  0.00     0.060 A 
BRANCH  93  94
ATOM     94  S   UNL A   1      44.454  37.903  35.949  1.00  0.00     0.124 S 
ATOM     95  O   UNL A   1      44.136  38.993  35.034  1.00  0.00    -0.237 OA
ATOM     96  O   UNL A   1      43.627  37.820  37.150  1.00  0.00    -0.237 OA
ATOM     97  O   UNL A   1      45.877  37.652  36.158  1.00  0.00    -0.744 OA
ENDBRANCH  93  94
ENDBRANCH  61  86
ENDBRANCH  35  36
ENDBRANCH  27  30
ENDBRANCH   1  26
TORSDOF 14
ENDMDL
