MODEL 1
REMARK VINA RESULT:     -12.9      0.000      0.000
REMARK SMILES Cc1ccc(OCCC(=O)N2C[C@H](O)C[C@@H]2C(=O)NCCCNC(=O)c2ccc(-c3c4nc(c(-c5c(F)cc(S(=O)(=O)[O-])cc5F)c5ccc([nH]5)c(-c5c(F)cc(S(=O)(=O)[O-])cc5F)c5nc(c(-c6c(F)cc(S(=O)(=O)[O-])cc6F)c6ccc3[nH]6)C=C5)C=C4)cc2)cc1
REMARK SMILES IDX 20 1 19 2 17 3 18 4 16 6 11 7 12 8 13 9 15 10 9 11 10 12
REMARK SMILES IDX 8 13 7 14 6 15 5 16 1 17 2 18 3 19 93 20 4 21 92 22 14 23
REMARK SMILES IDX 21 25 22 26 23 27 24 28 25 30 26 31 27 32 91 33 28 34 90 35
REMARK SMILES IDX 29 36 30 37 31 38 84 39 32 40 89 41 83 42 85 43 33 44 88 45
REMARK SMILES IDX 82 46 81 47 34 49 68 50 47 51 67 52 48 53 51 54 66 55 86 56
REMARK SMILES IDX 49 57 50 58 65 60 87 61 52 62 35 63 36 64 45 65 37 66 38 67
REMARK SMILES IDX 44 68 46 69 39 70 40 71 41 72 42 73 43 74 69 75 70 76 79 77
REMARK SMILES IDX 71 78 72 79 78 80 80 81 73 82 74 83 75 84 76 85 77 86 53 87
REMARK SMILES IDX 54 88 63 89 55 90 56 91 62 92 64 93 57 94 58 95 59 96 60 97
REMARK SMILES IDX 61 98
REMARK H PARENT 19 5 14 24 23 29 85 48 51 59
REMARK Flexibility Score: inf
ROOT
ATOM      1  C   UNL A   1      32.385  30.175  26.114  1.00  0.00     0.117 C 
ENDROOT
BRANCH   1   2
ATOM      2  N   UNL A   1      33.133  29.833  24.910  1.00  0.00    -0.354 N 
ATOM      3  C   UNL A   1      32.878  28.897  23.950  1.00  0.00     0.242 C 
ATOM      4  O   UNL A   1      33.372  29.108  22.835  1.00  0.00    -0.273 OA
ATOM      5  H   UNL A   1      33.951  30.361  24.767  1.00  0.00     0.163 HD
BRANCH   3   6
ATOM      6  C   UNL A   1      32.104  27.570  24.199  1.00  0.00     0.177 C 
ATOM      7  N   UNL A   1      32.326  26.425  23.314  1.00  0.00    -0.328 N 
ATOM      8  C   UNL A   1      31.253  26.315  22.332  1.00  0.00     0.152 C 
ATOM      9  C   UNL A   1      30.320  27.495  22.579  1.00  0.00     0.136 C 
ATOM     10  C   UNL A   1      30.599  27.865  24.030  1.00  0.00     0.069 C 
BRANCH   7  11
ATOM     11  C   UNL A   1      33.160  25.371  23.658  1.00  0.00     0.226 C 
ATOM     12  O   UNL A   1      34.356  25.533  23.900  1.00  0.00    -0.275 OA
BRANCH  11  13
ATOM     13  C   UNL A   1      32.564  23.968  23.593  1.00  0.00     0.141 C 
BRANCH  13  14
ATOM     14  C   UNL A   1      33.537  22.799  23.670  1.00  0.00     0.239 C 
BRANCH  14  15
ATOM     15  O   UNL A   1      34.084  22.598  24.984  1.00  0.00    -0.493 OA
BRANCH  15  16
ATOM     16  C   UNL A   1      35.440  22.462  25.072  1.00  0.00     0.119 A 
ATOM     17  C   UNL A   1      39.500  21.449  26.034  1.00  0.00     0.044 C 
ATOM     18  C   UNL A   1      38.117  21.828  25.599  1.00  0.00    -0.051 A 
ATOM     19  C   UNL A   1      37.288  20.899  24.959  1.00  0.00     0.007 A 
ATOM     20  C   UNL A   1      37.627  23.111  25.858  1.00  0.00     0.007 A 
ATOM     21  C   UNL A   1      35.956  21.221  24.683  1.00  0.00     0.046 A 
ATOM     22  C   UNL A   1      36.298  23.429  25.586  1.00  0.00     0.046 A 
ENDBRANCH  15  16
ENDBRANCH  14  15
ENDBRANCH  13  14
ENDBRANCH  11  13
ENDBRANCH   7  11
BRANCH   9  23
ATOM     23  O   UNL A   1      30.576  28.572  21.687  1.00  0.00    -0.391 OA
ATOM     24  H   UNL A   1      31.442  28.960  21.889  1.00  0.00     0.211 HD
ENDBRANCH   9  23
ENDBRANCH   3   6
ENDBRANCH   1   2
BRANCH   1  25
ATOM     25  C   UNL A   1      33.262  30.652  27.261  1.00  0.00     0.042 C 
BRANCH  25  26
ATOM     26  C   UNL A   1      34.717  30.216  27.208  1.00  0.00     0.118 C 
BRANCH  26  27
ATOM     27  N   UNL A   1      35.631  31.282  27.627  1.00  0.00    -0.352 N 
ATOM     28  C   UNL A   1      36.935  31.152  28.085  1.00  0.00     0.251 C 
ATOM     29  H   UNL A   1      35.279  32.200  27.578  1.00  0.00     0.163 HD
ATOM     30  O   UNL A   1      37.579  32.076  28.544  1.00  0.00    -0.269 OA
BRANCH  28  31
ATOM     31  C   UNL A   1      37.541  29.821  27.889  1.00  0.00     0.039 A 
ATOM     32  C   UNL A   1      37.455  28.957  28.988  1.00  0.00     0.014 A 
ATOM     33  C   UNL A   1      38.543  29.702  26.932  1.00  0.00     0.014 A 
ATOM     34  C   UNL A   1      38.527  28.125  29.275  1.00  0.00     0.010 A 
ATOM     35  C   UNL A   1      39.639  28.928  27.263  1.00  0.00     0.010 A 
ATOM     36  C   UNL A   1      39.659  28.207  28.474  1.00  0.00    -0.014 A 
BRANCH  36  37
ATOM     37  C   UNL A   1      40.956  27.663  28.857  1.00  0.00     0.031 A 
ATOM     38  C   UNL A   1      41.221  26.227  28.619  1.00  0.00     0.074 A 
ATOM     39  C   UNL A   1      41.947  28.476  29.290  1.00  0.00     0.049 A 
ATOM     40  N   UNL A   1      42.287  25.613  28.998  1.00  0.00    -0.248 NA
ATOM     41  C   UNL A   1      40.243  25.335  27.993  1.00  0.00     0.031 C 
ATOM     42  C   UNL A   1      43.382  28.197  29.277  1.00  0.00     0.029 A 
ATOM     43  N   UNL A   1      41.834  29.642  30.056  1.00  0.00    -0.354 N 
ATOM     44  C   UNL A   1      42.284  24.377  28.402  1.00  0.00     0.074 A 
ATOM     45  C   UNL A   1      40.945  24.202  27.907  1.00  0.00     0.031 C 
ATOM     46  C   UNL A   1      43.996  28.990  30.167  1.00  0.00     0.029 A 
ATOM     47  C   UNL A   1      42.962  29.691  30.902  1.00  0.00     0.049 A 
ATOM     48  H   UNL A   1      41.106  30.303  30.010  1.00  0.00     0.167 HD
ATOM     49  C   UNL A   1      43.468  23.722  28.272  1.00  0.00     0.037 A 
ATOM     50  C   UNL A   1      42.834  29.650  32.263  1.00  0.00     0.037 A 
ATOM     51  C   UNL A   1      44.448  24.259  29.219  1.00  0.00     0.049 A 
ATOM     52  C   UNL A   1      43.476  28.447  32.917  1.00  0.00     0.074 A 
ATOM     53  C   UNL A   1      45.579  25.048  29.103  1.00  0.00     0.029 A 
ATOM     54  N   UNL A   1      44.142  24.212  30.579  1.00  0.00    -0.354 N 
ATOM     55  N   UNL A   1      43.882  27.389  32.267  1.00  0.00    -0.248 NA
ATOM     56  C   UNL A   1      43.709  28.332  34.355  1.00  0.00     0.031 C 
ATOM     57  C   UNL A   1      45.873  25.575  30.394  1.00  0.00     0.029 A 
ATOM     58  C   UNL A   1      44.956  25.065  31.299  1.00  0.00     0.049 A 
ATOM     59  H   UNL A   1      43.439  23.647  30.974  1.00  0.00     0.167 HD
ATOM     60  C   UNL A   1      44.362  26.453  33.149  1.00  0.00     0.074 A 
ATOM     61  C   UNL A   1      44.268  27.111  34.441  1.00  0.00     0.031 C 
ATOM     62  C   UNL A   1      44.773  25.214  32.740  1.00  0.00     0.037 A 
BRANCH  49  63
ATOM     63  C   UNL A   1      43.789  22.741  27.157  1.00  0.00     0.058 A 
ATOM     64  C   UNL A   1      43.096  21.514  27.066  1.00  0.00     0.135 A 
ATOM     65  C   UNL A   1      44.861  22.871  26.242  1.00  0.00     0.135 A 
ATOM     66  F   UNL A   1      42.073  21.234  27.887  1.00  0.00    -0.206 F 
ATOM     67  C   UNL A   1      43.449  20.502  26.160  1.00  0.00     0.059 A 
ATOM     68  C   UNL A   1      45.199  21.898  25.301  1.00  0.00     0.059 A 
ATOM     69  F   UNL A   1      45.695  23.915  26.251  1.00  0.00    -0.206 F 
ATOM     70  C   UNL A   1      44.506  20.703  25.281  1.00  0.00     0.060 A 
BRANCH  70  71
ATOM     71  S   UNL A   1      44.996  19.395  24.142  1.00  0.00     0.124 S 
ATOM     72  O   UNL A   1      46.452  19.453  24.227  1.00  0.00    -0.237 OA
ATOM     73  O   UNL A   1      44.368  18.217  24.731  1.00  0.00    -0.237 OA
ATOM     74  O   UNL A   1      44.430  19.825  22.866  1.00  0.00    -0.744 OA
ENDBRANCH  70  71
ENDBRANCH  49  63
BRANCH  50  75
ATOM     75  C   UNL A   1      41.643  30.398  32.753  1.00  0.00     0.058 A 
ATOM     76  C   UNL A   1      40.546  29.625  33.177  1.00  0.00     0.135 A 
ATOM     77  C   UNL A   1      41.770  31.692  33.278  1.00  0.00     0.135 A 
ATOM     78  F   UNL A   1      40.363  28.390  32.681  1.00  0.00    -0.206 F 
ATOM     79  C   UNL A   1      39.737  30.027  34.232  1.00  0.00     0.059 A 
ATOM     80  C   UNL A   1      40.961  32.121  34.333  1.00  0.00     0.059 A 
ATOM     81  F   UNL A   1      42.788  32.478  32.900  1.00  0.00    -0.206 F 
ATOM     82  C   UNL A   1      40.013  31.241  34.858  1.00  0.00     0.060 A 
BRANCH  82  83
ATOM     83  S   UNL A   1      39.284  31.520  36.491  1.00  0.00     0.124 S 
ATOM     84  O   UNL A   1      40.465  31.693  37.328  1.00  0.00    -0.237 OA
ATOM     85  O   UNL A   1      38.496  32.730  36.251  1.00  0.00    -0.237 OA
ATOM     86  O   UNL A   1      38.513  30.306  36.726  1.00  0.00    -0.744 OA
ENDBRANCH  82  83
ENDBRANCH  50  75
BRANCH  62  87
ATOM     87  C   UNL A   1      45.098  24.036  33.642  1.00  0.00     0.058 A 
ATOM     88  C   UNL A   1      44.232  22.956  33.892  1.00  0.00     0.135 A 
ATOM     89  C   UNL A   1      46.399  23.898  34.191  1.00  0.00     0.135 A 
ATOM     90  F   UNL A   1      43.016  22.889  33.332  1.00  0.00    -0.206 F 
ATOM     91  C   UNL A   1      44.597  21.865  34.686  1.00  0.00     0.059 A 
ATOM     92  C   UNL A   1      46.803  22.791  34.934  1.00  0.00     0.059 A 
ATOM     93  F   UNL A   1      47.339  24.838  34.009  1.00  0.00    -0.206 F 
ATOM     94  C   UNL A   1      45.885  21.789  35.205  1.00  0.00     0.060 A 
BRANCH  94  95
ATOM     95  S   UNL A   1      46.387  20.356  36.176  1.00  0.00     0.124 S 
ATOM     96  O   UNL A   1      47.834  20.537  36.234  1.00  0.00    -0.237 OA
ATOM     97  O   UNL A   1      45.677  20.550  37.437  1.00  0.00    -0.237 OA
ATOM     98  O   UNL A   1      45.920  19.231  35.372  1.00  0.00    -0.744 OA
ENDBRANCH  94  95
ENDBRANCH  62  87
ENDBRANCH  36  37
ENDBRANCH  28  31
ENDBRANCH  26  27
ENDBRANCH  25  26
ENDBRANCH   1  25
TORSDOF 19
ENDMDL
MODEL 2
REMARK VINA RESULT:     -12.7      1.521      2.192
REMARK SMILES Cc1ccc(OCCC(=O)N2C[C@H](O)C[C@@H]2C(=O)NCCCNC(=O)c2ccc(-c3c4nc(c(-c5c(F)cc(S(=O)(=O)[O-])cc5F)c5ccc([nH]5)c(-c5c(F)cc(S(=O)(=O)[O-])cc5F)c5nc(c(-c6c(F)cc(S(=O)(=O)[O-])cc6F)c6ccc3[nH]6)C=C5)C=C4)cc2)cc1
REMARK SMILES IDX 20 1 19 2 17 3 18 4 16 6 11 7 12 8 13 9 15 10 9 11 10 12
REMARK SMILES IDX 8 13 7 14 6 15 5 16 1 17 2 18 3 19 93 20 4 21 92 22 14 23
REMARK SMILES IDX 21 25 22 26 23 27 24 28 25 30 26 31 27 32 91 33 28 34 90 35
REMARK SMILES IDX 29 36 30 37 31 38 84 39 32 40 89 41 83 42 85 43 33 44 88 45
REMARK SMILES IDX 82 46 81 47 34 49 68 50 47 51 67 52 48 53 51 54 66 55 86 56
REMARK SMILES IDX 49 57 50 58 65 60 87 61 52 62 35 63 36 64 45 65 37 66 38 67
REMARK SMILES IDX 44 68 46 69 39 70 40 71 41 72 42 73 43 74 69 75 70 76 79 77
REMARK SMILES IDX 71 78 72 79 78 80 80 81 73 82 74 83 75 84 76 85 77 86 53 87
REMARK SMILES IDX 54 88 63 89 55 90 56 91 62 92 64 93 57 94 58 95 59 96 60 97
REMARK SMILES IDX 61 98
REMARK H PARENT 19 5 14 24 23 29 85 48 51 59
REMARK Flexibility Score: inf
ROOT
ATOM      1  C   UNL A   1      31.725  30.253  25.472  1.00  0.00     0.117 C 
ENDROOT
BRANCH   1   2
ATOM      2  N   UNL A   1      32.903  29.922  24.680  1.00  0.00    -0.354 N 
ATOM      3  C   UNL A   1      33.135  28.869  23.844  1.00  0.00     0.242 C 
ATOM      4  O   UNL A   1      33.984  29.049  22.960  1.00  0.00    -0.273 OA
ATOM      5  H   UNL A   1      33.650  30.559  24.761  1.00  0.00     0.163 HD
BRANCH   3   6
ATOM      6  C   UNL A   1      32.481  27.465  23.995  1.00  0.00     0.177 C 
ATOM      7  N   UNL A   1      32.761  26.425  23.003  1.00  0.00    -0.328 N 
ATOM      8  C   UNL A   1      31.664  26.312  22.049  1.00  0.00     0.152 C 
ATOM      9  C   UNL A   1      30.649  27.383  22.430  1.00  0.00     0.136 C 
ATOM     10  C   UNL A   1      30.952  27.646  23.900  1.00  0.00     0.069 C 
BRANCH   7  11
ATOM     11  C   UNL A   1      33.690  25.419  23.224  1.00  0.00     0.226 C 
ATOM     12  O   UNL A   1      34.023  24.627  22.342  1.00  0.00    -0.275 OA
BRANCH  11  13
ATOM     13  C   UNL A   1      34.191  25.242  24.655  1.00  0.00     0.141 C 
BRANCH  13  14
ATOM     14  C   UNL A   1      33.895  23.909  25.331  1.00  0.00     0.239 C 
BRANCH  14  15
ATOM     15  O   UNL A   1      34.887  22.903  25.067  1.00  0.00    -0.493 OA
BRANCH  15  16
ATOM     16  C   UNL A   1      34.429  21.672  24.690  1.00  0.00     0.119 A 
ATOM     17  C   UNL A   1      32.396  17.922  24.204  1.00  0.00     0.044 C 
ATOM     18  C   UNL A   1      33.134  19.225  24.271  1.00  0.00    -0.051 A 
ATOM     19  C   UNL A   1      32.501  20.423  23.919  1.00  0.00     0.007 A 
ATOM     20  C   UNL A   1      34.457  19.260  24.716  1.00  0.00     0.007 A 
ATOM     21  C   UNL A   1      33.154  21.644  24.115  1.00  0.00     0.046 A 
ATOM     22  C   UNL A   1      35.105  20.477  24.915  1.00  0.00     0.046 A 
ENDBRANCH  15  16
ENDBRANCH  14  15
ENDBRANCH  13  14
ENDBRANCH  11  13
ENDBRANCH   7  11
BRANCH   9  23
ATOM     23  O   UNL A   1      30.783  28.552  21.633  1.00  0.00    -0.391 OA
ATOM     24  H   UNL A   1      31.244  28.330  20.809  1.00  0.00     0.211 HD
ENDBRANCH   9  23
ENDBRANCH   3   6
ENDBRANCH   1   2
BRANCH   1  25
ATOM     25  C   UNL A   1      32.054  30.878  26.820  1.00  0.00     0.042 C 
BRANCH  25  26
ATOM     26  C   UNL A   1      33.387  30.476  27.429  1.00  0.00     0.118 C 
BRANCH  26  27
ATOM     27  N   UNL A   1      34.180  31.637  27.842  1.00  0.00    -0.352 N 
ATOM     28  C   UNL A   1      35.426  31.642  28.453  1.00  0.00     0.251 C 
ATOM     29  H   UNL A   1      33.782  32.520  27.663  1.00  0.00     0.163 HD
ATOM     30  O   UNL A   1      35.955  32.646  28.889  1.00  0.00    -0.269 OA
BRANCH  28  31
ATOM     31  C   UNL A   1      36.129  30.344  28.458  1.00  0.00     0.039 A 
ATOM     32  C   UNL A   1      36.251  29.735  29.713  1.00  0.00     0.014 A 
ATOM     33  C   UNL A   1      37.022  30.089  27.423  1.00  0.00     0.014 A 
ATOM     34  C   UNL A   1      37.423  29.060  30.022  1.00  0.00     0.010 A 
ATOM     35  C   UNL A   1      38.217  29.482  27.759  1.00  0.00     0.010 A 
ATOM     36  C   UNL A   1      38.443  29.043  29.079  1.00  0.00    -0.014 A 
BRANCH  36  37
ATOM     37  C   UNL A   1      39.821  28.684  29.392  1.00  0.00     0.031 A 
ATOM     38  C   UNL A   1      40.283  27.312  29.088  1.00  0.00     0.074 A 
ATOM     39  C   UNL A   1      40.700  29.621  29.820  1.00  0.00     0.049 A 
ATOM     40  N   UNL A   1      41.443  26.851  29.402  1.00  0.00    -0.248 NA
ATOM     41  C   UNL A   1      39.421  26.307  28.463  1.00  0.00     0.031 C 
ATOM     42  C   UNL A   1      42.158  29.558  29.743  1.00  0.00     0.029 A 
ATOM     43  N   UNL A   1      40.450  30.730  30.635  1.00  0.00    -0.354 N 
ATOM     44  C   UNL A   1      41.595  25.649  28.758  1.00  0.00     0.074 A 
ATOM     45  C   UNL A   1      40.277  25.295  28.307  1.00  0.00     0.031 C 
ATOM     46  C   UNL A   1      42.686  30.402  30.640  1.00  0.00     0.029 A 
ATOM     47  C   UNL A   1      41.593  30.917  31.441  1.00  0.00     0.049 A 
ATOM     48  H   UNL A   1      39.631  31.277  30.643  1.00  0.00     0.167 HD
ATOM     49  C   UNL A   1      42.857  25.182  28.558  1.00  0.00     0.037 A 
ATOM     50  C   UNL A   1      41.530  30.811  32.803  1.00  0.00     0.037 A 
ATOM     51  C   UNL A   1      43.787  25.825  29.489  1.00  0.00     0.049 A 
ATOM     52  C   UNL A   1      42.369  29.695  33.384  1.00  0.00     0.074 A 
ATOM     53  C   UNL A   1      44.783  26.776  29.363  1.00  0.00     0.029 A 
ATOM     54  N   UNL A   1      43.549  25.688  30.857  1.00  0.00    -0.354 N 
ATOM     55  N   UNL A   1      42.897  28.732  32.678  1.00  0.00    -0.248 NA
ATOM     56  C   UNL A   1      42.677  29.568  34.806  1.00  0.00     0.031 C 
ATOM     57  C   UNL A   1      45.051  27.298  30.661  1.00  0.00     0.029 A 
ATOM     58  C   UNL A   1      44.259  26.626  31.579  1.00  0.00     0.049 A 
ATOM     59  H   UNL A   1      42.954  25.011  31.255  1.00  0.00     0.167 HD
ATOM     60  C   UNL A   1      43.547  27.848  33.504  1.00  0.00     0.074 A 
ATOM     61  C   UNL A   1      43.412  28.441  34.823  1.00  0.00     0.031 C 
ATOM     62  C   UNL A   1      44.118  26.698  33.030  1.00  0.00     0.037 A 
BRANCH  49  63
ATOM     63  C   UNL A   1      43.270  24.297  27.394  1.00  0.00     0.058 A 
ATOM     64  C   UNL A   1      42.981  22.915  27.411  1.00  0.00     0.135 A 
ATOM     65  C   UNL A   1      44.081  24.707  26.309  1.00  0.00     0.135 A 
ATOM     66  F   UNL A   1      42.246  22.373  28.393  1.00  0.00    -0.206 F 
ATOM     67  C   UNL A   1      43.469  22.020  26.447  1.00  0.00     0.059 A 
ATOM     68  C   UNL A   1      44.538  23.843  25.313  1.00  0.00     0.059 A 
ATOM     69  F   UNL A   1      44.545  25.954  26.184  1.00  0.00    -0.206 F 
ATOM     70  C   UNL A   1      44.250  22.494  25.400  1.00  0.00     0.060 A 
BRANCH  70  71
ATOM     71  S   UNL A   1      44.919  21.349  24.180  1.00  0.00     0.124 S 
ATOM     72  O   UNL A   1      44.513  21.975  22.926  1.00  0.00    -0.237 OA
ATOM     73  O   UNL A   1      46.347  21.376  24.475  1.00  0.00    -0.237 OA
ATOM     74  O   UNL A   1      44.247  20.089  24.492  1.00  0.00    -0.744 OA
ENDBRANCH  70  71
ENDBRANCH  49  63
BRANCH  50  75
ATOM     75  C   UNL A   1      40.264  31.358  33.366  1.00  0.00     0.058 A 
ATOM     76  C   UNL A   1      39.311  30.417  33.798  1.00  0.00     0.135 A 
ATOM     77  C   UNL A   1      40.223  32.638  33.938  1.00  0.00     0.135 A 
ATOM     78  F   UNL A   1      39.290  29.187  33.259  1.00  0.00    -0.206 F 
ATOM     79  C   UNL A   1      38.497  30.658  34.897  1.00  0.00     0.059 A 
ATOM     80  C   UNL A   1      39.405  32.906  35.039  1.00  0.00     0.059 A 
ATOM     81  F   UNL A   1      41.098  33.578  33.555  1.00  0.00    -0.206 F 
ATOM     82  C   UNL A   1      38.618  31.877  35.561  1.00  0.00     0.060 A 
BRANCH  82  83
ATOM     83  S   UNL A   1      37.926  31.988  37.230  1.00  0.00     0.124 S 
ATOM     84  O   UNL A   1      36.842  32.946  37.049  1.00  0.00    -0.237 OA
ATOM     85  O   UNL A   1      37.514  30.603  37.463  1.00  0.00    -0.237 OA
ATOM     86  O   UNL A   1      39.053  32.451  38.030  1.00  0.00    -0.744 OA
ENDBRANCH  82  83
ENDBRANCH  50  75
BRANCH  62  87
ATOM     87  C   UNL A   1      44.650  25.552  33.873  1.00  0.00     0.058 A 
ATOM     88  C   UNL A   1      43.851  24.686  34.643  1.00  0.00     0.135 A 
ATOM     89  C   UNL A   1      46.023  25.202  33.812  1.00  0.00     0.135 A 
ATOM     90  F   UNL A   1      42.518  24.818  34.689  1.00  0.00    -0.206 F 
ATOM     91  C   UNL A   1      44.381  23.608  35.358  1.00  0.00     0.059 A 
ATOM     92  C   UNL A   1      46.562  24.096  34.467  1.00  0.00     0.059 A 
ATOM     93  F   UNL A   1      46.897  25.921  33.091  1.00  0.00    -0.206 F 
ATOM     94  C   UNL A   1      45.738  23.319  35.266  1.00  0.00     0.060 A 
BRANCH  94  95
ATOM     95  S   UNL A   1      46.421  21.894  36.131  1.00  0.00     0.124 S 
ATOM     96  O   UNL A   1      46.127  22.228  37.521  1.00  0.00    -0.237 OA
ATOM     97  O   UNL A   1      45.659  20.778  35.578  1.00  0.00    -0.237 OA
ATOM     98  O   UNL A   1      47.831  21.923  35.757  1.00  0.00    -0.744 OA
ENDBRANCH  94  95
ENDBRANCH  62  87
ENDBRANCH  36  37
ENDBRANCH  28  31
ENDBRANCH  26  27
ENDBRANCH  25  26
ENDBRANCH   1  25
TORSDOF 19
ENDMDL
MODEL 3
REMARK VINA RESULT:     -12.4      2.561      4.469
REMARK SMILES Cc1ccc(OCCC(=O)N2C[C@H](O)C[C@@H]2C(=O)NCCCNC(=O)c2ccc(-c3c4nc(c(-c5c(F)cc(S(=O)(=O)[O-])cc5F)c5ccc([nH]5)c(-c5c(F)cc(S(=O)(=O)[O-])cc5F)c5nc(c(-c6c(F)cc(S(=O)(=O)[O-])cc6F)c6ccc3[nH]6)C=C5)C=C4)cc2)cc1
REMARK SMILES IDX 20 1 19 2 17 3 18 4 16 6 11 7 12 8 13 9 15 10 9 11 10 12
REMARK SMILES IDX 8 13 7 14 6 15 5 16 1 17 2 18 3 19 93 20 4 21 92 22 14 23
REMARK SMILES IDX 21 25 22 26 23 27 24 28 25 30 26 31 27 32 91 33 28 34 90 35
REMARK SMILES IDX 29 36 30 37 31 38 84 39 32 40 89 41 83 42 85 43 33 44 88 45
REMARK SMILES IDX 82 46 81 47 34 49 68 50 47 51 67 52 48 53 51 54 66 55 86 56
REMARK SMILES IDX 49 57 50 58 65 60 87 61 52 62 35 63 36 64 45 65 37 66 38 67
REMARK SMILES IDX 44 68 46 69 39 70 40 71 41 72 42 73 43 74 69 75 70 76 79 77
REMARK SMILES IDX 71 78 72 79 78 80 80 81 73 82 74 83 75 84 76 85 77 86 53 87
REMARK SMILES IDX 54 88 63 89 55 90 56 91 62 92 64 93 57 94 58 95 59 96 60 97
REMARK SMILES IDX 61 98
REMARK H PARENT 19 5 14 24 23 29 85 48 51 59
REMARK Flexibility Score: inf
ROOT
ATOM      1  C   UNL A   1      33.379  27.744  26.052  1.00  0.00     0.117 C 
ENDROOT
BRANCH   1   2
ATOM      2  N   UNL A   1      32.206  26.918  26.310  1.00  0.00    -0.354 N 
ATOM      3  C   UNL A   1      32.074  25.561  26.343  1.00  0.00     0.242 C 
ATOM      4  O   UNL A   1      31.136  25.118  27.020  1.00  0.00    -0.273 OA
ATOM      5  H   UNL A   1      31.378  27.419  26.488  1.00  0.00     0.163 HD
BRANCH   3   6
ATOM      6  C   UNL A   1      32.953  24.571  25.525  1.00  0.00     0.177 C 
ATOM      7  N   UNL A   1      32.316  23.495  24.764  1.00  0.00    -0.328 N 
ATOM      8  C   UNL A   1      32.400  22.231  25.487  1.00  0.00     0.152 C 
ATOM      9  C   UNL A   1      33.088  22.537  26.813  1.00  0.00     0.136 C 
ATOM     10  C   UNL A   1      33.861  23.817  26.519  1.00  0.00     0.069 C 
BRANCH   7  11
ATOM     11  C   UNL A   1      32.095  23.581  23.398  1.00  0.00     0.226 C 
ATOM     12  O   UNL A   1      31.243  22.900  22.826  1.00  0.00    -0.275 OA
BRANCH  11  13
ATOM     13  C   UNL A   1      33.049  24.464  22.597  1.00  0.00     0.141 C 
BRANCH  13  14
ATOM     14  C   UNL A   1      32.435  25.627  21.829  1.00  0.00     0.239 C 
BRANCH  14  15
ATOM     15  O   UNL A   1      32.595  26.894  22.488  1.00  0.00    -0.493 OA
BRANCH  15  16
ATOM     16  C   UNL A   1      31.453  27.581  22.786  1.00  0.00     0.119 A 
ATOM     17  C   UNL A   1      27.524  29.304  22.983  1.00  0.00     0.044 C 
ATOM     18  C   UNL A   1      28.905  28.722  23.019  1.00  0.00    -0.051 A 
ATOM     19  C   UNL A   1      29.106  27.377  23.355  1.00  0.00     0.007 A 
ATOM     20  C   UNL A   1      30.008  29.511  22.687  1.00  0.00     0.007 A 
ATOM     21  C   UNL A   1      30.381  26.812  23.253  1.00  0.00     0.046 A 
ATOM     22  C   UNL A   1      31.278  28.946  22.581  1.00  0.00     0.046 A 
ENDBRANCH  15  16
ENDBRANCH  14  15
ENDBRANCH  13  14
ENDBRANCH  11  13
ENDBRANCH   7  11
BRANCH   9  23
ATOM     23  O   UNL A   1      32.155  22.700  27.872  1.00  0.00    -0.391 OA
ATOM     24  H   UNL A   1      32.019  21.849  28.317  1.00  0.00     0.211 HD
ENDBRANCH   9  23
ENDBRANCH   3   6
ENDBRANCH   1   2
BRANCH   1  25
ATOM     25  C   UNL A   1      33.065  29.228  25.932  1.00  0.00     0.042 C 
BRANCH  25  26
ATOM     26  C   UNL A   1      32.772  29.951  27.236  1.00  0.00     0.118 C 
BRANCH  26  27
ATOM     27  N   UNL A   1      33.505  31.216  27.345  1.00  0.00    -0.352 N 
ATOM     28  C   UNL A   1      34.767  31.424  27.883  1.00  0.00     0.251 C 
ATOM     29  H   UNL A   1      33.047  32.014  26.994  1.00  0.00     0.163 HD
ATOM     30  O   UNL A   1      35.246  32.527  28.061  1.00  0.00    -0.269 OA
BRANCH  28  31
ATOM     31  C   UNL A   1      35.549  30.200  28.142  1.00  0.00     0.039 A 
ATOM     32  C   UNL A   1      35.655  29.831  29.489  1.00  0.00     0.014 A 
ATOM     33  C   UNL A   1      36.502  29.830  27.198  1.00  0.00     0.014 A 
ATOM     34  C   UNL A   1      36.852  29.304  29.951  1.00  0.00     0.010 A 
ATOM     35  C   UNL A   1      37.716  29.376  27.675  1.00  0.00     0.010 A 
ATOM     36  C   UNL A   1      37.911  29.194  29.060  1.00  0.00    -0.014 A 
BRANCH  36  37
ATOM     37  C   UNL A   1      39.295  28.993  29.476  1.00  0.00     0.031 A 
ATOM     38  C   UNL A   1      39.952  27.708  29.153  1.00  0.00     0.074 A 
ATOM     39  C   UNL A   1      40.007  30.006  30.020  1.00  0.00     0.049 A 
ATOM     40  N   UNL A   1      41.133  27.378  29.546  1.00  0.00    -0.248 NA
ATOM     41  C   UNL A   1      39.281  26.639  28.411  1.00  0.00     0.031 C 
ATOM     42  C   UNL A   1      41.463  30.130  30.068  1.00  0.00     0.029 A 
ATOM     43  N   UNL A   1      39.551  31.029  30.859  1.00  0.00    -0.354 N 
ATOM     44  C   UNL A   1      41.491  26.242  28.865  1.00  0.00     0.074 A 
ATOM     45  C   UNL A   1      40.271  25.752  28.285  1.00  0.00     0.031 C 
ATOM     46  C   UNL A   1      41.803  30.983  31.045  1.00  0.00     0.029 A 
ATOM     47  C   UNL A   1      40.591  31.312  31.769  1.00  0.00     0.049 A 
ATOM     48  H   UNL A   1      38.671  31.469  30.819  1.00  0.00     0.167 HD
ATOM     49  C   UNL A   1      42.814  25.948  28.756  1.00  0.00     0.037 A 
ATOM     50  C   UNL A   1      40.432  31.125  33.114  1.00  0.00     0.037 A 
ATOM     51  C   UNL A   1      43.575  26.650  29.792  1.00  0.00     0.049 A 
ATOM     52  C   UNL A   1      41.359  30.092  33.716  1.00  0.00     0.074 A 
ATOM     53  C   UNL A   1      44.447  27.723  29.796  1.00  0.00     0.029 A 
ATOM     54  N   UNL A   1      43.247  26.408  31.126  1.00  0.00    -0.354 N 
ATOM     55  N   UNL A   1      42.062  29.243  33.017  1.00  0.00    -0.248 NA
ATOM     56  C   UNL A   1      41.564  29.925  35.153  1.00  0.00     0.031 C 
ATOM     57  C   UNL A   1      44.540  28.202  31.135  1.00  0.00     0.029 A 
ATOM     58  C   UNL A   1      43.768  27.387  31.949  1.00  0.00     0.049 A 
ATOM     59  H   UNL A   1      42.714  25.642  31.440  1.00  0.00     0.167 HD
ATOM     60  C   UNL A   1      42.751  28.403  33.856  1.00  0.00     0.074 A 
ATOM     61  C   UNL A   1      42.434  28.900  35.184  1.00  0.00     0.031 C 
ATOM     62  C   UNL A   1      43.502  27.361  33.384  1.00  0.00     0.037 A 
BRANCH  49  63
ATOM     63  C   UNL A   1      43.431  25.187  27.594  1.00  0.00     0.058 A 
ATOM     64  C   UNL A   1      43.589  23.785  27.663  1.00  0.00     0.135 A 
ATOM     65  C   UNL A   1      44.026  25.783  26.456  1.00  0.00     0.135 A 
ATOM     66  F   UNL A   1      43.103  23.084  28.697  1.00  0.00    -0.206 F 
ATOM     67  C   UNL A   1      44.288  23.046  26.697  1.00  0.00     0.059 A 
ATOM     68  C   UNL A   1      44.685  25.062  25.459  1.00  0.00     0.059 A 
ATOM     69  F   UNL A   1      44.072  27.105  26.274  1.00  0.00    -0.206 F 
ATOM     70  C   UNL A   1      44.836  23.695  25.597  1.00  0.00     0.060 A 
BRANCH  70  71
ATOM     71  S   UNL A   1      45.774  22.764  24.372  1.00  0.00     0.124 S 
ATOM     72  O   UNL A   1      44.728  22.348  23.444  1.00  0.00    -0.237 OA
ATOM     73  O   UNL A   1      46.712  23.763  23.871  1.00  0.00    -0.237 OA
ATOM     74  O   UNL A   1      46.377  21.686  25.153  1.00  0.00    -0.744 OA
ENDBRANCH  70  71
ENDBRANCH  49  63
BRANCH  50  75
ATOM     75  C   UNL A   1      39.065  31.477  33.588  1.00  0.00     0.058 A 
ATOM     76  C   UNL A   1      38.812  32.842  33.819  1.00  0.00     0.135 A 
ATOM     77  C   UNL A   1      37.969  30.650  33.304  1.00  0.00     0.135 A 
ATOM     78  F   UNL A   1      39.825  33.670  34.124  1.00  0.00    -0.206 F 
ATOM     79  C   UNL A   1      37.567  33.404  33.567  1.00  0.00     0.059 A 
ATOM     80  C   UNL A   1      36.705  31.192  33.056  1.00  0.00     0.059 A 
ATOM     81  F   UNL A   1      38.149  29.339  33.088  1.00  0.00    -0.206 F 
ATOM     82  C   UNL A   1      36.545  32.579  33.102  1.00  0.00     0.060 A 
BRANCH  82  83
ATOM     83  S   UNL A   1      35.114  33.378  32.336  1.00  0.00     0.124 S 
ATOM     84  O   UNL A   1      34.556  32.300  31.528  1.00  0.00    -0.237 OA
ATOM     85  O   UNL A   1      34.331  33.756  33.514  1.00  0.00    -0.237 OA
ATOM     86  O   UNL A   1      35.704  34.485  31.594  1.00  0.00    -0.744 OA
ENDBRANCH  82  83
ENDBRANCH  50  75
BRANCH  62  87
ATOM     87  C   UNL A   1      44.107  26.245  34.218  1.00  0.00     0.058 A 
ATOM     88  C   UNL A   1      43.368  25.242  34.872  1.00  0.00     0.135 A 
ATOM     89  C   UNL A   1      45.515  26.076  34.266  1.00  0.00     0.135 A 
ATOM     90  F   UNL A   1      42.030  25.201  34.803  1.00  0.00    -0.206 F 
ATOM     91  C   UNL A   1      43.973  24.201  35.583  1.00  0.00     0.059 A 
ATOM     92  C   UNL A   1      46.137  25.012  34.917  1.00  0.00     0.059 A 
ATOM     93  F   UNL A   1      46.344  26.940  33.662  1.00  0.00    -0.206 F 
ATOM     94  C   UNL A   1      45.359  24.092  35.601  1.00  0.00     0.060 A 
BRANCH  94  95
ATOM     95  S   UNL A   1      46.148  22.718  36.459  1.00  0.00     0.124 S 
ATOM     96  O   UNL A   1      47.555  22.949  36.145  1.00  0.00    -0.237 OA
ATOM     97  O   UNL A   1      45.770  22.941  37.851  1.00  0.00    -0.237 OA
ATOM     98  O   UNL A   1      45.542  21.546  35.835  1.00  0.00    -0.744 OA
ENDBRANCH  94  95
ENDBRANCH  62  87
ENDBRANCH  36  37
ENDBRANCH  28  31
ENDBRANCH  26  27
ENDBRANCH  25  26
ENDBRANCH   1  25
TORSDOF 19
ENDMDL
