MODEL 1
REMARK VINA RESULT:     -10.5      0.000      0.000
REMARK SMILES Cc1cnccc1N[C@@H]1C=C[C@@H](C(=O)NCCCNC(=O)c2ccc(-c3c4nc(c(-c5c(F)cc(S(=O)(=O)[O-])cc5F)c5ccc([nH]5)c(-c5c(F)cc(S(=O)(=O)[O-])cc5F)c5nc(c(-c6c(F)cc(S(=O)(=O)[O-])cc6F)c6ccc3[nH]6)C=C5)C=C4)cc2)C1
REMARK SMILES IDX 17 1 16 2 15 3 13 4 14 5 12 7 9 8 10 9 88 10 11 11 8 12 7 14
REMARK SMILES IDX 1 15 2 16 3 17 4 18 6 19 5 20 18 21 19 22 20 23 21 25 22 26
REMARK SMILES IDX 23 27 87 28 24 29 86 30 25 31 26 32 27 33 80 34 28 35 85 36
REMARK SMILES IDX 79 37 81 38 29 39 84 40 78 41 77 42 30 44 64 45 43 46 63 47
REMARK SMILES IDX 44 48 47 49 62 50 82 51 45 52 46 53 61 55 83 56 48 57 31 58
REMARK SMILES IDX 32 59 41 60 33 61 34 62 40 63 42 64 35 65 36 66 37 67 38 68
REMARK SMILES IDX 39 69 65 70 66 71 75 72 67 73 68 74 74 75 76 76 69 77 70 78
REMARK SMILES IDX 71 79 72 80 73 81 49 82 50 83 59 84 51 85 52 86 58 87 60 88
REMARK SMILES IDX 53 89 54 90 55 91 56 92 57 93
REMARK H PARENT 15 6 8 13 19 24 81 43 47 54
REMARK Flexibility Score: inf
ROOT
ATOM      1  C   UNL A   1      33.639  33.777  28.116  1.00  0.00     0.042 C 
ENDROOT
BRANCH   1   2
ATOM      2  C   UNL A   1      34.045  35.029  28.880  1.00  0.00     0.117 C 
BRANCH   2   3
ATOM      3  N   UNL A   1      33.127  35.324  29.963  1.00  0.00    -0.356 N 
ATOM      4  C   UNL A   1      33.270  35.225  31.309  1.00  0.00     0.227 C 
ATOM      5  O   UNL A   1      32.304  35.555  32.004  1.00  0.00    -0.274 OA
ATOM      6  H   UNL A   1      32.248  35.655  29.672  1.00  0.00     0.163 HD
BRANCH   4   7
ATOM      7  C   UNL A   1      34.562  34.756  31.970  1.00  0.00     0.103 C 
ATOM      8  C   UNL A   1      35.334  34.133  34.213  1.00  0.00     0.103 C 
ATOM      9  C   UNL A   1      35.092  32.934  33.358  1.00  0.00    -0.006 C 
ATOM     10  C   UNL A   1      34.847  35.321  33.369  1.00  0.00     0.046 C 
ATOM     11  C   UNL A   1      34.645  33.265  32.141  1.00  0.00    -0.016 C 
BRANCH   8  12
ATOM     12  N   UNL A   1      36.720  34.199  34.648  1.00  0.00    -0.379 N 
ATOM     13  H   UNL A   1      37.011  35.069  35.005  1.00  0.00     0.161 HD
BRANCH  12  14
ATOM     14  C   UNL A   1      37.687  33.210  34.632  1.00  0.00     0.040 A 
ATOM     15  C   UNL A   1      38.686  34.082  32.430  1.00  0.00     0.048 C 
ATOM     16  C   UNL A   1      38.580  33.091  33.553  1.00  0.00    -0.010 A 
ATOM     17  C   UNL A   1      39.463  32.004  33.539  1.00  0.00     0.116 A 
ATOM     18  N   UNL A   1      39.526  31.046  34.485  1.00  0.00    -0.264 NA
ATOM     19  C   UNL A   1      37.777  32.236  35.629  1.00  0.00     0.046 A 
ATOM     20  C   UNL A   1      38.678  31.189  35.515  1.00  0.00     0.113 A 
ENDBRANCH  12  14
ENDBRANCH   8  12
ENDBRANCH   4   7
ENDBRANCH   2   3
ENDBRANCH   1   2
BRANCH   1  21
ATOM     21  C   UNL A   1      34.502  32.560  28.423  1.00  0.00     0.118 C 
BRANCH  21  22
ATOM     22  N   UNL A   1      33.837  31.309  28.088  1.00  0.00    -0.352 N 
ATOM     23  C   UNL A   1      34.374  30.071  27.851  1.00  0.00     0.251 C 
ATOM     24  H   UNL A   1      32.856  31.361  28.022  1.00  0.00     0.163 HD
ATOM     25  O   UNL A   1      33.660  29.187  27.369  1.00  0.00    -0.269 OA
BRANCH  23  26
ATOM     26  C   UNL A   1      35.792  29.797  28.154  1.00  0.00     0.039 A 
ATOM     27  C   UNL A   1      36.140  29.361  29.434  1.00  0.00     0.014 A 
ATOM     28  C   UNL A   1      36.784  29.991  27.187  1.00  0.00     0.014 A 
ATOM     29  C   UNL A   1      37.475  29.075  29.730  1.00  0.00     0.010 A 
ATOM     30  C   UNL A   1      38.097  29.620  27.455  1.00  0.00     0.010 A 
ATOM     31  C   UNL A   1      38.461  29.176  28.734  1.00  0.00    -0.014 A 
BRANCH  31  32
ATOM     32  C   UNL A   1      39.880  28.855  29.023  1.00  0.00     0.031 A 
ATOM     33  C   UNL A   1      40.774  29.895  29.646  1.00  0.00     0.074 A 
ATOM     34  C   UNL A   1      40.378  27.652  28.675  1.00  0.00     0.049 A 
ATOM     35  N   UNL A   1      42.050  29.827  29.925  1.00  0.00    -0.248 NA
ATOM     36  C   UNL A   1      40.160  31.193  29.971  1.00  0.00     0.031 C 
ATOM     37  C   UNL A   1      39.623  26.584  28.015  1.00  0.00     0.029 A 
ATOM     38  N   UNL A   1      41.635  27.126  28.822  1.00  0.00    -0.354 N 
ATOM     39  C   UNL A   1      42.393  31.073  30.440  1.00  0.00     0.074 A 
ATOM     40  C   UNL A   1      41.205  31.896  30.380  1.00  0.00     0.031 C 
ATOM     41  C   UNL A   1      40.425  25.521  27.840  1.00  0.00     0.029 A 
ATOM     42  C   UNL A   1      41.758  25.843  28.341  1.00  0.00     0.049 A 
ATOM     43  H   UNL A   1      42.381  27.620  29.232  1.00  0.00     0.167 HD
ATOM     44  C   UNL A   1      43.581  31.485  30.942  1.00  0.00     0.037 A 
ATOM     45  C   UNL A   1      42.824  25.021  28.307  1.00  0.00     0.037 A 
ATOM     46  C   UNL A   1      44.748  30.648  31.029  1.00  0.00     0.049 A 
ATOM     47  C   UNL A   1      44.129  25.493  28.889  1.00  0.00     0.074 A 
ATOM     48  C   UNL A   1      45.983  30.947  31.575  1.00  0.00     0.029 A 
ATOM     49  N   UNL A   1      44.822  29.344  30.561  1.00  0.00    -0.354 N 
ATOM     50  N   UNL A   1      44.417  26.654  29.429  1.00  0.00    -0.248 NA
ATOM     51  C   UNL A   1      45.249  24.544  28.866  1.00  0.00     0.031 C 
ATOM     52  C   UNL A   1      46.817  29.839  31.400  1.00  0.00     0.029 A 
ATOM     53  C   UNL A   1      46.087  28.830  30.790  1.00  0.00     0.049 A 
ATOM     54  H   UNL A   1      44.085  28.856  30.127  1.00  0.00     0.167 HD
ATOM     55  C   UNL A   1      45.744  26.563  29.838  1.00  0.00     0.074 A 
ATOM     56  C   UNL A   1      46.196  25.232  29.491  1.00  0.00     0.031 C 
ATOM     57  C   UNL A   1      46.515  27.497  30.449  1.00  0.00     0.037 A 
BRANCH  44  58
ATOM     58  C   UNL A   1      43.672  32.900  31.446  1.00  0.00     0.058 A 
ATOM     59  C   UNL A   1      44.098  33.952  30.619  1.00  0.00     0.135 A 
ATOM     60  C   UNL A   1      43.303  33.214  32.764  1.00  0.00     0.135 A 
ATOM     61  F   UNL A   1      44.478  33.707  29.354  1.00  0.00    -0.206 F 
ATOM     62  C   UNL A   1      44.186  35.259  31.088  1.00  0.00     0.059 A 
ATOM     63  C   UNL A   1      43.356  34.519  33.247  1.00  0.00     0.059 A 
ATOM     64  F   UNL A   1      42.889  32.248  33.600  1.00  0.00    -0.206 F 
ATOM     65  C   UNL A   1      43.813  35.532  32.405  1.00  0.00     0.060 A 
BRANCH  65  66
ATOM     66  S   UNL A   1      43.930  37.233  32.997  1.00  0.00     0.124 S 
ATOM     67  O   UNL A   1      43.816  37.984  31.751  1.00  0.00    -0.237 OA
ATOM     68  O   UNL A   1      42.788  37.329  33.901  1.00  0.00    -0.237 OA
ATOM     69  O   UNL A   1      45.240  37.280  33.640  1.00  0.00    -0.744 OA
ENDBRANCH  65  66
ENDBRANCH  44  58
BRANCH  45  70
ATOM     70  C   UNL A   1      42.690  23.656  27.733  1.00  0.00     0.058 A 
ATOM     71  C   UNL A   1      42.457  22.546  28.558  1.00  0.00     0.135 A 
ATOM     72  C   UNL A   1      42.771  23.436  26.349  1.00  0.00     0.135 A 
ATOM     73  F   UNL A   1      42.375  22.705  29.889  1.00  0.00    -0.206 F 
ATOM     74  C   UNL A   1      42.324  21.264  28.036  1.00  0.00     0.059 A 
ATOM     75  C   UNL A   1      42.617  22.166  25.800  1.00  0.00     0.059 A 
ATOM     76  F   UNL A   1      42.973  24.467  25.515  1.00  0.00    -0.206 F 
ATOM     77  C   UNL A   1      42.404  21.084  26.654  1.00  0.00     0.060 A 
BRANCH  77  78
ATOM     78  S   UNL A   1      42.178  19.423  25.981  1.00  0.00     0.124 S 
ATOM     79  O   UNL A   1      43.010  19.476  24.785  1.00  0.00    -0.237 OA
ATOM     80  O   UNL A   1      42.671  18.583  27.067  1.00  0.00    -0.237 OA
ATOM     81  O   UNL A   1      40.739  19.350  25.747  1.00  0.00    -0.744 OA
ENDBRANCH  77  78
ENDBRANCH  45  70
BRANCH  57  82
ATOM     82  C   UNL A   1      47.917  27.100  30.819  1.00  0.00     0.058 A 
ATOM     83  C   UNL A   1      48.977  27.197  29.906  1.00  0.00     0.135 A 
ATOM     84  C   UNL A   1      48.209  26.670  32.123  1.00  0.00     0.135 A 
ATOM     85  F   UNL A   1      48.750  27.598  28.644  1.00  0.00    -0.206 F 
ATOM     86  C   UNL A   1      50.277  26.858  30.266  1.00  0.00     0.059 A 
ATOM     87  C   UNL A   1      49.506  26.352  32.513  1.00  0.00     0.059 A 
ATOM     88  F   UNL A   1      47.231  26.571  33.038  1.00  0.00    -0.206 F 
ATOM     89  C   UNL A   1      50.532  26.439  31.574  1.00  0.00     0.060 A 
BRANCH  89  90
ATOM     90  S   UNL A   1      52.228  26.035  32.039  1.00  0.00     0.124 S 
ATOM     91  O   UNL A   1      52.984  26.629  30.940  1.00  0.00    -0.237 OA
ATOM     92  O   UNL A   1      52.364  26.696  33.333  1.00  0.00    -0.237 OA
ATOM     93  O   UNL A   1      52.230  24.575  32.084  1.00  0.00    -0.744 OA
ENDBRANCH  89  90
ENDBRANCH  57  82
ENDBRANCH  31  32
ENDBRANCH  23  26
ENDBRANCH  21  22
ENDBRANCH   1  21
TORSDOF 15
ENDMDL
MODEL 2
REMARK VINA RESULT:     -10.5      4.119      6.991
REMARK SMILES Cc1cnccc1N[C@@H]1C=C[C@@H](C(=O)NCCCNC(=O)c2ccc(-c3c4nc(c(-c5c(F)cc(S(=O)(=O)[O-])cc5F)c5ccc([nH]5)c(-c5c(F)cc(S(=O)(=O)[O-])cc5F)c5nc(c(-c6c(F)cc(S(=O)(=O)[O-])cc6F)c6ccc3[nH]6)C=C5)C=C4)cc2)C1
REMARK SMILES IDX 17 1 16 2 15 3 13 4 14 5 12 7 9 8 10 9 88 10 11 11 8 12 7 14
REMARK SMILES IDX 1 15 2 16 3 17 4 18 6 19 5 20 18 21 19 22 20 23 21 25 22 26
REMARK SMILES IDX 23 27 87 28 24 29 86 30 25 31 26 32 27 33 80 34 28 35 85 36
REMARK SMILES IDX 79 37 81 38 29 39 84 40 78 41 77 42 30 44 64 45 43 46 63 47
REMARK SMILES IDX 44 48 47 49 62 50 82 51 45 52 46 53 61 55 83 56 48 57 31 58
REMARK SMILES IDX 32 59 41 60 33 61 34 62 40 63 42 64 35 65 36 66 37 67 38 68
REMARK SMILES IDX 39 69 65 70 66 71 75 72 67 73 68 74 74 75 76 76 69 77 70 78
REMARK SMILES IDX 71 79 72 80 73 81 49 82 50 83 59 84 51 85 52 86 58 87 60 88
REMARK SMILES IDX 53 89 54 90 55 91 56 92 57 93
REMARK H PARENT 15 6 8 13 19 24 81 43 47 54
REMARK Flexibility Score: inf
ROOT
ATOM      1  C   UNL A   1      33.984  30.180  27.279  1.00  0.00     0.042 C 
ENDROOT
BRANCH   1   2
ATOM      2  C   UNL A   1      33.506  28.768  26.973  1.00  0.00     0.117 C 
BRANCH   2   3
ATOM      3  N   UNL A   1      33.912  28.334  25.651  1.00  0.00    -0.356 N 
ATOM      4  C   UNL A   1      33.207  28.191  24.501  1.00  0.00     0.227 C 
ATOM      5  O   UNL A   1      33.825  27.798  23.506  1.00  0.00    -0.274 OA
ATOM      6  H   UNL A   1      34.865  28.102  25.573  1.00  0.00     0.163 HD
BRANCH   4   7
ATOM      7  C   UNL A   1      31.720  28.519  24.397  1.00  0.00     0.103 C 
ATOM      8  C   UNL A   1      29.945  28.393  22.710  1.00  0.00     0.103 C 
ATOM      9  C   UNL A   1      29.844  27.284  23.703  1.00  0.00    -0.006 C 
ATOM     10  C   UNL A   1      31.253  29.117  23.063  1.00  0.00     0.046 C 
ATOM     11  C   UNL A   1      30.826  27.330  24.612  1.00  0.00    -0.016 C 
BRANCH   8  12
ATOM     12  N   UNL A   1      28.749  29.220  22.720  1.00  0.00    -0.379 N 
ATOM     13  H   UNL A   1      27.951  28.807  23.123  1.00  0.00     0.161 HD
BRANCH  12  14
ATOM     14  C   UNL A   1      28.574  30.507  22.243  1.00  0.00     0.040 A 
ATOM     15  C   UNL A   1      29.372  31.543  24.456  1.00  0.00     0.048 C 
ATOM     16  C   UNL A   1      28.791  31.620  23.073  1.00  0.00    -0.010 A 
ATOM     17  C   UNL A   1      28.491  32.892  22.570  1.00  0.00     0.116 A 
ATOM     18  N   UNL A   1      27.999  33.141  21.340  1.00  0.00    -0.264 NA
ATOM     19  C   UNL A   1      28.098  30.769  20.956  1.00  0.00     0.046 A 
ATOM     20  C   UNL A   1      27.818  32.066  20.557  1.00  0.00     0.113 A 
ENDBRANCH  12  14
ENDBRANCH   8  12
ENDBRANCH   4   7
ENDBRANCH   2   3
ENDBRANCH   1   2
BRANCH   1  21
ATOM     21  C   UNL A   1      35.392  30.244  27.855  1.00  0.00     0.118 C 
BRANCH  21  22
ATOM     22  N   UNL A   1      35.402  30.641  29.256  1.00  0.00    -0.352 N 
ATOM     23  C   UNL A   1      36.400  30.532  30.188  1.00  0.00     0.251 C 
ATOM     24  H   UNL A   1      34.568  31.050  29.581  1.00  0.00     0.163 HD
ATOM     25  O   UNL A   1      36.138  30.730  31.378  1.00  0.00    -0.269 OA
BRANCH  23  26
ATOM     26  C   UNL A   1      37.772  30.169  29.780  1.00  0.00     0.039 A 
ATOM     27  C   UNL A   1      38.714  29.867  30.766  1.00  0.00     0.014 A 
ATOM     28  C   UNL A   1      38.139  30.149  28.431  1.00  0.00     0.014 A 
ATOM     29  C   UNL A   1      40.010  29.500  30.396  1.00  0.00     0.010 A 
ATOM     30  C   UNL A   1      39.401  29.695  28.062  1.00  0.00     0.010 A 
ATOM     31  C   UNL A   1      40.356  29.385  29.039  1.00  0.00    -0.014 A 
BRANCH  31  32
ATOM     32  C   UNL A   1      41.721  28.974  28.627  1.00  0.00     0.031 A 
ATOM     33  C   UNL A   1      42.825  29.996  28.560  1.00  0.00     0.074 A 
ATOM     34  C   UNL A   1      41.953  27.697  28.260  1.00  0.00     0.049 A 
ATOM     35  N   UNL A   1      44.065  29.847  28.173  1.00  0.00    -0.248 NA
ATOM     36  C   UNL A   1      42.483  31.373  28.952  1.00  0.00     0.031 C 
ATOM     37  C   UNL A   1      40.949  26.631  28.231  1.00  0.00     0.029 A 
ATOM     38  N   UNL A   1      43.102  27.082  27.837  1.00  0.00    -0.354 N 
ATOM     39  C   UNL A   1      44.643  31.110  28.258  1.00  0.00     0.074 A 
ATOM     40  C   UNL A   1      43.603  32.023  28.676  1.00  0.00     0.031 C 
ATOM     41  C   UNL A   1      41.534  25.487  27.839  1.00  0.00     0.029 A 
ATOM     42  C   UNL A   1      42.943  25.745  27.555  1.00  0.00     0.049 A 
ATOM     43  H   UNL A   1      43.962  27.553  27.743  1.00  0.00     0.167 HD
ATOM     44  C   UNL A   1      45.929  31.470  28.034  1.00  0.00     0.037 A 
ATOM     45  C   UNL A   1      43.831  24.832  27.118  1.00  0.00     0.037 A 
ATOM     46  C   UNL A   1      46.966  30.548  27.651  1.00  0.00     0.049 A 
ATOM     47  C   UNL A   1      45.258  25.251  26.895  1.00  0.00     0.074 A 
ATOM     48  C   UNL A   1      48.312  30.797  27.458  1.00  0.00     0.029 A 
ATOM     49  N   UNL A   1      46.770  29.196  27.408  1.00  0.00    -0.354 N 
ATOM     50  N   UNL A   1      45.801  26.437  27.041  1.00  0.00    -0.248 NA
ATOM     51  C   UNL A   1      46.196  24.210  26.459  1.00  0.00     0.031 C 
ATOM     52  C   UNL A   1      48.923  29.605  27.059  1.00  0.00     0.029 A 
ATOM     53  C   UNL A   1      47.968  28.601  27.050  1.00  0.00     0.049 A 
ATOM     54  H   UNL A   1      45.906  28.728  27.477  1.00  0.00     0.167 HD
ATOM     55  C   UNL A   1      47.150  26.277  26.744  1.00  0.00     0.074 A 
ATOM     56  C   UNL A   1      47.341  24.878  26.419  1.00  0.00     0.031 C 
ATOM     57  C   UNL A   1      48.141  27.203  26.743  1.00  0.00     0.037 A 
BRANCH  44  58
ATOM     58  C   UNL A   1      46.288  32.921  28.210  1.00  0.00     0.058 A 
ATOM     59  C   UNL A   1      46.204  33.835  27.147  1.00  0.00     0.135 A 
ATOM     60  C   UNL A   1      46.694  33.410  29.462  1.00  0.00     0.135 A 
ATOM     61  F   UNL A   1      45.836  33.420  25.925  1.00  0.00    -0.206 F 
ATOM     62  C   UNL A   1      46.540  35.175  27.311  1.00  0.00     0.059 A 
ATOM     63  C   UNL A   1      47.008  34.753  29.655  1.00  0.00     0.059 A 
ATOM     64  F   UNL A   1      46.794  32.580  30.513  1.00  0.00    -0.206 F 
ATOM     65  C   UNL A   1      46.942  35.624  28.570  1.00  0.00     0.060 A 
BRANCH  65  66
ATOM     66  S   UNL A   1      47.372  37.367  28.765  1.00  0.00     0.124 S 
ATOM     67  O   UNL A   1      46.935  37.622  30.134  1.00  0.00    -0.237 OA
ATOM     68  O   UNL A   1      48.816  37.358  28.553  1.00  0.00    -0.237 OA
ATOM     69  O   UNL A   1      46.592  38.027  27.723  1.00  0.00    -0.744 OA
ENDBRANCH  65  66
ENDBRANCH  44  58
BRANCH  45  70
ATOM     70  C   UNL A   1      43.400  23.426  26.896  1.00  0.00     0.058 A 
ATOM     71  C   UNL A   1      43.217  22.925  25.599  1.00  0.00     0.135 A 
ATOM     72  C   UNL A   1      43.182  22.552  27.972  1.00  0.00     0.135 A 
ATOM     73  F   UNL A   1      43.409  23.724  24.538  1.00  0.00    -0.206 F 
ATOM     74  C   UNL A   1      42.819  21.611  25.375  1.00  0.00     0.059 A 
ATOM     75  C   UNL A   1      42.808  21.226  27.772  1.00  0.00     0.059 A 
ATOM     76  F   UNL A   1      43.363  22.977  29.232  1.00  0.00    -0.206 F 
ATOM     77  C   UNL A   1      42.618  20.768  26.469  1.00  0.00     0.060 A 
BRANCH  77  78
ATOM     78  S   UNL A   1      42.153  19.049  26.166  1.00  0.00     0.124 S 
ATOM     79  O   UNL A   1      42.437  18.437  27.458  1.00  0.00    -0.237 OA
ATOM     80  O   UNL A   1      40.742  19.172  25.813  1.00  0.00    -0.237 OA
ATOM     81  O   UNL A   1      43.032  18.653  25.071  1.00  0.00    -0.744 OA
ENDBRANCH  77  78
ENDBRANCH  45  70
BRANCH  57  82
ATOM     82  C   UNL A   1      49.530  26.729  26.420  1.00  0.00     0.058 A 
ATOM     83  C   UNL A   1      50.316  26.049  27.362  1.00  0.00     0.135 A 
ATOM     84  C   UNL A   1      50.057  26.910  25.131  1.00  0.00     0.135 A 
ATOM     85  F   UNL A   1      49.860  25.854  28.610  1.00  0.00    -0.206 F 
ATOM     86  C   UNL A   1      51.588  25.585  27.044  1.00  0.00     0.059 A 
ATOM     87  C   UNL A   1      51.316  26.431  24.784  1.00  0.00     0.059 A 
ATOM     88  F   UNL A   1      49.340  27.545  24.190  1.00  0.00    -0.206 F 
ATOM     89  C   UNL A   1      52.078  25.778  25.751  1.00  0.00     0.060 A 
BRANCH  89  90
ATOM     90  S   UNL A   1      53.717  25.142  25.342  1.00  0.00     0.124 S 
ATOM     91  O   UNL A   1      53.854  25.557  23.949  1.00  0.00    -0.237 OA
ATOM     92  O   UNL A   1      54.571  25.837  26.299  1.00  0.00    -0.237 OA
ATOM     93  O   UNL A   1      53.586  23.703  25.558  1.00  0.00    -0.744 OA
ENDBRANCH  89  90
ENDBRANCH  57  82
ENDBRANCH  31  32
ENDBRANCH  23  26
ENDBRANCH  21  22
ENDBRANCH   1  21
TORSDOF 15
ENDMDL
MODEL 3
REMARK VINA RESULT:     -10.4      5.488     12.600
REMARK SMILES Cc1cnccc1N[C@@H]1C=C[C@@H](C(=O)NCCCNC(=O)c2ccc(-c3c4nc(c(-c5c(F)cc(S(=O)(=O)[O-])cc5F)c5ccc([nH]5)c(-c5c(F)cc(S(=O)(=O)[O-])cc5F)c5nc(c(-c6c(F)cc(S(=O)(=O)[O-])cc6F)c6ccc3[nH]6)C=C5)C=C4)cc2)C1
REMARK SMILES IDX 17 1 16 2 15 3 13 4 14 5 12 7 9 8 10 9 88 10 11 11 8 12 7 14
REMARK SMILES IDX 1 15 2 16 3 17 4 18 6 19 5 20 18 21 19 22 20 23 21 25 22 26
REMARK SMILES IDX 23 27 87 28 24 29 86 30 25 31 26 32 27 33 80 34 28 35 85 36
REMARK SMILES IDX 79 37 81 38 29 39 84 40 78 41 77 42 30 44 64 45 43 46 63 47
REMARK SMILES IDX 44 48 47 49 62 50 82 51 45 52 46 53 61 55 83 56 48 57 31 58
REMARK SMILES IDX 32 59 41 60 33 61 34 62 40 63 42 64 35 65 36 66 37 67 38 68
REMARK SMILES IDX 39 69 65 70 66 71 75 72 67 73 68 74 74 75 76 76 69 77 70 78
REMARK SMILES IDX 71 79 72 80 73 81 49 82 50 83 59 84 51 85 52 86 58 87 60 88
REMARK SMILES IDX 53 89 54 90 55 91 56 92 57 93
REMARK H PARENT 15 6 8 13 19 24 81 43 47 54
REMARK Flexibility Score: inf
ROOT
ATOM      1  C   UNL A   1      40.611  21.891  27.559  1.00  0.00     0.042 C 
ENDROOT
BRANCH   1   2
ATOM      2  C   UNL A   1      39.778  21.913  26.286  1.00  0.00     0.117 C 
BRANCH   2   3
ATOM      3  N   UNL A   1      38.866  23.040  26.254  1.00  0.00    -0.356 N 
ATOM      4  C   UNL A   1      37.546  23.114  25.952  1.00  0.00     0.227 C 
ATOM      5  O   UNL A   1      37.016  24.228  26.013  1.00  0.00    -0.274 OA
ATOM      6  H   UNL A   1      39.277  23.901  26.494  1.00  0.00     0.163 HD
BRANCH   4   7
ATOM      7  C   UNL A   1      36.714  21.891  25.578  1.00  0.00     0.103 C 
ATOM      8  C   UNL A   1      34.351  21.237  25.559  1.00  0.00     0.103 C 
ATOM      9  C   UNL A   1      34.840  21.581  24.192  1.00  0.00    -0.006 C 
ATOM     10  C   UNL A   1      35.522  21.580  26.493  1.00  0.00     0.046 C 
ATOM     11  C   UNL A   1      36.123  21.965  24.198  1.00  0.00    -0.016 C 
BRANCH   8  12
ATOM     12  N   UNL A   1      33.884  19.861  25.620  1.00  0.00    -0.379 N 
ATOM     13  H   UNL A   1      33.798  19.482  26.525  1.00  0.00     0.161 HD
BRANCH  12  14
ATOM     14  C   UNL A   1      33.540  19.010  24.585  1.00  0.00     0.040 A 
ATOM     15  C   UNL A   1      35.539  17.466  25.057  1.00  0.00     0.048 C 
ATOM     16  C   UNL A   1      34.353  17.912  24.254  1.00  0.00    -0.010 A 
ATOM     17  C   UNL A   1      34.014  17.151  23.128  1.00  0.00     0.116 A 
ATOM     18  N   UNL A   1      32.961  17.391  22.320  1.00  0.00    -0.264 NA
ATOM     19  C   UNL A   1      32.430  19.236  23.768  1.00  0.00     0.046 A 
ATOM     20  C   UNL A   1      32.188  18.432  22.666  1.00  0.00     0.113 A 
ENDBRANCH  12  14
ENDBRANCH   8  12
ENDBRANCH   4   7
ENDBRANCH   2   3
ENDBRANCH   1   2
BRANCH   1  21
ATOM     21  C   UNL A   1      41.514  23.106  27.727  1.00  0.00     0.118 C 
BRANCH  21  22
ATOM     22  N   UNL A   1      41.698  23.837  26.482  1.00  0.00    -0.352 N 
ATOM     23  C   UNL A   1      41.510  25.167  26.215  1.00  0.00     0.251 C 
ATOM     24  H   UNL A   1      42.003  23.295  25.719  1.00  0.00     0.163 HD
ATOM     25  O   UNL A   1      41.512  25.553  25.042  1.00  0.00    -0.269 OA
BRANCH  23  26
ATOM     26  C   UNL A   1      41.295  26.131  27.312  1.00  0.00     0.039 A 
ATOM     27  C   UNL A   1      40.205  25.952  28.167  1.00  0.00     0.014 A 
ATOM     28  C   UNL A   1      42.150  27.224  27.488  1.00  0.00     0.014 A 
ATOM     29  C   UNL A   1      40.000  26.842  29.224  1.00  0.00     0.010 A 
ATOM     30  C   UNL A   1      41.998  28.053  28.593  1.00  0.00     0.010 A 
ATOM     31  C   UNL A   1      40.911  27.884  29.462  1.00  0.00    -0.014 A 
BRANCH  31  32
ATOM     32  C   UNL A   1      40.723  28.826  30.593  1.00  0.00     0.031 A 
ATOM     33  C   UNL A   1      41.569  28.690  31.832  1.00  0.00     0.074 A 
ATOM     34  C   UNL A   1      39.757  29.763  30.530  1.00  0.00     0.049 A 
ATOM     35  N   UNL A   1      41.521  29.376  32.944  1.00  0.00    -0.248 NA
ATOM     36  C   UNL A   1      42.584  27.623  31.832  1.00  0.00     0.031 C 
ATOM     37  C   UNL A   1      38.838  29.955  29.405  1.00  0.00     0.029 A 
ATOM     38  N   UNL A   1      39.383  30.726  31.431  1.00  0.00    -0.354 N 
ATOM     39  C   UNL A   1      42.482  28.815  33.779  1.00  0.00     0.074 A 
ATOM     40  C   UNL A   1      43.057  27.695  33.066  1.00  0.00     0.031 C 
ATOM     41  C   UNL A   1      38.026  30.990  29.673  1.00  0.00     0.029 A 
ATOM     42  C   UNL A   1      38.340  31.513  30.999  1.00  0.00     0.049 A 
ATOM     43  H   UNL A   1      39.819  30.844  32.306  1.00  0.00     0.167 HD
ATOM     44  C   UNL A   1      42.870  29.213  35.013  1.00  0.00     0.037 A 
ATOM     45  C   UNL A   1      37.710  32.537  31.604  1.00  0.00     0.037 A 
ATOM     46  C   UNL A   1      42.315  30.350  35.700  1.00  0.00     0.049 A 
ATOM     47  C   UNL A   1      38.170  32.975  32.968  1.00  0.00     0.074 A 
ATOM     48  C   UNL A   1      42.677  30.875  36.927  1.00  0.00     0.029 A 
ATOM     49  N   UNL A   1      41.283  31.140  35.215  1.00  0.00    -0.354 N 
ATOM     50  N   UNL A   1      39.124  32.471  33.715  1.00  0.00    -0.248 NA
ATOM     51  C   UNL A   1      37.479  34.123  33.566  1.00  0.00     0.031 C 
ATOM     52  C   UNL A   1      41.837  31.958  37.202  1.00  0.00     0.029 A 
ATOM     53  C   UNL A   1      40.984  32.139  36.125  1.00  0.00     0.049 A 
ATOM     54  H   UNL A   1      40.828  31.009  34.351  1.00  0.00     0.167 HD
ATOM     55  C   UNL A   1      39.166  33.261  34.859  1.00  0.00     0.074 A 
ATOM     56  C   UNL A   1      38.149  34.280  34.700  1.00  0.00     0.031 C 
ATOM     57  C   UNL A   1      39.976  33.153  35.943  1.00  0.00     0.037 A 
BRANCH  44  58
ATOM     58  C   UNL A   1      43.952  28.419  35.695  1.00  0.00     0.058 A 
ATOM     59  C   UNL A   1      43.652  27.354  36.559  1.00  0.00     0.135 A 
ATOM     60  C   UNL A   1      45.306  28.710  35.460  1.00  0.00     0.135 A 
ATOM     61  F   UNL A   1      42.374  27.043  36.831  1.00  0.00    -0.206 F 
ATOM     62  C   UNL A   1      44.653  26.624  37.191  1.00  0.00     0.059 A 
ATOM     63  C   UNL A   1      46.325  27.975  36.060  1.00  0.00     0.059 A 
ATOM     64  F   UNL A   1      45.650  29.718  34.644  1.00  0.00    -0.206 F 
ATOM     65  C   UNL A   1      45.988  26.944  36.935  1.00  0.00     0.060 A 
BRANCH  65  66
ATOM     66  S   UNL A   1      47.276  25.986  37.762  1.00  0.00     0.124 S 
ATOM     67  O   UNL A   1      46.531  25.392  38.868  1.00  0.00    -0.237 OA
ATOM     68  O   UNL A   1      47.698  25.061  36.715  1.00  0.00    -0.237 OA
ATOM     69  O   UNL A   1      48.261  26.994  38.138  1.00  0.00    -0.744 OA
ENDBRANCH  65  66
ENDBRANCH  44  58
BRANCH  45  70
ATOM     70  C   UNL A   1      36.599  33.240  30.907  1.00  0.00     0.058 A 
ATOM     71  C   UNL A   1      35.273  33.102  31.344  1.00  0.00     0.135 A 
ATOM     72  C   UNL A   1      36.842  34.075  29.806  1.00  0.00     0.135 A 
ATOM     73  F   UNL A   1      34.990  32.312  32.391  1.00  0.00    -0.206 F 
ATOM     74  C   UNL A   1      34.224  33.756  30.706  1.00  0.00     0.059 A 
ATOM     75  C   UNL A   1      35.812  34.759  29.166  1.00  0.00     0.059 A 
ATOM     76  F   UNL A   1      38.095  34.255  29.361  1.00  0.00    -0.206 F 
ATOM     77  C   UNL A   1      34.505  34.585  29.618  1.00  0.00     0.060 A 
BRANCH  77  78
ATOM     78  S   UNL A   1      33.142  35.471  28.829  1.00  0.00     0.124 S 
ATOM     79  O   UNL A   1      33.854  36.516  28.103  1.00  0.00    -0.237 OA
ATOM     80  O   UNL A   1      32.531  34.427  28.012  1.00  0.00    -0.237 OA
ATOM     81  O   UNL A   1      32.337  35.921  29.960  1.00  0.00    -0.744 OA
ENDBRANCH  77  78
ENDBRANCH  45  70
BRANCH  57  82
ATOM     82  C   UNL A   1      39.825  34.187  37.023  1.00  0.00     0.058 A 
ATOM     83  C   UNL A   1      40.361  35.477  36.891  1.00  0.00     0.135 A 
ATOM     84  C   UNL A   1      39.086  33.897  38.181  1.00  0.00     0.135 A 
ATOM     85  F   UNL A   1      41.081  35.804  35.805  1.00  0.00    -0.206 F 
ATOM     86  C   UNL A   1      40.189  36.438  37.882  1.00  0.00     0.059 A 
ATOM     87  C   UNL A   1      38.879  34.851  39.172  1.00  0.00     0.059 A 
ATOM     88  F   UNL A   1      38.543  32.680  38.350  1.00  0.00    -0.206 F 
ATOM     89  C   UNL A   1      39.444  36.115  39.018  1.00  0.00     0.060 A 
BRANCH  89  90
ATOM     90  S   UNL A   1      39.199  37.381  40.281  1.00  0.00     0.124 S 
ATOM     91  O   UNL A   1      38.592  36.608  41.360  1.00  0.00    -0.237 OA
ATOM     92  O   UNL A   1      40.560  37.848  40.524  1.00  0.00    -0.237 OA
ATOM     93  O   UNL A   1      38.319  38.347  39.628  1.00  0.00    -0.744 OA
ENDBRANCH  89  90
ENDBRANCH  57  82
ENDBRANCH  31  32
ENDBRANCH  23  26
ENDBRANCH  21  22
ENDBRANCH   1  21
TORSDOF 15
ENDMDL
