MODEL 1
REMARK VINA RESULT:     -13.2      0.000      0.000
REMARK SMILES Cc1nsc(NC(=O)[C@]2([NH3+])CCC[C@@H](C)C2)c1C(=O)NCCCNC(=O)c1ccc(-c2c3nc(c(-c4c(F)cc(S(=O)(=O)[O-])cc4F)c4ccc([nH]4)c(-c4c(F)cc(S(=O)(=O)[O-])cc4F)c4nc(c(-c5c(F)cc(S(=O)(=O)[O-])cc5F)c5ccc2[nH]5)C=C4)C=C3)cc1
REMARK SMILES IDX 22 1 21 2 20 3 18 4 19 5 17 7 1 8 2 9 3 10 4 11 5 12 6 13
REMARK SMILES IDX 7 14 8 16 9 17 11 18 16 19 12 20 14 21 13 22 15 23 10 24
REMARK SMILES IDX 23 28 24 29 25 30 26 32 27 33 28 34 92 35 29 36 91 37 30 38
REMARK SMILES IDX 31 39 32 40 85 41 33 42 90 43 84 44 86 45 34 46 89 47 83 48
REMARK SMILES IDX 82 49 35 51 69 52 48 53 68 54 49 55 52 56 67 57 87 58 50 59
REMARK SMILES IDX 51 60 66 62 88 63 53 64 36 65 37 66 46 67 38 68 39 69 45 70
REMARK SMILES IDX 47 71 40 72 41 73 42 74 43 75 44 76 70 77 71 78 80 79 72 80
REMARK SMILES IDX 73 81 79 82 81 83 74 84 75 85 76 86 77 87 78 88 54 89 55 90
REMARK SMILES IDX 64 91 56 92 57 93 63 94 65 95 58 96 59 97 60 98 61 99 62 100
REMARK H PARENT 20 6 6 15 10 25 10 26 10 27 24 31 86 50 52 61
REMARK Flexibility Score: inf
ROOT
ATOM      1  C   UNL A   1      36.845  22.130  24.430  1.00  0.00     0.042 C 
ENDROOT
BRANCH   1   2
ATOM      2  C   UNL A   1      35.504  21.899  25.119  1.00  0.00     0.118 C 
BRANCH   2   3
ATOM      3  N   UNL A   1      34.385  21.863  24.214  1.00  0.00    -0.352 N 
ATOM      4  C   UNL A   1      33.197  22.530  24.138  1.00  0.00     0.256 C 
ATOM      5  O   UNL A   1      32.661  22.441  23.026  1.00  0.00    -0.269 OA
ATOM      6  H   UNL A   1      34.504  21.210  23.485  1.00  0.00     0.163 HD
BRANCH   4   7
ATOM      7  C   UNL A   1      32.492  23.224  25.231  1.00  0.00     0.097 A 
ATOM      8  C   UNL A   1      33.198  22.359  27.686  1.00  0.00     0.069 C 
ATOM      9  C   UNL A   1      32.382  23.091  26.682  1.00  0.00     0.066 A 
ATOM     10  N   UNL A   1      31.357  23.745  27.244  1.00  0.00    -0.195 NA
ATOM     11  S   UNL A   1      30.559  24.589  26.089  1.00  0.00    -0.017 S 
ATOM     12  C   UNL A   1      31.742  24.368  24.901  1.00  0.00     0.129 A 
BRANCH  12  13
ATOM     13  N   UNL A   1      31.759  25.084  23.725  1.00  0.00    -0.310 N 
ATOM     14  C   UNL A   1      31.989  26.387  23.407  1.00  0.00     0.286 C 
ATOM     15  H   UNL A   1      31.560  24.528  22.937  1.00  0.00     0.171 HD
ATOM     16  O   UNL A   1      31.844  26.658  22.204  1.00  0.00    -0.267 OA
BRANCH  14  17
ATOM     17  C   UNL A   1      32.381  27.540  24.407  1.00  0.00     0.174 C 
ATOM     18  C   UNL A   1      33.613  27.034  25.224  1.00  0.00     0.079 C 
ATOM     19  C   UNL A   1      31.299  27.909  25.450  1.00  0.00     0.082 C 
ATOM     20  C   UNL A   1      34.085  27.973  26.337  1.00  0.00     0.007 C 
ATOM     21  C   UNL A   1      31.736  28.907  26.542  1.00  0.00    -0.008 C 
ATOM     22  C   UNL A   1      32.956  28.366  27.284  1.00  0.00     0.004 C 
ATOM     23  C   UNL A   1      31.969  30.332  26.024  1.00  0.00     0.008 C 
BRANCH  17  24
ATOM     24  N   UNL A   1      32.829  28.692  23.593  1.00  0.00    -0.345 N 
ATOM     25  H   UNL A   1      33.822  28.594  23.383  1.00  0.00     0.345 HD
ATOM     26  H   UNL A   1      32.675  29.556  24.114  1.00  0.00     0.345 HD
ATOM     27  H   UNL A   1      32.298  28.721  22.723  1.00  0.00     0.345 HD
ENDBRANCH  17  24
ENDBRANCH  14  17
ENDBRANCH  12  13
ENDBRANCH   4   7
ENDBRANCH   2   3
ENDBRANCH   1   2
BRANCH   1  28
ATOM     28  C   UNL A   1      37.833  22.874  25.300  1.00  0.00     0.118 C 
BRANCH  28  29
ATOM     29  N   UNL A   1      38.547  21.968  26.207  1.00  0.00    -0.352 N 
ATOM     30  C   UNL A   1      39.685  22.225  26.955  1.00  0.00     0.251 C 
ATOM     31  H   UNL A   1      38.169  21.063  26.295  1.00  0.00     0.163 HD
ATOM     32  O   UNL A   1      40.372  21.318  27.383  1.00  0.00    -0.269 OA
BRANCH  30  33
ATOM     33  C   UNL A   1      40.028  23.634  27.204  1.00  0.00     0.039 A 
ATOM     34  C   UNL A   1      39.185  24.679  26.821  1.00  0.00     0.014 A 
ATOM     35  C   UNL A   1      41.182  23.873  27.939  1.00  0.00     0.014 A 
ATOM     36  C   UNL A   1      39.476  25.962  27.277  1.00  0.00     0.010 A 
ATOM     37  C   UNL A   1      41.327  25.074  28.572  1.00  0.00     0.010 A 
ATOM     38  C   UNL A   1      40.536  26.143  28.181  1.00  0.00    -0.014 A 
BRANCH  38  39
ATOM     39  C   UNL A   1      40.797  27.428  28.813  1.00  0.00     0.031 A 
ATOM     40  C   UNL A   1      41.908  28.203  28.204  1.00  0.00     0.074 A 
ATOM     41  C   UNL A   1      39.967  27.961  29.737  1.00  0.00     0.049 A 
ATOM     42  N   UNL A   1      43.083  28.397  28.703  1.00  0.00    -0.248 NA
ATOM     43  C   UNL A   1      41.772  28.670  26.814  1.00  0.00     0.031 C 
ATOM     44  C   UNL A   1      38.680  27.450  30.232  1.00  0.00     0.029 A 
ATOM     45  N   UNL A   1      40.066  29.156  30.375  1.00  0.00    -0.354 N 
ATOM     46  C   UNL A   1      43.753  29.217  27.802  1.00  0.00     0.074 A 
ATOM     47  C   UNL A   1      42.986  29.176  26.584  1.00  0.00     0.031 C 
ATOM     48  C   UNL A   1      38.023  28.427  30.893  1.00  0.00     0.029 A 
ATOM     49  C   UNL A   1      38.910  29.565  31.033  1.00  0.00     0.049 A 
ATOM     50  H   UNL A   1      40.893  29.691  30.371  1.00  0.00     0.167 HD
ATOM     51  C   UNL A   1      44.752  30.046  28.217  1.00  0.00     0.037 A 
ATOM     52  C   UNL A   1      38.705  30.758  31.645  1.00  0.00     0.037 A 
ATOM     53  C   UNL A   1      45.162  29.722  29.563  1.00  0.00     0.049 A 
ATOM     54  C   UNL A   1      40.052  31.320  31.937  1.00  0.00     0.074 A 
ATOM     55  C   UNL A   1      45.685  28.594  30.166  1.00  0.00     0.029 A 
ATOM     56  N   UNL A   1      44.658  30.495  30.583  1.00  0.00    -0.354 N 
ATOM     57  N   UNL A   1      40.881  30.780  32.792  1.00  0.00    -0.248 NA
ATOM     58  C   UNL A   1      40.671  32.162  30.923  1.00  0.00     0.031 C 
ATOM     59  C   UNL A   1      45.032  28.519  31.431  1.00  0.00     0.029 A 
ATOM     60  C   UNL A   1      44.218  29.646  31.568  1.00  0.00     0.049 A 
ATOM     61  H   UNL A   1      44.619  31.479  30.603  1.00  0.00     0.167 HD
ATOM     62  C   UNL A   1      42.125  30.851  32.180  1.00  0.00     0.074 A 
ATOM     63  C   UNL A   1      41.946  31.787  31.069  1.00  0.00     0.031 C 
ATOM     64  C   UNL A   1      43.098  29.927  32.442  1.00  0.00     0.037 A 
BRANCH  51  65
ATOM     65  C   UNL A   1      45.115  31.360  27.572  1.00  0.00     0.058 A 
ATOM     66  C   UNL A   1      46.361  31.489  26.926  1.00  0.00     0.135 A 
ATOM     67  C   UNL A   1      44.417  32.567  27.796  1.00  0.00     0.135 A 
ATOM     68  F   UNL A   1      47.112  30.406  26.666  1.00  0.00    -0.206 F 
ATOM     69  C   UNL A   1      46.906  32.729  26.592  1.00  0.00     0.059 A 
ATOM     70  C   UNL A   1      44.917  33.809  27.423  1.00  0.00     0.059 A 
ATOM     71  F   UNL A   1      43.264  32.611  28.475  1.00  0.00    -0.206 F 
ATOM     72  C   UNL A   1      46.180  33.885  26.860  1.00  0.00     0.060 A 
BRANCH  72  73
ATOM     73  S   UNL A   1      46.922  35.490  26.522  1.00  0.00     0.124 S 
ATOM     74  O   UNL A   1      47.780  35.180  25.385  1.00  0.00    -0.237 OA
ATOM     75  O   UNL A   1      45.750  36.309  26.234  1.00  0.00    -0.237 OA
ATOM     76  O   UNL A   1      47.614  35.809  27.767  1.00  0.00    -0.744 OA
ENDBRANCH  72  73
ENDBRANCH  51  65
BRANCH  52  77
ATOM     77  C   UNL A   1      37.451  31.556  31.716  1.00  0.00     0.058 A 
ATOM     78  C   UNL A   1      36.817  31.814  32.945  1.00  0.00     0.135 A 
ATOM     79  C   UNL A   1      37.005  32.319  30.617  1.00  0.00     0.135 A 
ATOM     80  F   UNL A   1      37.187  31.147  34.048  1.00  0.00    -0.206 F 
ATOM     81  C   UNL A   1      35.841  32.809  33.088  1.00  0.00     0.059 A 
ATOM     82  C   UNL A   1      36.029  33.308  30.733  1.00  0.00     0.059 A 
ATOM     83  F   UNL A   1      37.573  32.190  29.409  1.00  0.00    -0.206 F 
ATOM     84  C   UNL A   1      35.472  33.569  31.978  1.00  0.00     0.060 A 
BRANCH  84  85
ATOM     85  S   UNL A   1      34.363  34.985  32.196  1.00  0.00     0.124 S 
ATOM     86  O   UNL A   1      34.074  35.359  30.816  1.00  0.00    -0.237 OA
ATOM     87  O   UNL A   1      33.257  34.397  32.943  1.00  0.00    -0.237 OA
ATOM     88  O   UNL A   1      35.178  35.938  32.944  1.00  0.00    -0.744 OA
ENDBRANCH  84  85
ENDBRANCH  52  77
BRANCH  64  89
ATOM     89  C   UNL A   1      42.891  28.981  33.602  1.00  0.00     0.058 A 
ATOM     90  C   UNL A   1      43.202  29.281  34.941  1.00  0.00     0.135 A 
ATOM     91  C   UNL A   1      42.206  27.781  33.364  1.00  0.00     0.135 A 
ATOM     92  F   UNL A   1      43.755  30.454  35.276  1.00  0.00    -0.206 F 
ATOM     93  C   UNL A   1      42.891  28.409  35.987  1.00  0.00     0.059 A 
ATOM     94  C   UNL A   1      41.855  26.911  34.395  1.00  0.00     0.059 A 
ATOM     95  F   UNL A   1      41.818  27.465  32.119  1.00  0.00    -0.206 F 
ATOM     96  C   UNL A   1      42.217  27.223  35.702  1.00  0.00     0.060 A 
BRANCH  96  97
ATOM     97  S   UNL A   1      41.763  26.122  37.060  1.00  0.00     0.124 S 
ATOM     98  O   UNL A   1      41.790  24.814  36.415  1.00  0.00    -0.237 OA
ATOM     99  O   UNL A   1      42.818  26.368  38.038  1.00  0.00    -0.237 OA
ATOM    100  O   UNL A   1      40.438  26.597  37.455  1.00  0.00    -0.744 OA
ENDBRANCH  96  97
ENDBRANCH  64  89
ENDBRANCH  38  39
ENDBRANCH  30  33
ENDBRANCH  28  29
ENDBRANCH   1  28
TORSDOF 16
ENDMDL
MODEL 2
REMARK VINA RESULT:     -13.1      1.736      2.387
REMARK SMILES Cc1nsc(NC(=O)[C@]2([NH3+])CCC[C@@H](C)C2)c1C(=O)NCCCNC(=O)c1ccc(-c2c3nc(c(-c4c(F)cc(S(=O)(=O)[O-])cc4F)c4ccc([nH]4)c(-c4c(F)cc(S(=O)(=O)[O-])cc4F)c4nc(c(-c5c(F)cc(S(=O)(=O)[O-])cc5F)c5ccc2[nH]5)C=C4)C=C3)cc1
REMARK SMILES IDX 22 1 21 2 20 3 18 4 19 5 17 7 1 8 2 9 3 10 4 11 5 12 6 13
REMARK SMILES IDX 7 14 8 16 9 17 11 18 16 19 12 20 14 21 13 22 15 23 10 24
REMARK SMILES IDX 23 28 24 29 25 30 26 32 27 33 28 34 92 35 29 36 91 37 30 38
REMARK SMILES IDX 31 39 32 40 85 41 33 42 90 43 84 44 86 45 34 46 89 47 83 48
REMARK SMILES IDX 82 49 35 51 69 52 48 53 68 54 49 55 52 56 67 57 87 58 50 59
REMARK SMILES IDX 51 60 66 62 88 63 53 64 36 65 37 66 46 67 38 68 39 69 45 70
REMARK SMILES IDX 47 71 40 72 41 73 42 74 43 75 44 76 70 77 71 78 80 79 72 80
REMARK SMILES IDX 73 81 79 82 81 83 74 84 75 85 76 86 77 87 78 88 54 89 55 90
REMARK SMILES IDX 64 91 56 92 57 93 63 94 65 95 58 96 59 97 60 98 61 99 62 100
REMARK H PARENT 20 6 6 15 10 25 10 26 10 27 24 31 86 50 52 61
REMARK Flexibility Score: inf
ROOT
ATOM      1  C   UNL A   1      38.646  22.190  26.223  1.00  0.00     0.042 C 
ENDROOT
BRANCH   1   2
ATOM      2  C   UNL A   1      37.603  23.165  25.686  1.00  0.00     0.118 C 
BRANCH   2   3
ATOM      3  N   UNL A   1      37.238  22.926  24.314  1.00  0.00    -0.352 N 
ATOM      4  C   UNL A   1      36.058  22.926  23.626  1.00  0.00     0.256 C 
ATOM      5  O   UNL A   1      36.213  22.993  22.400  1.00  0.00    -0.269 OA
ATOM      6  H   UNL A   1      38.013  22.714  23.743  1.00  0.00     0.163 HD
BRANCH   4   7
ATOM      7  C   UNL A   1      34.703  22.763  24.181  1.00  0.00     0.097 A 
ATOM      8  C   UNL A   1      34.669  21.618  26.623  1.00  0.00     0.069 C 
ATOM      9  C   UNL A   1      34.098  22.122  25.347  1.00  0.00     0.066 A 
ATOM     10  N   UNL A   1      32.772  21.941  25.281  1.00  0.00    -0.195 NA
ATOM     11  S   UNL A   1      32.208  22.593  23.888  1.00  0.00    -0.017 S 
ATOM     12  C   UNL A   1      33.644  23.406  23.515  1.00  0.00     0.129 A 
BRANCH  12  13
ATOM     13  N   UNL A   1      33.718  24.374  22.538  1.00  0.00    -0.310 N 
ATOM     14  C   UNL A   1      33.487  25.715  22.508  1.00  0.00     0.286 C 
ATOM     15  H   UNL A   1      34.004  24.016  21.666  1.00  0.00     0.171 HD
ATOM     16  O   UNL A   1      33.609  26.234  21.386  1.00  0.00    -0.267 OA
BRANCH  14  17
ATOM     17  C   UNL A   1      33.065  26.621  23.725  1.00  0.00     0.174 C 
ATOM     18  C   UNL A   1      33.448  28.090  23.354  1.00  0.00     0.079 C 
ATOM     19  C   UNL A   1      33.787  26.317  25.060  1.00  0.00     0.082 C 
ATOM     20  C   UNL A   1      33.218  29.122  24.460  1.00  0.00     0.007 C 
ATOM     21  C   UNL A   1      33.515  27.309  26.209  1.00  0.00    -0.008 C 
ATOM     22  C   UNL A   1      33.885  28.725  25.773  1.00  0.00     0.004 C 
ATOM     23  C   UNL A   1      32.088  27.239  26.766  1.00  0.00     0.008 C 
BRANCH  17  24
ATOM     24  N   UNL A   1      31.590  26.558  23.828  1.00  0.00    -0.345 N 
ATOM     25  H   UNL A   1      31.259  27.310  24.432  1.00  0.00     0.345 HD
ATOM     26  H   UNL A   1      31.315  25.658  24.224  1.00  0.00     0.345 HD
ATOM     27  H   UNL A   1      31.180  26.660  22.901  1.00  0.00     0.345 HD
ENDBRANCH  17  24
ENDBRANCH  14  17
ENDBRANCH  12  13
ENDBRANCH   4   7
ENDBRANCH   2   3
ENDBRANCH   1   2
BRANCH   1  28
ATOM     28  C   UNL A   1      39.823  22.886  26.870  1.00  0.00     0.118 C 
BRANCH  28  29
ATOM     29  N   UNL A   1      41.100  22.405  26.331  1.00  0.00    -0.352 N 
ATOM     30  C   UNL A   1      42.172  23.153  25.870  1.00  0.00     0.251 C 
ATOM     31  H   UNL A   1      41.208  21.427  26.290  1.00  0.00     0.163 HD
ATOM     32  O   UNL A   1      43.010  22.663  25.138  1.00  0.00    -0.269 OA
BRANCH  30  33
ATOM     33  C   UNL A   1      42.252  24.558  26.300  1.00  0.00     0.039 A 
ATOM     34  C   UNL A   1      41.596  25.581  25.611  1.00  0.00     0.014 A 
ATOM     35  C   UNL A   1      42.923  24.808  27.490  1.00  0.00     0.014 A 
ATOM     36  C   UNL A   1      41.546  26.843  26.196  1.00  0.00     0.010 A 
ATOM     37  C   UNL A   1      42.669  25.968  28.162  1.00  0.00     0.010 A 
ATOM     38  C   UNL A   1      42.061  27.018  27.491  1.00  0.00    -0.014 A 
BRANCH  38  39
ATOM     39  C   UNL A   1      41.904  28.269  28.218  1.00  0.00     0.031 A 
ATOM     40  C   UNL A   1      42.991  29.257  27.992  1.00  0.00     0.074 A 
ATOM     41  C   UNL A   1      40.766  28.586  28.875  1.00  0.00     0.049 A 
ATOM     42  N   UNL A   1      43.922  29.587  28.822  1.00  0.00    -0.248 NA
ATOM     43  C   UNL A   1      43.177  29.814  26.643  1.00  0.00     0.031 C 
ATOM     44  C   UNL A   1      39.501  27.841  28.949  1.00  0.00     0.029 A 
ATOM     45  N   UNL A   1      40.471  29.722  29.557  1.00  0.00    -0.354 N 
ATOM     46  C   UNL A   1      44.669  30.575  28.191  1.00  0.00     0.074 A 
ATOM     47  C   UNL A   1      44.300  30.520  26.799  1.00  0.00     0.031 C 
ATOM     48  C   UNL A   1      38.524  28.644  29.423  1.00  0.00     0.029 A 
ATOM     49  C   UNL A   1      39.123  29.889  29.859  1.00  0.00     0.049 A 
ATOM     50  H   UNL A   1      41.158  30.378  29.816  1.00  0.00     0.167 HD
ATOM     51  C   UNL A   1      45.349  31.511  28.911  1.00  0.00     0.037 A 
ATOM     52  C   UNL A   1      38.548  30.979  30.426  1.00  0.00     0.037 A 
ATOM     53  C   UNL A   1      45.409  31.140  30.306  1.00  0.00     0.049 A 
ATOM     54  C   UNL A   1      39.638  31.716  31.123  1.00  0.00     0.074 A 
ATOM     55  C   UNL A   1      45.925  30.059  30.995  1.00  0.00     0.029 A 
ATOM     56  N   UNL A   1      44.508  31.735  31.159  1.00  0.00    -0.354 N 
ATOM     57  N   UNL A   1      40.269  31.241  32.164  1.00  0.00    -0.248 NA
ATOM     58  C   UNL A   1      40.363  32.727  30.369  1.00  0.00     0.031 C 
ATOM     59  C   UNL A   1      44.962  29.776  32.007  1.00  0.00     0.029 A 
ATOM     60  C   UNL A   1      43.960  30.747  31.938  1.00  0.00     0.049 A 
ATOM     61  H   UNL A   1      44.295  32.696  31.203  1.00  0.00     0.167 HD
ATOM     62  C   UNL A   1      41.604  31.556  31.950  1.00  0.00     0.074 A 
ATOM     63  C   UNL A   1      41.590  32.544  30.870  1.00  0.00     0.031 C 
ATOM     64  C   UNL A   1      42.607  30.775  32.453  1.00  0.00     0.037 A 
BRANCH  51  65
ATOM     65  C   UNL A   1      45.646  32.916  28.451  1.00  0.00     0.058 A 
ATOM     66  C   UNL A   1      46.977  33.381  28.475  1.00  0.00     0.135 A 
ATOM     67  C   UNL A   1      44.659  33.904  28.249  1.00  0.00     0.135 A 
ATOM     68  F   UNL A   1      47.997  32.527  28.664  1.00  0.00    -0.206 F 
ATOM     69  C   UNL A   1      47.299  34.734  28.378  1.00  0.00     0.059 A 
ATOM     70  C   UNL A   1      44.960  35.253  28.095  1.00  0.00     0.059 A 
ATOM     71  F   UNL A   1      43.350  33.627  28.289  1.00  0.00    -0.206 F 
ATOM     72  C   UNL A   1      46.278  35.665  28.204  1.00  0.00     0.060 A 
BRANCH  72  73
ATOM     73  S   UNL A   1      46.680  37.419  28.177  1.00  0.00     0.124 S 
ATOM     74  O   UNL A   1      46.301  37.783  26.817  1.00  0.00    -0.237 OA
ATOM     75  O   UNL A   1      45.828  37.940  29.241  1.00  0.00    -0.237 OA
ATOM     76  O   UNL A   1      48.111  37.440  28.461  1.00  0.00    -0.744 OA
ENDBRANCH  72  73
ENDBRANCH  51  65
BRANCH  52  77
ATOM     77  C   UNL A   1      37.208  31.563  30.153  1.00  0.00     0.058 A 
ATOM     78  C   UNL A   1      36.527  32.320  31.125  1.00  0.00     0.135 A 
ATOM     79  C   UNL A   1      36.691  31.633  28.843  1.00  0.00     0.135 A 
ATOM     80  F   UNL A   1      36.957  32.327  32.396  1.00  0.00    -0.206 F 
ATOM     81  C   UNL A   1      35.438  33.141  30.807  1.00  0.00     0.059 A 
ATOM     82  C   UNL A   1      35.603  32.436  28.504  1.00  0.00     0.059 A 
ATOM     83  F   UNL A   1      37.290  30.991  27.829  1.00  0.00    -0.206 F 
ATOM     84  C   UNL A   1      34.999  33.211  29.484  1.00  0.00     0.060 A 
BRANCH  84  85
ATOM     85  S   UNL A   1      33.727  34.418  29.031  1.00  0.00     0.124 S 
ATOM     86  O   UNL A   1      33.078  34.671  30.312  1.00  0.00    -0.237 OA
ATOM     87  O   UNL A   1      34.522  35.515  28.491  1.00  0.00    -0.237 OA
ATOM     88  O   UNL A   1      32.916  33.701  28.050  1.00  0.00    -0.744 OA
ENDBRANCH  84  85
ENDBRANCH  52  77
BRANCH  64  89
ATOM     89  C   UNL A   1      42.246  29.713  33.465  1.00  0.00     0.058 A 
ATOM     90  C   UNL A   1      41.909  28.385  33.142  1.00  0.00     0.135 A 
ATOM     91  C   UNL A   1      42.400  30.014  34.825  1.00  0.00     0.135 A 
ATOM     92  F   UNL A   1      41.849  27.977  31.868  1.00  0.00    -0.206 F 
ATOM     93  C   UNL A   1      41.687  27.417  34.125  1.00  0.00     0.059 A 
ATOM     94  C   UNL A   1      42.217  29.058  35.822  1.00  0.00     0.059 A 
ATOM     95  F   UNL A   1      42.787  31.244  35.201  1.00  0.00    -0.206 F 
ATOM     96  C   UNL A   1      41.843  27.765  35.465  1.00  0.00     0.060 A 
BRANCH  96  97
ATOM     97  S   UNL A   1      41.614  26.501  36.735  1.00  0.00     0.124 S 
ATOM     98  O   UNL A   1      42.865  26.585  37.479  1.00  0.00    -0.237 OA
ATOM     99  O   UNL A   1      40.425  26.969  37.440  1.00  0.00    -0.237 OA
ATOM    100  O   UNL A   1      41.426  25.274  35.964  1.00  0.00    -0.744 OA
ENDBRANCH  96  97
ENDBRANCH  64  89
ENDBRANCH  38  39
ENDBRANCH  30  33
ENDBRANCH  28  29
ENDBRANCH   1  28
TORSDOF 16
ENDMDL
MODEL 3
REMARK VINA RESULT:     -12.9      2.809      9.370
REMARK SMILES Cc1nsc(NC(=O)[C@]2([NH3+])CCC[C@@H](C)C2)c1C(=O)NCCCNC(=O)c1ccc(-c2c3nc(c(-c4c(F)cc(S(=O)(=O)[O-])cc4F)c4ccc([nH]4)c(-c4c(F)cc(S(=O)(=O)[O-])cc4F)c4nc(c(-c5c(F)cc(S(=O)(=O)[O-])cc5F)c5ccc2[nH]5)C=C4)C=C3)cc1
REMARK SMILES IDX 22 1 21 2 20 3 18 4 19 5 17 7 1 8 2 9 3 10 4 11 5 12 6 13
REMARK SMILES IDX 7 14 8 16 9 17 11 18 16 19 12 20 14 21 13 22 15 23 10 24
REMARK SMILES IDX 23 28 24 29 25 30 26 32 27 33 28 34 92 35 29 36 91 37 30 38
REMARK SMILES IDX 31 39 32 40 85 41 33 42 90 43 84 44 86 45 34 46 89 47 83 48
REMARK SMILES IDX 82 49 35 51 69 52 48 53 68 54 49 55 52 56 67 57 87 58 50 59
REMARK SMILES IDX 51 60 66 62 88 63 53 64 36 65 37 66 46 67 38 68 39 69 45 70
REMARK SMILES IDX 47 71 40 72 41 73 42 74 43 75 44 76 70 77 71 78 80 79 72 80
REMARK SMILES IDX 73 81 79 82 81 83 74 84 75 85 76 86 77 87 78 88 54 89 55 90
REMARK SMILES IDX 64 91 56 92 57 93 63 94 65 95 58 96 59 97 60 98 61 99 62 100
REMARK H PARENT 20 6 6 15 10 25 10 26 10 27 24 31 86 50 52 61
REMARK Flexibility Score: inf
ROOT
ATOM      1  C   UNL A   1      33.061  28.979  27.020  1.00  0.00     0.042 C 
ENDROOT
BRANCH   1   2
ATOM      2  C   UNL A   1      33.056  27.533  26.533  1.00  0.00     0.118 C 
BRANCH   2   3
ATOM      3  N   UNL A   1      31.816  27.132  25.921  1.00  0.00    -0.352 N 
ATOM      4  C   UNL A   1      31.489  26.354  24.847  1.00  0.00     0.256 C 
ATOM      5  O   UNL A   1      30.306  25.994  24.852  1.00  0.00    -0.269 OA
ATOM      6  H   UNL A   1      31.026  27.501  26.379  1.00  0.00     0.163 HD
BRANCH   4   7
ATOM      7  C   UNL A   1      32.350  26.008  23.702  1.00  0.00     0.097 A 
ATOM      8  C   UNL A   1      33.919  28.042  22.880  1.00  0.00     0.069 C 
ATOM      9  C   UNL A   1      33.261  26.711  22.802  1.00  0.00     0.066 A 
ATOM     10  N   UNL A   1      33.583  26.054  21.680  1.00  0.00    -0.195 NA
ATOM     11  S   UNL A   1      32.889  24.571  21.706  1.00  0.00    -0.017 S 
ATOM     12  C   UNL A   1      32.430  24.653  23.332  1.00  0.00     0.129 A 
BRANCH  12  13
ATOM     13  N   UNL A   1      31.998  23.553  24.039  1.00  0.00    -0.310 N 
ATOM     14  C   UNL A   1      32.622  22.574  24.749  1.00  0.00     0.286 C 
ATOM     15  H   UNL A   1      31.018  23.452  24.030  1.00  0.00     0.171 HD
ATOM     16  O   UNL A   1      31.863  21.698  25.198  1.00  0.00    -0.267 OA
BRANCH  14  17
ATOM     17  C   UNL A   1      34.170  22.448  25.013  1.00  0.00     0.174 C 
ATOM     18  C   UNL A   1      34.617  23.762  25.731  1.00  0.00     0.079 C 
ATOM     19  C   UNL A   1      35.051  22.334  23.746  1.00  0.00     0.082 C 
ATOM     20  C   UNL A   1      36.121  23.889  25.981  1.00  0.00     0.007 C 
ATOM     21  C   UNL A   1      36.574  22.392  23.983  1.00  0.00    -0.008 C 
ATOM     22  C   UNL A   1      36.940  23.685  24.710  1.00  0.00     0.004 C 
ATOM     23  C   UNL A   1      37.139  21.158  24.697  1.00  0.00     0.008 C 
BRANCH  17  24
ATOM     24  N   UNL A   1      34.364  21.333  25.965  1.00  0.00    -0.345 N 
ATOM     25  H   UNL A   1      34.304  21.686  26.920  1.00  0.00     0.345 HD
ATOM     26  H   UNL A   1      35.281  20.913  25.814  1.00  0.00     0.345 HD
ATOM     27  H   UNL A   1      33.641  20.629  25.816  1.00  0.00     0.345 HD
ENDBRANCH  17  24
ENDBRANCH  14  17
ENDBRANCH  12  13
ENDBRANCH   4   7
ENDBRANCH   2   3
ENDBRANCH   1   2
BRANCH   1  28
ATOM     28  C   UNL A   1      34.387  29.671  26.794  1.00  0.00     0.118 C 
BRANCH  28  29
ATOM     29  N   UNL A   1      34.336  31.082  27.190  1.00  0.00    -0.352 N 
ATOM     30  C   UNL A   1      35.002  31.705  28.234  1.00  0.00     0.251 C 
ATOM     31  H   UNL A   1      33.754  31.660  26.645  1.00  0.00     0.163 HD
ATOM     32  O   UNL A   1      34.620  32.772  28.673  1.00  0.00    -0.269 OA
BRANCH  30  33
ATOM     33  C   UNL A   1      36.183  31.022  28.787  1.00  0.00     0.039 A 
ATOM     34  C   UNL A   1      36.209  29.642  28.995  1.00  0.00     0.014 A 
ATOM     35  C   UNL A   1      37.314  31.802  28.990  1.00  0.00     0.014 A 
ATOM     36  C   UNL A   1      37.424  29.047  29.320  1.00  0.00     0.010 A 
ATOM     37  C   UNL A   1      38.532  31.192  29.071  1.00  0.00     0.010 A 
ATOM     38  C   UNL A   1      38.591  29.830  29.324  1.00  0.00    -0.014 A 
BRANCH  38  39
ATOM     39  C   UNL A   1      39.911  29.244  29.503  1.00  0.00     0.031 A 
ATOM     40  C   UNL A   1      40.318  29.059  30.920  1.00  0.00     0.074 A 
ATOM     41  C   UNL A   1      40.616  28.721  28.475  1.00  0.00     0.049 A 
ATOM     42  N   UNL A   1      41.196  29.747  31.570  1.00  0.00    -0.248 NA
ATOM     43  C   UNL A   1      39.553  28.128  31.765  1.00  0.00     0.031 C 
ATOM     44  C   UNL A   1      40.224  28.570  27.066  1.00  0.00     0.029 A 
ATOM     45  N   UNL A   1      41.830  28.115  28.503  1.00  0.00    -0.354 N 
ATOM     46  C   UNL A   1      41.271  29.178  32.836  1.00  0.00     0.074 A 
ATOM     47  C   UNL A   1      40.106  28.340  32.962  1.00  0.00     0.031 C 
ATOM     48  C   UNL A   1      41.067  27.715  26.446  1.00  0.00     0.029 A 
ATOM     49  C   UNL A   1      42.157  27.408  27.351  1.00  0.00     0.049 A 
ATOM     50  H   UNL A   1      42.432  28.172  29.280  1.00  0.00     0.167 HD
ATOM     51  C   UNL A   1      42.411  29.263  33.578  1.00  0.00     0.037 A 
ATOM     52  C   UNL A   1      43.248  26.624  27.162  1.00  0.00     0.037 A 
ATOM     53  C   UNL A   1      43.325  30.224  33.006  1.00  0.00     0.049 A 
ATOM     54  C   UNL A   1      44.257  27.058  28.167  1.00  0.00     0.074 A 
ATOM     55  C   UNL A   1      43.256  31.577  32.735  1.00  0.00     0.029 A 
ATOM     56  N   UNL A   1      44.355  29.737  32.234  1.00  0.00    -0.354 N 
ATOM     57  N   UNL A   1      44.830  28.232  28.143  1.00  0.00    -0.248 NA
ATOM     58  C   UNL A   1      44.246  26.402  29.467  1.00  0.00     0.031 C 
ATOM     59  C   UNL A   1      43.900  31.731  31.473  1.00  0.00     0.029 A 
ATOM     60  C   UNL A   1      44.401  30.486  31.085  1.00  0.00     0.049 A 
ATOM     61  H   UNL A   1      44.950  28.987  32.464  1.00  0.00     0.167 HD
ATOM     62  C   UNL A   1      44.856  28.647  29.468  1.00  0.00     0.074 A 
ATOM     63  C   UNL A   1      44.560  27.443  30.246  1.00  0.00     0.031 C 
ATOM     64  C   UNL A   1      44.818  29.973  29.797  1.00  0.00     0.037 A 
BRANCH  51  65
ATOM     65  C   UNL A   1      42.863  28.247  34.596  1.00  0.00     0.058 A 
ATOM     66  C   UNL A   1      43.067  28.653  35.931  1.00  0.00     0.135 A 
ATOM     67  C   UNL A   1      43.363  26.969  34.264  1.00  0.00     0.135 A 
ATOM     68  F   UNL A   1      42.636  29.853  36.354  1.00  0.00    -0.206 F 
ATOM     69  C   UNL A   1      43.778  27.879  36.848  1.00  0.00     0.059 A 
ATOM     70  C   UNL A   1      44.026  26.157  35.177  1.00  0.00     0.059 A 
ATOM     71  F   UNL A   1      43.320  26.485  33.017  1.00  0.00    -0.206 F 
ATOM     72  C   UNL A   1      44.267  26.637  36.454  1.00  0.00     0.060 A 
BRANCH  72  73
ATOM     73  S   UNL A   1      45.269  25.679  37.604  1.00  0.00     0.124 S 
ATOM     74  O   UNL A   1      46.603  26.199  37.329  1.00  0.00    -0.237 OA
ATOM     75  O   UNL A   1      44.689  26.049  38.890  1.00  0.00    -0.237 OA
ATOM     76  O   UNL A   1      45.030  24.300  37.187  1.00  0.00    -0.744 OA
ENDBRANCH  72  73
ENDBRANCH  51  65
BRANCH  52  77
ATOM     77  C   UNL A   1      43.353  25.357  26.389  1.00  0.00     0.058 A 
ATOM     78  C   UNL A   1      44.297  25.206  25.356  1.00  0.00     0.135 A 
ATOM     79  C   UNL A   1      42.727  24.174  26.832  1.00  0.00     0.135 A 
ATOM     80  F   UNL A   1      44.953  26.276  24.882  1.00  0.00    -0.206 F 
ATOM     81  C   UNL A   1      44.641  23.953  24.835  1.00  0.00     0.059 A 
ATOM     82  C   UNL A   1      43.048  22.916  26.323  1.00  0.00     0.059 A 
ATOM     83  F   UNL A   1      41.848  24.194  27.845  1.00  0.00    -0.206 F 
ATOM     84  C   UNL A   1      44.027  22.808  25.345  1.00  0.00     0.060 A 
BRANCH  84  85
ATOM     85  S   UNL A   1      44.610  21.176  24.821  1.00  0.00     0.124 S 
ATOM     86  O   UNL A   1      43.593  20.295  25.384  1.00  0.00    -0.237 OA
ATOM     87  O   UNL A   1      44.612  21.301  23.368  1.00  0.00    -0.237 OA
ATOM     88  O   UNL A   1      45.932  21.077  25.435  1.00  0.00    -0.744 OA
ENDBRANCH  84  85
ENDBRANCH  52  77
BRANCH  64  89
ATOM     89  C   UNL A   1      45.013  30.988  28.695  1.00  0.00     0.058 A 
ATOM     90  C   UNL A   1      43.985  31.468  27.862  1.00  0.00     0.135 A 
ATOM     91  C   UNL A   1      46.263  31.613  28.583  1.00  0.00     0.135 A 
ATOM     92  F   UNL A   1      42.732  31.009  27.975  1.00  0.00    -0.206 F 
ATOM     93  C   UNL A   1      44.202  32.486  26.929  1.00  0.00     0.059 A 
ATOM     94  C   UNL A   1      46.494  32.652  27.684  1.00  0.00     0.059 A 
ATOM     95  F   UNL A   1      47.269  31.252  29.394  1.00  0.00    -0.206 F 
ATOM     96  C   UNL A   1      45.463  33.071  26.847  1.00  0.00     0.060 A 
BRANCH  96  97
ATOM     97  S   UNL A   1      45.730  34.426  25.683  1.00  0.00     0.124 S 
ATOM     98  O   UNL A   1      47.166  34.343  25.440  1.00  0.00    -0.237 OA
ATOM     99  O   UNL A   1      44.875  34.055  24.559  1.00  0.00    -0.237 OA
ATOM    100  O   UNL A   1      45.289  35.605  26.425  1.00  0.00    -0.744 OA
ENDBRANCH  96  97
ENDBRANCH  64  89
ENDBRANCH  38  39
ENDBRANCH  30  33
ENDBRANCH  28  29
ENDBRANCH   1  28
TORSDOF 16
ENDMDL
