MODEL 1
REMARK VINA RESULT:     -11.3      0.000      0.000
REMARK SMILES CC(C)n1cncc1[C@@H](O)[C@H](C)C(=O)NCCCNC(=O)c1ccc(-c2c3nc(c(-c4c(F)cc(S(=O)(=O)[O-])cc4F)c4ccc([nH]4)c(-c4c(F)cc(S(=O)(=O)[O-])cc4F)c4nc(c(-c5c(F)cc(S(=O)(=O)[O-])cc5F)c5ccc2[nH]5)C=C4)C=C3)cc1
REMARK SMILES IDX 17 1 16 2 15 3 13 4 14 5 11 7 12 8 9 9 8 10 4 11 5 12 6 13
REMARK SMILES IDX 7 14 2 15 1 16 3 17 10 18 18 20 19 21 20 22 21 24 22 25
REMARK SMILES IDX 23 26 87 27 24 28 86 29 25 30 26 31 27 32 80 33 28 34 85 35
REMARK SMILES IDX 79 36 81 37 29 38 84 39 78 40 77 41 30 43 64 44 43 45 63 46
REMARK SMILES IDX 44 47 47 48 62 49 82 50 45 51 46 52 61 54 83 55 48 56 31 57
REMARK SMILES IDX 32 58 41 59 33 60 34 61 40 62 42 63 35 64 36 65 37 66 38 67
REMARK SMILES IDX 39 68 65 69 66 70 75 71 67 72 68 73 74 74 76 75 69 76 70 77
REMARK SMILES IDX 71 78 72 79 73 80 49 81 50 82 59 83 51 84 52 85 58 86 60 87
REMARK SMILES IDX 53 88 54 89 55 90 56 91 57 92
REMARK H PARENT 15 6 10 19 19 23 81 42 47 53
REMARK Flexibility Score: inf
ROOT
ATOM      1  C   UNL A   1      38.940  22.175  25.884  1.00  0.00     0.042 C 
ENDROOT
BRANCH   1   2
ATOM      2  C   UNL A   1      38.011  21.082  25.376  1.00  0.00     0.117 C 
BRANCH   2   3
ATOM      3  N   UNL A   1      37.099  21.485  24.319  1.00  0.00    -0.356 N 
ATOM      4  C   UNL A   1      36.141  22.458  24.361  1.00  0.00     0.225 C 
ATOM      5  O   UNL A   1      35.659  22.854  23.297  1.00  0.00    -0.275 OA
ATOM      6  H   UNL A   1      37.183  20.998  23.467  1.00  0.00     0.163 HD
BRANCH   4   7
ATOM      7  C   UNL A   1      35.611  22.993  25.686  1.00  0.00     0.110 C 
ATOM      8  C   UNL A   1      35.155  24.446  25.508  1.00  0.00     0.021 C 
BRANCH   7   9
ATOM      9  C   UNL A   1      34.715  22.004  26.478  1.00  0.00     0.175 C 
BRANCH   9  10
ATOM     10  C   UNL A   1      33.245  22.285  26.455  1.00  0.00     0.067 A 
ATOM     11  N   UNL A   1      32.373  21.998  25.426  1.00  0.00    -0.330 N 
ATOM     12  C   UNL A   1      31.120  22.395  25.830  1.00  0.00     0.199 A 
ATOM     13  N   UNL A   1      31.138  22.962  27.009  1.00  0.00    -0.245 NA
ATOM     14  C   UNL A   1      32.443  22.917  27.396  1.00  0.00     0.137 A 
BRANCH  11  15
ATOM     15  C   UNL A   1      32.629  21.526  24.067  1.00  0.00     0.082 C 
ATOM     16  C   UNL A   1      32.258  20.048  23.942  1.00  0.00     0.031 C 
ATOM     17  C   UNL A   1      32.021  22.366  22.944  1.00  0.00     0.031 C 
ENDBRANCH  11  15
ENDBRANCH   9  10
BRANCH   9  18
ATOM     18  O   UNL A   1      34.854  20.638  26.106  1.00  0.00    -0.386 OA
ATOM     19  H   UNL A   1      35.752  20.484  25.770  1.00  0.00     0.211 HD
ENDBRANCH   9  18
ENDBRANCH   7   9
ENDBRANCH   4   7
ENDBRANCH   2   3
ENDBRANCH   1   2
BRANCH   1  20
ATOM     20  C   UNL A   1      40.143  21.624  26.614  1.00  0.00     0.118 C 
BRANCH  20  21
ATOM     21  N   UNL A   1      41.402  21.904  25.922  1.00  0.00    -0.352 N 
ATOM     22  C   UNL A   1      42.042  23.121  25.801  1.00  0.00     0.251 C 
ATOM     23  H   UNL A   1      41.844  21.136  25.492  1.00  0.00     0.163 HD
ATOM     24  O   UNL A   1      42.906  23.300  24.949  1.00  0.00    -0.269 OA
BRANCH  22  25
ATOM     25  C   UNL A   1      41.630  24.203  26.707  1.00  0.00     0.039 A 
ATOM     26  C   UNL A   1      42.143  24.279  28.000  1.00  0.00     0.014 A 
ATOM     27  C   UNL A   1      40.830  25.219  26.186  1.00  0.00     0.014 A 
ATOM     28  C   UNL A   1      41.938  25.449  28.726  1.00  0.00     0.010 A 
ATOM     29  C   UNL A   1      40.761  26.425  26.844  1.00  0.00     0.010 A 
ATOM     30  C   UNL A   1      41.287  26.543  28.128  1.00  0.00    -0.014 A 
BRANCH  30  31
ATOM     31  C   UNL A   1      41.261  27.835  28.813  1.00  0.00     0.031 A 
ATOM     32  C   UNL A   1      42.308  28.803  28.383  1.00  0.00     0.074 A 
ATOM     33  C   UNL A   1      40.294  28.235  29.665  1.00  0.00     0.049 A 
ATOM     34  N   UNL A   1      43.387  29.121  29.018  1.00  0.00    -0.248 NA
ATOM     35  C   UNL A   1      42.225  29.381  27.033  1.00  0.00     0.031 C 
ATOM     36  C   UNL A   1      39.018  27.587  29.984  1.00  0.00     0.029 A 
ATOM     37  N   UNL A   1      40.229  29.390  30.383  1.00  0.00    -0.354 N 
ATOM     38  C   UNL A   1      44.004  30.116  28.265  1.00  0.00     0.074 A 
ATOM     39  C   UNL A   1      43.355  30.093  26.978  1.00  0.00     0.031 C 
ATOM     40  C   UNL A   1      38.221  28.455  30.645  1.00  0.00     0.029 A 
ATOM     41  C   UNL A   1      38.993  29.640  30.963  1.00  0.00     0.049 A 
ATOM     42  H   UNL A   1      40.996  29.999  30.483  1.00  0.00     0.167 HD
ATOM     43  C   UNL A   1      44.834  31.028  28.846  1.00  0.00     0.037 A 
ATOM     44  C   UNL A   1      38.625  30.745  31.657  1.00  0.00     0.037 A 
ATOM     45  C   UNL A   1      45.211  30.609  30.176  1.00  0.00     0.049 A 
ATOM     46  C   UNL A   1      39.871  31.386  32.148  1.00  0.00     0.074 A 
ATOM     47  C   UNL A   1      45.823  29.490  30.708  1.00  0.00     0.029 A 
ATOM     48  N   UNL A   1      44.602  31.237  31.237  1.00  0.00    -0.354 N 
ATOM     49  N   UNL A   1      40.655  30.858  33.048  1.00  0.00    -0.248 NA
ATOM     50  C   UNL A   1      40.478  32.419  31.324  1.00  0.00     0.031 C 
ATOM     51  C   UNL A   1      45.132  29.241  31.931  1.00  0.00     0.029 A 
ATOM     52  C   UNL A   1      44.197  30.260  32.110  1.00  0.00     0.049 A 
ATOM     53  H   UNL A   1      44.479  32.207  31.349  1.00  0.00     0.167 HD
ATOM     54  C   UNL A   1      41.939  31.160  32.619  1.00  0.00     0.074 A 
ATOM     55  C   UNL A   1      41.764  32.211  31.620  1.00  0.00     0.031 C 
ATOM     56  C   UNL A   1      42.995  30.343  32.911  1.00  0.00     0.037 A 
BRANCH  43  57
ATOM     57  C   UNL A   1      45.015  32.461  28.388  1.00  0.00     0.058 A 
ATOM     58  C   UNL A   1      46.314  32.929  28.090  1.00  0.00     0.135 A 
ATOM     59  C   UNL A   1      44.026  33.461  28.507  1.00  0.00     0.135 A 
ATOM     60  F   UNL A   1      47.337  32.070  27.950  1.00  0.00    -0.206 F 
ATOM     61  C   UNL A   1      46.623  34.288  28.012  1.00  0.00     0.059 A 
ATOM     62  C   UNL A   1      44.301  34.819  28.377  1.00  0.00     0.059 A 
ATOM     63  F   UNL A   1      42.764  33.184  28.853  1.00  0.00    -0.206 F 
ATOM     64  C   UNL A   1      45.609  35.225  28.177  1.00  0.00     0.060 A 
BRANCH  64  65
ATOM     65  S   UNL A   1      46.019  36.980  28.192  1.00  0.00     0.124 S 
ATOM     66  O   UNL A   1      46.337  37.213  26.788  1.00  0.00    -0.237 OA
ATOM     67  O   UNL A   1      44.779  37.576  28.676  1.00  0.00    -0.237 OA
ATOM     68  O   UNL A   1      47.145  37.051  29.118  1.00  0.00    -0.744 OA
ENDBRANCH  64  65
ENDBRANCH  43  57
BRANCH  44  69
ATOM     69  C   UNL A   1      37.306  31.423  31.687  1.00  0.00     0.058 A 
ATOM     70  C   UNL A   1      36.671  31.714  32.907  1.00  0.00     0.135 A 
ATOM     71  C   UNL A   1      36.786  32.065  30.544  1.00  0.00     0.135 A 
ATOM     72  F   UNL A   1      37.108  31.153  34.045  1.00  0.00    -0.206 F 
ATOM     73  C   UNL A   1      35.631  32.642  33.002  1.00  0.00     0.059 A 
ATOM     74  C   UNL A   1      35.743  32.986  30.613  1.00  0.00     0.059 A 
ATOM     75  F   UNL A   1      37.346  31.890  29.338  1.00  0.00    -0.206 F 
ATOM     76  C   UNL A   1      35.191  33.295  31.851  1.00  0.00     0.060 A 
BRANCH  76  77
ATOM     77  S   UNL A   1      33.998  34.645  32.002  1.00  0.00     0.124 S 
ATOM     78  O   UNL A   1      33.516  34.776  30.632  1.00  0.00    -0.237 OA
ATOM     79  O   UNL A   1      33.044  34.108  32.966  1.00  0.00    -0.237 OA
ATOM     80  O   UNL A   1      34.809  35.759  32.489  1.00  0.00    -0.744 OA
ENDBRANCH  76  77
ENDBRANCH  44  69
BRANCH  56  81
ATOM     81  C   UNL A   1      42.829  29.317  34.002  1.00  0.00     0.058 A 
ATOM     82  C   UNL A   1      43.009  29.556  35.376  1.00  0.00     0.135 A 
ATOM     83  C   UNL A   1      42.344  28.051  33.633  1.00  0.00     0.135 A 
ATOM     84  F   UNL A   1      43.362  30.768  35.828  1.00  0.00    -0.206 F 
ATOM     85  C   UNL A   1      42.771  28.564  36.331  1.00  0.00     0.059 A 
ATOM     86  C   UNL A   1      42.066  27.060  34.570  1.00  0.00     0.059 A 
ATOM     87  F   UNL A   1      42.092  27.776  32.342  1.00  0.00    -0.206 F 
ATOM     88  C   UNL A   1      42.302  27.317  35.917  1.00  0.00     0.060 A 
BRANCH  88  89
ATOM     89  S   UNL A   1      41.952  26.048  37.153  1.00  0.00     0.124 S 
ATOM     90  O   UNL A   1      42.212  24.818  36.414  1.00  0.00    -0.237 OA
ATOM     91  O   UNL A   1      42.903  26.364  38.214  1.00  0.00    -0.237 OA
ATOM     92  O   UNL A   1      40.550  26.283  37.498  1.00  0.00    -0.744 OA
ENDBRANCH  88  89
ENDBRANCH  56  81
ENDBRANCH  30  31
ENDBRANCH  22  25
ENDBRANCH  20  21
ENDBRANCH   1  20
TORSDOF 17
ENDMDL
MODEL 2
REMARK VINA RESULT:     -11.2      3.398      9.724
REMARK SMILES CC(C)n1cncc1[C@@H](O)[C@H](C)C(=O)NCCCNC(=O)c1ccc(-c2c3nc(c(-c4c(F)cc(S(=O)(=O)[O-])cc4F)c4ccc([nH]4)c(-c4c(F)cc(S(=O)(=O)[O-])cc4F)c4nc(c(-c5c(F)cc(S(=O)(=O)[O-])cc5F)c5ccc2[nH]5)C=C4)C=C3)cc1
REMARK SMILES IDX 17 1 16 2 15 3 13 4 14 5 11 7 12 8 9 9 8 10 4 11 5 12 6 13
REMARK SMILES IDX 7 14 2 15 1 16 3 17 10 18 18 20 19 21 20 22 21 24 22 25
REMARK SMILES IDX 23 26 87 27 24 28 86 29 25 30 26 31 27 32 80 33 28 34 85 35
REMARK SMILES IDX 79 36 81 37 29 38 84 39 78 40 77 41 30 43 64 44 43 45 63 46
REMARK SMILES IDX 44 47 47 48 62 49 82 50 45 51 46 52 61 54 83 55 48 56 31 57
REMARK SMILES IDX 32 58 41 59 33 60 34 61 40 62 42 63 35 64 36 65 37 66 38 67
REMARK SMILES IDX 39 68 65 69 66 70 75 71 67 72 68 73 74 74 76 75 69 76 70 77
REMARK SMILES IDX 71 78 72 79 73 80 49 81 50 82 59 83 51 84 52 85 58 86 60 87
REMARK SMILES IDX 53 88 54 89 55 90 56 91 57 92
REMARK H PARENT 15 6 10 19 19 23 81 42 47 53
REMARK Flexibility Score: inf
ROOT
ATOM      1  C   UNL A   1      33.566  30.707  27.403  1.00  0.00     0.042 C 
ENDROOT
BRANCH   1   2
ATOM      2  C   UNL A   1      32.083  30.649  27.065  1.00  0.00     0.117 C 
BRANCH   2   3
ATOM      3  N   UNL A   1      31.775  30.517  25.651  1.00  0.00    -0.356 N 
ATOM      4  C   UNL A   1      31.663  29.369  24.919  1.00  0.00     0.225 C 
ATOM      5  O   UNL A   1      31.123  29.429  23.812  1.00  0.00    -0.275 OA
ATOM      6  H   UNL A   1      31.627  31.358  25.161  1.00  0.00     0.163 HD
BRANCH   4   7
ATOM      7  C   UNL A   1      32.259  28.054  25.408  1.00  0.00     0.110 C 
ATOM      8  C   UNL A   1      31.144  27.014  25.572  1.00  0.00     0.021 C 
BRANCH   7   9
ATOM      9  C   UNL A   1      33.590  27.645  24.722  1.00  0.00     0.175 C 
BRANCH   9  10
ATOM     10  C   UNL A   1      33.472  26.689  23.576  1.00  0.00     0.067 A 
ATOM     11  N   UNL A   1      33.458  25.312  23.657  1.00  0.00    -0.330 N 
ATOM     12  C   UNL A   1      33.306  24.829  22.379  1.00  0.00     0.199 A 
ATOM     13  N   UNL A   1      33.280  25.788  21.489  1.00  0.00    -0.245 NA
ATOM     14  C   UNL A   1      33.399  26.936  22.212  1.00  0.00     0.137 A 
BRANCH  11  15
ATOM     15  C   UNL A   1      33.714  24.425  24.789  1.00  0.00     0.082 C 
ATOM     16  C   UNL A   1      33.244  23.006  24.466  1.00  0.00     0.031 C 
ATOM     17  C   UNL A   1      35.139  24.443  25.341  1.00  0.00     0.031 C 
ENDBRANCH  11  15
ENDBRANCH   9  10
BRANCH   9  18
ATOM     18  O   UNL A   1      34.376  28.730  24.242  1.00  0.00    -0.386 OA
ATOM     19  H   UNL A   1      33.800  29.488  24.055  1.00  0.00     0.211 HD
ENDBRANCH   9  18
ENDBRANCH   7   9
ENDBRANCH   4   7
ENDBRANCH   2   3
ENDBRANCH   1   2
BRANCH   1  20
ATOM     20  C   UNL A   1      34.065  32.121  27.592  1.00  0.00     0.118 C 
BRANCH  20  21
ATOM     21  N   UNL A   1      34.019  32.554  28.990  1.00  0.00    -0.352 N 
ATOM     22  C   UNL A   1      34.843  32.150  30.022  1.00  0.00     0.251 C 
ATOM     23  H   UNL A   1      33.321  33.209  29.222  1.00  0.00     0.163 HD
ATOM     24  O   UNL A   1      34.523  32.328  31.193  1.00  0.00    -0.269 OA
BRANCH  22  25
ATOM     25  C   UNL A   1      36.099  31.473  29.670  1.00  0.00     0.039 A 
ATOM     26  C   UNL A   1      37.280  32.198  29.526  1.00  0.00     0.014 A 
ATOM     27  C   UNL A   1      36.097  30.080  29.626  1.00  0.00     0.014 A 
ATOM     28  C   UNL A   1      38.481  31.500  29.456  1.00  0.00     0.010 A 
ATOM     29  C   UNL A   1      37.292  29.403  29.711  1.00  0.00     0.010 A 
ATOM     30  C   UNL A   1      38.491  30.100  29.598  1.00  0.00    -0.014 A 
BRANCH  30  31
ATOM     31  C   UNL A   1      39.763  29.393  29.736  1.00  0.00     0.031 A 
ATOM     32  C   UNL A   1      40.194  29.129  31.137  1.00  0.00     0.074 A 
ATOM     33  C   UNL A   1      40.463  28.859  28.712  1.00  0.00     0.049 A 
ATOM     34  N   UNL A   1      41.110  29.750  31.804  1.00  0.00    -0.248 NA
ATOM     35  C   UNL A   1      39.432  28.161  31.941  1.00  0.00     0.031 C 
ATOM     36  C   UNL A   1      40.077  28.717  27.305  1.00  0.00     0.029 A 
ATOM     37  N   UNL A   1      41.676  28.242  28.752  1.00  0.00    -0.354 N 
ATOM     38  C   UNL A   1      41.207  29.099  33.031  1.00  0.00     0.074 A 
ATOM     39  C   UNL A   1      40.033  28.270  33.129  1.00  0.00     0.031 C 
ATOM     40  C   UNL A   1      40.925  27.869  26.685  1.00  0.00     0.029 A 
ATOM     41  C   UNL A   1      42.016  27.563  27.590  1.00  0.00     0.049 A 
ATOM     42  H   UNL A   1      42.264  28.274  29.541  1.00  0.00     0.167 HD
ATOM     43  C   UNL A   1      42.364  29.124  33.752  1.00  0.00     0.037 A 
ATOM     44  C   UNL A   1      43.117  26.800  27.383  1.00  0.00     0.037 A 
ATOM     45  C   UNL A   1      43.264  30.137  33.251  1.00  0.00     0.049 A 
ATOM     46  C   UNL A   1      44.136  27.228  28.374  1.00  0.00     0.074 A 
ATOM     47  C   UNL A   1      43.181  31.502  33.055  1.00  0.00     0.029 A 
ATOM     48  N   UNL A   1      44.334  29.719  32.496  1.00  0.00    -0.354 N 
ATOM     49  N   UNL A   1      44.719  28.395  28.361  1.00  0.00    -0.248 NA
ATOM     50  C   UNL A   1      44.198  26.518  29.641  1.00  0.00     0.031 C 
ATOM     51  C   UNL A   1      43.865  31.738  31.825  1.00  0.00     0.029 A 
ATOM     52  C   UNL A   1      44.388  30.521  31.385  1.00  0.00     0.049 A 
ATOM     53  H   UNL A   1      44.948  28.980  32.712  1.00  0.00     0.167 HD
ATOM     54  C   UNL A   1      44.823  28.754  29.696  1.00  0.00     0.074 A 
ATOM     55  C   UNL A   1      44.588  27.517  30.437  1.00  0.00     0.031 C 
ATOM     56  C   UNL A   1      44.816  30.065  30.081  1.00  0.00     0.037 A 
BRANCH  43  57
ATOM     57  C   UNL A   1      42.851  28.012  34.658  1.00  0.00     0.058 A 
ATOM     58  C   UNL A   1      43.186  28.312  35.997  1.00  0.00     0.135 A 
ATOM     59  C   UNL A   1      43.277  26.746  34.200  1.00  0.00     0.135 A 
ATOM     60  F   UNL A   1      42.832  29.485  36.546  1.00  0.00    -0.206 F 
ATOM     61  C   UNL A   1      43.964  27.462  36.785  1.00  0.00     0.059 A 
ATOM     62  C   UNL A   1      44.004  25.859  34.987  1.00  0.00     0.059 A 
ATOM     63  F   UNL A   1      43.097  26.344  32.937  1.00  0.00    -0.206 F 
ATOM     64  C   UNL A   1      44.384  26.245  36.261  1.00  0.00     0.060 A 
BRANCH  64  65
ATOM     65  S   UNL A   1      45.481  25.194  37.230  1.00  0.00     0.124 S 
ATOM     66  O   UNL A   1      44.528  24.479  38.070  1.00  0.00    -0.237 OA
ATOM     67  O   UNL A   1      46.140  24.407  36.193  1.00  0.00    -0.237 OA
ATOM     68  O   UNL A   1      46.339  26.154  37.919  1.00  0.00    -0.744 OA
ENDBRANCH  64  65
ENDBRANCH  43  57
BRANCH  44  69
ATOM     69  C   UNL A   1      43.245  25.558  26.583  1.00  0.00     0.058 A 
ATOM     70  C   UNL A   1      44.170  25.471  25.528  1.00  0.00     0.135 A 
ATOM     71  C   UNL A   1      42.684  24.341  27.023  1.00  0.00     0.135 A 
ATOM     72  F   UNL A   1      44.758  26.579  25.053  1.00  0.00    -0.206 F 
ATOM     73  C   UNL A   1      44.572  24.245  24.990  1.00  0.00     0.059 A 
ATOM     74  C   UNL A   1      43.062  23.108  26.495  1.00  0.00     0.059 A 
ATOM     75  F   UNL A   1      41.824  24.308  28.052  1.00  0.00    -0.206 F 
ATOM     76  C   UNL A   1      44.033  23.065  25.500  1.00  0.00     0.060 A 
BRANCH  76  77
ATOM     77  S   UNL A   1      44.706  21.478  24.957  1.00  0.00     0.124 S 
ATOM     78  O   UNL A   1      46.019  21.474  25.591  1.00  0.00    -0.237 OA
ATOM     79  O   UNL A   1      43.735  20.531  25.494  1.00  0.00    -0.237 OA
ATOM     80  O   UNL A   1      44.715  21.595  23.500  1.00  0.00    -0.744 OA
ENDBRANCH  76  77
ENDBRANCH  44  69
BRANCH  56  81
ATOM     81  C   UNL A   1      45.065  31.123  29.036  1.00  0.00     0.058 A 
ATOM     82  C   UNL A   1      46.331  31.554  28.603  1.00  0.00     0.135 A 
ATOM     83  C   UNL A   1      43.949  31.638  28.356  1.00  0.00     0.135 A 
ATOM     84  F   UNL A   1      47.454  31.033  29.119  1.00  0.00    -0.206 F 
ATOM     85  C   UNL A   1      46.477  32.494  27.579  1.00  0.00     0.059 A 
ATOM     86  C   UNL A   1      44.071  32.548  27.310  1.00  0.00     0.059 A 
ATOM     87  F   UNL A   1      42.712  31.222  28.678  1.00  0.00    -0.206 F 
ATOM     88  C   UNL A   1      45.338  32.988  26.941  1.00  0.00     0.060 A 
BRANCH  88  89
ATOM     89  S   UNL A   1      45.525  34.170  25.588  1.00  0.00     0.124 S 
ATOM     90  O   UNL A   1      46.971  34.191  25.396  1.00  0.00    -0.237 OA
ATOM     91  O   UNL A   1      44.751  33.553  24.515  1.00  0.00    -0.237 OA
ATOM     92  O   UNL A   1      44.950  35.401  26.128  1.00  0.00    -0.744 OA
ENDBRANCH  88  89
ENDBRANCH  56  81
ENDBRANCH  30  31
ENDBRANCH  22  25
ENDBRANCH  20  21
ENDBRANCH   1  20
TORSDOF 17
ENDMDL
MODEL 3
REMARK VINA RESULT:     -11.2      1.835      2.455
REMARK SMILES CC(C)n1cncc1[C@@H](O)[C@H](C)C(=O)NCCCNC(=O)c1ccc(-c2c3nc(c(-c4c(F)cc(S(=O)(=O)[O-])cc4F)c4ccc([nH]4)c(-c4c(F)cc(S(=O)(=O)[O-])cc4F)c4nc(c(-c5c(F)cc(S(=O)(=O)[O-])cc5F)c5ccc2[nH]5)C=C4)C=C3)cc1
REMARK SMILES IDX 17 1 16 2 15 3 13 4 14 5 11 7 12 8 9 9 8 10 4 11 5 12 6 13
REMARK SMILES IDX 7 14 2 15 1 16 3 17 10 18 18 20 19 21 20 22 21 24 22 25
REMARK SMILES IDX 23 26 87 27 24 28 86 29 25 30 26 31 27 32 80 33 28 34 85 35
REMARK SMILES IDX 79 36 81 37 29 38 84 39 78 40 77 41 30 43 64 44 43 45 63 46
REMARK SMILES IDX 44 47 47 48 62 49 82 50 45 51 46 52 61 54 83 55 48 56 31 57
REMARK SMILES IDX 32 58 41 59 33 60 34 61 40 62 42 63 35 64 36 65 37 66 38 67
REMARK SMILES IDX 39 68 65 69 66 70 75 71 67 72 68 73 74 74 76 75 69 76 70 77
REMARK SMILES IDX 71 78 72 79 73 80 49 81 50 82 59 83 51 84 52 85 58 86 60 87
REMARK SMILES IDX 53 88 54 89 55 90 56 91 57 92
REMARK H PARENT 15 6 10 19 19 23 81 42 47 53
REMARK Flexibility Score: inf
ROOT
ATOM      1  C   UNL A   1      36.793  21.941  25.269  1.00  0.00     0.042 C 
ENDROOT
BRANCH   1   2
ATOM      2  C   UNL A   1      35.718  22.335  26.273  1.00  0.00     0.117 C 
BRANCH   2   3
ATOM      3  N   UNL A   1      34.351  22.096  25.842  1.00  0.00    -0.356 N 
ATOM      4  C   UNL A   1      33.434  23.012  25.411  1.00  0.00     0.225 C 
ATOM      5  O   UNL A   1      32.429  22.604  24.822  1.00  0.00    -0.275 OA
ATOM      6  H   UNL A   1      34.050  21.159  25.862  1.00  0.00     0.163 HD
BRANCH   4   7
ATOM      7  C   UNL A   1      33.593  24.497  25.713  1.00  0.00     0.110 C 
ATOM      8  C   UNL A   1      34.329  25.181  24.556  1.00  0.00     0.021 C 
BRANCH   7   9
ATOM      9  C   UNL A   1      32.340  25.176  26.328  1.00  0.00     0.175 C 
BRANCH   9  10
ATOM     10  C   UNL A   1      31.514  26.002  25.392  1.00  0.00     0.067 A 
ATOM     11  N   UNL A   1      31.505  27.379  25.306  1.00  0.00    -0.330 N 
ATOM     12  C   UNL A   1      30.630  27.720  24.301  1.00  0.00     0.199 A 
ATOM     13  N   UNL A   1      30.042  26.673  23.783  1.00  0.00    -0.245 NA
ATOM     14  C   UNL A   1      30.564  25.611  24.458  1.00  0.00     0.137 A 
BRANCH  11  15
ATOM     15  C   UNL A   1      32.124  28.388  26.162  1.00  0.00     0.082 C 
ATOM     16  C   UNL A   1      31.581  28.277  27.587  1.00  0.00     0.031 C 
ATOM     17  C   UNL A   1      33.652  28.440  26.133  1.00  0.00     0.031 C 
ENDBRANCH  11  15
ENDBRANCH   9  10
BRANCH   9  18
ATOM     18  O   UNL A   1      31.429  24.288  26.967  1.00  0.00    -0.386 OA
ATOM     19  H   UNL A   1      30.851  24.792  27.562  1.00  0.00     0.211 HD
ENDBRANCH   9  18
ENDBRANCH   7   9
ENDBRANCH   4   7
ENDBRANCH   2   3
ENDBRANCH   1   2
BRANCH   1  20
ATOM     20  C   UNL A   1      38.130  22.581  25.568  1.00  0.00     0.118 C 
BRANCH  20  21
ATOM     21  N   UNL A   1      38.948  21.782  26.481  1.00  0.00    -0.352 N 
ATOM     22  C   UNL A   1      40.057  22.192  27.193  1.00  0.00     0.251 C 
ATOM     23  H   UNL A   1      38.676  20.843  26.602  1.00  0.00     0.163 HD
ATOM     24  O   UNL A   1      40.840  21.377  27.671  1.00  0.00    -0.269 OA
BRANCH  22  25
ATOM     25  C   UNL A   1      40.285  23.638  27.332  1.00  0.00     0.039 A 
ATOM     26  C   UNL A   1      39.239  24.541  27.154  1.00  0.00     0.014 A 
ATOM     27  C   UNL A   1      41.534  24.060  27.784  1.00  0.00     0.014 A 
ATOM     28  C   UNL A   1      39.429  25.861  27.550  1.00  0.00     0.010 A 
ATOM     29  C   UNL A   1      41.666  25.323  28.314  1.00  0.00     0.010 A 
ATOM     30  C   UNL A   1      40.630  26.241  28.176  1.00  0.00    -0.014 A 
BRANCH  30  31
ATOM     31  C   UNL A   1      40.745  27.569  28.779  1.00  0.00     0.031 A 
ATOM     32  C   UNL A   1      41.824  28.429  28.217  1.00  0.00     0.074 A 
ATOM     33  C   UNL A   1      39.874  28.089  29.669  1.00  0.00     0.049 A 
ATOM     34  N   UNL A   1      42.967  28.701  28.756  1.00  0.00    -0.248 NA
ATOM     35  C   UNL A   1      41.683  28.934  26.843  1.00  0.00     0.031 C 
ATOM     36  C   UNL A   1      38.583  27.558  30.116  1.00  0.00     0.029 A 
ATOM     37  N   UNL A   1      39.945  29.285  30.316  1.00  0.00    -0.354 N 
ATOM     38  C   UNL A   1      43.595  29.603  27.900  1.00  0.00     0.074 A 
ATOM     39  C   UNL A   1      42.854  29.554  26.666  1.00  0.00     0.031 C 
ATOM     40  C   UNL A   1      37.901  28.520  30.774  1.00  0.00     0.029 A 
ATOM     41  C   UNL A   1      38.776  29.661  30.964  1.00  0.00     0.049 A 
ATOM     42  H   UNL A   1      40.759  29.839  30.324  1.00  0.00     0.167 HD
ATOM     43  C   UNL A   1      44.529  30.481  28.364  1.00  0.00     0.037 A 
ATOM     44  C   UNL A   1      38.539  30.828  31.611  1.00  0.00     0.037 A 
ATOM     45  C   UNL A   1      44.972  30.112  29.689  1.00  0.00     0.049 A 
ATOM     46  C   UNL A   1      39.860  31.400  31.973  1.00  0.00     0.074 A 
ATOM     47  C   UNL A   1      45.541  28.983  30.246  1.00  0.00     0.029 A 
ATOM     48  N   UNL A   1      44.489  30.844  30.748  1.00  0.00    -0.354 N 
ATOM     49  N   UNL A   1      40.669  30.868  32.848  1.00  0.00    -0.248 NA
ATOM     50  C   UNL A   1      40.477  32.336  31.046  1.00  0.00     0.031 C 
ATOM     51  C   UNL A   1      44.926  28.857  31.528  1.00  0.00     0.029 A 
ATOM     52  C   UNL A   1      44.081  29.953  31.707  1.00  0.00     0.049 A 
ATOM     53  H   UNL A   1      44.443  31.826  30.807  1.00  0.00     0.167 HD
ATOM     54  C   UNL A   1      41.936  31.048  32.313  1.00  0.00     0.074 A 
ATOM     55  C   UNL A   1      41.763  32.050  31.264  1.00  0.00     0.031 C 
ATOM     56  C   UNL A   1      42.950  30.172  32.582  1.00  0.00     0.037 A 
BRANCH  43  57
ATOM     57  C   UNL A   1      44.776  31.867  27.805  1.00  0.00     0.058 A 
ATOM     58  C   UNL A   1      46.017  32.150  27.192  1.00  0.00     0.135 A 
ATOM     59  C   UNL A   1      43.979  32.994  28.100  1.00  0.00     0.135 A 
ATOM     60  F   UNL A   1      46.860  31.159  26.862  1.00  0.00    -0.206 F 
ATOM     61  C   UNL A   1      46.468  33.454  26.977  1.00  0.00     0.059 A 
ATOM     62  C   UNL A   1      44.385  34.300  27.842  1.00  0.00     0.059 A 
ATOM     63  F   UNL A   1      42.810  32.896  28.743  1.00  0.00    -0.206 F 
ATOM     64  C   UNL A   1      45.650  34.522  27.325  1.00  0.00     0.060 A 
BRANCH  64  65
ATOM     65  S   UNL A   1      46.270  36.205  27.156  1.00  0.00     0.124 S 
ATOM     66  O   UNL A   1      47.294  36.239  28.193  1.00  0.00    -0.237 OA
ATOM     67  O   UNL A   1      46.751  36.214  25.779  1.00  0.00    -0.237 OA
ATOM     68  O   UNL A   1      45.087  37.023  27.406  1.00  0.00    -0.744 OA
ENDBRANCH  64  65
ENDBRANCH  43  57
BRANCH  44  69
ATOM     69  C   UNL A   1      37.277  31.603  31.689  1.00  0.00     0.058 A 
ATOM     70  C   UNL A   1      36.689  31.900  32.930  1.00  0.00     0.135 A 
ATOM     71  C   UNL A   1      36.789  32.322  30.579  1.00  0.00     0.135 A 
ATOM     72  F   UNL A   1      37.100  31.269  34.041  1.00  0.00    -0.206 F 
ATOM     73  C   UNL A   1      35.725  32.902  33.076  1.00  0.00     0.059 A 
ATOM     74  C   UNL A   1      35.821  33.317  30.698  1.00  0.00     0.059 A 
ATOM     75  F   UNL A   1      37.312  32.145  29.356  1.00  0.00    -0.206 F 
ATOM     76  C   UNL A   1      35.317  33.625  31.957  1.00  0.00     0.060 A 
BRANCH  76  77
ATOM     77  S   UNL A   1      34.235  35.057  32.175  1.00  0.00     0.124 S 
ATOM     78  O   UNL A   1      33.099  34.473  32.879  1.00  0.00    -0.237 OA
ATOM     79  O   UNL A   1      35.073  35.961  32.956  1.00  0.00    -0.237 OA
ATOM     80  O   UNL A   1      33.966  35.490  30.806  1.00  0.00    -0.744 OA
ENDBRANCH  76  77
ENDBRANCH  44  69
BRANCH  56  81
ATOM     81  C   UNL A   1      42.793  29.225  33.744  1.00  0.00     0.058 A 
ATOM     82  C   UNL A   1      43.087  29.529  35.084  1.00  0.00     0.135 A 
ATOM     83  C   UNL A   1      42.197  27.978  33.489  1.00  0.00     0.135 A 
ATOM     84  F   UNL A   1      43.554  30.737  35.434  1.00  0.00    -0.206 F 
ATOM     85  C   UNL A   1      42.850  28.615  36.115  1.00  0.00     0.059 A 
ATOM     86  C   UNL A   1      41.919  27.066  34.503  1.00  0.00     0.059 A 
ATOM     87  F   UNL A   1      41.834  27.648  32.238  1.00  0.00    -0.206 F 
ATOM     88  C   UNL A   1      42.268  27.383  35.812  1.00  0.00     0.060 A 
BRANCH  88  89
ATOM     89  S   UNL A   1      41.921  26.217  37.146  1.00  0.00     0.124 S 
ATOM     90  O   UNL A   1      41.982  24.933  36.457  1.00  0.00    -0.237 OA
ATOM     91  O   UNL A   1      43.002  26.482  38.091  1.00  0.00    -0.237 OA
ATOM     92  O   UNL A   1      40.592  26.613  37.610  1.00  0.00    -0.744 OA
ENDBRANCH  88  89
ENDBRANCH  56  81
ENDBRANCH  30  31
ENDBRANCH  22  25
ENDBRANCH  20  21
ENDBRANCH   1  20
TORSDOF 17
ENDMDL
