MODEL 1
REMARK VINA RESULT:     -12.7      0.000      0.000
REMARK SMILES CCOc1ccc(-c2cc(Cl)cc3c2O[C@H](C(F)(F)F)C(C(=O)NCCCNC(=O)c2ccc(-c4c5nc(c(-c6c(F)cc(S(=O)(=O)[O-])cc6F)c6ccc([nH]6)c(-c6c(F)cc(S(=O)(=O)[O-])cc6F)c6nc(c(-c7c(F)cc(S(=O)(=O)[O-])cc7F)c7ccc4[nH]7)C=C6)C=C5)cc2)=C3)cc1
REMARK SMILES IDX 26 1 25 2 24 3 22 4 23 5 21 7 8 8 9 9 14 10 10 11 13 12
REMARK SMILES IDX 15 13 11 14 12 15 97 16 16 17 7 18 4 19 5 20 99 21 6 22
REMARK SMILES IDX 98 23 3 24 2 25 1 26 17 27 18 28 19 29 20 30 27 31 28 32
REMARK SMILES IDX 29 33 30 35 31 36 32 37 96 38 33 39 95 40 34 41 35 42 36 43
REMARK SMILES IDX 89 44 37 45 94 46 88 47 90 48 38 49 93 50 87 51 86 52 39 54
REMARK SMILES IDX 73 55 52 56 72 57 53 58 56 59 71 60 91 61 54 62 55 63 70 65
REMARK SMILES IDX 92 66 57 67 40 68 41 69 50 70 42 71 43 72 49 73 51 74 44 75
REMARK SMILES IDX 45 76 46 77 47 78 48 79 74 80 75 81 84 82 76 83 77 84 83 85
REMARK SMILES IDX 85 86 78 87 79 88 80 89 81 90 82 91 58 92 59 93 68 94 60 95
REMARK SMILES IDX 61 96 67 97 69 98 62 99 63 100 64 101 65 102 66 103
REMARK H PARENT 24 6 28 34 90 53 56 64
REMARK Flexibility Score: inf
ROOT
ATOM      1  C   UNL A   1      33.367  28.270  25.915  1.00  0.00     0.042 C 
ENDROOT
BRANCH   1   2
ATOM      2  C   UNL A   1      34.276  27.146  25.417  1.00  0.00     0.118 C 
BRANCH   2   3
ATOM      3  N   UNL A   1      33.559  26.312  24.473  1.00  0.00    -0.352 N 
ATOM      4  C   UNL A   1      34.057  25.269  23.764  1.00  0.00     0.251 C 
ATOM      5  O   UNL A   1      33.689  25.077  22.611  1.00  0.00    -0.270 OA
ATOM      6  H   UNL A   1      32.609  26.526  24.330  1.00  0.00     0.163 HD
BRANCH   4   7
ATOM      7  C   UNL A   1      34.942  24.312  24.491  1.00  0.00     0.067 C 
ATOM      8  C   UNL A   1      32.299  21.271  25.082  1.00  0.00     0.026 A 
ATOM      9  C   UNL A   1      31.086  21.810  25.574  1.00  0.00     0.033 A 
ATOM     10  C   UNL A   1      33.415  22.122  25.089  1.00  0.00     0.135 A 
ATOM     11  C   UNL A   1      31.022  23.068  26.173  1.00  0.00     0.042 A 
ATOM     12  C   UNL A   1      33.358  23.348  25.794  1.00  0.00     0.019 A 
ATOM     13  O   UNL A   1      34.583  21.820  24.407  1.00  0.00    -0.475 OA
ATOM     14  Cl  UNL A   1      29.513  23.661  26.744  1.00  0.00    -0.084 Cl
ATOM     15  C   UNL A   1      32.170  23.821  26.341  1.00  0.00     0.032 A 
ATOM     16  C   UNL A   1      34.571  24.198  25.783  1.00  0.00     0.025 C 
ATOM     17  C   UNL A   1      35.190  23.005  23.744  1.00  0.00     0.314 C 
BRANCH   8  18
ATOM     18  C   UNL A   1      32.305  19.813  24.822  1.00  0.00    -0.014 A 
ATOM     19  C   UNL A   1      33.267  17.214  24.287  1.00  0.00     0.119 A 
ATOM     20  C   UNL A   1      32.982  17.591  25.596  1.00  0.00     0.047 A 
ATOM     21  C   UNL A   1      32.948  18.068  23.237  1.00  0.00     0.047 A 
ATOM     22  C   UNL A   1      32.499  18.881  25.861  1.00  0.00     0.013 A 
ATOM     23  C   UNL A   1      32.468  19.357  23.503  1.00  0.00     0.013 A 
BRANCH  19  24
ATOM     24  O   UNL A   1      33.799  15.973  24.070  1.00  0.00    -0.494 OA
BRANCH  24  25
ATOM     25  C   UNL A   1      34.374  15.384  25.248  1.00  0.00     0.226 C 
ATOM     26  C   UNL A   1      35.830  15.794  25.407  1.00  0.00     0.049 C 
ENDBRANCH  24  25
ENDBRANCH  19  24
ENDBRANCH   8  18
BRANCH  17  27
ATOM     27  C   UNL A   1      36.710  22.817  23.546  1.00  0.00     0.429 C 
ATOM     28  F   UNL A   1      37.140  21.598  23.948  1.00  0.00    -0.167 F 
ATOM     29  F   UNL A   1      37.059  22.963  22.246  1.00  0.00    -0.167 F 
ATOM     30  F   UNL A   1      37.441  23.727  24.242  1.00  0.00    -0.167 F 
ENDBRANCH  17  27
ENDBRANCH   4   7
ENDBRANCH   2   3
ENDBRANCH   1   2
BRANCH   1  31
ATOM     31  C   UNL A   1      33.493  28.576  27.407  1.00  0.00     0.118 C 
BRANCH  31  32
ATOM     32  N   UNL A   1      33.490  30.000  27.706  1.00  0.00    -0.352 N 
ATOM     33  C   UNL A   1      34.510  30.766  28.220  1.00  0.00     0.251 C 
ATOM     34  H   UNL A   1      32.650  30.476  27.515  1.00  0.00     0.163 HD
ATOM     35  O   UNL A   1      34.308  31.935  28.534  1.00  0.00    -0.269 OA
BRANCH  33  36
ATOM     36  C   UNL A   1      35.838  30.153  28.422  1.00  0.00     0.039 A 
ATOM     37  C   UNL A   1      36.746  30.137  27.362  1.00  0.00     0.014 A 
ATOM     38  C   UNL A   1      36.201  29.652  29.675  1.00  0.00     0.014 A 
ATOM     39  C   UNL A   1      38.053  29.691  27.582  1.00  0.00     0.010 A 
ATOM     40  C   UNL A   1      37.520  29.279  29.909  1.00  0.00     0.010 A 
ATOM     41  C   UNL A   1      38.462  29.300  28.868  1.00  0.00    -0.014 A 
BRANCH  41  42
ATOM     42  C   UNL A   1      39.871  28.932  29.158  1.00  0.00     0.031 A 
ATOM     43  C   UNL A   1      40.823  29.961  29.703  1.00  0.00     0.074 A 
ATOM     44  C   UNL A   1      40.323  27.705  28.830  1.00  0.00     0.049 A 
ATOM     45  N   UNL A   1      42.113  29.873  29.901  1.00  0.00    -0.248 NA
ATOM     46  C   UNL A   1      40.253  31.278  30.030  1.00  0.00     0.031 C 
ATOM     47  C   UNL A   1      39.516  26.639  28.232  1.00  0.00     0.029 A 
ATOM     48  N   UNL A   1      41.578  27.156  28.926  1.00  0.00    -0.354 N 
ATOM     49  C   UNL A   1      42.514  31.129  30.342  1.00  0.00     0.074 A 
ATOM     50  C   UNL A   1      41.337  31.971  30.338  1.00  0.00     0.031 C 
ATOM     51  C   UNL A   1      40.292  25.563  28.026  1.00  0.00     0.029 A 
ATOM     52  C   UNL A   1      41.657  25.874  28.437  1.00  0.00     0.049 A 
ATOM     53  H   UNL A   1      42.347  27.636  29.310  1.00  0.00     0.167 HD
ATOM     54  C   UNL A   1      43.746  31.538  30.732  1.00  0.00     0.037 A 
ATOM     55  C   UNL A   1      42.712  25.044  28.320  1.00  0.00     0.037 A 
ATOM     56  C   UNL A   1      44.904  30.682  30.767  1.00  0.00     0.049 A 
ATOM     57  C   UNL A   1      44.063  25.498  28.797  1.00  0.00     0.074 A 
ATOM     58  C   UNL A   1      46.175  30.972  31.227  1.00  0.00     0.029 A 
ATOM     59  N   UNL A   1      44.931  29.369  30.319  1.00  0.00    -0.354 N 
ATOM     60  N   UNL A   1      44.411  26.665  29.287  1.00  0.00    -0.248 NA
ATOM     61  C   UNL A   1      45.161  24.526  28.718  1.00  0.00     0.031 C 
ATOM     62  C   UNL A   1      46.983  29.848  31.020  1.00  0.00     0.029 A 
ATOM     63  C   UNL A   1      46.203  28.841  30.473  1.00  0.00     0.049 A 
ATOM     64  H   UNL A   1      44.161  28.883  29.946  1.00  0.00     0.167 HD
ATOM     65  C   UNL A   1      45.763  26.562  29.593  1.00  0.00     0.074 A 
ATOM     66  C   UNL A   1      46.167  25.215  29.242  1.00  0.00     0.031 C 
ATOM     67  C   UNL A   1      46.592  27.498  30.119  1.00  0.00     0.037 A 
BRANCH  54  68
ATOM     68  C   UNL A   1      43.897  32.977  31.142  1.00  0.00     0.058 A 
ATOM     69  C   UNL A   1      43.786  33.382  32.482  1.00  0.00     0.135 A 
ATOM     70  C   UNL A   1      44.144  33.969  30.179  1.00  0.00     0.135 A 
ATOM     71  F   UNL A   1      43.538  32.478  33.443  1.00  0.00    -0.206 F 
ATOM     72  C   UNL A   1      43.859  34.722  32.847  1.00  0.00     0.059 A 
ATOM     73  C   UNL A   1      44.252  35.314  30.525  1.00  0.00     0.059 A 
ATOM     74  F   UNL A   1      44.266  33.640  28.883  1.00  0.00    -0.206 F 
ATOM     75  C   UNL A   1      44.083  35.682  31.859  1.00  0.00     0.060 A 
BRANCH  75  76
ATOM     76  S   UNL A   1      44.136  37.421  32.340  1.00  0.00     0.124 S 
ATOM     77  O   UNL A   1      43.113  37.464  33.381  1.00  0.00    -0.237 OA
ATOM     78  O   UNL A   1      45.512  37.579  32.799  1.00  0.00    -0.237 OA
ATOM     79  O   UNL A   1      43.805  38.125  31.105  1.00  0.00    -0.744 OA
ENDBRANCH  75  76
ENDBRANCH  54  68
BRANCH  55  80
ATOM     80  C   UNL A   1      42.511  23.686  27.748  1.00  0.00     0.058 A 
ATOM     81  C   UNL A   1      42.520  23.482  26.360  1.00  0.00     0.135 A 
ATOM     82  C   UNL A   1      42.374  22.561  28.575  1.00  0.00     0.135 A 
ATOM     83  F   UNL A   1      42.639  24.529  25.529  1.00  0.00    -0.206 F 
ATOM     84  C   UNL A   1      42.409  22.209  25.811  1.00  0.00     0.059 A 
ATOM     85  C   UNL A   1      42.282  21.275  28.050  1.00  0.00     0.059 A 
ATOM     86  F   UNL A   1      42.377  22.704  29.910  1.00  0.00    -0.206 F 
ATOM     87  C   UNL A   1      42.302  21.109  26.666  1.00  0.00     0.060 A 
BRANCH  87  88
ATOM     88  S   UNL A   1      42.262  19.453  25.945  1.00  0.00     0.124 S 
ATOM     89  O   UNL A   1      40.846  19.303  25.630  1.00  0.00    -0.237 OA
ATOM     90  O   UNL A   1      43.159  19.596  24.802  1.00  0.00    -0.237 OA
ATOM     91  O   UNL A   1      42.764  18.608  27.023  1.00  0.00    -0.744 OA
ENDBRANCH  87  88
ENDBRANCH  55  80
BRANCH  67  92
ATOM     92  C   UNL A   1      48.017  27.095  30.378  1.00  0.00     0.058 A 
ATOM     93  C   UNL A   1      49.037  27.354  29.449  1.00  0.00     0.135 A 
ATOM     94  C   UNL A   1      48.376  26.499  31.597  1.00  0.00     0.135 A 
ATOM     95  F   UNL A   1      48.746  27.915  28.265  1.00  0.00    -0.206 F 
ATOM     96  C   UNL A   1      50.362  27.021  29.714  1.00  0.00     0.059 A 
ATOM     97  C   UNL A   1      49.697  26.181  31.894  1.00  0.00     0.059 A 
ATOM     98  F   UNL A   1      47.440  26.238  32.524  1.00  0.00    -0.206 F 
ATOM     99  C   UNL A   1      50.682  26.437  30.942  1.00  0.00     0.060 A 
BRANCH  99 100
ATOM    100  S   UNL A   1      52.411  26.048  31.292  1.00  0.00     0.124 S 
ATOM    101  O   UNL A   1      53.000  26.099  29.958  1.00  0.00    -0.237 OA
ATOM    102  O   UNL A   1      52.797  27.126  32.198  1.00  0.00    -0.237 OA
ATOM    103  O   UNL A   1      52.343  24.723  31.900  1.00  0.00    -0.744 OA
ENDBRANCH  99 100
ENDBRANCH  67  92
ENDBRANCH  41  42
ENDBRANCH  33  36
ENDBRANCH  31  32
ENDBRANCH   1  31
TORSDOF 17
ENDMDL
MODEL 2
REMARK VINA RESULT:     -12.5      1.741      2.333
REMARK SMILES CCOc1ccc(-c2cc(Cl)cc3c2O[C@H](C(F)(F)F)C(C(=O)NCCCNC(=O)c2ccc(-c4c5nc(c(-c6c(F)cc(S(=O)(=O)[O-])cc6F)c6ccc([nH]6)c(-c6c(F)cc(S(=O)(=O)[O-])cc6F)c6nc(c(-c7c(F)cc(S(=O)(=O)[O-])cc7F)c7ccc4[nH]7)C=C6)C=C5)cc2)=C3)cc1
REMARK SMILES IDX 26 1 25 2 24 3 22 4 23 5 21 7 8 8 9 9 14 10 10 11 13 12
REMARK SMILES IDX 15 13 11 14 12 15 97 16 16 17 7 18 4 19 5 20 99 21 6 22
REMARK SMILES IDX 98 23 3 24 2 25 1 26 17 27 18 28 19 29 20 30 27 31 28 32
REMARK SMILES IDX 29 33 30 35 31 36 32 37 96 38 33 39 95 40 34 41 35 42 36 43
REMARK SMILES IDX 89 44 37 45 94 46 88 47 90 48 38 49 93 50 87 51 86 52 39 54
REMARK SMILES IDX 73 55 52 56 72 57 53 58 56 59 71 60 91 61 54 62 55 63 70 65
REMARK SMILES IDX 92 66 57 67 40 68 41 69 50 70 42 71 43 72 49 73 51 74 44 75
REMARK SMILES IDX 45 76 46 77 47 78 48 79 74 80 75 81 84 82 76 83 77 84 83 85
REMARK SMILES IDX 85 86 78 87 79 88 80 89 81 90 82 91 58 92 59 93 68 94 60 95
REMARK SMILES IDX 61 96 67 97 69 98 62 99 63 100 64 101 65 102 66 103
REMARK H PARENT 24 6 28 34 90 53 56 64
REMARK Flexibility Score: inf
ROOT
ATOM      1  C   UNL A   1      33.199  29.242  25.264  1.00  0.00     0.042 C 
ENDROOT
BRANCH   1   2
ATOM      2  C   UNL A   1      33.629  28.164  24.268  1.00  0.00     0.118 C 
BRANCH   2   3
ATOM      3  N   UNL A   1      34.203  27.037  24.978  1.00  0.00    -0.352 N 
ATOM      4  C   UNL A   1      33.667  25.798  25.111  1.00  0.00     0.251 C 
ATOM      5  O   UNL A   1      33.795  25.183  26.162  1.00  0.00    -0.270 OA
ATOM      6  H   UNL A   1      35.075  27.187  25.409  1.00  0.00     0.163 HD
BRANCH   4   7
ATOM      7  C   UNL A   1      33.056  25.187  23.894  1.00  0.00     0.067 C 
ATOM      8  C   UNL A   1      33.988  21.280  24.566  1.00  0.00     0.026 A 
ATOM      9  C   UNL A   1      35.352  21.194  24.937  1.00  0.00     0.033 A 
ATOM     10  C   UNL A   1      33.560  22.501  24.022  1.00  0.00     0.135 A 
ATOM     11  C   UNL A   1      36.265  22.207  24.647  1.00  0.00     0.042 A 
ATOM     12  C   UNL A   1      34.515  23.472  23.638  1.00  0.00     0.019 A 
ATOM     13  O   UNL A   1      32.219  22.811  23.860  1.00  0.00    -0.475 OA
ATOM     14  Cl  UNL A   1      37.906  22.037  25.132  1.00  0.00    -0.084 Cl
ATOM     15  C   UNL A   1      35.865  23.328  23.942  1.00  0.00     0.032 A 
ATOM     16  C   UNL A   1      34.008  24.734  23.052  1.00  0.00     0.025 C 
ATOM     17  C   UNL A   1      31.907  24.227  24.191  1.00  0.00     0.314 C 
BRANCH   8  18
ATOM     18  C   UNL A   1      33.226  20.011  24.591  1.00  0.00    -0.014 A 
ATOM     19  C   UNL A   1      32.675  17.243  24.639  1.00  0.00     0.119 A 
ATOM     20  C   UNL A   1      32.673  17.971  25.825  1.00  0.00     0.047 A 
ATOM     21  C   UNL A   1      32.812  17.905  23.423  1.00  0.00     0.047 A 
ATOM     22  C   UNL A   1      32.942  19.347  25.801  1.00  0.00     0.013 A 
ATOM     23  C   UNL A   1      33.083  19.279  23.400  1.00  0.00     0.013 A 
BRANCH  19  24
ATOM     24  O   UNL A   1      32.476  15.893  24.705  1.00  0.00    -0.494 OA
BRANCH  24  25
ATOM     25  C   UNL A   1      33.451  15.209  25.510  1.00  0.00     0.226 C 
ATOM     26  C   UNL A   1      34.860  15.658  25.156  1.00  0.00     0.049 C 
ENDBRANCH  24  25
ENDBRANCH  19  24
ENDBRANCH   8  18
BRANCH  17  27
ATOM     27  C   UNL A   1      30.642  24.709  23.449  1.00  0.00     0.429 C 
ATOM     28  F   UNL A   1      29.932  23.689  22.915  1.00  0.00    -0.167 F 
ATOM     29  F   UNL A   1      29.816  25.391  24.277  1.00  0.00    -0.167 F 
ATOM     30  F   UNL A   1      30.931  25.551  22.421  1.00  0.00    -0.167 F 
ENDBRANCH  17  27
ENDBRANCH   4   7
ENDBRANCH   2   3
ENDBRANCH   1   2
BRANCH   1  31
ATOM     31  C   UNL A   1      33.873  29.148  26.632  1.00  0.00     0.118 C 
BRANCH  31  32
ATOM     32  N   UNL A   1      33.716  30.351  27.436  1.00  0.00    -0.352 N 
ATOM     33  C   UNL A   1      34.587  30.881  28.358  1.00  0.00     0.251 C 
ATOM     34  H   UNL A   1      32.878  30.849  27.302  1.00  0.00     0.163 HD
ATOM     35  O   UNL A   1      34.252  31.839  29.048  1.00  0.00    -0.269 OA
BRANCH  33  36
ATOM     36  C   UNL A   1      35.916  30.260  28.531  1.00  0.00     0.039 A 
ATOM     37  C   UNL A   1      36.841  30.333  27.487  1.00  0.00     0.014 A 
ATOM     38  C   UNL A   1      36.263  29.662  29.745  1.00  0.00     0.014 A 
ATOM     39  C   UNL A   1      38.146  29.877  27.691  1.00  0.00     0.010 A 
ATOM     40  C   UNL A   1      37.581  29.277  29.969  1.00  0.00     0.010 A 
ATOM     41  C   UNL A   1      38.538  29.387  28.948  1.00  0.00    -0.014 A 
BRANCH  41  42
ATOM     42  C   UNL A   1      39.945  29.003  29.230  1.00  0.00     0.031 A 
ATOM     43  C   UNL A   1      40.909  30.020  29.775  1.00  0.00     0.074 A 
ATOM     44  C   UNL A   1      40.383  27.773  28.893  1.00  0.00     0.049 A 
ATOM     45  N   UNL A   1      42.200  29.918  29.966  1.00  0.00    -0.248 NA
ATOM     46  C   UNL A   1      40.354  31.340  30.111  1.00  0.00     0.031 C 
ATOM     47  C   UNL A   1      39.563  26.718  28.294  1.00  0.00     0.029 A 
ATOM     48  N   UNL A   1      41.632  27.211  28.981  1.00  0.00    -0.354 N 
ATOM     49  C   UNL A   1      42.616  31.167  30.412  1.00  0.00     0.074 A 
ATOM     50  C   UNL A   1      41.447  32.021  30.417  1.00  0.00     0.031 C 
ATOM     51  C   UNL A   1      40.327  25.636  28.078  1.00  0.00     0.029 A 
ATOM     52  C   UNL A   1      41.697  25.930  28.485  1.00  0.00     0.049 A 
ATOM     53  H   UNL A   1      42.409  27.681  29.363  1.00  0.00     0.167 HD
ATOM     54  C   UNL A   1      43.853  31.562  30.798  1.00  0.00     0.037 A 
ATOM     55  C   UNL A   1      42.743  25.090  28.359  1.00  0.00     0.037 A 
ATOM     56  C   UNL A   1      45.002  30.694  30.822  1.00  0.00     0.049 A 
ATOM     57  C   UNL A   1      44.100  25.529  28.832  1.00  0.00     0.074 A 
ATOM     58  C   UNL A   1      46.279  30.970  31.278  1.00  0.00     0.029 A 
ATOM     59  N   UNL A   1      45.015  29.383  30.368  1.00  0.00    -0.354 N 
ATOM     60  N   UNL A   1      44.462  26.690  29.325  1.00  0.00    -0.248 NA
ATOM     61  C   UNL A   1      45.189  24.547  28.743  1.00  0.00     0.031 C 
ATOM     62  C   UNL A   1      47.074  29.838  31.062  1.00  0.00     0.029 A 
ATOM     63  C   UNL A   1      46.281  28.842  30.514  1.00  0.00     0.049 A 
ATOM     64  H   UNL A   1      44.238  28.907  29.997  1.00  0.00     0.167 HD
ATOM     65  C   UNL A   1      45.815  26.572  29.624  1.00  0.00     0.074 A 
ATOM     66  C   UNL A   1      46.204  25.222  29.265  1.00  0.00     0.031 C 
ATOM     67  C   UNL A   1      46.656  27.497  30.151  1.00  0.00     0.037 A 
BRANCH  54  68
ATOM     68  C   UNL A   1      44.021  32.998  31.214  1.00  0.00     0.058 A 
ATOM     69  C   UNL A   1      44.390  33.996  30.298  1.00  0.00     0.135 A 
ATOM     70  C   UNL A   1      43.824  33.379  32.550  1.00  0.00     0.135 A 
ATOM     71  F   UNL A   1      44.604  33.686  29.009  1.00  0.00    -0.206 F 
ATOM     72  C   UNL A   1      44.611  35.309  30.700  1.00  0.00     0.059 A 
ATOM     73  C   UNL A   1      44.008  34.694  32.971  1.00  0.00     0.059 A 
ATOM     74  F   UNL A   1      43.464  32.468  33.469  1.00  0.00    -0.206 F 
ATOM     75  C   UNL A   1      44.427  35.646  32.042  1.00  0.00     0.060 A 
BRANCH  75  76
ATOM     76  S   UNL A   1      44.755  37.344  32.560  1.00  0.00     0.124 S 
ATOM     77  O   UNL A   1      45.454  37.872  31.392  1.00  0.00    -0.237 OA
ATOM     78  O   UNL A   1      43.412  37.870  32.784  1.00  0.00    -0.237 OA
ATOM     79  O   UNL A   1      45.570  37.182  33.759  1.00  0.00    -0.744 OA
ENDBRANCH  75  76
ENDBRANCH  54  68
BRANCH  55  80
ATOM     80  C   UNL A   1      42.525  23.738  27.781  1.00  0.00     0.058 A 
ATOM     81  C   UNL A   1      42.527  23.540  26.392  1.00  0.00     0.135 A 
ATOM     82  C   UNL A   1      42.380  22.611  28.603  1.00  0.00     0.135 A 
ATOM     83  F   UNL A   1      42.654  24.590  25.566  1.00  0.00    -0.206 F 
ATOM     84  C   UNL A   1      42.401  22.271  25.837  1.00  0.00     0.059 A 
ATOM     85  C   UNL A   1      42.273  21.328  28.072  1.00  0.00     0.059 A 
ATOM     86  F   UNL A   1      42.390  22.747  29.938  1.00  0.00    -0.206 F 
ATOM     87  C   UNL A   1      42.285  21.169  26.687  1.00  0.00     0.060 A 
BRANCH  87  88
ATOM     88  S   UNL A   1      42.226  19.517  25.959  1.00  0.00     0.124 S 
ATOM     89  O   UNL A   1      43.126  19.665  24.821  1.00  0.00    -0.237 OA
ATOM     90  O   UNL A   1      42.712  18.682  27.053  1.00  0.00    -0.237 OA
ATOM     91  O   UNL A   1      40.815  19.346  25.631  1.00  0.00    -0.744 OA
ENDBRANCH  87  88
ENDBRANCH  55  80
BRANCH  67  92
ATOM     92  C   UNL A   1      48.078  27.078  30.401  1.00  0.00     0.058 A 
ATOM     93  C   UNL A   1      49.075  27.232  29.425  1.00  0.00     0.135 A 
ATOM     94  C   UNL A   1      48.460  26.575  31.655  1.00  0.00     0.135 A 
ATOM     95  F   UNL A   1      48.761  27.702  28.207  1.00  0.00    -0.206 F 
ATOM     96  C   UNL A   1      50.398  26.888  29.678  1.00  0.00     0.059 A 
ATOM     97  C   UNL A   1      49.782  26.247  31.939  1.00  0.00     0.059 A 
ATOM     98  F   UNL A   1      47.547  26.416  32.627  1.00  0.00    -0.206 F 
ATOM     99  C   UNL A   1      50.742  26.398  30.940  1.00  0.00     0.060 A 
BRANCH  99 100
ATOM    100  S   UNL A   1      52.471  25.993  31.272  1.00  0.00     0.124 S 
ATOM    101  O   UNL A   1      53.048  26.048  29.932  1.00  0.00    -0.237 OA
ATOM    102  O   UNL A   1      52.875  27.061  32.180  1.00  0.00    -0.237 OA
ATOM    103  O   UNL A   1      52.399  24.664  31.872  1.00  0.00    -0.744 OA
ENDBRANCH  99 100
ENDBRANCH  67  92
ENDBRANCH  41  42
ENDBRANCH  33  36
ENDBRANCH  31  32
ENDBRANCH   1  31
TORSDOF 17
ENDMDL
MODEL 3
REMARK VINA RESULT:     -12.4      5.268     10.907
REMARK SMILES CCOc1ccc(-c2cc(Cl)cc3c2O[C@H](C(F)(F)F)C(C(=O)NCCCNC(=O)c2ccc(-c4c5nc(c(-c6c(F)cc(S(=O)(=O)[O-])cc6F)c6ccc([nH]6)c(-c6c(F)cc(S(=O)(=O)[O-])cc6F)c6nc(c(-c7c(F)cc(S(=O)(=O)[O-])cc7F)c7ccc4[nH]7)C=C6)C=C5)cc2)=C3)cc1
REMARK SMILES IDX 26 1 25 2 24 3 22 4 23 5 21 7 8 8 9 9 14 10 10 11 13 12
REMARK SMILES IDX 15 13 11 14 12 15 97 16 16 17 7 18 4 19 5 20 99 21 6 22
REMARK SMILES IDX 98 23 3 24 2 25 1 26 17 27 18 28 19 29 20 30 27 31 28 32
REMARK SMILES IDX 29 33 30 35 31 36 32 37 96 38 33 39 95 40 34 41 35 42 36 43
REMARK SMILES IDX 89 44 37 45 94 46 88 47 90 48 38 49 93 50 87 51 86 52 39 54
REMARK SMILES IDX 73 55 52 56 72 57 53 58 56 59 71 60 91 61 54 62 55 63 70 65
REMARK SMILES IDX 92 66 57 67 40 68 41 69 50 70 42 71 43 72 49 73 51 74 44 75
REMARK SMILES IDX 45 76 46 77 47 78 48 79 74 80 75 81 84 82 76 83 77 84 83 85
REMARK SMILES IDX 85 86 78 87 79 88 80 89 81 90 82 91 58 92 59 93 68 94 60 95
REMARK SMILES IDX 61 96 67 97 69 98 62 99 63 100 64 101 65 102 66 103
REMARK H PARENT 24 6 28 34 90 53 56 64
REMARK Flexibility Score: inf
ROOT
ATOM      1  C   UNL A   1      37.322  22.907  25.913  1.00  0.00     0.042 C 
ENDROOT
BRANCH   1   2
ATOM      2  C   UNL A   1      35.831  23.248  25.886  1.00  0.00     0.118 C 
BRANCH   2   3
ATOM      3  N   UNL A   1      35.601  24.390  25.023  1.00  0.00    -0.352 N 
ATOM      4  C   UNL A   1      34.507  24.624  24.256  1.00  0.00     0.251 C 
ATOM      5  O   UNL A   1      34.631  25.139  23.151  1.00  0.00    -0.270 OA
ATOM      6  H   UNL A   1      36.314  25.067  24.990  1.00  0.00     0.163 HD
BRANCH   4   7
ATOM      7  C   UNL A   1      33.174  24.363  24.873  1.00  0.00     0.067 C 
ATOM      8  C   UNL A   1      31.637  28.132  24.773  1.00  0.00     0.026 A 
ATOM      9  C   UNL A   1      32.611  29.035  25.265  1.00  0.00     0.033 A 
ATOM     10  C   UNL A   1      31.874  26.767  24.996  1.00  0.00     0.135 A 
ATOM     11  C   UNL A   1      33.678  28.615  26.058  1.00  0.00     0.042 A 
ATOM     12  C   UNL A   1      32.898  26.370  25.889  1.00  0.00     0.019 A 
ATOM     13  O   UNL A   1      31.153  25.774  24.354  1.00  0.00    -0.475 OA
ATOM     14  Cl  UNL A   1      34.826  29.767  26.616  1.00  0.00    -0.084 Cl
ATOM     15  C   UNL A   1      33.796  27.287  26.425  1.00  0.00     0.032 A 
ATOM     16  C   UNL A   1      33.093  24.917  26.100  1.00  0.00     0.025 C 
ATOM     17  C   UNL A   1      31.996  24.621  23.938  1.00  0.00     0.314 C 
BRANCH   8  18
ATOM     18  C   UNL A   1      30.380  28.738  24.277  1.00  0.00    -0.014 A 
ATOM     19  C   UNL A   1      28.556  30.046  22.565  1.00  0.00     0.119 A 
ATOM     20  C   UNL A   1      28.571  28.656  22.630  1.00  0.00     0.047 A 
ATOM     21  C   UNL A   1      29.342  30.787  23.442  1.00  0.00     0.047 A 
ATOM     22  C   UNL A   1      29.474  28.006  23.485  1.00  0.00     0.013 A 
ATOM     23  C   UNL A   1      30.245  30.137  24.293  1.00  0.00     0.013 A 
BRANCH  19  24
ATOM     24  O   UNL A   1      27.711  30.646  21.674  1.00  0.00    -0.494 OA
BRANCH  24  25
ATOM     25  C   UNL A   1      28.388  31.463  20.706  1.00  0.00     0.226 C 
ATOM     26  C   UNL A   1      27.709  32.816  20.564  1.00  0.00     0.049 C 
ENDBRANCH  24  25
ENDBRANCH  19  24
ENDBRANCH   8  18
BRANCH  17  27
ATOM     27  C   UNL A   1      31.157  23.331  23.815  1.00  0.00     0.429 C 
ATOM     28  F   UNL A   1      31.860  22.300  23.291  1.00  0.00    -0.167 F 
ATOM     29  F   UNL A   1      30.687  22.932  25.021  1.00  0.00    -0.167 F 
ATOM     30  F   UNL A   1      30.068  23.493  23.017  1.00  0.00    -0.167 F 
ENDBRANCH  17  27
ENDBRANCH   4   7
ENDBRANCH   2   3
ENDBRANCH   1   2
BRANCH   1  31
ATOM     31  C   UNL A   1      38.229  24.058  26.348  1.00  0.00     0.118 C 
BRANCH  31  32
ATOM     32  N   UNL A   1      39.644  23.777  26.163  1.00  0.00    -0.352 N 
ATOM     33  C   UNL A   1      40.724  24.487  26.635  1.00  0.00     0.251 C 
ATOM     34  H   UNL A   1      39.857  22.976  25.631  1.00  0.00     0.163 HD
ATOM     35  O   UNL A   1      41.862  24.189  26.285  1.00  0.00    -0.269 OA
BRANCH  33  36
ATOM     36  C   UNL A   1      40.491  25.632  27.538  1.00  0.00     0.039 A 
ATOM     37  C   UNL A   1      39.508  25.530  28.524  1.00  0.00     0.014 A 
ATOM     38  C   UNL A   1      41.288  26.776  27.446  1.00  0.00     0.014 A 
ATOM     39  C   UNL A   1      39.377  26.547  29.473  1.00  0.00     0.010 A 
ATOM     40  C   UNL A   1      41.205  27.751  28.435  1.00  0.00     0.010 A 
ATOM     41  C   UNL A   1      40.255  27.645  29.463  1.00  0.00    -0.014 A 
BRANCH  41  42
ATOM     42  C   UNL A   1      40.217  28.682  30.525  1.00  0.00     0.031 A 
ATOM     43  C   UNL A   1      41.080  28.541  31.748  1.00  0.00     0.074 A 
ATOM     44  C   UNL A   1      39.329  29.693  30.441  1.00  0.00     0.049 A 
ATOM     45  N   UNL A   1      41.098  29.267  32.837  1.00  0.00    -0.248 NA
ATOM     46  C   UNL A   1      42.019  27.408  31.766  1.00  0.00     0.031 C 
ATOM     47  C   UNL A   1      38.390  29.904  29.337  1.00  0.00     0.029 A 
ATOM     48  N   UNL A   1      39.052  30.717  31.311  1.00  0.00    -0.354 N 
ATOM     49  C   UNL A   1      42.022  28.660  33.680  1.00  0.00     0.074 A 
ATOM     50  C   UNL A   1      42.507  27.482  32.994  1.00  0.00     0.031 C 
ATOM     51  C   UNL A   1      37.648  30.993  29.592  1.00  0.00     0.029 A 
ATOM     52  C   UNL A   1      38.030  31.536  30.892  1.00  0.00     0.049 A 
ATOM     53  H   UNL A   1      39.539  30.853  32.156  1.00  0.00     0.167 HD
ATOM     54  C   UNL A   1      42.440  29.058  34.906  1.00  0.00     0.037 A 
ATOM     55  C   UNL A   1      37.453  32.597  31.490  1.00  0.00     0.037 A 
ATOM     56  C   UNL A   1      41.978  30.251  35.566  1.00  0.00     0.049 A 
ATOM     57  C   UNL A   1      37.959  33.050  32.831  1.00  0.00     0.074 A 
ATOM     58  C   UNL A   1      42.401  30.790  36.767  1.00  0.00     0.029 A 
ATOM     59  N   UNL A   1      40.983  31.089  35.081  1.00  0.00    -0.354 N 
ATOM     60  N   UNL A   1      38.890  32.510  33.582  1.00  0.00    -0.248 NA
ATOM     61  C   UNL A   1      37.349  34.258  33.402  1.00  0.00     0.031 C 
ATOM     62  C   UNL A   1      41.635  31.932  37.029  1.00  0.00     0.029 A 
ATOM     63  C   UNL A   1      40.765  32.130  35.969  1.00  0.00     0.049 A 
ATOM     64  H   UNL A   1      40.502  30.963  34.232  1.00  0.00     0.167 HD
ATOM     65  C   UNL A   1      38.992  33.323  34.706  1.00  0.00     0.074 A 
ATOM     66  C   UNL A   1      38.033  34.397  34.530  1.00  0.00     0.031 C 
ATOM     67  C   UNL A   1      39.807  33.193  35.782  1.00  0.00     0.037 A 
BRANCH  54  68
ATOM     68  C   UNL A   1      43.442  28.184  35.610  1.00  0.00     0.058 A 
ATOM     69  C   UNL A   1      43.048  27.075  36.377  1.00  0.00     0.135 A 
ATOM     70  C   UNL A   1      44.815  28.466  35.528  1.00  0.00     0.135 A 
ATOM     71  F   UNL A   1      41.747  26.765  36.500  1.00  0.00    -0.206 F 
ATOM     72  C   UNL A   1      43.972  26.311  37.081  1.00  0.00     0.059 A 
ATOM     73  C   UNL A   1      45.761  27.696  36.200  1.00  0.00     0.059 A 
ATOM     74  F   UNL A   1      45.250  29.510  34.805  1.00  0.00    -0.206 F 
ATOM     75  C   UNL A   1      45.327  26.637  36.994  1.00  0.00     0.060 A 
BRANCH  75  76
ATOM     76  S   UNL A   1      46.513  25.662  37.945  1.00  0.00     0.124 S 
ATOM     77  O   UNL A   1      46.830  24.594  37.001  1.00  0.00    -0.237 OA
ATOM     78  O   UNL A   1      47.582  26.623  38.195  1.00  0.00    -0.237 OA
ATOM     79  O   UNL A   1      45.751  25.254  39.121  1.00  0.00    -0.744 OA
ENDBRANCH  75  76
ENDBRANCH  54  68
BRANCH  55  80
ATOM     80  C   UNL A   1      36.349  33.312  30.798  1.00  0.00     0.058 A 
ATOM     81  C   UNL A   1      35.027  33.210  31.255  1.00  0.00     0.135 A 
ATOM     82  C   UNL A   1      36.603  34.165  29.712  1.00  0.00     0.135 A 
ATOM     83  F   UNL A   1      34.735  32.401  32.285  1.00  0.00    -0.206 F 
ATOM     84  C   UNL A   1      33.995  33.932  30.666  1.00  0.00     0.059 A 
ATOM     85  C   UNL A   1      35.591  34.913  29.120  1.00  0.00     0.059 A 
ATOM     86  F   UNL A   1      37.855  34.309  29.250  1.00  0.00    -0.206 F 
ATOM     87  C   UNL A   1      34.289  34.791  29.604  1.00  0.00     0.060 A 
BRANCH  87  88
ATOM     88  S   UNL A   1      32.960  35.802  28.915  1.00  0.00     0.124 S 
ATOM     89  O   UNL A   1      33.710  36.861  28.251  1.00  0.00    -0.237 OA
ATOM     90  O   UNL A   1      32.279  34.855  28.037  1.00  0.00    -0.237 OA
ATOM     91  O   UNL A   1      32.202  36.206  30.094  1.00  0.00    -0.744 OA
ENDBRANCH  87  88
ENDBRANCH  55  80
BRANCH  67  92
ATOM     92  C   UNL A   1      39.724  34.251  36.847  1.00  0.00     0.058 A 
ATOM     93  C   UNL A   1      38.899  34.101  37.973  1.00  0.00     0.135 A 
ATOM     94  C   UNL A   1      40.527  35.399  36.770  1.00  0.00     0.135 A 
ATOM     95  F   UNL A   1      38.106  33.024  38.091  1.00  0.00    -0.206 F 
ATOM     96  C   UNL A   1      38.863  35.061  38.979  1.00  0.00     0.059 A 
ATOM     97  C   UNL A   1      40.525  36.361  37.776  1.00  0.00     0.059 A 
ATOM     98  F   UNL A   1      41.340  35.587  35.718  1.00  0.00    -0.206 F 
ATOM     99  C   UNL A   1      39.682  36.187  38.872  1.00  0.00     0.060 A 
BRANCH  99 100
ATOM    100  S   UNL A   1      39.656  37.407  40.203  1.00  0.00     0.124 S 
ATOM    101  O   UNL A   1      38.952  36.681  41.255  1.00  0.00    -0.237 OA
ATOM    102  O   UNL A   1      41.078  37.643  40.439  1.00  0.00    -0.237 OA
ATOM    103  O   UNL A   1      38.930  38.531  39.620  1.00  0.00    -0.744 OA
ENDBRANCH  99 100
ENDBRANCH  67  92
ENDBRANCH  41  42
ENDBRANCH  33  36
ENDBRANCH  31  32
ENDBRANCH   1  31
TORSDOF 17
ENDMDL
