MODEL 1
REMARK VINA RESULT:     -13.1      0.000      0.000
REMARK SMILES C[C@H](c1ccccc1)N1C(=O)c2ccc(C(=O)NCCCNC(=O)c3ccc(-c4c5nc(c(-c6c(F)cc(S(=O)(=O)[O-])cc6F)c6ccc([nH]6)c(-c6c(F)cc(S(=O)(=O)[O-])cc6F)c6nc(c(-c7c(F)cc(S(=O)(=O)[O-])cc7F)c7ccc4[nH]7)C=C6)C=C5)cc3)cc2C1=O
REMARK SMILES IDX 20 1 19 2 18 3 16 4 17 5 15 7 9 8 10 9 93 10 11 11 12 12
REMARK SMILES IDX 92 13 94 14 13 15 91 16 14 17 2 18 1 19 3 20 4 21 8 22 5 23
REMARK SMILES IDX 7 24 6 25 21 26 22 27 23 28 24 30 25 31 26 32 90 33 27 34
REMARK SMILES IDX 89 35 28 36 29 37 30 38 83 39 31 40 88 41 82 42 84 43 32 44
REMARK SMILES IDX 87 45 81 46 80 47 33 49 67 50 46 51 66 52 47 53 50 54 65 55
REMARK SMILES IDX 85 56 48 57 49 58 64 60 86 61 51 62 34 63 35 64 44 65 36 66
REMARK SMILES IDX 37 67 43 68 45 69 38 70 39 71 40 72 41 73 42 74 68 75 69 76
REMARK SMILES IDX 78 77 70 78 71 79 77 80 79 81 72 82 73 83 74 84 75 85 76 86
REMARK SMILES IDX 52 87 53 88 62 89 54 90 55 91 61 92 63 93 56 94 57 95 58 96
REMARK SMILES IDX 59 97 60 98
REMARK H PARENT 18 6 22 29 84 48 50 59
REMARK Flexibility Score: inf
ROOT
ATOM      1  C   UNL A   1      39.907  22.650  27.470  1.00  0.00     0.042 C 
ENDROOT
BRANCH   1   2
ATOM      2  C   UNL A   1      38.914  23.225  26.463  1.00  0.00     0.118 C 
BRANCH   2   3
ATOM      3  N   UNL A   1      38.563  22.301  25.397  1.00  0.00    -0.352 N 
ATOM      4  C   UNL A   1      37.363  21.910  24.867  1.00  0.00     0.251 C 
ATOM      5  O   UNL A   1      37.355  21.030  24.006  1.00  0.00    -0.269 OA
ATOM      6  H   UNL A   1      39.341  21.872  24.974  1.00  0.00     0.163 HD
BRANCH   4   7
ATOM      7  C   UNL A   1      36.063  22.469  25.311  1.00  0.00     0.040 A 
ATOM      8  N   UNL A   1      32.200  24.959  25.577  1.00  0.00    -0.267 N 
ATOM      9  C   UNL A   1      32.381  24.027  26.564  1.00  0.00     0.262 C 
ATOM     10  C   UNL A   1      33.281  24.994  24.734  1.00  0.00     0.262 C 
ATOM     11  O   UNL A   1      31.730  23.786  27.562  1.00  0.00    -0.269 OA
ATOM     12  C   UNL A   1      33.622  23.326  26.261  1.00  0.00     0.053 A 
ATOM     13  C   UNL A   1      34.198  23.938  25.165  1.00  0.00     0.054 A 
ATOM     14  O   UNL A   1      33.509  25.739  23.799  1.00  0.00    -0.269 OA
ATOM     15  C   UNL A   1      34.198  22.241  26.889  1.00  0.00     0.015 A 
ATOM     16  C   UNL A   1      35.418  23.526  24.654  1.00  0.00     0.028 A 
ATOM     17  C   UNL A   1      35.430  21.808  26.396  1.00  0.00     0.015 A 
BRANCH   8  18
ATOM     18  C   UNL A   1      31.054  25.863  25.454  1.00  0.00     0.121 C 
ATOM     19  C   UNL A   1      30.351  25.732  24.099  1.00  0.00     0.037 C 
BRANCH  18  20
ATOM     20  C   UNL A   1      31.415  27.305  25.801  1.00  0.00    -0.025 A 
ATOM     21  C   UNL A   1      31.845  27.680  27.084  1.00  0.00     0.006 A 
ATOM     22  C   UNL A   1      31.303  28.310  24.827  1.00  0.00     0.006 A 
ATOM     23  C   UNL A   1      32.105  29.015  27.401  1.00  0.00     0.000 A 
ATOM     24  C   UNL A   1      31.590  29.645  25.136  1.00  0.00     0.000 A 
ATOM     25  C   UNL A   1      31.976  29.998  26.426  1.00  0.00     0.000 A 
ENDBRANCH  18  20
ENDBRANCH   8  18
ENDBRANCH   4   7
ENDBRANCH   2   3
ENDBRANCH   1   2
BRANCH   1  26
ATOM     26  C   UNL A   1      41.351  23.131  27.329  1.00  0.00     0.118 C 
BRANCH  26  27
ATOM     27  N   UNL A   1      41.553  24.024  26.200  1.00  0.00    -0.352 N 
ATOM     28  C   UNL A   1      41.439  25.387  26.084  1.00  0.00     0.251 C 
ATOM     29  H   UNL A   1      41.820  23.568  25.368  1.00  0.00     0.163 HD
ATOM     30  O   UNL A   1      41.515  25.885  24.961  1.00  0.00    -0.269 OA
BRANCH  28  31
ATOM     31  C   UNL A   1      41.213  26.266  27.256  1.00  0.00     0.039 A 
ATOM     32  C   UNL A   1      42.150  27.273  27.520  1.00  0.00     0.014 A 
ATOM     33  C   UNL A   1      40.149  26.076  28.141  1.00  0.00     0.014 A 
ATOM     34  C   UNL A   1      41.995  28.111  28.629  1.00  0.00     0.010 A 
ATOM     35  C   UNL A   1      39.955  26.957  29.209  1.00  0.00     0.010 A 
ATOM     36  C   UNL A   1      40.879  27.979  29.470  1.00  0.00    -0.014 A 
BRANCH  36  37
ATOM     37  C   UNL A   1      40.682  28.896  30.625  1.00  0.00     0.031 A 
ATOM     38  C   UNL A   1      41.532  28.766  31.862  1.00  0.00     0.074 A 
ATOM     39  C   UNL A   1      39.707  29.826  30.578  1.00  0.00     0.049 A 
ATOM     40  N   UNL A   1      41.486  29.457  32.973  1.00  0.00    -0.248 NA
ATOM     41  C   UNL A   1      42.550  27.705  31.860  1.00  0.00     0.031 C 
ATOM     42  C   UNL A   1      38.778  30.020  29.462  1.00  0.00     0.029 A 
ATOM     43  N   UNL A   1      39.331  30.779  31.491  1.00  0.00    -0.354 N 
ATOM     44  C   UNL A   1      42.452  28.905  33.806  1.00  0.00     0.074 A 
ATOM     45  C   UNL A   1      43.039  27.794  33.089  1.00  0.00     0.031 C 
ATOM     46  C   UNL A   1      37.956  31.045  29.746  1.00  0.00     0.029 A 
ATOM     47  C   UNL A   1      38.282  31.564  31.071  1.00  0.00     0.049 A 
ATOM     48  H   UNL A   1      39.769  30.890  32.365  1.00  0.00     0.167 HD
ATOM     49  C   UNL A   1      42.832  29.300  35.047  1.00  0.00     0.037 A 
ATOM     50  C   UNL A   1      37.658  32.590  31.679  1.00  0.00     0.037 A 
ATOM     51  C   UNL A   1      42.272  30.429  35.745  1.00  0.00     0.049 A 
ATOM     52  C   UNL A   1      38.127  33.040  33.035  1.00  0.00     0.074 A 
ATOM     53  C   UNL A   1      42.630  30.942  36.980  1.00  0.00     0.029 A 
ATOM     54  N   UNL A   1      41.241  31.223  35.268  1.00  0.00    -0.354 N 
ATOM     55  N   UNL A   1      39.081  32.540  33.784  1.00  0.00    -0.248 NA
ATOM     56  C   UNL A   1      37.445  34.200  33.623  1.00  0.00     0.031 C 
ATOM     57  C   UNL A   1      41.798  32.033  37.260  1.00  0.00     0.029 A 
ATOM     58  C   UNL A   1      40.945  32.219  36.185  1.00  0.00     0.049 A 
ATOM     59  H   UNL A   1      40.787  31.098  34.404  1.00  0.00     0.167 HD
ATOM     60  C   UNL A   1      39.128  33.338  34.921  1.00  0.00     0.074 A 
ATOM     61  C   UNL A   1      38.117  34.360  34.756  1.00  0.00     0.031 C 
ATOM     62  C   UNL A   1      39.937  33.232  36.005  1.00  0.00     0.037 A 
BRANCH  49  63
ATOM     63  C   UNL A   1      43.916  28.508  35.724  1.00  0.00     0.058 A 
ATOM     64  C   UNL A   1      45.274  28.806  35.529  1.00  0.00     0.135 A 
ATOM     65  C   UNL A   1      43.596  27.455  36.597  1.00  0.00     0.135 A 
ATOM     66  F   UNL A   1      45.636  29.793  34.695  1.00  0.00    -0.206 F 
ATOM     67  C   UNL A   1      46.277  28.069  36.150  1.00  0.00     0.059 A 
ATOM     68  C   UNL A   1      44.583  26.720  37.247  1.00  0.00     0.059 A 
ATOM     69  F   UNL A   1      42.313  27.129  36.821  1.00  0.00    -0.206 F 
ATOM     70  C   UNL A   1      45.922  27.024  37.004  1.00  0.00     0.060 A 
BRANCH  70  71
ATOM     71  S   UNL A   1      47.233  26.070  37.797  1.00  0.00     0.124 S 
ATOM     72  O   UNL A   1      46.533  24.833  38.129  1.00  0.00    -0.237 OA
ATOM     73  O   UNL A   1      48.234  25.967  36.740  1.00  0.00    -0.237 OA
ATOM     74  O   UNL A   1      47.614  26.900  38.935  1.00  0.00    -0.744 OA
ENDBRANCH  70  71
ENDBRANCH  49  63
BRANCH  50  75
ATOM     75  C   UNL A   1      36.544  33.292  30.989  1.00  0.00     0.058 A 
ATOM     76  C   UNL A   1      35.217  33.122  31.411  1.00  0.00     0.135 A 
ATOM     77  C   UNL A   1      36.785  34.160  29.914  1.00  0.00     0.135 A 
ATOM     78  F   UNL A   1      34.939  32.298  32.432  1.00  0.00    -0.206 F 
ATOM     79  C   UNL A   1      34.165  33.777  30.782  1.00  0.00     0.059 A 
ATOM     80  C   UNL A   1      35.750  34.843  29.282  1.00  0.00     0.059 A 
ATOM     81  F   UNL A   1      38.040  34.369  29.486  1.00  0.00    -0.206 F 
ATOM     82  C   UNL A   1      34.441  34.638  29.719  1.00  0.00     0.060 A 
BRANCH  82  83
ATOM     83  S   UNL A   1      33.076  35.533  28.946  1.00  0.00     0.124 S 
ATOM     84  O   UNL A   1      33.789  36.534  28.161  1.00  0.00    -0.237 OA
ATOM     85  O   UNL A   1      32.408  34.482  28.185  1.00  0.00    -0.237 OA
ATOM     86  O   UNL A   1      32.323  36.042  30.089  1.00  0.00    -0.744 OA
ENDBRANCH  82  83
ENDBRANCH  50  75
BRANCH  62  87
ATOM     87  C   UNL A   1      39.776  34.266  37.082  1.00  0.00     0.058 A 
ATOM     88  C   UNL A   1      40.385  35.527  36.988  1.00  0.00     0.135 A 
ATOM     89  C   UNL A   1      38.985  34.000  38.210  1.00  0.00     0.135 A 
ATOM     90  F   UNL A   1      41.156  35.828  35.931  1.00  0.00    -0.206 F 
ATOM     91  C   UNL A   1      40.238  36.479  37.991  1.00  0.00     0.059 A 
ATOM     92  C   UNL A   1      38.806  34.946  39.215  1.00  0.00     0.059 A 
ATOM     93  F   UNL A   1      38.373  32.812  38.343  1.00  0.00    -0.206 F 
ATOM     94  C   UNL A   1      39.450  36.178  39.104  1.00  0.00     0.060 A 
BRANCH  94  95
ATOM     95  S   UNL A   1      39.255  37.424  40.395  1.00  0.00     0.124 S 
ATOM     96  O   UNL A   1      38.770  36.617  41.510  1.00  0.00    -0.237 OA
ATOM     97  O   UNL A   1      40.610  37.950  40.536  1.00  0.00    -0.237 OA
ATOM     98  O   UNL A   1      38.285  38.353  39.823  1.00  0.00    -0.744 OA
ENDBRANCH  94  95
ENDBRANCH  62  87
ENDBRANCH  36  37
ENDBRANCH  28  31
ENDBRANCH  26  27
ENDBRANCH   1  26
TORSDOF 15
ENDMDL
MODEL 2
REMARK VINA RESULT:     -13.1      0.559      1.252
REMARK SMILES C[C@H](c1ccccc1)N1C(=O)c2ccc(C(=O)NCCCNC(=O)c3ccc(-c4c5nc(c(-c6c(F)cc(S(=O)(=O)[O-])cc6F)c6ccc([nH]6)c(-c6c(F)cc(S(=O)(=O)[O-])cc6F)c6nc(c(-c7c(F)cc(S(=O)(=O)[O-])cc7F)c7ccc4[nH]7)C=C6)C=C5)cc3)cc2C1=O
REMARK SMILES IDX 20 1 19 2 18 3 16 4 17 5 15 7 9 8 10 9 93 10 11 11 12 12
REMARK SMILES IDX 92 13 94 14 13 15 91 16 14 17 2 18 1 19 3 20 4 21 8 22 5 23
REMARK SMILES IDX 7 24 6 25 21 26 22 27 23 28 24 30 25 31 26 32 90 33 27 34
REMARK SMILES IDX 89 35 28 36 29 37 30 38 83 39 31 40 88 41 82 42 84 43 32 44
REMARK SMILES IDX 87 45 81 46 80 47 33 49 67 50 46 51 66 52 47 53 50 54 65 55
REMARK SMILES IDX 85 56 48 57 49 58 64 60 86 61 51 62 34 63 35 64 44 65 36 66
REMARK SMILES IDX 37 67 43 68 45 69 38 70 39 71 40 72 41 73 42 74 68 75 69 76
REMARK SMILES IDX 78 77 70 78 71 79 77 80 79 81 72 82 73 83 74 84 75 85 76 86
REMARK SMILES IDX 52 87 53 88 62 89 54 90 55 91 61 92 63 93 56 94 57 95 58 96
REMARK SMILES IDX 59 97 60 98
REMARK H PARENT 18 6 22 29 84 48 50 59
REMARK Flexibility Score: inf
ROOT
ATOM      1  C   UNL A   1      39.592  21.870  26.485  1.00  0.00     0.042 C 
ENDROOT
BRANCH   1   2
ATOM      2  C   UNL A   1      38.273  22.195  25.790  1.00  0.00     0.118 C 
BRANCH   2   3
ATOM      3  N   UNL A   1      37.479  21.020  25.465  1.00  0.00    -0.352 N 
ATOM      4  C   UNL A   1      36.174  20.859  25.087  1.00  0.00     0.251 C 
ATOM      5  O   UNL A   1      35.734  19.718  24.953  1.00  0.00    -0.269 OA
ATOM      6  H   UNL A   1      37.980  20.176  25.529  1.00  0.00     0.163 HD
BRANCH   4   7
ATOM      7  C   UNL A   1      35.249  21.998  24.871  1.00  0.00     0.040 A 
ATOM      8  N   UNL A   1      31.959  25.168  25.439  1.00  0.00    -0.267 N 
ATOM      9  C   UNL A   1      32.652  25.229  24.260  1.00  0.00     0.262 C 
ATOM     10  C   UNL A   1      32.366  24.095  26.190  1.00  0.00     0.262 C 
ATOM     11  O   UNL A   1      32.500  25.935  23.282  1.00  0.00    -0.269 OA
ATOM     12  C   UNL A   1      33.666  24.184  24.310  1.00  0.00     0.053 A 
ATOM     13  C   UNL A   1      33.472  23.461  25.471  1.00  0.00     0.054 A 
ATOM     14  O   UNL A   1      31.930  23.682  27.249  1.00  0.00    -0.269 OA
ATOM     15  C   UNL A   1      34.676  23.890  23.418  1.00  0.00     0.015 A 
ATOM     16  C   UNL A   1      34.255  22.364  25.791  1.00  0.00     0.028 A 
ATOM     17  C   UNL A   1      35.478  22.787  23.714  1.00  0.00     0.015 A 
BRANCH   8  18
ATOM     18  C   UNL A   1      30.874  26.066  25.841  1.00  0.00     0.121 C 
ATOM     19  C   UNL A   1      29.646  25.942  24.934  1.00  0.00     0.037 C 
BRANCH  18  20
ATOM     20  C   UNL A   1      31.348  27.508  26.006  1.00  0.00    -0.025 A 
ATOM     21  C   UNL A   1      31.098  28.494  25.037  1.00  0.00     0.006 A 
ATOM     22  C   UNL A   1      32.078  27.881  27.147  1.00  0.00     0.006 A 
ATOM     23  C   UNL A   1      31.600  29.790  25.174  1.00  0.00     0.000 A 
ATOM     24  C   UNL A   1      32.557  29.187  27.299  1.00  0.00     0.000 A 
ATOM     25  C   UNL A   1      32.331  30.136  26.306  1.00  0.00     0.000 A 
ENDBRANCH  18  20
ENDBRANCH   8  18
ENDBRANCH   4   7
ENDBRANCH   2   3
ENDBRANCH   1   2
BRANCH   1  26
ATOM     26  C   UNL A   1      40.334  23.057  27.095  1.00  0.00     0.118 C 
BRANCH  26  27
ATOM     27  N   UNL A   1      41.052  23.854  26.113  1.00  0.00    -0.352 N 
ATOM     28  C   UNL A   1      41.385  25.185  26.085  1.00  0.00     0.251 C 
ATOM     29  H   UNL A   1      41.355  23.345  25.325  1.00  0.00     0.163 HD
ATOM     30  O   UNL A   1      41.866  25.645  25.050  1.00  0.00    -0.269 OA
BRANCH  28  31
ATOM     31  C   UNL A   1      41.169  26.080  27.248  1.00  0.00     0.039 A 
ATOM     32  C   UNL A   1      42.051  27.153  27.431  1.00  0.00     0.014 A 
ATOM     33  C   UNL A   1      40.174  25.845  28.199  1.00  0.00     0.014 A 
ATOM     34  C   UNL A   1      41.904  28.009  28.527  1.00  0.00     0.010 A 
ATOM     35  C   UNL A   1      39.983  26.740  29.255  1.00  0.00     0.010 A 
ATOM     36  C   UNL A   1      40.850  27.828  29.436  1.00  0.00    -0.014 A 
BRANCH  36  37
ATOM     37  C   UNL A   1      40.659  28.762  30.579  1.00  0.00     0.031 A 
ATOM     38  C   UNL A   1      41.505  28.639  31.820  1.00  0.00     0.074 A 
ATOM     39  C   UNL A   1      39.693  29.699  30.518  1.00  0.00     0.049 A 
ATOM     40  N   UNL A   1      41.463  29.345  32.922  1.00  0.00    -0.248 NA
ATOM     41  C   UNL A   1      42.514  27.569  31.834  1.00  0.00     0.031 C 
ATOM     42  C   UNL A   1      38.768  29.888  29.397  1.00  0.00     0.029 A 
ATOM     43  N   UNL A   1      39.324  30.668  31.417  1.00  0.00    -0.354 N 
ATOM     44  C   UNL A   1      42.422  28.795  33.764  1.00  0.00     0.074 A 
ATOM     45  C   UNL A   1      43.000  27.669  33.063  1.00  0.00     0.031 C 
ATOM     46  C   UNL A   1      37.956  30.924  29.666  1.00  0.00     0.029 A 
ATOM     47  C   UNL A   1      38.284  31.457  30.985  1.00  0.00     0.049 A 
ATOM     48  H   UNL A   1      39.762  30.786  32.291  1.00  0.00     0.167 HD
ATOM     49  C   UNL A   1      42.803  29.202  35.000  1.00  0.00     0.037 A 
ATOM     50  C   UNL A   1      37.668  32.497  31.578  1.00  0.00     0.037 A 
ATOM     51  C   UNL A   1      42.253  30.345  35.683  1.00  0.00     0.049 A 
ATOM     52  C   UNL A   1      38.139  32.960  32.930  1.00  0.00     0.074 A 
ATOM     53  C   UNL A   1      42.613  30.871  36.912  1.00  0.00     0.029 A 
ATOM     54  N   UNL A   1      41.230  31.143  35.192  1.00  0.00    -0.354 N 
ATOM     55  N   UNL A   1      39.086  32.461  33.687  1.00  0.00    -0.248 NA
ATOM     56  C   UNL A   1      37.466  34.135  33.501  1.00  0.00     0.031 C 
ATOM     57  C   UNL A   1      41.791  31.973  37.175  1.00  0.00     0.029 A 
ATOM     58  C   UNL A   1      40.942  32.153  36.096  1.00  0.00     0.049 A 
ATOM     59  H   UNL A   1      40.777  31.011  34.329  1.00  0.00     0.167 HD
ATOM     60  C   UNL A   1      39.139  33.273  34.813  1.00  0.00     0.074 A 
ATOM     61  C   UNL A   1      38.137  34.303  34.633  1.00  0.00     0.031 C 
ATOM     62  C   UNL A   1      39.944  33.174  35.900  1.00  0.00     0.037 A 
BRANCH  49  63
ATOM     63  C   UNL A   1      43.878  28.409  35.690  1.00  0.00     0.058 A 
ATOM     64  C   UNL A   1      45.240  28.693  35.496  1.00  0.00     0.135 A 
ATOM     65  C   UNL A   1      43.547  27.368  36.574  1.00  0.00     0.135 A 
ATOM     66  F   UNL A   1      45.613  29.668  34.653  1.00  0.00    -0.206 F 
ATOM     67  C   UNL A   1      46.235  27.954  36.129  1.00  0.00     0.059 A 
ATOM     68  C   UNL A   1      44.525  26.632  37.235  1.00  0.00     0.059 A 
ATOM     69  F   UNL A   1      42.260  27.056  36.797  1.00  0.00    -0.206 F 
ATOM     70  C   UNL A   1      45.867  26.922  36.993  1.00  0.00     0.060 A 
BRANCH  70  71
ATOM     71  S   UNL A   1      47.168  25.966  37.802  1.00  0.00     0.124 S 
ATOM     72  O   UNL A   1      46.635  24.611  37.706  1.00  0.00    -0.237 OA
ATOM     73  O   UNL A   1      48.332  26.249  36.969  1.00  0.00    -0.237 OA
ATOM     74  O   UNL A   1      47.214  26.529  39.148  1.00  0.00    -0.744 OA
ENDBRANCH  70  71
ENDBRANCH  49  63
BRANCH  50  75
ATOM     75  C   UNL A   1      36.563  33.201  30.877  1.00  0.00     0.058 A 
ATOM     76  C   UNL A   1      35.238  33.076  31.319  1.00  0.00     0.135 A 
ATOM     77  C   UNL A   1      36.811  34.026  29.769  1.00  0.00     0.135 A 
ATOM     78  F   UNL A   1      34.953  32.294  32.371  1.00  0.00    -0.206 F 
ATOM     79  C   UNL A   1      34.193  33.734  30.680  1.00  0.00     0.059 A 
ATOM     80  C   UNL A   1      35.784  34.711  29.126  1.00  0.00     0.059 A 
ATOM     81  F   UNL A   1      38.065  34.191  29.321  1.00  0.00    -0.206 F 
ATOM     82  C   UNL A   1      34.476  34.551  29.584  1.00  0.00     0.060 A 
BRANCH  82  83
ATOM     83  S   UNL A   1      33.123  35.451  28.796  1.00  0.00     0.124 S 
ATOM     84  O   UNL A   1      32.484  34.396  28.018  1.00  0.00    -0.237 OA
ATOM     85  O   UNL A   1      32.369  35.943  29.944  1.00  0.00    -0.237 OA
ATOM     86  O   UNL A   1      33.813  36.480  28.023  1.00  0.00    -0.744 OA
ENDBRANCH  82  83
ENDBRANCH  50  75
BRANCH  62  87
ATOM     87  C   UNL A   1      39.791  34.223  36.964  1.00  0.00     0.058 A 
ATOM     88  C   UNL A   1      40.407  35.478  36.853  1.00  0.00     0.135 A 
ATOM     89  C   UNL A   1      38.999  33.977  38.097  1.00  0.00     0.135 A 
ATOM     90  F   UNL A   1      41.179  35.761  35.791  1.00  0.00    -0.206 F 
ATOM     91  C   UNL A   1      40.267  36.445  37.843  1.00  0.00     0.059 A 
ATOM     92  C   UNL A   1      38.827  34.938  39.088  1.00  0.00     0.059 A 
ATOM     93  F   UNL A   1      38.379  32.795  38.245  1.00  0.00    -0.206 F 
ATOM     94  C   UNL A   1      39.479  36.164  38.960  1.00  0.00     0.060 A 
BRANCH  94  95
ATOM     95  S   UNL A   1      39.292  37.428  40.235  1.00  0.00     0.124 S 
ATOM     96  O   UNL A   1      38.842  36.633  41.372  1.00  0.00    -0.237 OA
ATOM     97  O   UNL A   1      40.642  37.975  40.339  1.00  0.00    -0.237 OA
ATOM     98  O   UNL A   1      38.298  38.335  39.668  1.00  0.00    -0.744 OA
ENDBRANCH  94  95
ENDBRANCH  62  87
ENDBRANCH  36  37
ENDBRANCH  28  31
ENDBRANCH  26  27
ENDBRANCH   1  26
TORSDOF 15
ENDMDL
MODEL 3
REMARK VINA RESULT:     -13.0      6.455     12.141
REMARK SMILES C[C@H](c1ccccc1)N1C(=O)c2ccc(C(=O)NCCCNC(=O)c3ccc(-c4c5nc(c(-c6c(F)cc(S(=O)(=O)[O-])cc6F)c6ccc([nH]6)c(-c6c(F)cc(S(=O)(=O)[O-])cc6F)c6nc(c(-c7c(F)cc(S(=O)(=O)[O-])cc7F)c7ccc4[nH]7)C=C6)C=C5)cc3)cc2C1=O
REMARK SMILES IDX 20 1 19 2 18 3 16 4 17 5 15 7 9 8 10 9 93 10 11 11 12 12
REMARK SMILES IDX 92 13 94 14 13 15 91 16 14 17 2 18 1 19 3 20 4 21 8 22 5 23
REMARK SMILES IDX 7 24 6 25 21 26 22 27 23 28 24 30 25 31 26 32 90 33 27 34
REMARK SMILES IDX 89 35 28 36 29 37 30 38 83 39 31 40 88 41 82 42 84 43 32 44
REMARK SMILES IDX 87 45 81 46 80 47 33 49 67 50 46 51 66 52 47 53 50 54 65 55
REMARK SMILES IDX 85 56 48 57 49 58 64 60 86 61 51 62 34 63 35 64 44 65 36 66
REMARK SMILES IDX 37 67 43 68 45 69 38 70 39 71 40 72 41 73 42 74 68 75 69 76
REMARK SMILES IDX 78 77 70 78 71 79 77 80 79 81 72 82 73 83 74 84 75 85 76 86
REMARK SMILES IDX 52 87 53 88 62 89 54 90 55 91 61 92 63 93 56 94 57 95 58 96
REMARK SMILES IDX 59 97 60 98
REMARK H PARENT 18 6 22 29 84 48 50 59
REMARK Flexibility Score: inf
ROOT
ATOM      1  C   UNL A   1      34.246  31.443  27.796  1.00  0.00     0.042 C 
ENDROOT
BRANCH   1   2
ATOM      2  C   UNL A   1      34.026  30.048  27.216  1.00  0.00     0.118 C 
BRANCH   2   3
ATOM      3  N   UNL A   1      33.767  30.047  25.785  1.00  0.00    -0.352 N 
ATOM      4  C   UNL A   1      33.267  29.098  24.934  1.00  0.00     0.251 C 
ATOM      5  O   UNL A   1      33.232  29.344  23.729  1.00  0.00    -0.269 OA
ATOM      6  H   UNL A   1      33.996  30.894  25.341  1.00  0.00     0.163 HD
BRANCH   4   7
ATOM      7  C   UNL A   1      32.803  27.766  25.393  1.00  0.00     0.040 A 
ATOM      8  N   UNL A   1      32.635  23.297  26.486  1.00  0.00    -0.267 N 
ATOM      9  C   UNL A   1      31.489  24.011  26.708  1.00  0.00     0.262 C 
ATOM     10  C   UNL A   1      33.596  24.083  25.902  1.00  0.00     0.262 C 
ATOM     11  O   UNL A   1      30.386  23.654  27.076  1.00  0.00    -0.269 OA
ATOM     12  C   UNL A   1      31.775  25.394  26.348  1.00  0.00     0.053 A 
ATOM     13  C   UNL A   1      33.049  25.438  25.818  1.00  0.00     0.054 A 
ATOM     14  O   UNL A   1      34.702  23.780  25.495  1.00  0.00    -0.269 OA
ATOM     15  C   UNL A   1      30.989  26.519  26.476  1.00  0.00     0.015 A 
ATOM     16  C   UNL A   1      33.602  26.615  25.339  1.00  0.00     0.028 A 
ATOM     17  C   UNL A   1      31.520  27.718  25.997  1.00  0.00     0.015 A 
BRANCH   8  18
ATOM     18  C   UNL A   1      32.820  21.869  26.755  1.00  0.00     0.121 C 
ATOM     19  C   UNL A   1      34.087  21.587  27.568  1.00  0.00     0.037 C 
BRANCH  18  20
ATOM     20  C   UNL A   1      32.727  21.025  25.486  1.00  0.00    -0.025 A 
ATOM     21  C   UNL A   1      32.306  21.563  24.259  1.00  0.00     0.006 A 
ATOM     22  C   UNL A   1      33.049  19.659  25.527  1.00  0.00     0.006 A 
ATOM     23  C   UNL A   1      32.161  20.760  23.126  1.00  0.00     0.000 A 
ATOM     24  C   UNL A   1      32.931  18.859  24.385  1.00  0.00     0.000 A 
ATOM     25  C   UNL A   1      32.473  19.406  23.189  1.00  0.00     0.000 A 
ENDBRANCH  18  20
ENDBRANCH   8  18
ENDBRANCH   4   7
ENDBRANCH   2   3
ENDBRANCH   1   2
BRANCH   1  26
ATOM     26  C   UNL A   1      35.570  31.658  28.527  1.00  0.00     0.118 C 
BRANCH  26  27
ATOM     27  N   UNL A   1      35.541  31.217  29.913  1.00  0.00    -0.352 N 
ATOM     28  C   UNL A   1      36.429  30.476  30.653  1.00  0.00     0.251 C 
ATOM     29  H   UNL A   1      34.739  31.501  30.410  1.00  0.00     0.163 HD
ATOM     30  O   UNL A   1      36.086  30.106  31.775  1.00  0.00    -0.269 OA
BRANCH  28  31
ATOM     31  C   UNL A   1      37.768  30.099  30.139  1.00  0.00     0.039 A 
ATOM     32  C   UNL A   1      38.781  29.827  31.067  1.00  0.00     0.014 A 
ATOM     33  C   UNL A   1      38.069  30.083  28.775  1.00  0.00     0.014 A 
ATOM     34  C   UNL A   1      40.067  29.492  30.631  1.00  0.00     0.010 A 
ATOM     35  C   UNL A   1      39.334  29.680  28.338  1.00  0.00     0.010 A 
ATOM     36  C   UNL A   1      40.350  29.388  29.260  1.00  0.00    -0.014 A 
BRANCH  36  37
ATOM     37  C   UNL A   1      41.703  28.988  28.788  1.00  0.00     0.031 A 
ATOM     38  C   UNL A   1      42.817  29.998  28.706  1.00  0.00     0.074 A 
ATOM     39  C   UNL A   1      41.921  27.718  28.393  1.00  0.00     0.049 A 
ATOM     40  N   UNL A   1      44.050  29.838  28.296  1.00  0.00    -0.248 NA
ATOM     41  C   UNL A   1      42.498  31.374  29.116  1.00  0.00     0.031 C 
ATOM     42  C   UNL A   1      40.913  26.655  28.370  1.00  0.00     0.029 A 
ATOM     43  N   UNL A   1      43.059  27.104  27.932  1.00  0.00    -0.354 N 
ATOM     44  C   UNL A   1      44.647  31.090  28.380  1.00  0.00     0.074 A 
ATOM     45  C   UNL A   1      43.628  32.010  28.840  1.00  0.00     0.031 C 
ATOM     46  C   UNL A   1      41.484  25.516  27.942  1.00  0.00     0.029 A 
ATOM     47  C   UNL A   1      42.888  25.772  27.638  1.00  0.00     0.049 A 
ATOM     48  H   UNL A   1      43.917  27.574  27.821  1.00  0.00     0.167 HD
ATOM     49  C   UNL A   1      45.931  31.441  28.120  1.00  0.00     0.037 A 
ATOM     50  C   UNL A   1      43.764  24.856  27.181  1.00  0.00     0.037 A 
ATOM     51  C   UNL A   1      46.953  30.519  27.698  1.00  0.00     0.049 A 
ATOM     52  C   UNL A   1      45.194  25.257  26.944  1.00  0.00     0.074 A 
ATOM     53  C   UNL A   1      48.295  30.766  27.466  1.00  0.00     0.029 A 
ATOM     54  N   UNL A   1      46.749  29.169  27.452  1.00  0.00    -0.354 N 
ATOM     55  N   UNL A   1      45.752  26.436  27.083  1.00  0.00    -0.248 NA
ATOM     56  C   UNL A   1      46.115  24.202  26.500  1.00  0.00     0.031 C 
ATOM     57  C   UNL A   1      48.897  29.571  27.054  1.00  0.00     0.029 A 
ATOM     58  C   UNL A   1      47.938  28.572  27.064  1.00  0.00     0.049 A 
ATOM     59  H   UNL A   1      45.886  28.704  27.540  1.00  0.00     0.167 HD
ATOM     60  C   UNL A   1      47.094  26.259  26.766  1.00  0.00     0.074 A 
ATOM     61  C   UNL A   1      47.266  24.859  26.440  1.00  0.00     0.031 C 
ATOM     62  C   UNL A   1      48.094  27.176  26.746  1.00  0.00     0.037 A 
BRANCH  49  63
ATOM     63  C   UNL A   1      46.304  32.887  28.297  1.00  0.00     0.058 A 
ATOM     64  C   UNL A   1      46.769  33.380  29.527  1.00  0.00     0.135 A 
ATOM     65  C   UNL A   1      46.219  33.786  27.222  1.00  0.00     0.135 A 
ATOM     66  F   UNL A   1      46.857  32.567  30.592  1.00  0.00    -0.206 F 
ATOM     67  C   UNL A   1      47.107  34.719  29.693  1.00  0.00     0.059 A 
ATOM     68  C   UNL A   1      46.575  35.125  27.360  1.00  0.00     0.059 A 
ATOM     69  F   UNL A   1      45.782  33.368  26.024  1.00  0.00    -0.206 F 
ATOM     70  C   UNL A   1      47.002  35.585  28.604  1.00  0.00     0.060 A 
BRANCH  70  71
ATOM     71  S   UNL A   1      47.437  37.322  28.835  1.00  0.00     0.124 S 
ATOM     72  O   UNL A   1      46.158  37.889  29.251  1.00  0.00    -0.237 OA
ATOM     73  O   UNL A   1      48.466  37.256  29.868  1.00  0.00    -0.237 OA
ATOM     74  O   UNL A   1      47.907  37.732  27.515  1.00  0.00    -0.744 OA
ENDBRANCH  70  71
ENDBRANCH  49  63
BRANCH  50  75
ATOM     75  C   UNL A   1      43.321  23.455  26.957  1.00  0.00     0.058 A 
ATOM     76  C   UNL A   1      43.128  22.962  25.658  1.00  0.00     0.135 A 
ATOM     77  C   UNL A   1      43.103  22.580  28.031  1.00  0.00     0.135 A 
ATOM     78  F   UNL A   1      43.320  23.765  24.601  1.00  0.00    -0.206 F 
ATOM     79  C   UNL A   1      42.722  21.652  25.431  1.00  0.00     0.059 A 
ATOM     80  C   UNL A   1      42.716  21.258  27.828  1.00  0.00     0.059 A 
ATOM     81  F   UNL A   1      43.291  23.001  29.291  1.00  0.00    -0.206 F 
ATOM     82  C   UNL A   1      42.520  20.806  26.523  1.00  0.00     0.060 A 
BRANCH  82  83
ATOM     83  S   UNL A   1      42.051  19.089  26.218  1.00  0.00     0.124 S 
ATOM     84  O   UNL A   1      42.325  18.476  27.513  1.00  0.00    -0.237 OA
ATOM     85  O   UNL A   1      40.643  19.212  25.855  1.00  0.00    -0.237 OA
ATOM     86  O   UNL A   1      42.938  18.690  25.128  1.00  0.00    -0.744 OA
ENDBRANCH  82  83
ENDBRANCH  50  75
BRANCH  62  87
ATOM     87  C   UNL A   1      49.466  26.684  26.385  1.00  0.00     0.058 A 
ATOM     88  C   UNL A   1      49.954  26.765  25.072  1.00  0.00     0.135 A 
ATOM     89  C   UNL A   1      50.310  26.145  27.369  1.00  0.00     0.135 A 
ATOM     90  F   UNL A   1      49.183  27.267  24.094  1.00  0.00    -0.206 F 
ATOM     91  C   UNL A   1      51.223  26.302  24.740  1.00  0.00     0.059 A 
ATOM     92  C   UNL A   1      51.592  25.697  27.063  1.00  0.00     0.059 A 
ATOM     93  F   UNL A   1      49.894  26.054  28.642  1.00  0.00    -0.206 F 
ATOM     94  C   UNL A   1      52.033  25.765  25.742  1.00  0.00     0.060 A 
BRANCH  94  95
ATOM     95  S   UNL A   1      53.684  25.177  25.306  1.00  0.00     0.124 S 
ATOM     96  O   UNL A   1      54.497  25.783  26.355  1.00  0.00    -0.237 OA
ATOM     97  O   UNL A   1      53.533  23.727  25.379  1.00  0.00    -0.237 OA
ATOM     98  O   UNL A   1      53.888  25.713  23.964  1.00  0.00    -0.744 OA
ENDBRANCH  94  95
ENDBRANCH  62  87
ENDBRANCH  36  37
ENDBRANCH  28  31
ENDBRANCH  26  27
ENDBRANCH   1  26
TORSDOF 15
ENDMDL
