MODEL 1
REMARK VINA RESULT:     -12.5      0.000      0.000
REMARK SMILES Cc1ccccc1NC(=O)c1ccccc1NC(=O)CCC(=O)NCCCNC(=O)c1ccc(-c2c3nc(c(-c4c(F)cc(S(=O)(=O)[O-])cc4F)c4ccc([nH]4)c(-c4c(F)cc(S(=O)(=O)[O-])cc4F)c4nc(c(-c5c(F)cc(S(=O)(=O)[O-])cc5F)c5ccc2[nH]5)C=C4)C=C3)cc1
REMARK SMILES IDX 25 1 24 2 22 3 23 4 21 6 20 7 18 8 17 9 19 11 16 12 11 13
REMARK SMILES IDX 12 14 13 15 15 16 14 17 9 18 8 19 10 21 7 22 1 23 2 24 3 25
REMARK SMILES IDX 4 26 6 27 5 28 26 29 27 30 28 31 29 32 30 34 31 35 32 36
REMARK SMILES IDX 96 37 33 38 95 39 34 40 35 41 36 42 89 43 37 44 94 45 88 46
REMARK SMILES IDX 90 47 38 48 93 49 87 50 86 51 39 53 73 54 52 55 72 56 53 57
REMARK SMILES IDX 56 58 71 59 91 60 54 61 55 62 70 64 92 65 57 66 40 67 41 68
REMARK SMILES IDX 50 69 42 70 43 71 49 72 51 73 44 74 45 75 46 76 47 77 48 78
REMARK SMILES IDX 74 79 75 80 84 81 76 82 77 83 83 84 85 85 78 86 79 87 80 88
REMARK SMILES IDX 81 89 82 90 58 91 59 92 68 93 60 94 61 95 67 96 69 97 62 98
REMARK SMILES IDX 63 99 64 100 65 101 66 102
REMARK H PARENT 24 5 17 10 8 20 28 33 90 52 56 63
REMARK Flexibility Score: inf
ROOT
ATOM      1  C   UNL A   1      39.248  21.992  26.100  1.00  0.00     0.117 C 
ENDROOT
BRANCH   1   2
ATOM      2  N   UNL A   1      38.078  21.805  25.227  1.00  0.00    -0.356 N 
ATOM      3  C   UNL A   1      37.019  22.568  24.816  1.00  0.00     0.220 C 
ATOM      4  O   UNL A   1      36.467  22.327  23.736  1.00  0.00    -0.275 OA
ATOM      5  H   UNL A   1      38.051  20.900  24.838  1.00  0.00     0.163 HD
BRANCH   3   6
ATOM      6  C   UNL A   1      36.431  23.667  25.679  1.00  0.00     0.110 C 
BRANCH   6   7
ATOM      7  C   UNL A   1      35.221  23.227  26.514  1.00  0.00     0.110 C 
BRANCH   7   8
ATOM      8  C   UNL A   1      33.942  23.873  26.055  1.00  0.00     0.224 C 
ATOM      9  N   UNL A   1      33.012  23.246  25.287  1.00  0.00    -0.325 N 
ATOM     10  H   UNL A   1      32.171  23.757  25.260  1.00  0.00     0.169 HD
ATOM     11  O   UNL A   1      33.698  25.007  26.491  1.00  0.00    -0.275 OA
BRANCH   9  12
ATOM     12  C   UNL A   1      32.915  22.064  24.516  1.00  0.00     0.054 A 
ATOM     13  C   UNL A   1      32.674  22.136  23.120  1.00  0.00     0.063 A 
ATOM     14  C   UNL A   1      32.202  20.979  22.458  1.00  0.00     0.016 A 
ATOM     15  C   UNL A   1      32.145  19.745  23.093  1.00  0.00     0.001 A 
ATOM     16  C   UNL A   1      33.013  20.786  25.083  1.00  0.00     0.027 A 
ATOM     17  C   UNL A   1      32.625  19.637  24.385  1.00  0.00     0.002 A 
BRANCH  13  18
ATOM     18  C   UNL A   1      32.882  23.313  22.189  1.00  0.00     0.257 C 
ATOM     19  N   UNL A   1      31.914  24.282  22.021  1.00  0.00    -0.322 N 
ATOM     20  H   UNL A   1      31.459  24.297  21.147  1.00  0.00     0.170 HD
ATOM     21  O   UNL A   1      33.939  23.407  21.559  1.00  0.00    -0.269 OA
BRANCH  19  22
ATOM     22  C   UNL A   1      31.502  25.253  22.952  1.00  0.00     0.044 A 
ATOM     23  C   UNL A   1      33.423  26.777  22.225  1.00  0.00     0.046 C 
ATOM     24  C   UNL A   1      32.215  26.462  23.068  1.00  0.00    -0.027 A 
ATOM     25  C   UNL A   1      31.704  27.467  23.906  1.00  0.00     0.005 A 
ATOM     26  C   UNL A   1      30.528  27.265  24.627  1.00  0.00     0.000 A 
ATOM     27  C   UNL A   1      30.334  25.053  23.694  1.00  0.00     0.026 A 
ATOM     28  C   UNL A   1      29.848  26.056  24.528  1.00  0.00     0.002 A 
ENDBRANCH  19  22
ENDBRANCH  13  18
ENDBRANCH   9  12
ENDBRANCH   7   8
ENDBRANCH   6   7
ENDBRANCH   3   6
ENDBRANCH   1   2
BRANCH   1  29
ATOM     29  C   UNL A   1      40.389  20.830  26.246  1.00  0.00     0.042 C 
BRANCH  29  30
ATOM     30  C   UNL A   1      41.942  21.220  26.406  1.00  0.00     0.118 C 
BRANCH  30  31
ATOM     31  N   UNL A   1      42.562  22.706  26.603  1.00  0.00    -0.352 N 
ATOM     32  C   UNL A   1      42.338  24.063  27.113  1.00  0.00     0.251 C 
ATOM     33  H   UNL A   1      43.470  22.690  26.220  1.00  0.00     0.163 HD
ATOM     34  O   UNL A   1      43.349  24.487  27.713  1.00  0.00    -0.269 OA
BRANCH  32  35
ATOM     35  C   UNL A   1      41.160  25.148  27.117  1.00  0.00     0.039 A 
ATOM     36  C   UNL A   1      41.310  26.424  26.478  1.00  0.00     0.014 A 
ATOM     37  C   UNL A   1      39.904  25.035  27.719  1.00  0.00     0.014 A 
ATOM     38  C   UNL A   1      40.540  27.607  26.905  1.00  0.00     0.010 A 
ATOM     39  C   UNL A   1      39.127  26.199  28.124  1.00  0.00     0.010 A 
ATOM     40  C   UNL A   1      39.569  27.521  27.929  1.00  0.00    -0.014 A 
BRANCH  40  41
ATOM     41  C   UNL A   1      39.337  28.624  29.004  1.00  0.00     0.031 A 
ATOM     42  C   UNL A   1      38.373  29.754  28.912  1.00  0.00     0.074 A 
ATOM     43  C   UNL A   1      39.905  28.682  30.253  1.00  0.00     0.049 A 
ATOM     44  N   UNL A   1      38.684  31.017  29.025  1.00  0.00    -0.248 NA
ATOM     45  C   UNL A   1      36.944  29.486  29.004  1.00  0.00     0.031 C 
ATOM     46  C   UNL A   1      39.753  29.643  31.365  1.00  0.00     0.029 A 
ATOM     47  N   UNL A   1      40.836  27.834  30.820  1.00  0.00    -0.354 N 
ATOM     48  C   UNL A   1      37.537  31.670  29.471  1.00  0.00     0.074 A 
ATOM     49  C   UNL A   1      36.468  30.695  29.324  1.00  0.00     0.031 C 
ATOM     50  C   UNL A   1      40.794  29.528  32.217  1.00  0.00     0.029 A 
ATOM     51  C   UNL A   1      41.684  28.508  31.704  1.00  0.00     0.049 A 
ATOM     52  H   UNL A   1      40.895  26.870  30.626  1.00  0.00     0.167 HD
ATOM     53  C   UNL A   1      37.556  32.840  30.197  1.00  0.00     0.037 A 
ATOM     54  C   UNL A   1      43.036  28.592  31.461  1.00  0.00     0.037 A 
ATOM     55  C   UNL A   1      38.879  33.115  30.776  1.00  0.00     0.049 A 
ATOM     56  C   UNL A   1      43.450  29.989  31.078  1.00  0.00     0.074 A 
ATOM     57  C   UNL A   1      39.320  33.100  32.094  1.00  0.00     0.029 A 
ATOM     58  N   UNL A   1      40.024  33.210  29.993  1.00  0.00    -0.354 N 
ATOM     59  N   UNL A   1      42.648  31.009  31.109  1.00  0.00    -0.248 NA
ATOM     60  C   UNL A   1      44.769  30.343  30.558  1.00  0.00     0.031 C 
ATOM     61  C   UNL A   1      40.731  33.147  32.100  1.00  0.00     0.029 A 
ATOM     62  C   UNL A   1      41.160  33.190  30.786  1.00  0.00     0.049 A 
ATOM     63  H   UNL A   1      40.027  33.281  29.011  1.00  0.00     0.167 HD
ATOM     64  C   UNL A   1      43.230  32.077  30.487  1.00  0.00     0.074 A 
ATOM     65  C   UNL A   1      44.592  31.640  30.249  1.00  0.00     0.031 C 
ATOM     66  C   UNL A   1      42.499  33.196  30.205  1.00  0.00     0.037 A 
BRANCH  53  67
ATOM     67  C   UNL A   1      36.293  33.578  30.684  1.00  0.00     0.058 A 
ATOM     68  C   UNL A   1      35.402  34.249  29.810  1.00  0.00     0.135 A 
ATOM     69  C   UNL A   1      35.874  33.588  32.033  1.00  0.00     0.135 A 
ATOM     70  F   UNL A   1      35.539  34.194  28.479  1.00  0.00    -0.206 F 
ATOM     71  C   UNL A   1      34.289  34.980  30.249  1.00  0.00     0.059 A 
ATOM     72  C   UNL A   1      34.791  34.347  32.503  1.00  0.00     0.059 A 
ATOM     73  F   UNL A   1      36.469  32.808  32.948  1.00  0.00    -0.206 F 
ATOM     74  C   UNL A   1      34.007  35.053  31.603  1.00  0.00     0.060 A 
BRANCH  74  75
ATOM     75  S   UNL A   1      32.590  36.025  32.157  1.00  0.00     0.124 S 
ATOM     76  O   UNL A   1      32.231  36.771  30.954  1.00  0.00    -0.237 OA
ATOM     77  O   UNL A   1      31.647  34.989  32.564  1.00  0.00    -0.237 OA
ATOM     78  O   UNL A   1      33.134  36.834  33.246  1.00  0.00    -0.744 OA
ENDBRANCH  74  75
ENDBRANCH  53  67
BRANCH  54  79
ATOM     79  C   UNL A   1      43.707  27.355  30.853  1.00  0.00     0.058 A 
ATOM     80  C   UNL A   1      44.480  27.618  29.709  1.00  0.00     0.135 A 
ATOM     81  C   UNL A   1      44.336  26.587  31.808  1.00  0.00     0.135 A 
ATOM     82  F   UNL A   1      43.873  27.893  28.549  1.00  0.00    -0.206 F 
ATOM     83  C   UNL A   1      45.864  27.756  29.785  1.00  0.00     0.059 A 
ATOM     84  C   UNL A   1      45.704  26.808  31.920  1.00  0.00     0.059 A 
ATOM     85  F   UNL A   1      43.658  26.191  32.900  1.00  0.00    -0.206 F 
ATOM     86  C   UNL A   1      46.462  27.500  31.001  1.00  0.00     0.060 A 
BRANCH  86  87
ATOM     87  S   UNL A   1      47.956  28.452  31.565  1.00  0.00     0.124 S 
ATOM     88  O   UNL A   1      47.925  29.592  30.690  1.00  0.00    -0.237 OA
ATOM     89  O   UNL A   1      47.656  28.788  32.947  1.00  0.00    -0.237 OA
ATOM     90  O   UNL A   1      49.144  27.635  31.430  1.00  0.00    -0.744 OA
ENDBRANCH  86  87
ENDBRANCH  54  79
BRANCH  66  91
ATOM     91  C   UNL A   1      42.987  34.424  29.479  1.00  0.00     0.058 A 
ATOM     92  C   UNL A   1      43.376  34.462  28.131  1.00  0.00     0.135 A 
ATOM     93  C   UNL A   1      43.026  35.668  30.157  1.00  0.00     0.135 A 
ATOM     94  F   UNL A   1      43.252  33.393  27.333  1.00  0.00    -0.206 F 
ATOM     95  C   UNL A   1      43.875  35.620  27.530  1.00  0.00     0.059 A 
ATOM     96  C   UNL A   1      43.463  36.846  29.560  1.00  0.00     0.059 A 
ATOM     97  F   UNL A   1      42.641  35.783  31.437  1.00  0.00    -0.206 F 
ATOM     98  C   UNL A   1      43.929  36.805  28.257  1.00  0.00     0.060 A 
BRANCH  98  99
ATOM     99  S   UNL A   1      44.573  38.299  27.485  1.00  0.00     0.124 S 
ATOM    100  O   UNL A   1      44.846  39.134  28.651  1.00  0.00    -0.237 OA
ATOM    101  O   UNL A   1      45.750  37.809  26.772  1.00  0.00    -0.237 OA
ATOM    102  O   UNL A   1      43.474  38.743  26.633  1.00  0.00    -0.744 OA
ENDBRANCH  98  99
ENDBRANCH  66  91
ENDBRANCH  40  41
ENDBRANCH  32  35
ENDBRANCH  30  31
ENDBRANCH  29  30
ENDBRANCH   1  29
TORSDOF 18
ENDMDL
MODEL 2
REMARK VINA RESULT:     -12.0      4.897      9.448
REMARK SMILES Cc1ccccc1NC(=O)c1ccccc1NC(=O)CCC(=O)NCCCNC(=O)c1ccc(-c2c3nc(c(-c4c(F)cc(S(=O)(=O)[O-])cc4F)c4ccc([nH]4)c(-c4c(F)cc(S(=O)(=O)[O-])cc4F)c4nc(c(-c5c(F)cc(S(=O)(=O)[O-])cc5F)c5ccc2[nH]5)C=C4)C=C3)cc1
REMARK SMILES IDX 25 1 24 2 22 3 23 4 21 6 20 7 18 8 17 9 19 11 16 12 11 13
REMARK SMILES IDX 12 14 13 15 15 16 14 17 9 18 8 19 10 21 7 22 1 23 2 24 3 25
REMARK SMILES IDX 4 26 6 27 5 28 26 29 27 30 28 31 29 32 30 34 31 35 32 36
REMARK SMILES IDX 96 37 33 38 95 39 34 40 35 41 36 42 89 43 37 44 94 45 88 46
REMARK SMILES IDX 90 47 38 48 93 49 87 50 86 51 39 53 73 54 52 55 72 56 53 57
REMARK SMILES IDX 56 58 71 59 91 60 54 61 55 62 70 64 92 65 57 66 40 67 41 68
REMARK SMILES IDX 50 69 42 70 43 71 49 72 51 73 44 74 45 75 46 76 47 77 48 78
REMARK SMILES IDX 74 79 75 80 84 81 76 82 77 83 83 84 85 85 78 86 79 87 80 88
REMARK SMILES IDX 81 89 82 90 58 91 59 92 68 93 60 94 61 95 67 96 69 97 62 98
REMARK SMILES IDX 63 99 64 100 65 101 66 102
REMARK H PARENT 24 5 17 10 8 20 28 33 90 52 56 63
REMARK Flexibility Score: inf
ROOT
ATOM      1  C   UNL A   1      33.961  29.594  26.746  1.00  0.00     0.117 C 
ENDROOT
BRANCH   1   2
ATOM      2  N   UNL A   1      33.196  29.632  25.490  1.00  0.00    -0.356 N 
ATOM      3  C   UNL A   1      33.031  28.810  24.407  1.00  0.00     0.220 C 
ATOM      4  O   UNL A   1      31.990  28.867  23.743  1.00  0.00    -0.275 OA
ATOM      5  H   UNL A   1      32.667  30.458  25.407  1.00  0.00     0.163 HD
BRANCH   3   6
ATOM      6  C   UNL A   1      34.122  27.873  23.931  1.00  0.00     0.110 C 
BRANCH   6   7
ATOM      7  C   UNL A   1      33.774  26.384  24.069  1.00  0.00     0.110 C 
BRANCH   7   8
ATOM      8  C   UNL A   1      33.613  25.707  22.735  1.00  0.00     0.224 C 
ATOM      9  N   UNL A   1      33.919  24.402  22.508  1.00  0.00    -0.325 N 
ATOM     10  H   UNL A   1      33.563  24.099  21.642  1.00  0.00     0.169 HD
ATOM     11  O   UNL A   1      33.080  26.366  21.832  1.00  0.00    -0.275 OA
BRANCH   9  12
ATOM     12  C   UNL A   1      34.607  23.357  23.170  1.00  0.00     0.054 A 
ATOM     13  C   UNL A   1      33.886  22.328  23.828  1.00  0.00     0.063 A 
ATOM     14  C   UNL A   1      34.564  21.540  24.787  1.00  0.00     0.016 A 
ATOM     15  C   UNL A   1      35.939  21.624  24.964  1.00  0.00     0.001 A 
ATOM     16  C   UNL A   1      36.006  23.306  23.243  1.00  0.00     0.027 A 
ATOM     17  C   UNL A   1      36.668  22.456  24.134  1.00  0.00     0.002 A 
BRANCH  13  18
ATOM     18  C   UNL A   1      32.443  21.914  23.627  1.00  0.00     0.257 C 
ATOM     19  N   UNL A   1      31.442  22.344  24.474  1.00  0.00    -0.322 N 
ATOM     20  H   UNL A   1      31.046  21.661  25.063  1.00  0.00     0.170 HD
ATOM     21  O   UNL A   1      32.154  21.167  22.687  1.00  0.00    -0.269 OA
BRANCH  19  22
ATOM     22  C   UNL A   1      30.920  23.645  24.593  1.00  0.00     0.044 A 
ATOM     23  C   UNL A   1      31.791  23.782  26.994  1.00  0.00     0.046 C 
ATOM     24  C   UNL A   1      31.076  24.355  25.799  1.00  0.00    -0.027 A 
ATOM     25  C   UNL A   1      30.667  25.698  25.845  1.00  0.00     0.005 A 
ATOM     26  C   UNL A   1      30.096  26.310  24.730  1.00  0.00     0.000 A 
ATOM     27  C   UNL A   1      30.329  24.261  23.486  1.00  0.00     0.026 A 
ATOM     28  C   UNL A   1      29.920  25.590  23.554  1.00  0.00     0.002 A 
ENDBRANCH  19  22
ENDBRANCH  13  18
ENDBRANCH   9  12
ENDBRANCH   7   8
ENDBRANCH   6   7
ENDBRANCH   3   6
ENDBRANCH   1   2
BRANCH   1  29
ATOM     29  C   UNL A   1      34.367  30.969  27.531  1.00  0.00     0.042 C 
BRANCH  29  30
ATOM     30  C   UNL A   1      35.590  30.987  28.577  1.00  0.00     0.118 C 
BRANCH  30  31
ATOM     31  N   UNL A   1      36.316  29.704  29.255  1.00  0.00    -0.352 N 
ATOM     32  C   UNL A   1      37.575  28.977  29.449  1.00  0.00     0.251 C 
ATOM     33  H   UNL A   1      35.619  29.206  29.742  1.00  0.00     0.163 HD
ATOM     34  O   UNL A   1      37.695  28.600  30.635  1.00  0.00    -0.269 OA
BRANCH  32  35
ATOM     35  C   UNL A   1      38.836  28.536  28.566  1.00  0.00     0.039 A 
ATOM     36  C   UNL A   1      39.275  27.170  28.511  1.00  0.00     0.014 A 
ATOM     37  C   UNL A   1      39.657  29.357  27.789  1.00  0.00     0.014 A 
ATOM     38  C   UNL A   1      40.672  26.811  28.203  1.00  0.00     0.010 A 
ATOM     39  C   UNL A   1      41.031  28.998  27.461  1.00  0.00     0.010 A 
ATOM     40  C   UNL A   1      41.632  27.798  27.886  1.00  0.00    -0.014 A 
BRANCH  40  41
ATOM     41  C   UNL A   1      43.116  27.753  28.358  1.00  0.00     0.031 A 
ATOM     42  C   UNL A   1      44.014  28.923  28.552  1.00  0.00     0.074 A 
ATOM     43  C   UNL A   1      43.809  26.641  28.769  1.00  0.00     0.049 A 
ATOM     44  N   UNL A   1      45.175  29.083  27.975  1.00  0.00    -0.248 NA
ATOM     45  C   UNL A   1      43.778  29.831  29.667  1.00  0.00     0.031 C 
ATOM     46  C   UNL A   1      45.192  26.465  29.261  1.00  0.00     0.029 A 
ATOM     47  N   UNL A   1      43.392  25.326  28.809  1.00  0.00    -0.354 N 
ATOM     48  C   UNL A   1      45.923  29.910  28.810  1.00  0.00     0.074 A 
ATOM     49  C   UNL A   1      44.968  30.434  29.774  1.00  0.00     0.031 C 
ATOM     50  C   UNL A   1      45.555  25.169  29.156  1.00  0.00     0.029 A 
ATOM     51  C   UNL A   1      44.447  24.438  28.579  1.00  0.00     0.049 A 
ATOM     52  H   UNL A   1      42.463  25.047  28.979  1.00  0.00     0.167 HD
ATOM     53  C   UNL A   1      47.298  29.902  28.861  1.00  0.00     0.037 A 
ATOM     54  C   UNL A   1      44.445  23.607  27.481  1.00  0.00     0.037 A 
ATOM     55  C   UNL A   1      47.872  28.693  28.253  1.00  0.00     0.049 A 
ATOM     56  C   UNL A   1      45.477  24.022  26.465  1.00  0.00     0.074 A 
ATOM     57  C   UNL A   1      48.533  27.610  28.820  1.00  0.00     0.029 A 
ATOM     58  N   UNL A   1      47.603  28.328  26.938  1.00  0.00    -0.354 N 
ATOM     59  N   UNL A   1      46.348  24.963  26.669  1.00  0.00    -0.248 NA
ATOM     60  C   UNL A   1      45.569  23.470  25.115  1.00  0.00     0.031 C 
ATOM     61  C   UNL A   1      48.626  26.582  27.858  1.00  0.00     0.029 A 
ATOM     62  C   UNL A   1      48.022  27.030  26.698  1.00  0.00     0.049 A 
ATOM     63  H   UNL A   1      47.174  28.912  26.271  1.00  0.00     0.167 HD
ATOM     64  C   UNL A   1      46.981  25.271  25.498  1.00  0.00     0.074 A 
ATOM     65  C   UNL A   1      46.531  24.244  24.579  1.00  0.00     0.031 C 
ATOM     66  C   UNL A   1      47.783  26.373  25.415  1.00  0.00     0.037 A 
BRANCH  53  67
ATOM     67  C   UNL A   1      48.137  30.822  29.771  1.00  0.00     0.058 A 
ATOM     68  C   UNL A   1      48.578  32.110  29.375  1.00  0.00     0.135 A 
ATOM     69  C   UNL A   1      48.474  30.496  31.103  1.00  0.00     0.135 A 
ATOM     70  F   UNL A   1      48.202  32.663  28.215  1.00  0.00    -0.206 F 
ATOM     71  C   UNL A   1      49.398  32.926  30.168  1.00  0.00     0.059 A 
ATOM     72  C   UNL A   1      49.329  31.274  31.900  1.00  0.00     0.059 A 
ATOM     73  F   UNL A   1      47.937  29.427  31.710  1.00  0.00    -0.206 F 
ATOM     74  C   UNL A   1      49.798  32.487  31.420  1.00  0.00     0.060 A 
BRANCH  74  75
ATOM     75  S   UNL A   1      50.880  33.534  32.416  1.00  0.00     0.124 S 
ATOM     76  O   UNL A   1      50.750  32.943  33.746  1.00  0.00    -0.237 OA
ATOM     77  O   UNL A   1      52.173  33.347  31.765  1.00  0.00    -0.237 OA
ATOM     78  O   UNL A   1      50.296  34.865  32.272  1.00  0.00    -0.744 OA
ENDBRANCH  74  75
ENDBRANCH  53  67
BRANCH  54  79
ATOM     79  C   UNL A   1      43.094  23.014  27.065  1.00  0.00     0.058 A 
ATOM     80  C   UNL A   1      42.861  23.018  25.680  1.00  0.00     0.135 A 
ATOM     81  C   UNL A   1      42.845  21.810  27.688  1.00  0.00     0.135 A 
ATOM     82  F   UNL A   1      42.578  24.169  25.058  1.00  0.00    -0.206 F 
ATOM     83  C   UNL A   1      43.072  21.879  24.906  1.00  0.00     0.059 A 
ATOM     84  C   UNL A   1      43.146  20.689  26.922  1.00  0.00     0.059 A 
ATOM     85  F   UNL A   1      42.940  21.717  29.026  1.00  0.00    -0.206 F 
ATOM     86  C   UNL A   1      43.397  20.712  25.568  1.00  0.00     0.060 A 
BRANCH  86  87
ATOM     87  S   UNL A   1      44.557  19.466  24.821  1.00  0.00     0.124 S 
ATOM     88  O   UNL A   1      45.817  19.864  25.386  1.00  0.00    -0.237 OA
ATOM     89  O   UNL A   1      44.080  18.193  25.335  1.00  0.00    -0.237 OA
ATOM     90  O   UNL A   1      44.505  19.545  23.376  1.00  0.00    -0.744 OA
ENDBRANCH  86  87
ENDBRANCH  54  79
BRANCH  66  91
ATOM     91  C   UNL A   1      48.500  26.868  24.184  1.00  0.00     0.058 A 
ATOM     92  C   UNL A   1      47.906  27.600  23.145  1.00  0.00     0.135 A 
ATOM     93  C   UNL A   1      49.892  26.642  24.049  1.00  0.00     0.135 A 
ATOM     94  F   UNL A   1      46.631  28.008  23.212  1.00  0.00    -0.206 F 
ATOM     95  C   UNL A   1      48.611  27.980  22.001  1.00  0.00     0.059 A 
ATOM     96  C   UNL A   1      50.627  27.065  22.945  1.00  0.00     0.059 A 
ATOM     97  F   UNL A   1      50.595  25.993  24.989  1.00  0.00    -0.206 F 
ATOM     98  C   UNL A   1      49.969  27.695  21.903  1.00  0.00     0.060 A 
BRANCH  98  99
ATOM     99  S   UNL A   1      50.880  28.184  20.429  1.00  0.00     0.124 S 
ATOM    100  O   UNL A   1      52.223  27.707  20.746  1.00  0.00    -0.237 OA
ATOM    101  O   UNL A   1      50.188  27.457  19.368  1.00  0.00    -0.237 OA
ATOM    102  O   UNL A   1      50.718  29.633  20.393  1.00  0.00    -0.744 OA
ENDBRANCH  98  99
ENDBRANCH  66  91
ENDBRANCH  40  41
ENDBRANCH  32  35
ENDBRANCH  30  31
ENDBRANCH  29  30
ENDBRANCH   1  29
TORSDOF 18
ENDMDL
MODEL 3
REMARK VINA RESULT:     -11.9      5.291     10.499
REMARK SMILES Cc1ccccc1NC(=O)c1ccccc1NC(=O)CCC(=O)NCCCNC(=O)c1ccc(-c2c3nc(c(-c4c(F)cc(S(=O)(=O)[O-])cc4F)c4ccc([nH]4)c(-c4c(F)cc(S(=O)(=O)[O-])cc4F)c4nc(c(-c5c(F)cc(S(=O)(=O)[O-])cc5F)c5ccc2[nH]5)C=C4)C=C3)cc1
REMARK SMILES IDX 25 1 24 2 22 3 23 4 21 6 20 7 18 8 17 9 19 11 16 12 11 13
REMARK SMILES IDX 12 14 13 15 15 16 14 17 9 18 8 19 10 21 7 22 1 23 2 24 3 25
REMARK SMILES IDX 4 26 6 27 5 28 26 29 27 30 28 31 29 32 30 34 31 35 32 36
REMARK SMILES IDX 96 37 33 38 95 39 34 40 35 41 36 42 89 43 37 44 94 45 88 46
REMARK SMILES IDX 90 47 38 48 93 49 87 50 86 51 39 53 73 54 52 55 72 56 53 57
REMARK SMILES IDX 56 58 71 59 91 60 54 61 55 62 70 64 92 65 57 66 40 67 41 68
REMARK SMILES IDX 50 69 42 70 43 71 49 72 51 73 44 74 45 75 46 76 47 77 48 78
REMARK SMILES IDX 74 79 75 80 84 81 76 82 77 83 83 84 85 85 78 86 79 87 80 88
REMARK SMILES IDX 81 89 82 90 58 91 59 92 68 93 60 94 61 95 67 96 69 97 62 98
REMARK SMILES IDX 63 99 64 100 65 101 66 102
REMARK H PARENT 24 5 17 10 8 20 28 33 90 52 56 63
REMARK Flexibility Score: inf
ROOT
ATOM      1  C   UNL A   1      33.509  29.288  27.264  1.00  0.00     0.117 C 
ENDROOT
BRANCH   1   2
ATOM      2  N   UNL A   1      32.596  29.408  26.116  1.00  0.00    -0.356 N 
ATOM      3  C   UNL A   1      32.133  28.579  25.130  1.00  0.00     0.220 C 
ATOM      4  O   UNL A   1      31.037  28.800  24.602  1.00  0.00    -0.275 OA
ATOM      5  H   UNL A   1      32.221  30.315  26.039  1.00  0.00     0.163 HD
BRANCH   3   6
ATOM      6  C   UNL A   1      32.955  27.426  24.591  1.00  0.00     0.110 C 
BRANCH   6   7
ATOM      7  C   UNL A   1      32.232  26.073  24.619  1.00  0.00     0.110 C 
BRANCH   7   8
ATOM      8  C   UNL A   1      32.442  25.338  25.915  1.00  0.00     0.224 C 
ATOM      9  N   UNL A   1      33.371  24.361  26.088  1.00  0.00    -0.325 N 
ATOM     10  H   UNL A   1      33.488  24.147  27.042  1.00  0.00     0.169 HD
ATOM     11  O   UNL A   1      31.787  25.726  26.893  1.00  0.00    -0.275 OA
BRANCH   9  12
ATOM     12  C   UNL A   1      34.218  23.566  25.279  1.00  0.00     0.054 A 
ATOM     13  C   UNL A   1      34.394  22.188  25.563  1.00  0.00     0.063 A 
ATOM     14  C   UNL A   1      35.511  21.524  25.007  1.00  0.00     0.016 A 
ATOM     15  C   UNL A   1      36.325  22.129  24.057  1.00  0.00     0.001 A 
ATOM     16  C   UNL A   1      34.942  24.095  24.202  1.00  0.00     0.027 A 
ATOM     17  C   UNL A   1      35.990  23.390  23.600  1.00  0.00     0.002 A 
BRANCH  13  18
ATOM     18  C   UNL A   1      33.508  21.277  26.388  1.00  0.00     0.257 C 
ATOM     19  N   UNL A   1      32.471  20.566  25.820  1.00  0.00    -0.322 N 
ATOM     20  H   UNL A   1      31.561  20.859  26.056  1.00  0.00     0.170 HD
ATOM     21  O   UNL A   1      33.712  21.172  27.602  1.00  0.00    -0.269 OA
BRANCH  19  22
ATOM     22  C   UNL A   1      32.563  19.471  24.941  1.00  0.00     0.044 A 
ATOM     23  C   UNL A   1      32.144  21.024  22.952  1.00  0.00     0.046 C 
ATOM     24  C   UNL A   1      32.407  19.669  23.555  1.00  0.00    -0.027 A 
ATOM     25  C   UNL A   1      32.639  18.586  22.692  1.00  0.00     0.005 A 
ATOM     26  C   UNL A   1      32.991  17.334  23.195  1.00  0.00     0.000 A 
ATOM     27  C   UNL A   1      32.897  18.207  25.437  1.00  0.00     0.026 A 
ATOM     28  C   UNL A   1      33.112  17.143  24.567  1.00  0.00     0.002 A 
ENDBRANCH  19  22
ENDBRANCH  13  18
ENDBRANCH   9  12
ENDBRANCH   7   8
ENDBRANCH   6   7
ENDBRANCH   3   6
ENDBRANCH   1   2
BRANCH   1  29
ATOM     29  C   UNL A   1      35.050  29.827  27.178  1.00  0.00     0.042 C 
BRANCH  29  30
ATOM     30  C   UNL A   1      36.092  29.527  28.367  1.00  0.00     0.118 C 
BRANCH  30  31
ATOM     31  N   UNL A   1      37.630  29.033  28.218  1.00  0.00    -0.352 N 
ATOM     32  C   UNL A   1      38.737  28.292  28.831  1.00  0.00     0.251 C 
ATOM     33  H   UNL A   1      37.957  29.373  27.353  1.00  0.00     0.163 HD
ATOM     34  O   UNL A   1      39.321  27.580  27.984  1.00  0.00    -0.269 OA
BRANCH  32  35
ATOM     35  C   UNL A   1      39.402  28.138  30.280  1.00  0.00     0.039 A 
ATOM     36  C   UNL A   1      38.612  28.170  31.477  1.00  0.00     0.014 A 
ATOM     37  C   UNL A   1      40.758  27.982  30.578  1.00  0.00     0.014 A 
ATOM     38  C   UNL A   1      39.178  28.584  32.775  1.00  0.00     0.010 A 
ATOM     39  C   UNL A   1      41.321  28.367  31.866  1.00  0.00     0.010 A 
ATOM     40  C   UNL A   1      40.547  28.910  32.909  1.00  0.00    -0.014 A 
BRANCH  40  41
ATOM     41  C   UNL A   1      41.083  30.067  33.804  1.00  0.00     0.031 A 
ATOM     42  C   UNL A   1      41.945  29.922  35.008  1.00  0.00     0.074 A 
ATOM     43  C   UNL A   1      40.935  31.413  33.576  1.00  0.00     0.049 A 
ATOM     44  N   UNL A   1      41.660  30.382  36.196  1.00  0.00    -0.248 NA
ATOM     45  C   UNL A   1      43.336  29.517  34.849  1.00  0.00     0.031 C 
ATOM     46  C   UNL A   1      41.410  32.599  34.318  1.00  0.00     0.029 A 
ATOM     47  N   UNL A   1      40.248  32.049  32.561  1.00  0.00    -0.354 N 
ATOM     48  C   UNL A   1      42.875  30.583  36.847  1.00  0.00     0.074 A 
ATOM     49  C   UNL A   1      43.863  29.920  36.011  1.00  0.00     0.031 C 
ATOM     50  C   UNL A   1      40.693  33.685  33.957  1.00  0.00     0.029 A 
ATOM     51  C   UNL A   1      39.708  33.268  32.982  1.00  0.00     0.049 A 
ATOM     52  H   UNL A   1      40.151  31.687  31.650  1.00  0.00     0.167 HD
ATOM     53  C   UNL A   1      43.061  31.505  37.851  1.00  0.00     0.037 A 
ATOM     54  C   UNL A   1      38.346  33.470  32.996  1.00  0.00     0.037 A 
ATOM     55  C   UNL A   1      41.983  32.503  37.899  1.00  0.00     0.049 A 
ATOM     56  C   UNL A   1      37.805  33.528  34.400  1.00  0.00     0.074 A 
ATOM     57  C   UNL A   1      41.979  33.860  37.598  1.00  0.00     0.029 A 
ATOM     58  N   UNL A   1      40.647  32.142  38.045  1.00  0.00    -0.354 N 
ATOM     59  N   UNL A   1      38.554  33.524  35.459  1.00  0.00    -0.248 NA
ATOM     60  C   UNL A   1      36.382  33.519  34.733  1.00  0.00     0.031 C 
ATOM     61  C   UNL A   1      40.641  34.304  37.524  1.00  0.00     0.029 A 
ATOM     62  C   UNL A   1      39.820  33.221  37.779  1.00  0.00     0.049 A 
ATOM     63  H   UNL A   1      40.334  31.244  38.300  1.00  0.00     0.167 HD
ATOM     64  C   UNL A   1      37.784  33.343  36.573  1.00  0.00     0.074 A 
ATOM     65  C   UNL A   1      36.426  33.445  36.076  1.00  0.00     0.031 C 
ATOM     66  C   UNL A   1      38.366  33.089  37.782  1.00  0.00     0.037 A 
BRANCH  53  67
ATOM     67  C   UNL A   1      44.398  31.727  38.588  1.00  0.00     0.058 A 
ATOM     68  C   UNL A   1      45.552  32.256  37.957  1.00  0.00     0.135 A 
ATOM     69  C   UNL A   1      44.568  31.493  39.970  1.00  0.00     0.135 A 
ATOM     70  F   UNL A   1      45.528  32.704  36.695  1.00  0.00    -0.206 F 
ATOM     71  C   UNL A   1      46.791  32.397  38.599  1.00  0.00     0.059 A 
ATOM     72  C   UNL A   1      45.806  31.584  40.626  1.00  0.00     0.059 A 
ATOM     73  F   UNL A   1      43.518  31.220  40.760  1.00  0.00    -0.206 F 
ATOM     74  C   UNL A   1      46.920  32.027  39.928  1.00  0.00     0.060 A 
BRANCH  74  75
ATOM     75  S   UNL A   1      48.528  32.183  40.734  1.00  0.00     0.124 S 
ATOM     76  O   UNL A   1      48.163  32.320  42.141  1.00  0.00    -0.237 OA
ATOM     77  O   UNL A   1      49.178  30.929  40.368  1.00  0.00    -0.237 OA
ATOM     78  O   UNL A   1      49.101  33.382  40.125  1.00  0.00    -0.744 OA
ENDBRANCH  74  75
ENDBRANCH  53  67
BRANCH  54  79
ATOM     79  C   UNL A   1      37.544  32.854  31.845  1.00  0.00     0.058 A 
ATOM     80  C   UNL A   1      36.368  32.197  32.244  1.00  0.00     0.135 A 
ATOM     81  C   UNL A   1      37.384  33.734  30.797  1.00  0.00     0.135 A 
ATOM     82  F   UNL A   1      36.448  31.011  32.860  1.00  0.00    -0.206 F 
ATOM     83  C   UNL A   1      35.125  32.819  32.159  1.00  0.00     0.059 A 
ATOM     84  C   UNL A   1      36.166  34.405  30.785  1.00  0.00     0.059 A 
ATOM     85  F   UNL A   1      38.458  34.345  30.267  1.00  0.00    -0.206 F 
ATOM     86  C   UNL A   1      35.074  34.056  31.550  1.00  0.00     0.060 A 
BRANCH  86  87
ATOM     87  S   UNL A   1      33.889  35.369  32.122  1.00  0.00     0.124 S 
ATOM     88  O   UNL A   1      34.731  36.179  32.960  1.00  0.00    -0.237 OA
ATOM     89  O   UNL A   1      33.493  36.042  30.895  1.00  0.00    -0.237 OA
ATOM     90  O   UNL A   1      32.773  34.762  32.816  1.00  0.00    -0.744 OA
ENDBRANCH  86  87
ENDBRANCH  54  79
BRANCH  66  91
ATOM     91  C   UNL A   1      37.648  32.815  39.081  1.00  0.00     0.058 A 
ATOM     92  C   UNL A   1      36.939  31.642  39.378  1.00  0.00     0.135 A 
ATOM     93  C   UNL A   1      37.711  33.769  40.128  1.00  0.00     0.135 A 
ATOM     94  F   UNL A   1      36.920  30.600  38.535  1.00  0.00    -0.206 F 
ATOM     95  C   UNL A   1      36.246  31.472  40.578  1.00  0.00     0.059 A 
ATOM     96  C   UNL A   1      37.078  33.593  41.354  1.00  0.00     0.059 A 
ATOM     97  F   UNL A   1      38.392  34.916  39.994  1.00  0.00    -0.206 F 
ATOM     98  C   UNL A   1      36.309  32.459  41.556  1.00  0.00     0.060 A 
BRANCH  98  99
ATOM     99  S   UNL A   1      35.415  32.243  43.104  1.00  0.00     0.124 S 
ATOM    100  O   UNL A   1      35.219  33.628  43.522  1.00  0.00    -0.237 OA
ATOM    101  O   UNL A   1      34.209  31.535  42.681  1.00  0.00    -0.237 OA
ATOM    102  O   UNL A   1      36.336  31.461  43.922  1.00  0.00    -0.744 OA
ENDBRANCH  98  99
ENDBRANCH  66  91
ENDBRANCH  40  41
ENDBRANCH  32  35
ENDBRANCH  30  31
ENDBRANCH  29  30
ENDBRANCH   1  29
TORSDOF 18
ENDMDL
