MODEL 1
REMARK VINA RESULT:     -14.8      0.000      0.000
REMARK SMILES CC1=C(C)C[C@H](C(=O)Nc2nc(-c3ccc(C)cc3)c(C)s2)[C@@H](C(=O)NCCCNC(=O)c2ccc(-c3c4nc(c(-c5c(F)cc(S(=O)(=O)[O-])cc5F)c5ccc([nH]5)c(-c5c(F)cc(S(=O)(=O)[O-])cc5F)c5nc(c(-c6c(F)cc(S(=O)(=O)[O-])cc6F)c6ccc3[nH]6)C=C5)C=C4)cc2)C1
REMARK SMILES IDX 28 1 27 2 26 3 24 4 25 5 23 7 1 8 2 9 3 10 99 11 4 12 5 13
REMARK SMILES IDX 6 14 7 15 8 16 9 17 10 19 11 20 22 21 12 22 20 23 21 24
REMARK SMILES IDX 13 25 14 26 19 27 15 28 18 29 16 30 17 31 29 32 30 33 31 34
REMARK SMILES IDX 32 36 33 37 34 38 98 39 35 40 97 41 36 42 37 43 38 44 91 45
REMARK SMILES IDX 39 46 96 47 90 48 92 49 40 50 95 51 89 52 88 53 41 55 75 56
REMARK SMILES IDX 54 57 74 58 55 59 58 60 73 61 93 62 56 63 57 64 72 66 94 67
REMARK SMILES IDX 59 68 42 69 43 70 52 71 44 72 45 73 51 74 53 75 46 76 47 77
REMARK SMILES IDX 48 78 49 79 50 80 76 81 77 82 86 83 78 84 79 85 85 86 87 87
REMARK SMILES IDX 80 88 81 89 82 90 83 91 84 92 60 93 61 94 70 95 62 96 63 97
REMARK SMILES IDX 69 98 71 99 64 100 65 101 66 102 67 103 68 104
REMARK H PARENT 26 6 9 18 30 35 92 54 58 65
REMARK Flexibility Score: inf
ROOT
ATOM      1  C   UNL A   1      34.126  28.201  26.471  1.00  0.00     0.042 C 
ENDROOT
BRANCH   1   2
ATOM      2  C   UNL A   1      32.758  27.881  25.875  1.00  0.00     0.117 C 
BRANCH   2   3
ATOM      3  N   UNL A   1      32.133  26.733  26.521  1.00  0.00    -0.356 N 
ATOM      4  C   UNL A   1      32.259  25.390  26.365  1.00  0.00     0.224 C 
ATOM      5  O   UNL A   1      31.425  24.684  26.949  1.00  0.00    -0.275 OA
ATOM      6  H   UNL A   1      31.484  26.985  27.217  1.00  0.00     0.163 HD
BRANCH   4   7
ATOM      7  C   UNL A   1      33.268  24.704  25.440  1.00  0.00     0.095 C 
ATOM      8  C   UNL A   1      34.306  21.649  27.580  1.00  0.00     0.039 C 
ATOM      9  C   UNL A   1      33.871  22.358  26.321  1.00  0.00    -0.074 C 
ATOM     10  C   UNL A   1      33.249  21.765  25.284  1.00  0.00    -0.074 C 
ATOM     11  C   UNL A   1      34.196  23.827  26.287  1.00  0.00     0.045 C 
ATOM     12  C   UNL A   1      32.944  20.292  25.195  1.00  0.00     0.039 C 
ATOM     13  C   UNL A   1      32.846  22.540  24.050  1.00  0.00     0.045 C 
ATOM     14  C   UNL A   1      32.704  24.077  24.159  1.00  0.00     0.095 C 
BRANCH  14  15
ATOM     15  C   UNL A   1      33.339  24.701  22.899  1.00  0.00     0.230 C 
ATOM     16  O   UNL A   1      34.468  24.372  22.516  1.00  0.00    -0.274 OA
ATOM     17  N   UNL A   1      32.627  25.558  22.109  1.00  0.00    -0.302 N 
ATOM     18  H   UNL A   1      32.890  25.625  21.162  1.00  0.00     0.172 HD
BRANCH  17  19
ATOM     19  C   UNL A   1      31.584  26.329  22.525  1.00  0.00     0.190 A 
ATOM     20  N   UNL A   1      31.527  27.627  22.534  1.00  0.00    -0.220 NA
ATOM     21  S   UNL A   1      30.173  25.502  22.996  1.00  0.00    -0.101 S 
ATOM     22  C   UNL A   1      30.263  28.033  22.905  1.00  0.00     0.086 A 
ATOM     23  C   UNL A   1      29.399  27.021  23.284  1.00  0.00     0.031 A 
ATOM     24  C   UNL A   1      28.011  27.077  23.813  1.00  0.00     0.059 C 
BRANCH  22  25
ATOM     25  C   UNL A   1      29.930  29.436  22.821  1.00  0.00     0.001 A 
ATOM     26  C   UNL A   1      29.385  29.969  21.655  1.00  0.00     0.010 A 
ATOM     27  C   UNL A   1      30.020  30.224  23.975  1.00  0.00     0.010 A 
ATOM     28  C   UNL A   1      28.890  31.274  21.666  1.00  0.00     0.004 A 
ATOM     29  C   UNL A   1      29.541  31.533  23.973  1.00  0.00     0.004 A 
ATOM     30  C   UNL A   1      28.942  32.058  22.826  1.00  0.00    -0.051 A 
ATOM     31  C   UNL A   1      28.384  33.450  22.852  1.00  0.00     0.044 C 
ENDBRANCH  22  25
ENDBRANCH  17  19
ENDBRANCH  14  15
ENDBRANCH   4   7
ENDBRANCH   2   3
ENDBRANCH   1   2
BRANCH   1  32
ATOM     32  C   UNL A   1      34.104  29.434  27.353  1.00  0.00     0.118 C 
BRANCH  32  33
ATOM     33  N   UNL A   1      35.086  30.451  26.998  1.00  0.00    -0.352 N 
ATOM     34  C   UNL A   1      36.098  30.777  27.901  1.00  0.00     0.251 C 
ATOM     35  H   UNL A   1      35.035  30.905  26.126  1.00  0.00     0.163 HD
ATOM     36  O   UNL A   1      36.230  31.852  28.442  1.00  0.00    -0.269 OA
BRANCH  34  37
ATOM     37  C   UNL A   1      37.012  29.647  28.182  1.00  0.00     0.039 A 
ATOM     38  C   UNL A   1      37.057  29.085  29.460  1.00  0.00     0.014 A 
ATOM     39  C   UNL A   1      37.991  29.365  27.232  1.00  0.00     0.014 A 
ATOM     40  C   UNL A   1      38.171  28.327  29.830  1.00  0.00     0.010 A 
ATOM     41  C   UNL A   1      39.135  28.716  27.637  1.00  0.00     0.010 A 
ATOM     42  C   UNL A   1      39.242  28.208  28.942  1.00  0.00    -0.014 A 
BRANCH  42  43
ATOM     43  C   UNL A   1      40.544  27.631  29.268  1.00  0.00     0.031 A 
ATOM     44  C   UNL A   1      40.880  26.256  28.820  1.00  0.00     0.074 A 
ATOM     45  C   UNL A   1      41.526  28.420  29.758  1.00  0.00     0.049 A 
ATOM     46  N   UNL A   1      41.949  25.619  29.158  1.00  0.00    -0.248 NA
ATOM     47  C   UNL A   1      40.009  25.479  27.946  1.00  0.00     0.031 C 
ATOM     48  C   UNL A   1      42.965  28.166  29.709  1.00  0.00     0.029 A 
ATOM     49  N   UNL A   1      41.425  29.575  30.533  1.00  0.00    -0.354 N 
ATOM     50  C   UNL A   1      42.062  24.516  28.344  1.00  0.00     0.074 A 
ATOM     51  C   UNL A   1      40.806  24.453  27.633  1.00  0.00     0.031 C 
ATOM     52  C   UNL A   1      43.579  28.958  30.596  1.00  0.00     0.029 A 
ATOM     53  C   UNL A   1      42.540  29.576  31.393  1.00  0.00     0.049 A 
ATOM     54  H   UNL A   1      40.716  30.256  30.487  1.00  0.00     0.167 HD
ATOM     55  C   UNL A   1      43.250  23.844  28.282  1.00  0.00     0.037 A 
ATOM     56  C   UNL A   1      42.435  29.470  32.751  1.00  0.00     0.037 A 
ATOM     57  C   UNL A   1      44.227  24.378  29.237  1.00  0.00     0.049 A 
ATOM     58  C   UNL A   1      43.066  28.195  33.296  1.00  0.00     0.074 A 
ATOM     59  C   UNL A   1      45.358  25.174  29.149  1.00  0.00     0.029 A 
ATOM     60  N   UNL A   1      43.927  24.310  30.588  1.00  0.00    -0.354 N 
ATOM     61  N   UNL A   1      43.680  27.309  32.559  1.00  0.00    -0.248 NA
ATOM     62  C   UNL A   1      42.995  27.777  34.697  1.00  0.00     0.031 C 
ATOM     63  C   UNL A   1      45.720  25.590  30.467  1.00  0.00     0.029 A 
ATOM     64  C   UNL A   1      44.805  25.053  31.352  1.00  0.00     0.049 A 
ATOM     65  H   UNL A   1      43.177  23.792  30.959  1.00  0.00     0.167 HD
ATOM     66  C   UNL A   1      44.025  26.226  33.315  1.00  0.00     0.074 A 
ATOM     67  C   UNL A   1      43.594  26.572  34.657  1.00  0.00     0.031 C 
ATOM     68  C   UNL A   1      44.600  25.106  32.791  1.00  0.00     0.037 A 
BRANCH  55  69
ATOM     69  C   UNL A   1      43.571  22.837  27.197  1.00  0.00     0.058 A 
ATOM     70  C   UNL A   1      42.887  21.605  27.114  1.00  0.00     0.135 A 
ATOM     71  C   UNL A   1      44.581  23.011  26.229  1.00  0.00     0.135 A 
ATOM     72  F   UNL A   1      41.835  21.334  27.897  1.00  0.00    -0.206 F 
ATOM     73  C   UNL A   1      43.259  20.586  26.233  1.00  0.00     0.059 A 
ATOM     74  C   UNL A   1      45.017  21.985  25.385  1.00  0.00     0.059 A 
ATOM     75  F   UNL A   1      45.153  24.207  26.031  1.00  0.00    -0.206 F 
ATOM     76  C   UNL A   1      44.354  20.767  25.400  1.00  0.00     0.060 A 
BRANCH  76  77
ATOM     77  S   UNL A   1      44.889  19.403  24.350  1.00  0.00     0.124 S 
ATOM     78  O   UNL A   1      44.455  19.840  23.027  1.00  0.00    -0.237 OA
ATOM     79  O   UNL A   1      46.331  19.398  24.575  1.00  0.00    -0.237 OA
ATOM     80  O   UNL A   1      44.165  18.256  24.890  1.00  0.00    -0.744 OA
ENDBRANCH  76  77
ENDBRANCH  55  69
BRANCH  56  81
ATOM     81  C   UNL A   1      41.243  30.185  33.288  1.00  0.00     0.058 A 
ATOM     82  C   UNL A   1      41.323  31.594  33.325  1.00  0.00     0.135 A 
ATOM     83  C   UNL A   1      39.968  29.608  33.213  1.00  0.00     0.135 A 
ATOM     84  F   UNL A   1      42.519  32.195  33.436  1.00  0.00    -0.206 F 
ATOM     85  C   UNL A   1      40.217  32.390  33.049  1.00  0.00     0.059 A 
ATOM     86  C   UNL A   1      38.842  30.392  32.956  1.00  0.00     0.059 A 
ATOM     87  F   UNL A   1      39.833  28.274  33.172  1.00  0.00    -0.206 F 
ATOM     88  C   UNL A   1      39.001  31.768  32.777  1.00  0.00     0.060 A 
BRANCH  88  89
ATOM     89  S   UNL A   1      37.692  32.753  32.001  1.00  0.00     0.124 S 
ATOM     90  O   UNL A   1      37.481  33.814  32.979  1.00  0.00    -0.237 OA
ATOM     91  O   UNL A   1      38.326  33.161  30.746  1.00  0.00    -0.237 OA
ATOM     92  O   UNL A   1      36.603  31.795  31.860  1.00  0.00    -0.744 OA
ENDBRANCH  88  89
ENDBRANCH  56  81
BRANCH  68  93
ATOM     93  C   UNL A   1      45.013  23.937  33.630  1.00  0.00     0.058 A 
ATOM     94  C   UNL A   1      46.357  23.694  33.950  1.00  0.00     0.135 A 
ATOM     95  C   UNL A   1      44.082  22.952  34.020  1.00  0.00     0.135 A 
ATOM     96  F   UNL A   1      47.314  24.560  33.582  1.00  0.00    -0.206 F 
ATOM     97  C   UNL A   1      46.753  22.552  34.645  1.00  0.00     0.059 A 
ATOM     98  C   UNL A   1      44.459  21.785  34.674  1.00  0.00     0.059 A 
ATOM     99  F   UNL A   1      42.768  23.113  33.795  1.00  0.00    -0.206 F 
ATOM    100  C   UNL A   1      45.797  21.603  35.003  1.00  0.00     0.060 A 
BRANCH 100 101
ATOM    101  S   UNL A   1      46.300  20.115  35.885  1.00  0.00     0.124 S 
ATOM    102  O   UNL A   1      45.786  20.346  37.232  1.00  0.00    -0.237 OA
ATOM    103  O   UNL A   1      45.614  19.080  35.118  1.00  0.00    -0.237 OA
ATOM    104  O   UNL A   1      47.754  20.131  35.765  1.00  0.00    -0.744 OA
ENDBRANCH 100 101
ENDBRANCH  68  93
ENDBRANCH  42  43
ENDBRANCH  34  37
ENDBRANCH  32  33
ENDBRANCH   1  32
TORSDOF 16
ENDMDL
MODEL 2
REMARK VINA RESULT:     -14.4      4.444     11.500
REMARK SMILES CC1=C(C)C[C@H](C(=O)Nc2nc(-c3ccc(C)cc3)c(C)s2)[C@@H](C(=O)NCCCNC(=O)c2ccc(-c3c4nc(c(-c5c(F)cc(S(=O)(=O)[O-])cc5F)c5ccc([nH]5)c(-c5c(F)cc(S(=O)(=O)[O-])cc5F)c5nc(c(-c6c(F)cc(S(=O)(=O)[O-])cc6F)c6ccc3[nH]6)C=C5)C=C4)cc2)C1
REMARK SMILES IDX 28 1 27 2 26 3 24 4 25 5 23 7 1 8 2 9 3 10 99 11 4 12 5 13
REMARK SMILES IDX 6 14 7 15 8 16 9 17 10 19 11 20 22 21 12 22 20 23 21 24
REMARK SMILES IDX 13 25 14 26 19 27 15 28 18 29 16 30 17 31 29 32 30 33 31 34
REMARK SMILES IDX 32 36 33 37 34 38 98 39 35 40 97 41 36 42 37 43 38 44 91 45
REMARK SMILES IDX 39 46 96 47 90 48 92 49 40 50 95 51 89 52 88 53 41 55 75 56
REMARK SMILES IDX 54 57 74 58 55 59 58 60 73 61 93 62 56 63 57 64 72 66 94 67
REMARK SMILES IDX 59 68 42 69 43 70 52 71 44 72 45 73 51 74 53 75 46 76 47 77
REMARK SMILES IDX 48 78 49 79 50 80 76 81 77 82 86 83 78 84 79 85 85 86 87 87
REMARK SMILES IDX 80 88 81 89 82 90 83 91 84 92 60 93 61 94 70 95 62 96 63 97
REMARK SMILES IDX 69 98 71 99 64 100 65 101 66 102 67 103 68 104
REMARK H PARENT 26 6 9 18 30 35 92 54 58 65
REMARK Flexibility Score: inf
ROOT
ATOM      1  C   UNL A   1      36.573  24.032  25.728  1.00  0.00     0.042 C 
ENDROOT
BRANCH   1   2
ATOM      2  C   UNL A   1      35.604  23.165  24.927  1.00  0.00     0.117 C 
BRANCH   2   3
ATOM      3  N   UNL A   1      35.155  23.827  23.709  1.00  0.00    -0.356 N 
ATOM      4  C   UNL A   1      34.248  24.805  23.456  1.00  0.00     0.224 C 
ATOM      5  O   UNL A   1      33.962  25.003  22.266  1.00  0.00    -0.275 OA
ATOM      6  H   UNL A   1      35.605  23.495  22.898  1.00  0.00     0.163 HD
BRANCH   4   7
ATOM      7  C   UNL A   1      33.479  25.587  24.525  1.00  0.00     0.095 C 
ATOM      8  C   UNL A   1      33.841  29.214  23.223  1.00  0.00     0.039 C 
ATOM      9  C   UNL A   1      33.099  28.026  23.782  1.00  0.00    -0.074 C 
ATOM     10  C   UNL A   1      31.773  27.825  23.664  1.00  0.00    -0.074 C 
ATOM     11  C   UNL A   1      33.965  27.039  24.520  1.00  0.00     0.045 C 
ATOM     12  C   UNL A   1      30.815  28.786  23.007  1.00  0.00     0.039 C 
ATOM     13  C   UNL A   1      31.096  26.609  24.256  1.00  0.00     0.045 C 
ATOM     14  C   UNL A   1      31.961  25.366  24.572  1.00  0.00     0.095 C 
BRANCH  14  15
ATOM     15  C   UNL A   1      31.514  24.816  25.942  1.00  0.00     0.230 C 
ATOM     16  O   UNL A   1      31.338  25.563  26.911  1.00  0.00    -0.274 OA
ATOM     17  N   UNL A   1      31.196  23.496  26.095  1.00  0.00    -0.302 N 
ATOM     18  H   UNL A   1      30.572  23.262  26.821  1.00  0.00     0.172 HD
BRANCH  17  19
ATOM     19  C   UNL A   1      31.673  22.478  25.327  1.00  0.00     0.190 A 
ATOM     20  N   UNL A   1      32.414  21.486  25.718  1.00  0.00    -0.220 NA
ATOM     21  S   UNL A   1      31.167  22.455  23.702  1.00  0.00    -0.101 S 
ATOM     22  C   UNL A   1      32.585  20.596  24.678  1.00  0.00     0.086 A 
ATOM     23  C   UNL A   1      32.051  20.989  23.464  1.00  0.00     0.031 A 
ATOM     24  C   UNL A   1      32.107  20.346  22.125  1.00  0.00     0.059 C 
BRANCH  22  25
ATOM     25  C   UNL A   1      33.239  19.335  24.941  1.00  0.00     0.001 A 
ATOM     26  C   UNL A   1      32.505  18.222  25.341  1.00  0.00     0.010 A 
ATOM     27  C   UNL A   1      34.601  19.204  24.643  1.00  0.00     0.010 A 
ATOM     28  C   UNL A   1      33.128  16.974  25.395  1.00  0.00     0.004 A 
ATOM     29  C   UNL A   1      35.222  17.958  24.717  1.00  0.00     0.004 A 
ATOM     30  C   UNL A   1      34.481  16.826  25.062  1.00  0.00    -0.051 A 
ATOM     31  C   UNL A   1      35.148  15.483  25.089  1.00  0.00     0.044 C 
ENDBRANCH  22  25
ENDBRANCH  17  19
ENDBRANCH  14  15
ENDBRANCH   4   7
ENDBRANCH   2   3
ENDBRANCH   1   2
BRANCH   1  32
ATOM     32  C   UNL A   1      37.995  23.509  25.683  1.00  0.00     0.118 C 
BRANCH  32  33
ATOM     33  N   UNL A   1      38.572  23.208  26.988  1.00  0.00    -0.352 N 
ATOM     34  C   UNL A   1      39.722  23.879  27.405  1.00  0.00     0.251 C 
ATOM     35  H   UNL A   1      38.152  22.536  27.571  1.00  0.00     0.163 HD
ATOM     36  O   UNL A   1      40.799  23.362  27.599  1.00  0.00    -0.269 OA
BRANCH  34  37
ATOM     37  C   UNL A   1      39.519  25.338  27.560  1.00  0.00     0.039 A 
ATOM     38  C   UNL A   1      40.199  26.231  26.730  1.00  0.00     0.014 A 
ATOM     39  C   UNL A   1      38.865  25.773  28.711  1.00  0.00     0.014 A 
ATOM     40  C   UNL A   1      40.331  27.564  27.127  1.00  0.00     0.010 A 
ATOM     41  C   UNL A   1      39.095  27.056  29.153  1.00  0.00     0.010 A 
ATOM     42  C   UNL A   1      39.843  27.955  28.376  1.00  0.00    -0.014 A 
BRANCH  42  43
ATOM     43  C   UNL A   1      40.092  29.249  29.008  1.00  0.00     0.031 A 
ATOM     44  C   UNL A   1      39.031  30.286  29.019  1.00  0.00     0.074 A 
ATOM     45  C   UNL A   1      41.183  29.417  29.787  1.00  0.00     0.049 A 
ATOM     46  N   UNL A   1      39.194  31.493  29.444  1.00  0.00    -0.248 NA
ATOM     47  C   UNL A   1      37.680  30.035  28.532  1.00  0.00     0.031 C 
ATOM     48  C   UNL A   1      41.368  30.417  30.837  1.00  0.00     0.029 A 
ATOM     49  N   UNL A   1      42.428  28.794  29.709  1.00  0.00    -0.354 N 
ATOM     50  C   UNL A   1      37.953  32.071  29.571  1.00  0.00     0.074 A 
ATOM     51  C   UNL A   1      37.045  31.133  28.951  1.00  0.00     0.031 C 
ATOM     52  C   UNL A   1      42.672  30.515  31.125  1.00  0.00     0.029 A 
ATOM     53  C   UNL A   1      43.378  29.749  30.119  1.00  0.00     0.049 A 
ATOM     54  H   UNL A   1      42.608  27.869  29.425  1.00  0.00     0.167 HD
ATOM     55  C   UNL A   1      37.818  33.228  30.285  1.00  0.00     0.037 A 
ATOM     56  C   UNL A   1      44.335  30.257  29.285  1.00  0.00     0.037 A 
ATOM     57  C   UNL A   1      39.117  33.748  30.727  1.00  0.00     0.049 A 
ATOM     58  C   UNL A   1      44.172  31.751  29.037  1.00  0.00     0.074 A 
ATOM     59  C   UNL A   1      39.806  33.789  31.929  1.00  0.00     0.029 A 
ATOM     60  N   UNL A   1      40.040  34.112  29.760  1.00  0.00    -0.354 N 
ATOM     61  N   UNL A   1      43.245  32.488  29.588  1.00  0.00    -0.248 NA
ATOM     62  C   UNL A   1      44.988  32.521  28.097  1.00  0.00     0.031 C 
ATOM     63  C   UNL A   1      41.156  34.170  31.661  1.00  0.00     0.029 A 
ATOM     64  C   UNL A   1      41.289  34.353  30.298  1.00  0.00     0.049 A 
ATOM     65  H   UNL A   1      39.830  34.190  28.801  1.00  0.00     0.167 HD
ATOM     66  C   UNL A   1      43.283  33.752  29.074  1.00  0.00     0.074 A 
ATOM     67  C   UNL A   1      44.408  33.734  28.157  1.00  0.00     0.031 C 
ATOM     68  C   UNL A   1      42.374  34.715  29.401  1.00  0.00     0.037 A 
BRANCH  55  69
ATOM     69  C   UNL A   1      36.478  33.758  30.750  1.00  0.00     0.058 A 
ATOM     70  C   UNL A   1      35.530  34.260  29.833  1.00  0.00     0.135 A 
ATOM     71  C   UNL A   1      36.084  33.840  32.102  1.00  0.00     0.135 A 
ATOM     72  F   UNL A   1      35.713  34.158  28.510  1.00  0.00    -0.206 F 
ATOM     73  C   UNL A   1      34.354  34.902  30.229  1.00  0.00     0.059 A 
ATOM     74  C   UNL A   1      34.949  34.538  32.527  1.00  0.00     0.059 A 
ATOM     75  F   UNL A   1      36.765  33.200  33.063  1.00  0.00    -0.206 F 
ATOM     76  C   UNL A   1      34.090  35.076  31.580  1.00  0.00     0.060 A 
BRANCH  76  77
ATOM     77  S   UNL A   1      32.626  36.004  32.074  1.00  0.00     0.124 S 
ATOM     78  O   UNL A   1      32.205  36.613  30.816  1.00  0.00    -0.237 OA
ATOM     79  O   UNL A   1      31.760  34.949  32.589  1.00  0.00    -0.237 OA
ATOM     80  O   UNL A   1      33.138  36.940  33.071  1.00  0.00    -0.744 OA
ENDBRANCH  76  77
ENDBRANCH  55  69
BRANCH  56  81
ATOM     81  C   UNL A   1      44.859  29.237  28.332  1.00  0.00     0.058 A 
ATOM     82  C   UNL A   1      45.853  28.368  28.831  1.00  0.00     0.135 A 
ATOM     83  C   UNL A   1      44.070  28.781  27.268  1.00  0.00     0.135 A 
ATOM     84  F   UNL A   1      46.661  28.773  29.825  1.00  0.00    -0.206 F 
ATOM     85  C   UNL A   1      45.896  27.029  28.461  1.00  0.00     0.059 A 
ATOM     86  C   UNL A   1      44.112  27.444  26.868  1.00  0.00     0.059 A 
ATOM     87  F   UNL A   1      43.108  29.564  26.757  1.00  0.00    -0.206 F 
ATOM     88  C   UNL A   1      44.958  26.561  27.544  1.00  0.00     0.060 A 
BRANCH  88  89
ATOM     89  S   UNL A   1      44.728  24.769  27.395  1.00  0.00     0.124 S 
ATOM     90  O   UNL A   1      44.553  24.598  25.958  1.00  0.00    -0.237 OA
ATOM     91  O   UNL A   1      45.984  24.257  27.948  1.00  0.00    -0.237 OA
ATOM     92  O   UNL A   1      43.547  24.522  28.212  1.00  0.00    -0.744 OA
ENDBRANCH  88  89
ENDBRANCH  56  81
BRANCH  68  93
ATOM     93  C   UNL A   1      42.443  36.112  28.867  1.00  0.00     0.058 A 
ATOM     94  C   UNL A   1      41.899  36.454  27.620  1.00  0.00     0.135 A 
ATOM     95  C   UNL A   1      43.177  37.113  29.534  1.00  0.00     0.135 A 
ATOM     96  F   UNL A   1      41.219  35.549  26.899  1.00  0.00    -0.206 F 
ATOM     97  C   UNL A   1      42.050  37.729  27.077  1.00  0.00     0.059 A 
ATOM     98  C   UNL A   1      43.379  38.378  28.992  1.00  0.00     0.059 A 
ATOM     99  F   UNL A   1      43.701  36.895  30.750  1.00  0.00    -0.206 F 
ATOM    100  C   UNL A   1      42.792  38.685  27.771  1.00  0.00     0.060 A 
BRANCH 100 101
ATOM    101  S   UNL A   1      43.008  40.330  27.069  1.00  0.00     0.124 S 
ATOM    102  O   UNL A   1      41.656  40.684  26.646  1.00  0.00    -0.237 OA
ATOM    103  O   UNL A   1      43.522  41.068  28.220  1.00  0.00    -0.237 OA
ATOM    104  O   UNL A   1      43.959  40.109  25.985  1.00  0.00    -0.744 OA
ENDBRANCH 100 101
ENDBRANCH  68  93
ENDBRANCH  42  43
ENDBRANCH  34  37
ENDBRANCH  32  33
ENDBRANCH   1  32
TORSDOF 16
ENDMDL
MODEL 3
REMARK VINA RESULT:     -14.1      2.040      4.735
REMARK SMILES CC1=C(C)C[C@H](C(=O)Nc2nc(-c3ccc(C)cc3)c(C)s2)[C@@H](C(=O)NCCCNC(=O)c2ccc(-c3c4nc(c(-c5c(F)cc(S(=O)(=O)[O-])cc5F)c5ccc([nH]5)c(-c5c(F)cc(S(=O)(=O)[O-])cc5F)c5nc(c(-c6c(F)cc(S(=O)(=O)[O-])cc6F)c6ccc3[nH]6)C=C5)C=C4)cc2)C1
REMARK SMILES IDX 28 1 27 2 26 3 24 4 25 5 23 7 1 8 2 9 3 10 99 11 4 12 5 13
REMARK SMILES IDX 6 14 7 15 8 16 9 17 10 19 11 20 22 21 12 22 20 23 21 24
REMARK SMILES IDX 13 25 14 26 19 27 15 28 18 29 16 30 17 31 29 32 30 33 31 34
REMARK SMILES IDX 32 36 33 37 34 38 98 39 35 40 97 41 36 42 37 43 38 44 91 45
REMARK SMILES IDX 39 46 96 47 90 48 92 49 40 50 95 51 89 52 88 53 41 55 75 56
REMARK SMILES IDX 54 57 74 58 55 59 58 60 73 61 93 62 56 63 57 64 72 66 94 67
REMARK SMILES IDX 59 68 42 69 43 70 52 71 44 72 45 73 51 74 53 75 46 76 47 77
REMARK SMILES IDX 48 78 49 79 50 80 76 81 77 82 86 83 78 84 79 85 85 86 87 87
REMARK SMILES IDX 80 88 81 89 82 90 83 91 84 92 60 93 61 94 70 95 62 96 63 97
REMARK SMILES IDX 69 98 71 99 64 100 65 101 66 102 67 103 68 104
REMARK H PARENT 26 6 9 18 30 35 92 54 58 65
REMARK Flexibility Score: inf
ROOT
ATOM      1  C   UNL A   1      32.081  28.924  26.429  1.00  0.00     0.042 C 
ENDROOT
BRANCH   1   2
ATOM      2  C   UNL A   1      32.359  27.423  26.441  1.00  0.00     0.117 C 
BRANCH   2   3
ATOM      3  N   UNL A   1      31.187  26.651  26.833  1.00  0.00    -0.356 N 
ATOM      4  C   UNL A   1      30.255  25.950  26.137  1.00  0.00     0.224 C 
ATOM      5  O   UNL A   1      29.262  25.566  26.772  1.00  0.00    -0.275 OA
ATOM      6  H   UNL A   1      31.040  26.634  27.806  1.00  0.00     0.163 HD
BRANCH   4   7
ATOM      7  C   UNL A   1      30.286  25.706  24.626  1.00  0.00     0.095 C 
ATOM      8  C   UNL A   1      30.482  29.329  23.275  1.00  0.00     0.039 C 
ATOM      9  C   UNL A   1      30.871  27.873  23.359  1.00  0.00    -0.074 C 
ATOM     10  C   UNL A   1      32.062  27.375  22.976  1.00  0.00    -0.074 C 
ATOM     11  C   UNL A   1      29.800  26.972  23.912  1.00  0.00     0.045 C 
ATOM     12  C   UNL A   1      33.169  28.183  22.349  1.00  0.00     0.039 C 
ATOM     13  C   UNL A   1      32.380  25.901  23.086  1.00  0.00     0.045 C 
ATOM     14  C   UNL A   1      31.550  25.039  24.067  1.00  0.00     0.095 C 
BRANCH  14  15
ATOM     15  C   UNL A   1      31.221  23.707  23.364  1.00  0.00     0.230 C 
ATOM     16  O   UNL A   1      30.206  23.578  22.669  1.00  0.00    -0.274 OA
ATOM     17  N   UNL A   1      32.098  22.661  23.402  1.00  0.00    -0.302 N 
ATOM     18  H   UNL A   1      32.057  22.009  22.665  1.00  0.00     0.172 HD
BRANCH  17  19
ATOM     19  C   UNL A   1      33.025  22.446  24.377  1.00  0.00     0.190 A 
ATOM     20  N   UNL A   1      34.317  22.461  24.244  1.00  0.00    -0.220 NA
ATOM     21  S   UNL A   1      32.426  22.224  25.955  1.00  0.00    -0.101 S 
ATOM     22  C   UNL A   1      34.912  22.326  25.480  1.00  0.00     0.086 A 
ATOM     23  C   UNL A   1      34.049  22.096  26.535  1.00  0.00     0.031 A 
ATOM     24  C   UNL A   1      34.321  21.823  27.971  1.00  0.00     0.059 C 
BRANCH  22  25
ATOM     25  C   UNL A   1      36.345  22.484  25.584  1.00  0.00     0.001 A 
ATOM     26  C   UNL A   1      36.901  23.701  25.968  1.00  0.00     0.010 A 
ATOM     27  C   UNL A   1      37.162  21.356  25.440  1.00  0.00     0.010 A 
ATOM     28  C   UNL A   1      38.265  23.772  26.252  1.00  0.00     0.004 A 
ATOM     29  C   UNL A   1      38.528  21.438  25.707  1.00  0.00     0.004 A 
ATOM     30  C   UNL A   1      39.085  22.640  26.148  1.00  0.00    -0.051 A 
ATOM     31  C   UNL A   1      40.546  22.703  26.481  1.00  0.00     0.044 C 
ENDBRANCH  22  25
ENDBRANCH  17  19
ENDBRANCH  14  15
ENDBRANCH   4   7
ENDBRANCH   2   3
ENDBRANCH   1   2
BRANCH   1  32
ATOM     32  C   UNL A   1      32.791  29.658  27.550  1.00  0.00     0.118 C 
BRANCH  32  33
ATOM     33  N   UNL A   1      33.627  30.769  27.113  1.00  0.00    -0.352 N 
ATOM     34  C   UNL A   1      34.542  31.334  28.002  1.00  0.00     0.251 C 
ATOM     35  H   UNL A   1      33.546  31.117  26.196  1.00  0.00     0.163 HD
ATOM     36  O   UNL A   1      34.491  32.467  28.427  1.00  0.00    -0.269 OA
BRANCH  34  37
ATOM     37  C   UNL A   1      35.599  30.389  28.428  1.00  0.00     0.039 A 
ATOM     38  C   UNL A   1      35.721  30.036  29.773  1.00  0.00     0.014 A 
ATOM     39  C   UNL A   1      36.605  30.100  27.509  1.00  0.00     0.014 A 
ATOM     40  C   UNL A   1      36.926  29.495  30.228  1.00  0.00     0.010 A 
ATOM     41  C   UNL A   1      37.827  29.676  27.982  1.00  0.00     0.010 A 
ATOM     42  C   UNL A   1      38.002  29.387  29.344  1.00  0.00    -0.014 A 
BRANCH  42  43
ATOM     43  C   UNL A   1      39.370  29.042  29.724  1.00  0.00     0.031 A 
ATOM     44  C   UNL A   1      39.982  27.783  29.232  1.00  0.00     0.074 A 
ATOM     45  C   UNL A   1      40.158  29.968  30.314  1.00  0.00     0.049 A 
ATOM     46  N   UNL A   1      41.133  27.335  29.606  1.00  0.00    -0.248 NA
ATOM     47  C   UNL A   1      39.321  26.911  28.267  1.00  0.00     0.031 C 
ATOM     48  C   UNL A   1      41.620  29.988  30.344  1.00  0.00     0.029 A 
ATOM     49  N   UNL A   1      39.801  31.036  31.136  1.00  0.00    -0.354 N 
ATOM     50  C   UNL A   1      41.495  26.322  28.748  1.00  0.00     0.074 A 
ATOM     51  C   UNL A   1      40.312  26.071  27.956  1.00  0.00     0.031 C 
ATOM     52  C   UNL A   1      42.026  30.825  31.307  1.00  0.00     0.029 A 
ATOM     53  C   UNL A   1      40.847  31.192  32.065  1.00  0.00     0.049 A 
ATOM     54  H   UNL A   1      38.980  31.576  31.078  1.00  0.00     0.167 HD
ATOM     55  C   UNL A   1      42.789  25.886  28.730  1.00  0.00     0.037 A 
ATOM     56  C   UNL A   1      40.692  30.987  33.407  1.00  0.00     0.037 A 
ATOM     57  C   UNL A   1      43.596  26.534  29.770  1.00  0.00     0.049 A 
ATOM     58  C   UNL A   1      41.521  29.820  33.928  1.00  0.00     0.074 A 
ATOM     59  C   UNL A   1      44.560  27.529  29.794  1.00  0.00     0.029 A 
ATOM     60  N   UNL A   1      43.242  26.331  31.094  1.00  0.00    -0.354 N 
ATOM     61  N   UNL A   1      42.330  29.108  33.190  1.00  0.00    -0.248 NA
ATOM     62  C   UNL A   1      41.454  29.313  35.300  1.00  0.00     0.031 C 
ATOM     63  C   UNL A   1      44.765  27.925  31.151  1.00  0.00     0.029 A 
ATOM     64  C   UNL A   1      43.922  27.176  31.949  1.00  0.00     0.049 A 
ATOM     65  H   UNL A   1      42.583  25.662  31.391  1.00  0.00     0.167 HD
ATOM     66  C   UNL A   1      42.830  28.064  33.913  1.00  0.00     0.074 A 
ATOM     67  C   UNL A   1      42.271  28.244  35.240  1.00  0.00     0.031 C 
ATOM     68  C   UNL A   1      43.634  27.104  33.372  1.00  0.00     0.037 A 
BRANCH  55  69
ATOM     69  C   UNL A   1      43.352  25.023  27.619  1.00  0.00     0.058 A 
ATOM     70  C   UNL A   1      43.720  23.681  27.850  1.00  0.00     0.135 A 
ATOM     71  C   UNL A   1      43.594  25.479  26.307  1.00  0.00     0.135 A 
ATOM     72  F   UNL A   1      43.458  23.072  29.014  1.00  0.00    -0.206 F 
ATOM     73  C   UNL A   1      44.388  22.901  26.902  1.00  0.00     0.059 A 
ATOM     74  C   UNL A   1      44.321  24.745  25.365  1.00  0.00     0.059 A 
ATOM     75  F   UNL A   1      43.089  26.642  25.873  1.00  0.00    -0.206 F 
ATOM     76  C   UNL A   1      44.724  23.455  25.675  1.00  0.00     0.060 A 
BRANCH  76  77
ATOM     77  S   UNL A   1      45.683  22.474  24.506  1.00  0.00     0.124 S 
ATOM     78  O   UNL A   1      46.520  23.484  23.865  1.00  0.00    -0.237 OA
ATOM     79  O   UNL A   1      46.377  21.544  25.391  1.00  0.00    -0.237 OA
ATOM     80  O   UNL A   1      44.664  21.880  23.645  1.00  0.00    -0.744 OA
ENDBRANCH  76  77
ENDBRANCH  55  69
BRANCH  56  81
ATOM     81  C   UNL A   1      39.359  31.436  33.901  1.00  0.00     0.058 A 
ATOM     82  C   UNL A   1      39.234  32.809  34.201  1.00  0.00     0.135 A 
ATOM     83  C   UNL A   1      38.195  30.737  33.555  1.00  0.00     0.135 A 
ATOM     84  F   UNL A   1      40.313  33.515  34.576  1.00  0.00    -0.206 F 
ATOM     85  C   UNL A   1      38.062  33.507  33.929  1.00  0.00     0.059 A 
ATOM     86  C   UNL A   1      37.003  31.417  33.296  1.00  0.00     0.059 A 
ATOM     87  F   UNL A   1      38.256  29.430  33.257  1.00  0.00    -0.206 F 
ATOM     88  C   UNL A   1      36.983  32.811  33.390  1.00  0.00     0.060 A 
BRANCH  88  89
ATOM     89  S   UNL A   1      35.639  33.766  32.637  1.00  0.00     0.124 S 
ATOM     90  O   UNL A   1      35.917  35.117  33.109  1.00  0.00    -0.237 OA
ATOM     91  O   UNL A   1      35.865  33.530  31.210  1.00  0.00    -0.237 OA
ATOM     92  O   UNL A   1      34.445  33.135  33.186  1.00  0.00    -0.744 OA
ENDBRANCH  88  89
ENDBRANCH  56  81
BRANCH  68  93
ATOM     93  C   UNL A   1      44.214  25.983  34.177  1.00  0.00     0.058 A 
ATOM     94  C   UNL A   1      45.598  25.831  34.344  1.00  0.00     0.135 A 
ATOM     95  C   UNL A   1      43.397  24.953  34.690  1.00  0.00     0.135 A 
ATOM     96  F   UNL A   1      46.449  26.745  33.853  1.00  0.00    -0.206 F 
ATOM     97  C   UNL A   1      46.143  24.733  35.008  1.00  0.00     0.059 A 
ATOM     98  C   UNL A   1      43.920  23.828  35.316  1.00  0.00     0.059 A 
ATOM     99  F   UNL A   1      42.059  25.028  34.616  1.00  0.00    -0.206 F 
ATOM    100  C   UNL A   1      45.296  23.736  35.491  1.00  0.00     0.060 A 
BRANCH 100 101
ATOM    101  S   UNL A   1      45.991  22.304  36.334  1.00  0.00     0.124 S 
ATOM    102  O   UNL A   1      47.408  22.380  35.989  1.00  0.00    -0.237 OA
ATOM    103  O   UNL A   1      45.664  22.603  37.725  1.00  0.00    -0.237 OA
ATOM    104  O   UNL A   1      45.268  21.183  35.742  1.00  0.00    -0.744 OA
ENDBRANCH 100 101
ENDBRANCH  68  93
ENDBRANCH  42  43
ENDBRANCH  34  37
ENDBRANCH  32  33
ENDBRANCH   1  32
TORSDOF 16
ENDMDL
