MODEL 1
REMARK VINA RESULT:     -13.9      0.000      0.000
REMARK SMILES Cc1ccccc1NC(=O)NC[C@@H]1CC[C@@H](C(=O)NCCCNC(=O)c2ccc(-c3c4nc(c(-c5c(F)cc(S(=O)(=O)[O-])cc5F)c5ccc([nH]5)c(-c5c(F)cc(S(=O)(=O)[O-])cc5F)c5nc(c(-c6c(F)cc(S(=O)(=O)[O-])cc6F)c6ccc3[nH]6)C=C5)C=C4)cc2)O1
REMARK SMILES IDX 21 1 20 2 19 3 17 4 18 5 16 7 13 8 14 9 92 10 15 11 12 12
REMARK SMILES IDX 11 13 8 14 9 15 10 17 7 19 1 20 2 21 3 22 4 23 6 24 5 25
REMARK SMILES IDX 22 26 23 27 24 28 25 30 26 31 27 32 91 33 28 34 90 35 29 36
REMARK SMILES IDX 30 37 31 38 84 39 32 40 89 41 83 42 85 43 33 44 88 45 82 46
REMARK SMILES IDX 81 47 34 49 68 50 47 51 67 52 48 53 51 54 66 55 86 56 49 57
REMARK SMILES IDX 50 58 65 60 87 61 52 62 35 63 36 64 45 65 37 66 38 67 44 68
REMARK SMILES IDX 46 69 39 70 40 71 41 72 42 73 43 74 69 75 70 76 79 77 71 78
REMARK SMILES IDX 72 79 78 80 80 81 73 82 74 83 75 84 76 85 77 86 53 87 54 88
REMARK SMILES IDX 63 89 55 90 56 91 62 92 64 93 57 94 58 95 59 96 60 97 61 98
REMARK H PARENT 19 6 8 16 11 18 23 29 85 48 51 59
REMARK Flexibility Score: inf
ROOT
ATOM      1  C   UNL A   1      37.424  22.021  25.803  1.00  0.00     0.042 C 
ENDROOT
BRANCH   1   2
ATOM      2  C   UNL A   1      36.984  21.770  24.357  1.00  0.00     0.117 C 
BRANCH   2   3
ATOM      3  N   UNL A   1      35.538  21.639  24.216  1.00  0.00    -0.354 N 
ATOM      4  C   UNL A   1      34.567  22.588  24.023  1.00  0.00     0.249 C 
ATOM      5  O   UNL A   1      33.406  22.194  23.884  1.00  0.00    -0.272 OA
ATOM      6  H   UNL A   1      35.203  20.715  24.268  1.00  0.00     0.163 HD
BRANCH   4   7
ATOM      7  C   UNL A   1      34.929  24.091  23.937  1.00  0.00     0.207 C 
ATOM      8  C   UNL A   1      33.467  25.812  23.292  1.00  0.00     0.138 C 
ATOM      9  C   UNL A   1      34.166  26.239  24.564  1.00  0.00     0.037 C 
ATOM     10  O   UNL A   1      34.334  24.771  22.791  1.00  0.00    -0.363 OA
ATOM     11  C   UNL A   1      34.484  24.894  25.150  1.00  0.00     0.045 C 
BRANCH   8  12
ATOM     12  C   UNL A   1      33.243  26.963  22.294  1.00  0.00     0.149 C 
BRANCH  12  13
ATOM     13  N   UNL A   1      31.818  27.233  22.106  1.00  0.00    -0.335 N 
ATOM     14  N   UNL A   1      30.949  28.712  23.796  1.00  0.00    -0.308 N 
ATOM     15  C   UNL A   1      30.890  28.024  22.647  1.00  0.00     0.319 C 
ATOM     16  H   UNL A   1      30.254  29.408  23.814  1.00  0.00     0.171 HD
ATOM     17  O   UNL A   1      29.861  28.190  21.977  1.00  0.00    -0.249 OA
ATOM     18  H   UNL A   1      31.441  26.681  21.383  1.00  0.00     0.165 HD
BRANCH  14  19
ATOM     19  C   UNL A   1      31.703  28.742  24.982  1.00  0.00     0.045 A 
ATOM     20  C   UNL A   1      30.536  26.616  25.868  1.00  0.00     0.046 C 
ATOM     21  C   UNL A   1      31.449  27.807  26.012  1.00  0.00    -0.027 A 
ATOM     22  C   UNL A   1      32.165  27.892  27.226  1.00  0.00     0.005 A 
ATOM     23  C   UNL A   1      33.134  28.868  27.421  1.00  0.00     0.000 A 
ATOM     24  C   UNL A   1      32.766  29.616  25.161  1.00  0.00     0.026 A 
ATOM     25  C   UNL A   1      33.455  29.715  26.375  1.00  0.00     0.002 A 
ENDBRANCH  14  19
ENDBRANCH  12  13
ENDBRANCH   8  12
ENDBRANCH   4   7
ENDBRANCH   2   3
ENDBRANCH   1   2
BRANCH   1  26
ATOM     26  C   UNL A   1      38.238  23.299  25.979  1.00  0.00     0.118 C 
BRANCH  26  27
ATOM     27  N   UNL A   1      39.582  23.052  26.504  1.00  0.00    -0.352 N 
ATOM     28  C   UNL A   1      40.397  23.960  27.153  1.00  0.00     0.251 C 
ATOM     29  H   UNL A   1      39.943  22.144  26.383  1.00  0.00     0.163 HD
ATOM     30  O   UNL A   1      41.530  23.686  27.535  1.00  0.00    -0.269 OA
BRANCH  28  31
ATOM     31  C   UNL A   1      39.812  25.286  27.406  1.00  0.00     0.039 A 
ATOM     32  C   UNL A   1      40.281  26.355  26.637  1.00  0.00     0.014 A 
ATOM     33  C   UNL A   1      39.139  25.486  28.610  1.00  0.00     0.014 A 
ATOM     34  C   UNL A   1      40.246  27.638  27.173  1.00  0.00     0.010 A 
ATOM     35  C   UNL A   1      39.162  26.753  29.164  1.00  0.00     0.010 A 
ATOM     36  C   UNL A   1      39.777  27.813  28.476  1.00  0.00    -0.014 A 
BRANCH  36  37
ATOM     37  C   UNL A   1      39.995  29.036  29.246  1.00  0.00     0.031 A 
ATOM     38  C   UNL A   1      39.006  30.136  29.194  1.00  0.00     0.074 A 
ATOM     39  C   UNL A   1      41.073  29.148  30.053  1.00  0.00     0.049 A 
ATOM     40  N   UNL A   1      39.200  31.327  29.654  1.00  0.00    -0.248 NA
ATOM     41  C   UNL A   1      37.730  29.989  28.504  1.00  0.00     0.031 C 
ATOM     42  C   UNL A   1      41.275  30.121  31.123  1.00  0.00     0.029 A 
ATOM     43  N   UNL A   1      42.322  28.538  29.896  1.00  0.00    -0.354 N 
ATOM     44  C   UNL A   1      38.013  32.016  29.565  1.00  0.00     0.074 A 
ATOM     45  C   UNL A   1      37.181  31.184  28.733  1.00  0.00     0.031 C 
ATOM     46  C   UNL A   1      42.590  30.245  31.352  1.00  0.00     0.029 A 
ATOM     47  C   UNL A   1      43.286  29.469  30.344  1.00  0.00     0.049 A 
ATOM     48  H   UNL A   1      42.496  27.635  29.544  1.00  0.00     0.167 HD
ATOM     49  C   UNL A   1      37.850  33.151  30.308  1.00  0.00     0.037 A 
ATOM     50  C   UNL A   1      44.226  29.967  29.486  1.00  0.00     0.037 A 
ATOM     51  C   UNL A   1      39.151  33.653  30.773  1.00  0.00     0.049 A 
ATOM     52  C   UNL A   1      44.123  31.455  29.225  1.00  0.00     0.074 A 
ATOM     53  C   UNL A   1      39.843  33.637  31.972  1.00  0.00     0.029 A 
ATOM     54  N   UNL A   1      40.062  34.080  29.817  1.00  0.00    -0.354 N 
ATOM     55  N   UNL A   1      43.231  32.241  29.763  1.00  0.00    -0.248 NA
ATOM     56  C   UNL A   1      44.978  32.161  28.268  1.00  0.00     0.031 C 
ATOM     57  C   UNL A   1      41.205  33.972  31.702  1.00  0.00     0.029 A 
ATOM     58  C   UNL A   1      41.333  34.210  30.346  1.00  0.00     0.049 A 
ATOM     59  H   UNL A   1      39.832  34.267  28.879  1.00  0.00     0.167 HD
ATOM     60  C   UNL A   1      43.322  33.482  29.194  1.00  0.00     0.074 A 
ATOM     61  C   UNL A   1      44.450  33.397  28.286  1.00  0.00     0.031 C 
ATOM     62  C   UNL A   1      42.441  34.489  29.449  1.00  0.00     0.037 A 
BRANCH  49  63
ATOM     63  C   UNL A   1      36.508  33.705  30.782  1.00  0.00     0.058 A 
ATOM     64  C   UNL A   1      35.561  34.179  29.843  1.00  0.00     0.135 A 
ATOM     65  C   UNL A   1      36.127  33.919  32.126  1.00  0.00     0.135 A 
ATOM     66  F   UNL A   1      35.746  34.023  28.524  1.00  0.00    -0.206 F 
ATOM     67  C   UNL A   1      34.391  34.863  30.206  1.00  0.00     0.059 A 
ATOM     68  C   UNL A   1      34.969  34.596  32.511  1.00  0.00     0.059 A 
ATOM     69  F   UNL A   1      36.848  33.497  33.162  1.00  0.00    -0.206 F 
ATOM     70  C   UNL A   1      34.113  35.088  31.546  1.00  0.00     0.060 A 
BRANCH  70  71
ATOM     71  S   UNL A   1      32.654  36.029  32.022  1.00  0.00     0.124 S 
ATOM     72  O   UNL A   1      33.185  36.901  33.066  1.00  0.00    -0.237 OA
ATOM     73  O   UNL A   1      32.285  36.681  30.771  1.00  0.00    -0.237 OA
ATOM     74  O   UNL A   1      31.723  35.004  32.488  1.00  0.00    -0.744 OA
ENDBRANCH  70  71
ENDBRANCH  49  63
BRANCH  50  75
ATOM     75  C   UNL A   1      44.719  28.947  28.524  1.00  0.00     0.058 A 
ATOM     76  C   UNL A   1      44.150  28.945  27.235  1.00  0.00     0.135 A 
ATOM     77  C   UNL A   1      45.959  28.318  28.691  1.00  0.00     0.135 A 
ATOM     78  F   UNL A   1      42.956  29.524  27.025  1.00  0.00    -0.206 F 
ATOM     79  C   UNL A   1      44.857  28.496  26.128  1.00  0.00     0.059 A 
ATOM     80  C   UNL A   1      46.683  27.851  27.593  1.00  0.00     0.059 A 
ATOM     81  F   UNL A   1      46.543  28.285  29.898  1.00  0.00    -0.206 F 
ATOM     82  C   UNL A   1      46.151  28.014  26.312  1.00  0.00     0.060 A 
BRANCH  82  83
ATOM     83  S   UNL A   1      47.183  27.814  24.841  1.00  0.00     0.124 S 
ATOM     84  O   UNL A   1      48.509  28.134  25.357  1.00  0.00    -0.237 OA
ATOM     85  O   UNL A   1      46.956  26.408  24.509  1.00  0.00    -0.237 OA
ATOM     86  O   UNL A   1      46.617  28.777  23.903  1.00  0.00    -0.744 OA
ENDBRANCH  82  83
ENDBRANCH  50  75
BRANCH  62  87
ATOM     87  C   UNL A   1      42.589  35.838  28.825  1.00  0.00     0.058 A 
ATOM     88  C   UNL A   1      43.368  36.838  29.427  1.00  0.00     0.135 A 
ATOM     89  C   UNL A   1      41.861  36.199  27.676  1.00  0.00     0.135 A 
ATOM     90  F   UNL A   1      44.082  36.571  30.532  1.00  0.00    -0.206 F 
ATOM     91  C   UNL A   1      43.427  38.133  28.915  1.00  0.00     0.059 A 
ATOM     92  C   UNL A   1      41.880  37.493  27.166  1.00  0.00     0.059 A 
ATOM     93  F   UNL A   1      41.128  35.290  27.014  1.00  0.00    -0.206 F 
ATOM     94  C   UNL A   1      42.674  38.453  27.786  1.00  0.00     0.060 A 
BRANCH  94  95
ATOM     95  S   UNL A   1      42.697  40.141  27.150  1.00  0.00     0.124 S 
ATOM     96  O   UNL A   1      42.730  40.948  28.367  1.00  0.00    -0.237 OA
ATOM     97  O   UNL A   1      43.927  40.139  26.364  1.00  0.00    -0.237 OA
ATOM     98  O   UNL A   1      41.457  40.225  26.386  1.00  0.00    -0.744 OA
ENDBRANCH  94  95
ENDBRANCH  62  87
ENDBRANCH  36  37
ENDBRANCH  28  31
ENDBRANCH  26  27
ENDBRANCH   1  26
TORSDOF 16
ENDMDL
MODEL 2
REMARK VINA RESULT:     -13.8      4.943     11.409
REMARK SMILES Cc1ccccc1NC(=O)NC[C@@H]1CC[C@@H](C(=O)NCCCNC(=O)c2ccc(-c3c4nc(c(-c5c(F)cc(S(=O)(=O)[O-])cc5F)c5ccc([nH]5)c(-c5c(F)cc(S(=O)(=O)[O-])cc5F)c5nc(c(-c6c(F)cc(S(=O)(=O)[O-])cc6F)c6ccc3[nH]6)C=C5)C=C4)cc2)O1
REMARK SMILES IDX 21 1 20 2 19 3 17 4 18 5 16 7 13 8 14 9 92 10 15 11 12 12
REMARK SMILES IDX 11 13 8 14 9 15 10 17 7 19 1 20 2 21 3 22 4 23 6 24 5 25
REMARK SMILES IDX 22 26 23 27 24 28 25 30 26 31 27 32 91 33 28 34 90 35 29 36
REMARK SMILES IDX 30 37 31 38 84 39 32 40 89 41 83 42 85 43 33 44 88 45 82 46
REMARK SMILES IDX 81 47 34 49 68 50 47 51 67 52 48 53 51 54 66 55 86 56 49 57
REMARK SMILES IDX 50 58 65 60 87 61 52 62 35 63 36 64 45 65 37 66 38 67 44 68
REMARK SMILES IDX 46 69 39 70 40 71 41 72 42 73 43 74 69 75 70 76 79 77 71 78
REMARK SMILES IDX 72 79 78 80 80 81 73 82 74 83 75 84 76 85 77 86 53 87 54 88
REMARK SMILES IDX 63 89 55 90 56 91 62 92 64 93 57 94 58 95 59 96 60 97 61 98
REMARK H PARENT 19 6 8 16 11 18 23 29 85 48 51 59
REMARK Flexibility Score: inf
ROOT
ATOM      1  C   UNL A   1      33.147  30.268  26.764  1.00  0.00     0.042 C 
ENDROOT
BRANCH   1   2
ATOM      2  C   UNL A   1      33.079  29.673  25.353  1.00  0.00     0.117 C 
BRANCH   2   3
ATOM      3  N   UNL A   1      31.727  29.658  24.805  1.00  0.00    -0.354 N 
ATOM      4  C   UNL A   1      31.084  28.727  24.031  1.00  0.00     0.249 C 
ATOM      5  O   UNL A   1      29.904  28.942  23.744  1.00  0.00    -0.272 OA
ATOM      6  H   UNL A   1      31.185  30.449  25.029  1.00  0.00     0.163 HD
BRANCH   4   7
ATOM      7  C   UNL A   1      31.806  27.433  23.579  1.00  0.00     0.207 C 
ATOM      8  C   UNL A   1      30.781  25.350  23.229  1.00  0.00     0.138 C 
ATOM      9  C   UNL A   1      31.659  25.650  22.034  1.00  0.00     0.037 C 
ATOM     10  O   UNL A   1      31.318  26.229  24.242  1.00  0.00    -0.363 OA
ATOM     11  C   UNL A   1      31.670  27.150  22.090  1.00  0.00     0.045 C 
BRANCH   8  12
ATOM     12  C   UNL A   1      30.780  23.865  23.637  1.00  0.00     0.149 C 
BRANCH  12  13
ATOM     13  N   UNL A   1      30.452  23.704  25.054  1.00  0.00    -0.335 N 
ATOM     14  N   UNL A   1      32.425  23.509  26.420  1.00  0.00    -0.308 N 
ATOM     15  C   UNL A   1      31.110  23.661  26.213  1.00  0.00     0.319 C 
ATOM     16  H   UNL A   1      32.662  23.781  27.335  1.00  0.00     0.171 HD
ATOM     17  O   UNL A   1      30.427  23.838  27.231  1.00  0.00    -0.249 OA
ATOM     18  H   UNL A   1      29.482  23.600  25.187  1.00  0.00     0.165 HD
BRANCH  14  19
ATOM     19  C   UNL A   1      33.571  23.080  25.725  1.00  0.00     0.045 A 
ATOM     20  C   UNL A   1      34.411  25.507  25.459  1.00  0.00     0.046 C 
ATOM     21  C   UNL A   1      34.472  24.026  25.184  1.00  0.00    -0.027 A 
ATOM     22  C   UNL A   1      35.580  23.583  24.429  1.00  0.00     0.005 A 
ATOM     23  C   UNL A   1      35.815  22.229  24.225  1.00  0.00     0.000 A 
ATOM     24  C   UNL A   1      33.909  21.739  25.614  1.00  0.00     0.026 A 
ATOM     25  C   UNL A   1      34.993  21.304  24.844  1.00  0.00     0.002 A 
ENDBRANCH  14  19
ENDBRANCH  12  13
ENDBRANCH   8  12
ENDBRANCH   4   7
ENDBRANCH   2   3
ENDBRANCH   1   2
BRANCH   1  26
ATOM     26  C   UNL A   1      34.422  29.903  27.517  1.00  0.00     0.118 C 
BRANCH  26  27
ATOM     27  N   UNL A   1      35.099  31.068  28.090  1.00  0.00    -0.352 N 
ATOM     28  C   UNL A   1      36.385  31.113  28.593  1.00  0.00     0.251 C 
ATOM     29  H   UNL A   1      34.584  31.906  28.120  1.00  0.00     0.163 HD
ATOM     30  O   UNL A   1      36.872  32.124  29.091  1.00  0.00    -0.269 OA
BRANCH  28  31
ATOM     31  C   UNL A   1      37.173  29.878  28.461  1.00  0.00     0.039 A 
ATOM     32  C   UNL A   1      37.308  29.075  29.598  1.00  0.00     0.014 A 
ATOM     33  C   UNL A   1      38.040  29.766  27.376  1.00  0.00     0.014 A 
ATOM     34  C   UNL A   1      38.442  28.281  29.732  1.00  0.00     0.010 A 
ATOM     35  C   UNL A   1      39.194  29.022  27.540  1.00  0.00     0.010 A 
ATOM     36  C   UNL A   1      39.427  28.337  28.745  1.00  0.00    -0.014 A 
BRANCH  36  37
ATOM     37  C   UNL A   1      40.778  27.811  28.932  1.00  0.00     0.031 A 
ATOM     38  C   UNL A   1      41.085  26.405  28.587  1.00  0.00     0.074 A 
ATOM     39  C   UNL A   1      41.767  28.621  29.370  1.00  0.00     0.049 A 
ATOM     40  N   UNL A   1      42.171  25.786  28.911  1.00  0.00    -0.248 NA
ATOM     41  C   UNL A   1      40.111  25.547  27.924  1.00  0.00     0.031 C 
ATOM     42  C   UNL A   1      43.204  28.374  29.297  1.00  0.00     0.029 A 
ATOM     43  N   UNL A   1      41.647  29.742  30.198  1.00  0.00    -0.354 N 
ATOM     44  C   UNL A   1      42.162  24.558  28.290  1.00  0.00     0.074 A 
ATOM     45  C   UNL A   1      40.813  24.418  27.801  1.00  0.00     0.031 C 
ATOM     46  C   UNL A   1      43.819  29.116  30.229  1.00  0.00     0.029 A 
ATOM     47  C   UNL A   1      42.791  29.755  31.029  1.00  0.00     0.049 A 
ATOM     48  H   UNL A   1      40.911  30.396  30.201  1.00  0.00     0.167 HD
ATOM     49  C   UNL A   1      43.336  23.870  28.168  1.00  0.00     0.037 A 
ATOM     50  C   UNL A   1      42.670  29.636  32.384  1.00  0.00     0.037 A 
ATOM     51  C   UNL A   1      44.342  24.402  29.097  1.00  0.00     0.049 A 
ATOM     52  C   UNL A   1      43.282  28.381  32.969  1.00  0.00     0.074 A 
ATOM     53  C   UNL A   1      45.456  25.218  28.983  1.00  0.00     0.029 A 
ATOM     54  N   UNL A   1      44.097  24.287  30.457  1.00  0.00    -0.354 N 
ATOM     55  N   UNL A   1      43.897  27.463  32.274  1.00  0.00    -0.248 NA
ATOM     56  C   UNL A   1      43.178  28.025  34.386  1.00  0.00     0.031 C 
ATOM     57  C   UNL A   1      45.817  25.661  30.292  1.00  0.00     0.029 A 
ATOM     58  C   UNL A   1      44.935  25.101  31.198  1.00  0.00     0.049 A 
ATOM     59  H   UNL A   1      43.412  23.698  30.848  1.00  0.00     0.167 HD
ATOM     60  C   UNL A   1      44.183  26.400  33.085  1.00  0.00     0.074 A 
ATOM     61  C   UNL A   1      43.746  26.806  34.406  1.00  0.00     0.031 C 
ATOM     62  C   UNL A   1      44.707  25.228  32.627  1.00  0.00     0.037 A 
BRANCH  49  63
ATOM     63  C   UNL A   1      43.643  22.845  27.079  1.00  0.00     0.058 A 
ATOM     64  C   UNL A   1      42.939  21.617  27.036  1.00  0.00     0.135 A 
ATOM     65  C   UNL A   1      44.684  22.931  26.128  1.00  0.00     0.135 A 
ATOM     66  F   UNL A   1      41.896  21.382  27.845  1.00  0.00    -0.206 F 
ATOM     67  C   UNL A   1      43.286  20.558  26.185  1.00  0.00     0.059 A 
ATOM     68  C   UNL A   1      45.047  21.892  25.270  1.00  0.00     0.059 A 
ATOM     69  F   UNL A   1      45.429  24.023  25.963  1.00  0.00    -0.206 F 
ATOM     70  C   UNL A   1      44.360  20.696  25.317  1.00  0.00     0.060 A 
BRANCH  70  71
ATOM     71  S   UNL A   1      44.863  19.319  24.273  1.00  0.00     0.124 S 
ATOM     72  O   UNL A   1      46.311  19.314  24.456  1.00  0.00    -0.237 OA
ATOM     73  O   UNL A   1      44.139  18.201  24.866  1.00  0.00    -0.237 OA
ATOM     74  O   UNL A   1      44.410  19.717  22.942  1.00  0.00    -0.744 OA
ENDBRANCH  70  71
ENDBRANCH  49  63
BRANCH  50  75
ATOM     75  C   UNL A   1      41.483  30.355  32.917  1.00  0.00     0.058 A 
ATOM     76  C   UNL A   1      40.323  29.595  33.163  1.00  0.00     0.135 A 
ATOM     77  C   UNL A   1      41.602  31.592  33.562  1.00  0.00     0.135 A 
ATOM     78  F   UNL A   1      40.155  28.407  32.559  1.00  0.00    -0.206 F 
ATOM     79  C   UNL A   1      39.406  29.962  34.139  1.00  0.00     0.059 A 
ATOM     80  C   UNL A   1      40.687  31.985  34.540  1.00  0.00     0.059 A 
ATOM     81  F   UNL A   1      42.683  32.360  33.359  1.00  0.00    -0.206 F 
ATOM     82  C   UNL A   1      39.636  31.126  34.868  1.00  0.00     0.060 A 
BRANCH  82  83
ATOM     83  S   UNL A   1      38.668  31.370  36.375  1.00  0.00     0.124 S 
ATOM     84  O   UNL A   1      37.537  32.149  35.885  1.00  0.00    -0.237 OA
ATOM     85  O   UNL A   1      38.366  29.991  36.760  1.00  0.00    -0.237 OA
ATOM     86  O   UNL A   1      39.592  32.077  37.255  1.00  0.00    -0.744 OA
ENDBRANCH  82  83
ENDBRANCH  50  75
BRANCH  62  87
ATOM     87  C   UNL A   1      45.028  24.098  33.549  1.00  0.00     0.058 A 
ATOM     88  C   UNL A   1      46.322  23.923  34.063  1.00  0.00     0.135 A 
ATOM     89  C   UNL A   1      44.082  23.100  33.845  1.00  0.00     0.135 A 
ATOM     90  F   UNL A   1      47.282  24.830  33.815  1.00  0.00    -0.206 F 
ATOM     91  C   UNL A   1      46.663  22.814  34.836  1.00  0.00     0.059 A 
ATOM     92  C   UNL A   1      44.408  21.969  34.587  1.00  0.00     0.059 A 
ATOM     93  F   UNL A   1      42.811  23.214  33.430  1.00  0.00    -0.206 F 
ATOM     94  C   UNL A   1      45.700  21.839  35.087  1.00  0.00     0.060 A 
BRANCH  94  95
ATOM     95  S   UNL A   1      46.147  20.371  36.036  1.00  0.00     0.124 S 
ATOM     96  O   UNL A   1      45.368  19.316  35.392  1.00  0.00    -0.237 OA
ATOM     97  O   UNL A   1      47.588  20.310  35.818  1.00  0.00    -0.237 OA
ATOM     98  O   UNL A   1      45.726  20.710  37.392  1.00  0.00    -0.744 OA
ENDBRANCH  94  95
ENDBRANCH  62  87
ENDBRANCH  36  37
ENDBRANCH  28  31
ENDBRANCH  26  27
ENDBRANCH   1  26
TORSDOF 16
ENDMDL
MODEL 3
REMARK VINA RESULT:     -13.5      0.942      1.573
REMARK SMILES Cc1ccccc1NC(=O)NC[C@@H]1CC[C@@H](C(=O)NCCCNC(=O)c2ccc(-c3c4nc(c(-c5c(F)cc(S(=O)(=O)[O-])cc5F)c5ccc([nH]5)c(-c5c(F)cc(S(=O)(=O)[O-])cc5F)c5nc(c(-c6c(F)cc(S(=O)(=O)[O-])cc6F)c6ccc3[nH]6)C=C5)C=C4)cc2)O1
REMARK SMILES IDX 21 1 20 2 19 3 17 4 18 5 16 7 13 8 14 9 92 10 15 11 12 12
REMARK SMILES IDX 11 13 8 14 9 15 10 17 7 19 1 20 2 21 3 22 4 23 6 24 5 25
REMARK SMILES IDX 22 26 23 27 24 28 25 30 26 31 27 32 91 33 28 34 90 35 29 36
REMARK SMILES IDX 30 37 31 38 84 39 32 40 89 41 83 42 85 43 33 44 88 45 82 46
REMARK SMILES IDX 81 47 34 49 68 50 47 51 67 52 48 53 51 54 66 55 86 56 49 57
REMARK SMILES IDX 50 58 65 60 87 61 52 62 35 63 36 64 45 65 37 66 38 67 44 68
REMARK SMILES IDX 46 69 39 70 40 71 41 72 42 73 43 74 69 75 70 76 79 77 71 78
REMARK SMILES IDX 72 79 78 80 80 81 73 82 74 83 75 84 76 85 77 86 53 87 54 88
REMARK SMILES IDX 63 89 55 90 56 91 62 92 64 93 57 94 58 95 59 96 60 97 61 98
REMARK H PARENT 19 6 8 16 11 18 23 29 85 48 51 59
REMARK Flexibility Score: inf
ROOT
ATOM      1  C   UNL A   1      37.491  22.146  25.939  1.00  0.00     0.042 C 
ENDROOT
BRANCH   1   2
ATOM      2  C   UNL A   1      36.852  21.870  24.574  1.00  0.00     0.117 C 
BRANCH   2   3
ATOM      3  N   UNL A   1      35.852  20.810  24.615  1.00  0.00    -0.354 N 
ATOM      4  C   UNL A   1      34.508  20.856  24.883  1.00  0.00     0.249 C 
ATOM      5  O   UNL A   1      33.875  19.800  24.800  1.00  0.00    -0.272 OA
ATOM      6  H   UNL A   1      36.199  19.911  24.419  1.00  0.00     0.163 HD
BRANCH   4   7
ATOM      7  C   UNL A   1      33.811  22.196  25.228  1.00  0.00     0.207 C 
ATOM      8  C   UNL A   1      31.763  22.934  24.348  1.00  0.00     0.138 C 
ATOM      9  C   UNL A   1      31.722  23.113  25.850  1.00  0.00     0.037 C 
ATOM     10  O   UNL A   1      33.180  22.839  24.081  1.00  0.00    -0.363 OA
ATOM     11  C   UNL A   1      32.704  22.055  26.263  1.00  0.00     0.045 C 
BRANCH   8  12
ATOM     12  C   UNL A   1      31.063  24.065  23.573  1.00  0.00     0.149 C 
BRANCH  12  13
ATOM     13  N   UNL A   1      31.819  24.436  22.376  1.00  0.00    -0.335 N 
ATOM     14  N   UNL A   1      33.164  26.401  22.731  1.00  0.00    -0.308 N 
ATOM     15  C   UNL A   1      32.759  25.323  22.046  1.00  0.00     0.319 C 
ATOM     16  H   UNL A   1      34.035  26.713  22.396  1.00  0.00     0.171 HD
ATOM     17  O   UNL A   1      33.376  25.095  20.996  1.00  0.00    -0.249 OA
ATOM     18  H   UNL A   1      31.566  23.878  21.606  1.00  0.00     0.165 HD
BRANCH  14  19
ATOM     19  C   UNL A   1      32.724  27.221  23.785  1.00  0.00     0.045 A 
ATOM     20  C   UNL A   1      34.104  25.880  25.506  1.00  0.00     0.046 C 
ATOM     21  C   UNL A   1      33.091  26.926  25.119  1.00  0.00    -0.027 A 
ATOM     22  C   UNL A   1      32.585  27.716  26.174  1.00  0.00     0.005 A 
ATOM     23  C   UNL A   1      31.748  28.797  25.925  1.00  0.00     0.000 A 
ATOM     24  C   UNL A   1      31.998  28.383  23.565  1.00  0.00     0.026 A 
ATOM     25  C   UNL A   1      31.476  29.148  24.614  1.00  0.00     0.002 A 
ENDBRANCH  14  19
ENDBRANCH  12  13
ENDBRANCH   8  12
ENDBRANCH   4   7
ENDBRANCH   2   3
ENDBRANCH   1   2
BRANCH   1  26
ATOM     26  C   UNL A   1      38.352  23.405  25.965  1.00  0.00     0.118 C 
BRANCH  26  27
ATOM     27  N   UNL A   1      39.695  23.165  26.499  1.00  0.00    -0.352 N 
ATOM     28  C   UNL A   1      40.494  24.074  27.166  1.00  0.00     0.251 C 
ATOM     29  H   UNL A   1      40.067  22.263  26.369  1.00  0.00     0.163 HD
ATOM     30  O   UNL A   1      41.627  23.807  27.555  1.00  0.00    -0.269 OA
BRANCH  28  31
ATOM     31  C   UNL A   1      39.892  25.390  27.432  1.00  0.00     0.039 A 
ATOM     32  C   UNL A   1      40.319  26.464  26.645  1.00  0.00     0.014 A 
ATOM     33  C   UNL A   1      39.250  25.583  28.653  1.00  0.00     0.014 A 
ATOM     34  C   UNL A   1      40.276  27.748  27.177  1.00  0.00     0.010 A 
ATOM     35  C   UNL A   1      39.266  26.853  29.201  1.00  0.00     0.010 A 
ATOM     36  C   UNL A   1      39.841  27.921  28.492  1.00  0.00    -0.014 A 
BRANCH  36  37
ATOM     37  C   UNL A   1      40.058  29.151  29.251  1.00  0.00     0.031 A 
ATOM     38  C   UNL A   1      39.060  30.243  29.202  1.00  0.00     0.074 A 
ATOM     39  C   UNL A   1      41.144  29.277  30.046  1.00  0.00     0.049 A 
ATOM     40  N   UNL A   1      39.251  31.438  29.652  1.00  0.00    -0.248 NA
ATOM     41  C   UNL A   1      37.778  30.082  28.526  1.00  0.00     0.031 C 
ATOM     42  C   UNL A   1      41.350  30.258  31.106  1.00  0.00     0.029 A 
ATOM     43  N   UNL A   1      42.395  28.674  29.880  1.00  0.00    -0.354 N 
ATOM     44  C   UNL A   1      38.058  32.119  29.570  1.00  0.00     0.074 A 
ATOM     45  C   UNL A   1      37.223  31.275  28.752  1.00  0.00     0.031 C 
ATOM     46  C   UNL A   1      42.666  30.394  31.321  1.00  0.00     0.029 A 
ATOM     47  C   UNL A   1      43.358  29.615  30.311  1.00  0.00     0.049 A 
ATOM     48  H   UNL A   1      42.572  27.770  29.533  1.00  0.00     0.167 HD
ATOM     49  C   UNL A   1      37.895  33.258  30.307  1.00  0.00     0.037 A 
ATOM     50  C   UNL A   1      44.284  30.114  29.440  1.00  0.00     0.037 A 
ATOM     51  C   UNL A   1      39.196  33.772  30.754  1.00  0.00     0.049 A 
ATOM     52  C   UNL A   1      44.168  31.599  29.169  1.00  0.00     0.074 A 
ATOM     53  C   UNL A   1      39.902  33.769  31.946  1.00  0.00     0.029 A 
ATOM     54  N   UNL A   1      40.094  34.199  29.786  1.00  0.00    -0.354 N 
ATOM     55  N   UNL A   1      43.276  32.383  29.711  1.00  0.00    -0.248 NA
ATOM     56  C   UNL A   1      45.008  32.304  28.198  1.00  0.00     0.031 C 
ATOM     57  C   UNL A   1      41.258  34.113  31.659  1.00  0.00     0.029 A 
ATOM     58  C   UNL A   1      41.370  34.341  30.300  1.00  0.00     0.049 A 
ATOM     59  H   UNL A   1      39.853  34.378  28.849  1.00  0.00     0.167 HD
ATOM     60  C   UNL A   1      43.352  33.619  29.132  1.00  0.00     0.074 A 
ATOM     61  C   UNL A   1      44.471  33.537  28.213  1.00  0.00     0.031 C 
ATOM     62  C   UNL A   1      42.467  34.622  29.389  1.00  0.00     0.037 A 
BRANCH  49  63
ATOM     63  C   UNL A   1      36.554  33.805  30.791  1.00  0.00     0.058 A 
ATOM     64  C   UNL A   1      35.579  34.232  29.858  1.00  0.00     0.135 A 
ATOM     65  C   UNL A   1      36.198  34.059  32.134  1.00  0.00     0.135 A 
ATOM     66  F   UNL A   1      35.739  34.034  28.541  1.00  0.00    -0.206 F 
ATOM     67  C   UNL A   1      34.406  34.909  30.222  1.00  0.00     0.059 A 
ATOM     68  C   UNL A   1      35.036  34.729  32.522  1.00  0.00     0.059 A 
ATOM     69  F   UNL A   1      36.948  33.683  33.169  1.00  0.00    -0.206 F 
ATOM     70  C   UNL A   1      34.152  35.174  31.560  1.00  0.00     0.060 A 
BRANCH  70  71
ATOM     71  S   UNL A   1      32.688  36.107  32.036  1.00  0.00     0.124 S 
ATOM     72  O   UNL A   1      32.365  36.813  30.800  1.00  0.00    -0.237 OA
ATOM     73  O   UNL A   1      31.763  35.050  32.429  1.00  0.00    -0.237 OA
ATOM     74  O   UNL A   1      33.163  36.955  33.126  1.00  0.00    -0.744 OA
ENDBRANCH  70  71
ENDBRANCH  49  63
BRANCH  50  75
ATOM     75  C   UNL A   1      44.774  29.090  28.479  1.00  0.00     0.058 A 
ATOM     76  C   UNL A   1      44.181  29.064  27.203  1.00  0.00     0.135 A 
ATOM     77  C   UNL A   1      46.028  28.483  28.629  1.00  0.00     0.135 A 
ATOM     78  F   UNL A   1      42.973  29.621  27.010  1.00  0.00    -0.206 F 
ATOM     79  C   UNL A   1      44.873  28.613  26.087  1.00  0.00     0.059 A 
ATOM     80  C   UNL A   1      46.738  28.015  27.522  1.00  0.00     0.059 A 
ATOM     81  F   UNL A   1      46.636  28.474  29.824  1.00  0.00    -0.206 F 
ATOM     82  C   UNL A   1      46.177  28.154  26.250  1.00  0.00     0.060 A 
BRANCH  82  83
ATOM     83  S   UNL A   1      47.183  27.954  24.762  1.00  0.00     0.124 S 
ATOM     84  O   UNL A   1      46.640  28.988  23.889  1.00  0.00    -0.237 OA
ATOM     85  O   UNL A   1      48.529  28.205  25.277  1.00  0.00    -0.237 OA
ATOM     86  O   UNL A   1      46.914  26.578  24.359  1.00  0.00    -0.744 OA
ENDBRANCH  82  83
ENDBRANCH  50  75
BRANCH  62  87
ATOM     87  C   UNL A   1      42.598  35.968  28.754  1.00  0.00     0.058 A 
ATOM     88  C   UNL A   1      43.189  37.042  29.438  1.00  0.00     0.135 A 
ATOM     89  C   UNL A   1      42.031  36.244  27.497  1.00  0.00     0.135 A 
ATOM     90  F   UNL A   1      43.742  36.856  30.647  1.00  0.00    -0.206 F 
ATOM     91  C   UNL A   1      43.220  38.327  28.901  1.00  0.00     0.059 A 
ATOM     92  C   UNL A   1      42.021  37.526  26.956  1.00  0.00     0.059 A 
ATOM     93  F   UNL A   1      41.486  35.265  26.759  1.00  0.00    -0.206 F 
ATOM     94  C   UNL A   1      42.628  38.562  27.661  1.00  0.00     0.060 A 
BRANCH  94  95
ATOM     95  S   UNL A   1      42.610  40.234  26.985  1.00  0.00     0.124 S 
ATOM     96  O   UNL A   1      41.218  40.408  26.581  1.00  0.00    -0.237 OA
ATOM     97  O   UNL A   1      43.034  41.020  28.139  1.00  0.00    -0.237 OA
ATOM     98  O   UNL A   1      43.568  40.158  25.885  1.00  0.00    -0.744 OA
ENDBRANCH  94  95
ENDBRANCH  62  87
ENDBRANCH  36  37
ENDBRANCH  28  31
ENDBRANCH  26  27
ENDBRANCH   1  26
TORSDOF 16
ENDMDL
