MODEL 1
REMARK VINA RESULT:      -9.9      0.000      0.000
REMARK SMILES Cc1ccc(O)c(C(=O)NCc2ccc(C(=O)NCCCNC(=O)c3ccc(-c4c5nc(c(-c6c(F)cc(S(=O)(=O)[O-])cc6F)c6ccc([nH]6)c(-c6c(F)cc(S(=O)(=O)[O-])cc6F)c6nc(c(-c7c(F)cc(S(=O)(=O)[O-])cc7F)c7ccc4[nH]7)C=C6)C=C5)cc3)o2)c1
REMARK SMILES IDX 19 1 18 2 16 3 17 4 15 6 12 7 13 8 91 9 14 10 11 11 10 12
REMARK SMILES IDX 8 13 9 14 7 16 1 17 2 18 3 19 92 20 4 21 5 22 6 23 20 25
REMARK SMILES IDX 21 26 22 27 23 28 24 30 25 31 26 32 90 33 27 34 89 35 28 36
REMARK SMILES IDX 29 37 30 38 83 39 31 40 88 41 82 42 84 43 32 44 87 45 81 46
REMARK SMILES IDX 80 47 33 49 67 50 46 51 66 52 47 53 50 54 65 55 85 56 48 57
REMARK SMILES IDX 49 58 64 60 86 61 51 62 34 63 35 64 44 65 36 66 37 67 43 68
REMARK SMILES IDX 45 69 38 70 39 71 40 72 41 73 42 74 68 75 69 76 78 77 70 78
REMARK SMILES IDX 71 79 77 80 79 81 72 82 73 83 74 84 75 85 76 86 52 87 53 88
REMARK SMILES IDX 62 89 54 90 55 91 61 92 63 93 56 94 57 95 58 96 59 97 60 98
REMARK H PARENT 18 5 10 15 6 24 22 29 84 48 50 59
REMARK Flexibility Score: inf
ROOT
ATOM      1  C   UNL A   1      35.642  34.058  30.627  1.00  0.00     0.118 C 
ENDROOT
BRANCH   1   2
ATOM      2  N   UNL A   1      35.306  34.535  31.953  1.00  0.00    -0.349 N 
ATOM      3  C   UNL A   1      36.091  34.841  33.036  1.00  0.00     0.286 C 
ATOM      4  O   UNL A   1      35.488  35.314  34.010  1.00  0.00    -0.266 OA
ATOM      5  H   UNL A   1      34.342  34.664  32.104  1.00  0.00     0.163 HD
BRANCH   3   6
ATOM      6  C   UNL A   1      37.526  34.639  33.030  1.00  0.00     0.191 A 
ATOM      7  C   UNL A   1      39.490  34.532  34.063  1.00  0.00     0.124 A 
ATOM      8  C   UNL A   1      39.732  34.263  32.734  1.00  0.00     0.048 A 
ATOM      9  O   UNL A   1      38.163  34.778  34.240  1.00  0.00    -0.454 OA
ATOM     10  C   UNL A   1      38.475  34.294  32.084  1.00  0.00     0.056 A 
BRANCH   7  11
ATOM     11  C   UNL A   1      40.317  34.540  35.294  1.00  0.00     0.191 C 
BRANCH  11  12
ATOM     12  N   UNL A   1      39.676  33.686  36.270  1.00  0.00    -0.345 N 
ATOM     13  C   UNL A   1      39.247  32.389  36.300  1.00  0.00     0.255 C 
ATOM     14  O   UNL A   1      38.726  32.020  37.359  1.00  0.00    -0.269 OA
ATOM     15  H   UNL A   1      39.508  34.152  37.120  1.00  0.00     0.164 HD
BRANCH  13  16
ATOM     16  C   UNL A   1      39.354  31.387  35.193  1.00  0.00     0.081 A 
ATOM     17  C   UNL A   1      41.846  29.090  33.414  1.00  0.00     0.044 C 
ATOM     18  C   UNL A   1      40.567  29.791  33.774  1.00  0.00    -0.050 A 
ATOM     19  C   UNL A   1      39.411  29.556  33.030  1.00  0.00     0.007 A 
ATOM     20  C   UNL A   1      40.525  30.700  34.847  1.00  0.00     0.021 A 
ATOM     21  C   UNL A   1      38.234  30.226  33.348  1.00  0.00     0.047 A 
ATOM     22  C   UNL A   1      38.209  31.131  34.410  1.00  0.00     0.128 A 
BRANCH  22  23
ATOM     23  O   UNL A   1      36.996  31.744  34.612  1.00  0.00    -0.507 OA
ATOM     24  H   UNL A   1      36.884  32.335  35.330  1.00  0.00     0.293 HD
ENDBRANCH  22  23
ENDBRANCH  13  16
ENDBRANCH  11  12
ENDBRANCH   7  11
ENDBRANCH   3   6
ENDBRANCH   1   2
BRANCH   1  25
ATOM     25  C   UNL A   1      34.762  32.884  30.210  1.00  0.00     0.042 C 
BRANCH  25  26
ATOM     26  C   UNL A   1      34.665  32.721  28.693  1.00  0.00     0.118 C 
BRANCH  26  27
ATOM     27  N   UNL A   1      33.935  31.514  28.321  1.00  0.00    -0.352 N 
ATOM     28  C   UNL A   1      34.391  30.264  27.988  1.00  0.00     0.251 C 
ATOM     29  H   UNL A   1      32.955  31.614  28.308  1.00  0.00     0.163 HD
ATOM     30  O   UNL A   1      33.620  29.469  27.457  1.00  0.00    -0.269 OA
BRANCH  28  31
ATOM     31  C   UNL A   1      35.790  29.874  28.261  1.00  0.00     0.039 A 
ATOM     32  C   UNL A   1      36.724  29.937  27.223  1.00  0.00     0.014 A 
ATOM     33  C   UNL A   1      36.171  29.400  29.518  1.00  0.00     0.014 A 
ATOM     34  C   UNL A   1      38.051  29.578  27.464  1.00  0.00     0.010 A 
ATOM     35  C   UNL A   1      37.510  29.119  29.777  1.00  0.00     0.010 A 
ATOM     36  C   UNL A   1      38.462  29.196  28.751  1.00  0.00    -0.014 A 
BRANCH  36  37
ATOM     37  C   UNL A   1      39.883  28.879  29.042  1.00  0.00     0.031 A 
ATOM     38  C   UNL A   1      40.787  29.926  29.636  1.00  0.00     0.074 A 
ATOM     39  C   UNL A   1      40.371  27.668  28.712  1.00  0.00     0.049 A 
ATOM     40  N   UNL A   1      42.068  29.859  29.895  1.00  0.00    -0.248 NA
ATOM     41  C   UNL A   1      40.179  31.228  29.953  1.00  0.00     0.031 C 
ATOM     42  C   UNL A   1      39.604  26.589  28.084  1.00  0.00     0.029 A 
ATOM     43  N   UNL A   1      41.631  27.140  28.845  1.00  0.00    -0.354 N 
ATOM     44  C   UNL A   1      42.420  31.107  30.395  1.00  0.00     0.074 A 
ATOM     45  C   UNL A   1      41.231  31.931  30.346  1.00  0.00     0.031 C 
ATOM     46  C   UNL A   1      40.401  25.525  27.908  1.00  0.00     0.029 A 
ATOM     47  C   UNL A   1      41.746  25.856  28.368  1.00  0.00     0.049 A 
ATOM     48  H   UNL A   1      42.382  27.636  29.246  1.00  0.00     0.167 HD
ATOM     49  C   UNL A   1      43.618  31.522  30.872  1.00  0.00     0.037 A 
ATOM     50  C   UNL A   1      42.816  25.041  28.296  1.00  0.00     0.037 A 
ATOM     51  C   UNL A   1      44.791  30.687  30.931  1.00  0.00     0.049 A 
ATOM     52  C   UNL A   1      44.138  25.526  28.827  1.00  0.00     0.074 A 
ATOM     53  C   UNL A   1      46.040  30.993  31.443  1.00  0.00     0.029 A 
ATOM     54  N   UNL A   1      44.863  29.385  30.457  1.00  0.00    -0.354 N 
ATOM     55  N   UNL A   1      44.437  26.688  29.357  1.00  0.00    -0.248 NA
ATOM     56  C   UNL A   1      45.265  24.586  28.761  1.00  0.00     0.031 C 
ATOM     57  C   UNL A   1      46.879  29.894  31.235  1.00  0.00     0.029 A 
ATOM     58  C   UNL A   1      46.139  28.881  30.646  1.00  0.00     0.049 A 
ATOM     59  H   UNL A   1      44.115  28.891  30.048  1.00  0.00     0.167 HD
ATOM     60  C   UNL A   1      45.780  26.610  29.711  1.00  0.00     0.074 A 
ATOM     61  C   UNL A   1      46.229  25.281  29.349  1.00  0.00     0.031 C 
ATOM     62  C   UNL A   1      46.569  27.552  30.284  1.00  0.00     0.037 A 
BRANCH  49  63
ATOM     63  C   UNL A   1      43.719  32.939  31.372  1.00  0.00     0.058 A 
ATOM     64  C   UNL A   1      44.111  33.993  30.530  1.00  0.00     0.135 A 
ATOM     65  C   UNL A   1      43.387  33.255  32.700  1.00  0.00     0.135 A 
ATOM     66  F   UNL A   1      44.453  33.749  29.255  1.00  0.00    -0.206 F 
ATOM     67  C   UNL A   1      44.202  35.301  30.993  1.00  0.00     0.059 A 
ATOM     68  C   UNL A   1      43.441  34.562  33.177  1.00  0.00     0.059 A 
ATOM     69  F   UNL A   1      43.005  32.289  33.550  1.00  0.00    -0.206 F 
ATOM     70  C   UNL A   1      43.864  35.576  32.320  1.00  0.00     0.060 A 
BRANCH  70  71
ATOM     71  S   UNL A   1      43.986  37.280  32.902  1.00  0.00     0.124 S 
ATOM     72  O   UNL A   1      45.313  37.287  33.508  1.00  0.00    -0.237 OA
ATOM     73  O   UNL A   1      43.850  38.043  31.665  1.00  0.00    -0.237 OA
ATOM     74  O   UNL A   1      42.871  37.402  33.835  1.00  0.00    -0.744 OA
ENDBRANCH  70  71
ENDBRANCH  49  63
BRANCH  50  75
ATOM     75  C   UNL A   1      42.674  23.678  27.717  1.00  0.00     0.058 A 
ATOM     76  C   UNL A   1      42.815  23.460  26.339  1.00  0.00     0.135 A 
ATOM     77  C   UNL A   1      42.414  22.564  28.532  1.00  0.00     0.135 A 
ATOM     78  F   UNL A   1      43.060  24.491  25.518  1.00  0.00    -0.206 F 
ATOM     79  C   UNL A   1      42.687  22.189  25.786  1.00  0.00     0.059 A 
ATOM     80  C   UNL A   1      42.309  21.281  28.005  1.00  0.00     0.059 A 
ATOM     81  F   UNL A   1      42.288  22.716  29.860  1.00  0.00    -0.206 F 
ATOM     82  C   UNL A   1      42.438  21.105  26.629  1.00  0.00     0.060 A 
BRANCH  82  83
ATOM     83  S   UNL A   1      42.326  19.454  25.904  1.00  0.00     0.124 S 
ATOM     84  O   UNL A   1      40.895  19.343  25.648  1.00  0.00    -0.237 OA
ATOM     85  O   UNL A   1      43.178  19.580  24.725  1.00  0.00    -0.237 OA
ATOM     86  O   UNL A   1      42.850  18.590  26.957  1.00  0.00    -0.744 OA
ENDBRANCH  82  83
ENDBRANCH  50  75
BRANCH  62  87
ATOM     87  C   UNL A   1      47.991  27.171  30.591  1.00  0.00     0.058 A 
ATOM     88  C   UNL A   1      49.038  27.425  29.691  1.00  0.00     0.135 A 
ATOM     89  C   UNL A   1      48.317  26.585  31.826  1.00  0.00     0.135 A 
ATOM     90  F   UNL A   1      48.781  27.977  28.495  1.00  0.00    -0.206 F 
ATOM     91  C   UNL A   1      50.354  27.090  29.993  1.00  0.00     0.059 A 
ATOM     92  C   UNL A   1      49.630  26.269  32.162  1.00  0.00     0.059 A 
ATOM     93  F   UNL A   1      47.356  26.330  32.728  1.00  0.00    -0.206 F 
ATOM     94  C   UNL A   1      50.640  26.514  31.233  1.00  0.00     0.060 A 
BRANCH  94  95
ATOM     95  S   UNL A   1      52.355  26.111  31.624  1.00  0.00     0.124 S 
ATOM     96  O   UNL A   1      52.695  27.163  32.576  1.00  0.00    -0.237 OA
ATOM     97  O   UNL A   1      52.240  24.766  32.180  1.00  0.00    -0.237 OA
ATOM     98  O   UNL A   1      53.029  26.193  30.331  1.00  0.00    -0.744 OA
ENDBRANCH  94  95
ENDBRANCH  62  87
ENDBRANCH  36  37
ENDBRANCH  28  31
ENDBRANCH  26  27
ENDBRANCH  25  26
ENDBRANCH   1  25
TORSDOF 17
ENDMDL
MODEL 2
REMARK VINA RESULT:      -9.6      4.406      7.592
REMARK SMILES Cc1ccc(O)c(C(=O)NCc2ccc(C(=O)NCCCNC(=O)c3ccc(-c4c5nc(c(-c6c(F)cc(S(=O)(=O)[O-])cc6F)c6ccc([nH]6)c(-c6c(F)cc(S(=O)(=O)[O-])cc6F)c6nc(c(-c7c(F)cc(S(=O)(=O)[O-])cc7F)c7ccc4[nH]7)C=C6)C=C5)cc3)o2)c1
REMARK SMILES IDX 19 1 18 2 16 3 17 4 15 6 12 7 13 8 91 9 14 10 11 11 10 12
REMARK SMILES IDX 8 13 9 14 7 16 1 17 2 18 3 19 92 20 4 21 5 22 6 23 20 25
REMARK SMILES IDX 21 26 22 27 23 28 24 30 25 31 26 32 90 33 27 34 89 35 28 36
REMARK SMILES IDX 29 37 30 38 83 39 31 40 88 41 82 42 84 43 32 44 87 45 81 46
REMARK SMILES IDX 80 47 33 49 67 50 46 51 66 52 47 53 50 54 65 55 85 56 48 57
REMARK SMILES IDX 49 58 64 60 86 61 51 62 34 63 35 64 44 65 36 66 37 67 43 68
REMARK SMILES IDX 45 69 38 70 39 71 40 72 41 73 42 74 68 75 69 76 78 77 70 78
REMARK SMILES IDX 71 79 77 80 79 81 72 82 73 83 74 84 75 85 76 86 52 87 53 88
REMARK SMILES IDX 62 89 54 90 55 91 61 92 63 93 56 94 57 95 58 96 59 97 60 98
REMARK H PARENT 18 5 10 15 6 24 22 29 84 48 50 59
REMARK Flexibility Score: inf
ROOT
ATOM      1  C   UNL A   1      34.316  29.735  27.222  1.00  0.00     0.118 C 
ENDROOT
BRANCH   1   2
ATOM      2  N   UNL A   1      33.056  29.177  27.670  1.00  0.00    -0.349 N 
ATOM      3  C   UNL A   1      32.341  28.086  27.243  1.00  0.00     0.286 C 
ATOM      4  O   UNL A   1      31.327  27.826  27.905  1.00  0.00    -0.266 OA
ATOM      5  H   UNL A   1      32.638  29.668  28.413  1.00  0.00     0.163 HD
BRANCH   3   6
ATOM      6  C   UNL A   1      32.758  27.287  26.108  1.00  0.00     0.191 A 
ATOM      7  C   UNL A   1      32.315  25.954  24.388  1.00  0.00     0.124 A 
ATOM      8  C   UNL A   1      33.680  26.139  24.396  1.00  0.00     0.048 A 
ATOM      9  O   UNL A   1      31.759  26.629  25.430  1.00  0.00    -0.454 OA
ATOM     10  C   UNL A   1      33.957  27.019  25.469  1.00  0.00     0.056 A 
BRANCH   7  11
ATOM     11  C   UNL A   1      31.361  25.265  23.484  1.00  0.00     0.191 C 
BRANCH  11  12
ATOM     12  N   UNL A   1      32.107  24.744  22.359  1.00  0.00    -0.345 N 
ATOM     13  C   UNL A   1      32.805  23.599  22.097  1.00  0.00     0.255 C 
ATOM     14  O   UNL A   1      33.322  23.531  20.975  1.00  0.00    -0.269 OA
ATOM     15  H   UNL A   1      32.113  25.366  21.596  1.00  0.00     0.164 HD
BRANCH  13  16
ATOM     16  C   UNL A   1      32.993  22.436  23.020  1.00  0.00     0.081 A 
ATOM     17  C   UNL A   1      34.911  21.322  26.139  1.00  0.00     0.044 C 
ATOM     18  C   UNL A   1      33.986  21.297  24.955  1.00  0.00    -0.050 A 
ATOM     19  C   UNL A   1      33.287  20.132  24.644  1.00  0.00     0.007 A 
ATOM     20  C   UNL A   1      33.829  22.435  24.143  1.00  0.00     0.021 A 
ATOM     21  C   UNL A   1      32.451  20.102  23.532  1.00  0.00     0.047 A 
ATOM     22  C   UNL A   1      32.312  21.235  22.730  1.00  0.00     0.128 A 
BRANCH  22  23
ATOM     23  O   UNL A   1      31.476  21.075  21.652  1.00  0.00    -0.507 OA
ATOM     24  H   UNL A   1      31.693  20.460  20.979  1.00  0.00     0.293 HD
ENDBRANCH  22  23
ENDBRANCH  13  16
ENDBRANCH  11  12
ENDBRANCH   7  11
ENDBRANCH   3   6
ENDBRANCH   1   2
BRANCH   1  25
ATOM     25  C   UNL A   1      34.455  31.202  27.614  1.00  0.00     0.042 C 
BRANCH  25  26
ATOM     26  C   UNL A   1      35.746  31.496  28.379  1.00  0.00     0.118 C 
BRANCH  26  27
ATOM     27  N   UNL A   1      35.640  31.125  29.785  1.00  0.00    -0.352 N 
ATOM     28  C   UNL A   1      36.471  30.370  30.572  1.00  0.00     0.251 C 
ATOM     29  H   UNL A   1      34.842  31.475  30.245  1.00  0.00     0.163 HD
ATOM     30  O   UNL A   1      36.063  29.966  31.658  1.00  0.00    -0.269 OA
BRANCH  28  31
ATOM     31  C   UNL A   1      37.841  30.043  30.125  1.00  0.00     0.039 A 
ATOM     32  C   UNL A   1      38.849  29.898  31.083  1.00  0.00     0.014 A 
ATOM     33  C   UNL A   1      38.146  29.929  28.766  1.00  0.00     0.014 A 
ATOM     34  C   UNL A   1      40.148  29.585  30.680  1.00  0.00     0.010 A 
ATOM     35  C   UNL A   1      39.423  29.538  28.372  1.00  0.00     0.010 A 
ATOM     36  C   UNL A   1      40.439  29.370  29.323  1.00  0.00    -0.014 A 
BRANCH  36  37
ATOM     37  C   UNL A   1      41.798  28.967  28.882  1.00  0.00     0.031 A 
ATOM     38  C   UNL A   1      42.903  29.987  28.803  1.00  0.00     0.074 A 
ATOM     39  C   UNL A   1      42.017  27.696  28.493  1.00  0.00     0.049 A 
ATOM     40  N   UNL A   1      44.131  29.841  28.377  1.00  0.00    -0.248 NA
ATOM     41  C   UNL A   1      42.576  31.357  29.231  1.00  0.00     0.031 C 
ATOM     42  C   UNL A   1      41.012  26.631  28.477  1.00  0.00     0.029 A 
ATOM     43  N   UNL A   1      43.153  27.084  28.024  1.00  0.00    -0.354 N 
ATOM     44  C   UNL A   1      44.719  31.096  28.476  1.00  0.00     0.074 A 
ATOM     45  C   UNL A   1      43.695  32.005  28.946  1.00  0.00     0.031 C 
ATOM     46  C   UNL A   1      41.579  25.495  28.044  1.00  0.00     0.029 A 
ATOM     47  C   UNL A   1      42.975  25.756  27.710  1.00  0.00     0.049 A 
ATOM     48  H   UNL A   1      44.014  27.551  27.924  1.00  0.00     0.167 HD
ATOM     49  C   UNL A   1      46.001  31.454  28.222  1.00  0.00     0.037 A 
ATOM     50  C   UNL A   1      43.835  24.855  27.198  1.00  0.00     0.037 A 
ATOM     51  C   UNL A   1      47.016  30.537  27.771  1.00  0.00     0.049 A 
ATOM     52  C   UNL A   1      45.252  25.278  26.917  1.00  0.00     0.074 A 
ATOM     53  C   UNL A   1      48.357  30.786  27.534  1.00  0.00     0.029 A 
ATOM     54  N   UNL A   1      46.803  29.196  27.483  1.00  0.00    -0.354 N 
ATOM     55  N   UNL A   1      45.809  26.455  27.080  1.00  0.00    -0.248 NA
ATOM     56  C   UNL A   1      46.161  24.249  26.395  1.00  0.00     0.031 C 
ATOM     57  C   UNL A   1      48.942  29.609  27.056  1.00  0.00     0.029 A 
ATOM     58  C   UNL A   1      47.981  28.610  27.051  1.00  0.00     0.049 A 
ATOM     59  H   UNL A   1      45.940  28.729  27.574  1.00  0.00     0.167 HD
ATOM     60  C   UNL A   1      47.139  26.302  26.704  1.00  0.00     0.074 A 
ATOM     61  C   UNL A   1      47.305  24.914  26.323  1.00  0.00     0.031 C 
ATOM     62  C   UNL A   1      48.132  27.225  26.679  1.00  0.00     0.037 A 
BRANCH  49  63
ATOM     63  C   UNL A   1      46.378  32.897  28.430  1.00  0.00     0.058 A 
ATOM     64  C   UNL A   1      46.193  33.861  27.426  1.00  0.00     0.135 A 
ATOM     65  C   UNL A   1      46.899  33.331  29.661  1.00  0.00     0.135 A 
ATOM     66  F   UNL A   1      45.712  33.503  26.224  1.00  0.00    -0.206 F 
ATOM     67  C   UNL A   1      46.540  35.194  27.621  1.00  0.00     0.059 A 
ATOM     68  C   UNL A   1      47.225  34.665  29.889  1.00  0.00     0.059 A 
ATOM     69  F   UNL A   1      47.097  32.454  30.658  1.00  0.00    -0.206 F 
ATOM     70  C   UNL A   1      47.056  35.587  28.857  1.00  0.00     0.060 A 
BRANCH  70  71
ATOM     71  S   UNL A   1      47.498  37.321  29.092  1.00  0.00     0.124 S 
ATOM     72  O   UNL A   1      46.472  37.758  30.034  1.00  0.00    -0.237 OA
ATOM     73  O   UNL A   1      48.852  37.227  29.630  1.00  0.00    -0.237 OA
ATOM     74  O   UNL A   1      47.397  37.884  27.750  1.00  0.00    -0.744 OA
ENDBRANCH  70  71
ENDBRANCH  49  63
BRANCH  50  75
ATOM     75  C   UNL A   1      43.383  23.463  26.937  1.00  0.00     0.058 A 
ATOM     76  C   UNL A   1      43.198  22.996  25.628  1.00  0.00     0.135 A 
ATOM     77  C   UNL A   1      43.146  22.565  27.990  1.00  0.00     0.135 A 
ATOM     78  F   UNL A   1      43.407  23.815  24.587  1.00  0.00    -0.206 F 
ATOM     79  C   UNL A   1      42.778  21.694  25.371  1.00  0.00     0.059 A 
ATOM     80  C   UNL A   1      42.752  21.251  27.757  1.00  0.00     0.059 A 
ATOM     81  F   UNL A   1      43.326  22.956  29.261  1.00  0.00    -0.206 F 
ATOM     82  C   UNL A   1      42.561  20.828  26.443  1.00  0.00     0.060 A 
BRANCH  82  83
ATOM     83  S   UNL A   1      42.067  19.126  26.095  1.00  0.00     0.124 S 
ATOM     84  O   UNL A   1      40.625  19.267  25.933  1.00  0.00    -0.237 OA
ATOM     85  O   UNL A   1      42.820  18.832  24.879  1.00  0.00    -0.237 OA
ATOM     86  O   UNL A   1      42.503  18.400  27.283  1.00  0.00    -0.744 OA
ENDBRANCH  82  83
ENDBRANCH  50  75
BRANCH  62  87
ATOM     87  C   UNL A   1      49.499  26.759  26.259  1.00  0.00     0.058 A 
ATOM     88  C   UNL A   1      49.955  26.897  24.939  1.00  0.00     0.135 A 
ATOM     89  C   UNL A   1      50.383  26.211  27.203  1.00  0.00     0.135 A 
ATOM     90  F   UNL A   1      49.149  27.408  23.994  1.00  0.00    -0.206 F 
ATOM     91  C   UNL A   1      51.230  26.484  24.563  1.00  0.00     0.059 A 
ATOM     92  C   UNL A   1      51.673  25.821  26.858  1.00  0.00     0.059 A 
ATOM     93  F   UNL A   1      50.001  26.067  28.483  1.00  0.00    -0.206 F 
ATOM     94  C   UNL A   1      52.082  25.950  25.532  1.00  0.00     0.060 A 
BRANCH  94  95
ATOM     95  S   UNL A   1      53.744  25.446  25.038  1.00  0.00     0.124 S 
ATOM     96  O   UNL A   1      54.568  26.151  26.015  1.00  0.00    -0.237 OA
ATOM     97  O   UNL A   1      53.687  23.994  25.187  1.00  0.00    -0.237 OA
ATOM     98  O   UNL A   1      53.852  25.925  23.663  1.00  0.00    -0.744 OA
ENDBRANCH  94  95
ENDBRANCH  62  87
ENDBRANCH  36  37
ENDBRANCH  28  31
ENDBRANCH  26  27
ENDBRANCH  25  26
ENDBRANCH   1  25
TORSDOF 17
ENDMDL
MODEL 3
REMARK VINA RESULT:      -9.6      1.420      2.709
REMARK SMILES Cc1ccc(O)c(C(=O)NCc2ccc(C(=O)NCCCNC(=O)c3ccc(-c4c5nc(c(-c6c(F)cc(S(=O)(=O)[O-])cc6F)c6ccc([nH]6)c(-c6c(F)cc(S(=O)(=O)[O-])cc6F)c6nc(c(-c7c(F)cc(S(=O)(=O)[O-])cc7F)c7ccc4[nH]7)C=C6)C=C5)cc3)o2)c1
REMARK SMILES IDX 19 1 18 2 16 3 17 4 15 6 12 7 13 8 91 9 14 10 11 11 10 12
REMARK SMILES IDX 8 13 9 14 7 16 1 17 2 18 3 19 92 20 4 21 5 22 6 23 20 25
REMARK SMILES IDX 21 26 22 27 23 28 24 30 25 31 26 32 90 33 27 34 89 35 28 36
REMARK SMILES IDX 29 37 30 38 83 39 31 40 88 41 82 42 84 43 32 44 87 45 81 46
REMARK SMILES IDX 80 47 33 49 67 50 46 51 66 52 47 53 50 54 65 55 85 56 48 57
REMARK SMILES IDX 49 58 64 60 86 61 51 62 34 63 35 64 44 65 36 66 37 67 43 68
REMARK SMILES IDX 45 69 38 70 39 71 40 72 41 73 42 74 68 75 69 76 78 77 70 78
REMARK SMILES IDX 71 79 77 80 79 81 72 82 73 83 74 84 75 85 76 86 52 87 53 88
REMARK SMILES IDX 62 89 54 90 55 91 61 92 63 93 56 94 57 95 58 96 59 97 60 98
REMARK H PARENT 18 5 10 15 6 24 22 29 84 48 50 59
REMARK Flexibility Score: inf
ROOT
ATOM      1  C   UNL A   1      32.900  34.215  28.308  1.00  0.00     0.118 C 
ENDROOT
BRANCH   1   2
ATOM      2  N   UNL A   1      33.085  35.650  28.376  1.00  0.00    -0.349 N 
ATOM      3  C   UNL A   1      33.142  36.510  29.444  1.00  0.00     0.286 C 
ATOM      4  O   UNL A   1      33.401  37.688  29.161  1.00  0.00    -0.266 OA
ATOM      5  H   UNL A   1      33.189  36.086  27.501  1.00  0.00     0.163 HD
BRANCH   3   6
ATOM      6  C   UNL A   1      32.931  36.063  30.806  1.00  0.00     0.191 A 
ATOM      7  C   UNL A   1      33.652  35.151  32.699  1.00  0.00     0.124 A 
ATOM      8  C   UNL A   1      32.330  35.478  32.903  1.00  0.00     0.048 A 
ATOM      9  O   UNL A   1      34.011  35.485  31.429  1.00  0.00    -0.454 OA
ATOM     10  C   UNL A   1      31.882  36.095  31.710  1.00  0.00     0.056 A 
BRANCH   7  11
ATOM     11  C   UNL A   1      34.735  34.603  33.551  1.00  0.00     0.191 C 
BRANCH  11  12
ATOM     12  N   UNL A   1      35.010  33.251  33.113  1.00  0.00    -0.345 N 
ATOM     13  C   UNL A   1      36.126  32.548  32.760  1.00  0.00     0.255 C 
ATOM     14  O   UNL A   1      35.937  31.371  32.428  1.00  0.00    -0.269 OA
ATOM     15  H   UNL A   1      34.192  32.705  33.055  1.00  0.00     0.164 HD
BRANCH  13  16
ATOM     16  C   UNL A   1      37.534  33.055  32.744  1.00  0.00     0.081 A 
ATOM     17  C   UNL A   1      40.887  32.747  34.564  1.00  0.00     0.044 C 
ATOM     18  C   UNL A   1      39.838  33.187  33.583  1.00  0.00    -0.050 A 
ATOM     19  C   UNL A   1      40.145  34.151  32.623  1.00  0.00     0.007 A 
ATOM     20  C   UNL A   1      38.540  32.648  33.630  1.00  0.00     0.021 A 
ATOM     21  C   UNL A   1      39.166  34.578  31.731  1.00  0.00     0.047 A 
ATOM     22  C   UNL A   1      37.879  34.041  31.796  1.00  0.00     0.128 A 
BRANCH  22  23
ATOM     23  O   UNL A   1      36.997  34.556  30.878  1.00  0.00    -0.507 OA
ATOM     24  H   UNL A   1      36.484  35.311  31.093  1.00  0.00     0.293 HD
ENDBRANCH  22  23
ENDBRANCH  13  16
ENDBRANCH  11  12
ENDBRANCH   7  11
ENDBRANCH   3   6
ENDBRANCH   1   2
BRANCH   1  25
ATOM     25  C   UNL A   1      34.093  33.464  28.890  1.00  0.00     0.042 C 
BRANCH  25  26
ATOM     26  C   UNL A   1      34.705  32.464  27.908  1.00  0.00     0.118 C 
BRANCH  26  27
ATOM     27  N   UNL A   1      34.039  31.167  27.967  1.00  0.00    -0.352 N 
ATOM     28  C   UNL A   1      34.559  29.899  27.977  1.00  0.00     0.251 C 
ATOM     29  H   UNL A   1      33.055  31.211  28.006  1.00  0.00     0.163 HD
ATOM     30  O   UNL A   1      33.814  28.945  27.768  1.00  0.00    -0.269 OA
BRANCH  28  31
ATOM     31  C   UNL A   1      35.997  29.675  28.237  1.00  0.00     0.039 A 
ATOM     32  C   UNL A   1      36.404  29.328  29.528  1.00  0.00     0.014 A 
ATOM     33  C   UNL A   1      36.946  29.856  27.228  1.00  0.00     0.014 A 
ATOM     34  C   UNL A   1      37.758  29.109  29.791  1.00  0.00     0.010 A 
ATOM     35  C   UNL A   1      38.284  29.559  27.472  1.00  0.00     0.010 A 
ATOM     36  C   UNL A   1      38.706  29.190  28.757  1.00  0.00    -0.014 A 
BRANCH  36  37
ATOM     37  C   UNL A   1      40.139  28.891  29.003  1.00  0.00     0.031 A 
ATOM     38  C   UNL A   1      41.049  29.951  29.564  1.00  0.00     0.074 A 
ATOM     39  C   UNL A   1      40.631  27.686  28.659  1.00  0.00     0.049 A 
ATOM     40  N   UNL A   1      42.338  29.901  29.781  1.00  0.00    -0.248 NA
ATOM     41  C   UNL A   1      40.435  31.247  29.898  1.00  0.00     0.031 C 
ATOM     42  C   UNL A   1      39.857  26.596  28.060  1.00  0.00     0.029 A 
ATOM     43  N   UNL A   1      41.901  27.174  28.752  1.00  0.00    -0.354 N 
ATOM     44  C   UNL A   1      42.691  31.155  30.267  1.00  0.00     0.074 A 
ATOM     45  C   UNL A   1      41.490  31.964  30.255  1.00  0.00     0.031 C 
ATOM     46  C   UNL A   1      40.662  25.541  27.859  1.00  0.00     0.029 A 
ATOM     47  C   UNL A   1      42.017  25.890  28.274  1.00  0.00     0.049 A 
ATOM     48  H   UNL A   1      42.659  27.680  29.127  1.00  0.00     0.167 HD
ATOM     49  C   UNL A   1      43.898  31.586  30.704  1.00  0.00     0.037 A 
ATOM     50  C   UNL A   1      43.093  25.088  28.170  1.00  0.00     0.037 A 
ATOM     51  C   UNL A   1      45.083  30.766  30.726  1.00  0.00     0.049 A 
ATOM     52  C   UNL A   1      44.426  25.591  28.656  1.00  0.00     0.074 A 
ATOM     53  C   UNL A   1      46.344  31.089  31.197  1.00  0.00     0.029 A 
ATOM     54  N   UNL A   1      45.156  29.463  30.253  1.00  0.00    -0.354 N 
ATOM     55  N   UNL A   1      44.728  26.758  29.173  1.00  0.00    -0.248 NA
ATOM     56  C   UNL A   1      45.562  24.665  28.555  1.00  0.00     0.031 C 
ATOM     57  C   UNL A   1      47.189  30.000  30.963  1.00  0.00     0.029 A 
ATOM     58  C   UNL A   1      46.443  28.976  30.401  1.00  0.00     0.049 A 
ATOM     59  H   UNL A   1      44.401  28.959  29.869  1.00  0.00     0.167 HD
ATOM     60  C   UNL A   1      46.082  26.698  29.483  1.00  0.00     0.074 A 
ATOM     61  C   UNL A   1      46.536  25.374  29.110  1.00  0.00     0.031 C 
ATOM     62  C   UNL A   1      46.878  27.651  30.028  1.00  0.00     0.037 A 
BRANCH  49  63
ATOM     63  C   UNL A   1      43.998  33.005  31.197  1.00  0.00     0.058 A 
ATOM     64  C   UNL A   1      44.090  34.090  30.310  1.00  0.00     0.135 A 
ATOM     65  C   UNL A   1      43.966  33.289  32.572  1.00  0.00     0.135 A 
ATOM     66  F   UNL A   1      44.139  33.879  28.984  1.00  0.00    -0.206 F 
ATOM     67  C   UNL A   1      44.180  35.401  30.767  1.00  0.00     0.059 A 
ATOM     68  C   UNL A   1      44.023  34.595  33.052  1.00  0.00     0.059 A 
ATOM     69  F   UNL A   1      43.878  32.292  33.467  1.00  0.00    -0.206 F 
ATOM     70  C   UNL A   1      44.146  35.643  32.141  1.00  0.00     0.060 A 
BRANCH  70  71
ATOM     71  S   UNL A   1      44.261  37.350  32.716  1.00  0.00     0.124 S 
ATOM     72  O   UNL A   1      45.575  37.356  33.351  1.00  0.00    -0.237 OA
ATOM     73  O   UNL A   1      44.156  38.106  31.473  1.00  0.00    -0.237 OA
ATOM     74  O   UNL A   1      43.126  37.481  33.624  1.00  0.00    -0.744 OA
ENDBRANCH  70  71
ENDBRANCH  49  63
BRANCH  50  75
ATOM     75  C   UNL A   1      42.949  23.723  27.599  1.00  0.00     0.058 A 
ATOM     76  C   UNL A   1      42.712  22.614  28.424  1.00  0.00     0.135 A 
ATOM     77  C   UNL A   1      43.025  23.501  26.214  1.00  0.00     0.135 A 
ATOM     78  F   UNL A   1      42.635  22.772  29.753  1.00  0.00    -0.206 F 
ATOM     79  C   UNL A   1      42.573  21.332  27.901  1.00  0.00     0.059 A 
ATOM     80  C   UNL A   1      42.861  22.233  25.666  1.00  0.00     0.059 A 
ATOM     81  F   UNL A   1      43.232  24.531  25.378  1.00  0.00    -0.206 F 
ATOM     82  C   UNL A   1      42.645  21.153  26.519  1.00  0.00     0.060 A 
BRANCH  82  83
ATOM     83  S   UNL A   1      42.410  19.492  25.848  1.00  0.00     0.124 S 
ATOM     84  O   UNL A   1      42.654  18.664  27.024  1.00  0.00    -0.237 OA
ATOM     85  O   UNL A   1      41.029  19.545  25.379  1.00  0.00    -0.237 OA
ATOM     86  O   UNL A   1      43.418  19.410  24.796  1.00  0.00    -0.744 OA
ENDBRANCH  82  83
ENDBRANCH  50  75
BRANCH  62  87
ATOM     87  C   UNL A   1      48.314  27.288  30.290  1.00  0.00     0.058 A 
ATOM     88  C   UNL A   1      49.329  27.566  29.362  1.00  0.00     0.135 A 
ATOM     89  C   UNL A   1      48.685  26.697  31.509  1.00  0.00     0.135 A 
ATOM     90  F   UNL A   1      49.029  28.125  28.178  1.00  0.00    -0.206 F 
ATOM     91  C   UNL A   1      50.658  27.247  29.621  1.00  0.00     0.059 A 
ATOM     92  C   UNL A   1      50.012  26.398  31.803  1.00  0.00     0.059 A 
ATOM     93  F   UNL A   1      47.755  26.419  32.437  1.00  0.00    -0.206 F 
ATOM     94  C   UNL A   1      50.990  26.666  30.847  1.00  0.00     0.060 A 
BRANCH  94  95
ATOM     95  S   UNL A   1      52.722  26.284  31.183  1.00  0.00     0.124 S 
ATOM     96  O   UNL A   1      53.289  26.280  29.838  1.00  0.00    -0.237 OA
ATOM     97  O   UNL A   1      53.126  27.397  32.038  1.00  0.00    -0.237 OA
ATOM     98  O   UNL A   1      52.663  24.984  31.844  1.00  0.00    -0.744 OA
ENDBRANCH  94  95
ENDBRANCH  62  87
ENDBRANCH  36  37
ENDBRANCH  28  31
ENDBRANCH  26  27
ENDBRANCH  25  26
ENDBRANCH   1  25
TORSDOF 17
ENDMDL
