MODEL 1
REMARK VINA RESULT:     -12.7      0.000      0.000
REMARK SMILES Nc1ncc(C(=O)NCCCNC(=O)c2ccc(-c3c4nc(c(-c5c(F)cc(S(=O)(=O)[O-])cc5F)c5ccc([nH]5)c(-c5c(F)cc(S(=O)(=O)[O-])cc5F)c5nc(c(-c6c(F)cc(S(=O)(=O)[O-])cc6F)c6ccc3[nH]6)C=C5)C=C4)cc2)c(-c2ccccc2)n1
REMARK SMILES IDX 11 1 10 2 9 3 8 4 6 5 7 6 5 8 2 9 3 10 88 11 4 12 81 13 1 14
REMARK SMILES IDX 82 17 83 18 87 19 84 20 86 21 85 22 12 23 13 24 14 26 15 27
REMARK SMILES IDX 16 28 80 29 17 30 79 31 18 32 19 33 20 34 73 35 21 36 78 37
REMARK SMILES IDX 72 38 74 39 22 40 77 41 71 42 70 43 23 45 57 46 36 47 56 48
REMARK SMILES IDX 37 49 40 50 55 51 75 52 38 53 39 54 54 56 76 57 41 58 24 59
REMARK SMILES IDX 25 60 34 61 26 62 27 63 33 64 35 65 28 66 29 67 30 68 31 69
REMARK SMILES IDX 32 70 58 71 59 72 68 73 60 74 61 75 67 76 69 77 62 78 63 79
REMARK SMILES IDX 64 80 65 81 66 82 42 83 43 84 52 85 44 86 45 87 51 88 53 89
REMARK SMILES IDX 46 90 47 91 48 92 49 93 50 94
REMARK H PARENT 8 7 1 15 1 16 12 25 74 44 40 55
REMARK Flexibility Score: inf
ROOT
ATOM      1  C   UNL A   1      38.031  23.797  26.345  1.00  0.00     0.118 C 
ENDROOT
BRANCH   1   2
ATOM      2  C   UNL A   1      37.219  23.246  25.177  1.00  0.00     0.042 C 
BRANCH   2   3
ATOM      3  C   UNL A   1      36.658  21.851  25.397  1.00  0.00     0.118 C 
BRANCH   3   4
ATOM      4  N   UNL A   1      35.624  21.716  26.398  1.00  0.00    -0.352 N 
ATOM      5  C   UNL A   1      34.324  21.291  26.276  1.00  0.00     0.255 C 
ATOM      6  O   UNL A   1      33.680  21.167  27.323  1.00  0.00    -0.269 OA
ATOM      7  H   UNL A   1      35.896  21.966  27.311  1.00  0.00     0.163 HD
BRANCH   5   8
ATOM      8  C   UNL A   1      33.601  21.061  25.001  1.00  0.00     0.084 A 
ATOM      9  C   UNL A   1      32.203  21.083  22.644  1.00  0.00     0.220 A 
ATOM     10  N   UNL A   1      32.470  22.257  23.206  1.00  0.00    -0.221 NA
ATOM     11  N   UNL A   1      32.561  19.908  23.161  1.00  0.00    -0.212 NA
ATOM     12  C   UNL A   1      33.155  22.215  24.372  1.00  0.00     0.131 A 
ATOM     13  C   UNL A   1      33.247  19.895  24.340  1.00  0.00     0.089 A 
BRANCH   9  14
ATOM     14  N   UNL A   1      31.542  21.073  21.454  1.00  0.00    -0.368 N 
ATOM     15  H   UNL A   1      31.956  21.478  20.658  1.00  0.00     0.159 HD
ATOM     16  H   UNL A   1      30.651  20.661  21.388  1.00  0.00     0.159 HD
ENDBRANCH   9  14
BRANCH  13  17
ATOM     17  C   UNL A   1      33.568  18.522  24.750  1.00  0.00     0.001 A 
ATOM     18  C   UNL A   1      34.759  17.879  24.383  1.00  0.00     0.010 A 
ATOM     19  C   UNL A   1      32.624  17.797  25.510  1.00  0.00     0.010 A 
ATOM     20  C   UNL A   1      34.952  16.524  24.683  1.00  0.00     0.001 A 
ATOM     21  C   UNL A   1      32.808  16.444  25.792  1.00  0.00     0.001 A 
ATOM     22  C   UNL A   1      33.966  15.803  25.361  1.00  0.00     0.000 A 
ENDBRANCH  13  17
ENDBRANCH   5   8
ENDBRANCH   3   4
ENDBRANCH   2   3
ENDBRANCH   1   2
BRANCH   1  23
ATOM     23  N   UNL A   1      39.479  23.695  26.188  1.00  0.00    -0.352 N 
ATOM     24  C   UNL A   1      40.546  24.430  26.651  1.00  0.00     0.251 C 
ATOM     25  H   UNL A   1      39.753  22.933  25.628  1.00  0.00     0.163 HD
ATOM     26  O   UNL A   1      41.674  24.121  26.259  1.00  0.00    -0.269 OA
BRANCH  24  27
ATOM     27  C   UNL A   1      40.392  25.603  27.548  1.00  0.00     0.039 A 
ATOM     28  C   UNL A   1      39.493  25.517  28.621  1.00  0.00     0.014 A 
ATOM     29  C   UNL A   1      41.082  26.794  27.352  1.00  0.00     0.014 A 
ATOM     30  C   UNL A   1      39.382  26.568  29.542  1.00  0.00     0.010 A 
ATOM     31  C   UNL A   1      41.065  27.786  28.329  1.00  0.00     0.010 A 
ATOM     32  C   UNL A   1      40.224  27.685  29.446  1.00  0.00    -0.014 A 
BRANCH  32  33
ATOM     33  C   UNL A   1      40.270  28.753  30.484  1.00  0.00     0.031 A 
ATOM     34  C   UNL A   1      41.207  28.628  31.659  1.00  0.00     0.074 A 
ATOM     35  C   UNL A   1      39.379  29.766  30.444  1.00  0.00     0.049 A 
ATOM     36  N   UNL A   1      41.240  29.319  32.771  1.00  0.00    -0.248 NA
ATOM     37  C   UNL A   1      42.209  27.550  31.596  1.00  0.00     0.031 C 
ATOM     38  C   UNL A   1      38.380  29.981  29.394  1.00  0.00     0.029 A 
ATOM     39  N   UNL A   1      39.149  30.794  31.327  1.00  0.00    -0.354 N 
ATOM     40  C   UNL A   1      42.229  28.731  33.554  1.00  0.00     0.074 A 
ATOM     41  C   UNL A   1      42.738  27.600  32.809  1.00  0.00     0.031 C 
ATOM     42  C   UNL A   1      37.662  31.078  29.681  1.00  0.00     0.029 A 
ATOM     43  C   UNL A   1      38.106  31.615  30.961  1.00  0.00     0.049 A 
ATOM     44  H   UNL A   1      39.680  30.931  32.145  1.00  0.00     0.167 HD
ATOM     45  C   UNL A   1      42.686  29.111  34.771  1.00  0.00     0.037 A 
ATOM     46  C   UNL A   1      37.552  32.667  31.594  1.00  0.00     0.037 A 
ATOM     47  C   UNL A   1      42.221  30.275  35.478  1.00  0.00     0.049 A 
ATOM     48  C   UNL A   1      38.094  33.089  32.932  1.00  0.00     0.074 A 
ATOM     49  C   UNL A   1      42.678  30.795  36.676  1.00  0.00     0.029 A 
ATOM     50  N   UNL A   1      41.198  31.107  35.047  1.00  0.00    -0.354 N 
ATOM     51  N   UNL A   1      39.060  32.548  33.635  1.00  0.00    -0.248 NA
ATOM     52  C   UNL A   1      37.471  34.260  33.565  1.00  0.00     0.031 C 
ATOM     53  C   UNL A   1      41.910  31.922  36.987  1.00  0.00     0.029 A 
ATOM     54  C   UNL A   1      41.000  32.128  35.962  1.00  0.00     0.049 A 
ATOM     55  H   UNL A   1      40.687  30.990  34.213  1.00  0.00     0.167 HD
ATOM     56  C   UNL A   1      39.176  33.325  34.782  1.00  0.00     0.074 A 
ATOM     57  C   UNL A   1      38.189  34.381  34.672  1.00  0.00     0.031 C 
ATOM     58  C   UNL A   1      40.020  33.176  35.832  1.00  0.00     0.037 A 
BRANCH  45  59
ATOM     59  C   UNL A   1      43.758  28.269  35.411  1.00  0.00     0.058 A 
ATOM     60  C   UNL A   1      45.120  28.490  35.157  1.00  0.00     0.135 A 
ATOM     61  C   UNL A   1      43.419  27.245  36.312  1.00  0.00     0.135 A 
ATOM     62  F   UNL A   1      45.501  29.446  34.295  1.00  0.00    -0.206 F 
ATOM     63  C   UNL A   1      46.107  27.704  35.743  1.00  0.00     0.059 A 
ATOM     64  C   UNL A   1      44.392  26.466  36.933  1.00  0.00     0.059 A 
ATOM     65  F   UNL A   1      42.132  26.991  36.594  1.00  0.00    -0.206 F 
ATOM     66  C   UNL A   1      45.733  26.693  36.628  1.00  0.00     0.060 A 
BRANCH  66  67
ATOM     67  S   UNL A   1      47.027  25.680  37.376  1.00  0.00     0.124 S 
ATOM     68  O   UNL A   1      47.484  24.901  36.229  1.00  0.00    -0.237 OA
ATOM     69  O   UNL A   1      47.962  26.684  37.872  1.00  0.00    -0.237 OA
ATOM     70  O   UNL A   1      46.317  24.926  38.404  1.00  0.00    -0.744 OA
ENDBRANCH  66  67
ENDBRANCH  45  59
BRANCH  46  71
ATOM     71  C   UNL A   1      36.426  33.407  30.962  1.00  0.00     0.058 A 
ATOM     72  C   UNL A   1      36.643  34.216  29.837  1.00  0.00     0.135 A 
ATOM     73  C   UNL A   1      35.114  33.306  31.451  1.00  0.00     0.135 A 
ATOM     74  F   UNL A   1      37.881  34.349  29.337  1.00  0.00    -0.206 F 
ATOM     75  C   UNL A   1      35.604  34.910  29.226  1.00  0.00     0.059 A 
ATOM     76  C   UNL A   1      34.055  33.971  30.842  1.00  0.00     0.059 A 
ATOM     77  F   UNL A   1      34.850  32.530  32.514  1.00  0.00    -0.206 F 
ATOM     78  C   UNL A   1      34.311  34.779  29.735  1.00  0.00     0.060 A 
BRANCH  78  79
ATOM     79  S   UNL A   1      32.961  35.642  28.902  1.00  0.00     0.124 S 
ATOM     80  O   UNL A   1      32.376  34.570  28.105  1.00  0.00    -0.237 OA
ATOM     81  O   UNL A   1      32.158  36.113  30.026  1.00  0.00    -0.237 OA
ATOM     82  O   UNL A   1      33.646  36.688  28.150  1.00  0.00    -0.744 OA
ENDBRANCH  78  79
ENDBRANCH  46  71
BRANCH  58  83
ATOM     83  C   UNL A   1      39.938  34.192  36.936  1.00  0.00     0.058 A 
ATOM     84  C   UNL A   1      40.653  35.397  36.880  1.00  0.00     0.135 A 
ATOM     85  C   UNL A   1      39.083  33.984  38.031  1.00  0.00     0.135 A 
ATOM     86  F   UNL A   1      41.490  35.639  35.859  1.00  0.00    -0.206 F 
ATOM     87  C   UNL A   1      40.531  36.359  37.877  1.00  0.00     0.059 A 
ATOM     88  C   UNL A   1      38.928  34.943  39.026  1.00  0.00     0.059 A 
ATOM     89  F   UNL A   1      38.371  32.850  38.127  1.00  0.00    -0.206 F 
ATOM     90  C   UNL A   1      39.662  36.125  38.945  1.00  0.00     0.060 A 
BRANCH  90  91
ATOM     91  S   UNL A   1      39.475  37.403  40.206  1.00  0.00     0.124 S 
ATOM     92  O   UNL A   1      38.569  38.337  39.545  1.00  0.00    -0.237 OA
ATOM     93  O   UNL A   1      38.911  36.657  41.326  1.00  0.00    -0.237 OA
ATOM     94  O   UNL A   1      40.838  37.886  40.405  1.00  0.00    -0.744 OA
ENDBRANCH  90  91
ENDBRANCH  58  83
ENDBRANCH  32  33
ENDBRANCH  24  27
ENDBRANCH   1  23
TORSDOF 15
ENDMDL
MODEL 2
REMARK VINA RESULT:     -12.6      1.124      2.015
REMARK SMILES Nc1ncc(C(=O)NCCCNC(=O)c2ccc(-c3c4nc(c(-c5c(F)cc(S(=O)(=O)[O-])cc5F)c5ccc([nH]5)c(-c5c(F)cc(S(=O)(=O)[O-])cc5F)c5nc(c(-c6c(F)cc(S(=O)(=O)[O-])cc6F)c6ccc3[nH]6)C=C5)C=C4)cc2)c(-c2ccccc2)n1
REMARK SMILES IDX 11 1 10 2 9 3 8 4 6 5 7 6 5 8 2 9 3 10 88 11 4 12 81 13 1 14
REMARK SMILES IDX 82 17 83 18 87 19 84 20 86 21 85 22 12 23 13 24 14 26 15 27
REMARK SMILES IDX 16 28 80 29 17 30 79 31 18 32 19 33 20 34 73 35 21 36 78 37
REMARK SMILES IDX 72 38 74 39 22 40 77 41 71 42 70 43 23 45 57 46 36 47 56 48
REMARK SMILES IDX 37 49 40 50 55 51 75 52 38 53 39 54 54 56 76 57 41 58 24 59
REMARK SMILES IDX 25 60 34 61 26 62 27 63 33 64 35 65 28 66 29 67 30 68 31 69
REMARK SMILES IDX 32 70 58 71 59 72 68 73 60 74 61 75 67 76 69 77 62 78 63 79
REMARK SMILES IDX 64 80 65 81 66 82 42 83 43 84 52 85 44 86 45 87 51 88 53 89
REMARK SMILES IDX 46 90 47 91 48 92 49 93 50 94
REMARK H PARENT 8 7 1 15 1 16 12 25 74 44 40 55
REMARK Flexibility Score: inf
ROOT
ATOM      1  C   UNL A   1      38.023  23.777  26.257  1.00  0.00     0.118 C 
ENDROOT
BRANCH   1   2
ATOM      2  C   UNL A   1      37.227  23.072  25.163  1.00  0.00     0.042 C 
BRANCH   2   3
ATOM      3  C   UNL A   1      35.871  23.690  24.868  1.00  0.00     0.118 C 
BRANCH   3   4
ATOM      4  N   UNL A   1      35.311  23.437  23.559  1.00  0.00    -0.352 N 
ATOM      5  C   UNL A   1      34.024  23.128  23.191  1.00  0.00     0.255 C 
ATOM      6  O   UNL A   1      33.793  23.067  21.980  1.00  0.00    -0.269 OA
ATOM      7  H   UNL A   1      35.953  23.496  22.815  1.00  0.00     0.163 HD
BRANCH   5   8
ATOM      8  C   UNL A   1      32.919  22.771  24.115  1.00  0.00     0.084 A 
ATOM      9  C   UNL A   1      30.851  22.553  25.898  1.00  0.00     0.220 A 
ATOM     10  N   UNL A   1      31.253  23.778  25.577  1.00  0.00    -0.221 NA
ATOM     11  N   UNL A   1      31.397  21.437  25.419  1.00  0.00    -0.212 NA
ATOM     12  C   UNL A   1      32.280  23.855  24.700  1.00  0.00     0.131 A 
ATOM     13  C   UNL A   1      32.435  21.543  24.541  1.00  0.00     0.089 A 
BRANCH   9  14
ATOM     14  N   UNL A   1      29.799  22.424  26.754  1.00  0.00    -0.368 N 
ATOM     15  H   UNL A   1      29.737  23.001  27.549  1.00  0.00     0.159 HD
ATOM     16  H   UNL A   1      29.099  21.755  26.578  1.00  0.00     0.159 HD
ENDBRANCH   9  14
BRANCH  13  17
ATOM     17  C   UNL A   1      32.901  20.219  24.110  1.00  0.00     0.001 A 
ATOM     18  C   UNL A   1      32.247  19.469  23.122  1.00  0.00     0.010 A 
ATOM     19  C   UNL A   1      34.029  19.652  24.742  1.00  0.00     0.010 A 
ATOM     20  C   UNL A   1      32.651  18.155  22.849  1.00  0.00     0.001 A 
ATOM     21  C   UNL A   1      34.419  18.338  24.483  1.00  0.00     0.001 A 
ATOM     22  C   UNL A   1      33.717  17.584  23.548  1.00  0.00     0.000 A 
ENDBRANCH  13  17
ENDBRANCH   5   8
ENDBRANCH   3   4
ENDBRANCH   2   3
ENDBRANCH   1   2
BRANCH   1  23
ATOM     23  N   UNL A   1      39.473  23.642  26.146  1.00  0.00    -0.352 N 
ATOM     24  C   UNL A   1      40.541  24.352  26.642  1.00  0.00     0.251 C 
ATOM     25  H   UNL A   1      39.746  22.872  25.596  1.00  0.00     0.163 HD
ATOM     26  O   UNL A   1      41.673  24.016  26.286  1.00  0.00    -0.269 OA
BRANCH  24  27
ATOM     27  C   UNL A   1      40.387  25.530  27.532  1.00  0.00     0.039 A 
ATOM     28  C   UNL A   1      39.458  25.464  28.581  1.00  0.00     0.014 A 
ATOM     29  C   UNL A   1      41.104  26.707  27.352  1.00  0.00     0.014 A 
ATOM     30  C   UNL A   1      39.343  26.519  29.497  1.00  0.00     0.010 A 
ATOM     31  C   UNL A   1      41.081  27.702  28.327  1.00  0.00     0.010 A 
ATOM     32  C   UNL A   1      40.209  27.619  29.421  1.00  0.00    -0.014 A 
BRANCH  32  33
ATOM     33  C   UNL A   1      40.248  28.689  30.458  1.00  0.00     0.031 A 
ATOM     34  C   UNL A   1      41.168  28.559  31.646  1.00  0.00     0.074 A 
ATOM     35  C   UNL A   1      39.366  29.709  30.404  1.00  0.00     0.049 A 
ATOM     36  N   UNL A   1      41.191  29.251  32.757  1.00  0.00    -0.248 NA
ATOM     37  C   UNL A   1      42.162  27.474  31.599  1.00  0.00     0.031 C 
ATOM     38  C   UNL A   1      38.384  29.930  29.339  1.00  0.00     0.029 A 
ATOM     39  N   UNL A   1      39.131  30.740  31.282  1.00  0.00    -0.354 N 
ATOM     40  C   UNL A   1      42.163  28.657  33.555  1.00  0.00     0.074 A 
ATOM     41  C   UNL A   1      42.674  27.521  32.820  1.00  0.00     0.031 C 
ATOM     42  C   UNL A   1      37.670  31.033  29.614  1.00  0.00     0.029 A 
ATOM     43  C   UNL A   1      38.100  31.568  30.900  1.00  0.00     0.049 A 
ATOM     44  H   UNL A   1      39.652  30.874  32.106  1.00  0.00     0.167 HD
ATOM     45  C   UNL A   1      42.606  29.037  34.778  1.00  0.00     0.037 A 
ATOM     46  C   UNL A   1      37.544  32.626  31.523  1.00  0.00     0.037 A 
ATOM     47  C   UNL A   1      42.140  30.205  35.477  1.00  0.00     0.049 A 
ATOM     48  C   UNL A   1      38.071  33.045  32.868  1.00  0.00     0.074 A 
ATOM     49  C   UNL A   1      42.584  30.723  36.680  1.00  0.00     0.029 A 
ATOM     50  N   UNL A   1      41.129  31.044  35.030  1.00  0.00    -0.354 N 
ATOM     51  N   UNL A   1      39.023  32.498  33.585  1.00  0.00    -0.248 NA
ATOM     52  C   UNL A   1      37.448  34.222  33.489  1.00  0.00     0.031 C 
ATOM     53  C   UNL A   1      41.820  31.857  36.978  1.00  0.00     0.029 A 
ATOM     54  C   UNL A   1      40.926  32.068  35.940  1.00  0.00     0.049 A 
ATOM     55  H   UNL A   1      40.629  30.929  34.188  1.00  0.00     0.167 HD
ATOM     56  C   UNL A   1      39.128  33.277  34.732  1.00  0.00     0.074 A 
ATOM     57  C   UNL A   1      38.151  34.340  34.607  1.00  0.00     0.031 C 
ATOM     58  C   UNL A   1      39.956  33.123  35.795  1.00  0.00     0.037 A 
BRANCH  45  59
ATOM     59  C   UNL A   1      43.662  28.187  35.434  1.00  0.00     0.058 A 
ATOM     60  C   UNL A   1      43.329  27.149  36.318  1.00  0.00     0.135 A 
ATOM     61  C   UNL A   1      45.023  28.394  35.154  1.00  0.00     0.135 A 
ATOM     62  F   UNL A   1      42.045  26.914  36.633  1.00  0.00    -0.206 F 
ATOM     63  C   UNL A   1      44.307  26.372  36.930  1.00  0.00     0.059 A 
ATOM     64  C   UNL A   1      46.017  27.609  35.731  1.00  0.00     0.059 A 
ATOM     65  F   UNL A   1      45.399  29.372  34.313  1.00  0.00    -0.206 F 
ATOM     66  C   UNL A   1      45.649  26.611  36.632  1.00  0.00     0.060 A 
BRANCH  66  67
ATOM     67  S   UNL A   1      46.905  25.595  37.438  1.00  0.00     0.124 S 
ATOM     68  O   UNL A   1      46.088  24.771  38.323  1.00  0.00    -0.237 OA
ATOM     69  O   UNL A   1      47.516  24.899  36.310  1.00  0.00    -0.237 OA
ATOM     70  O   UNL A   1      47.759  26.574  38.103  1.00  0.00    -0.744 OA
ENDBRANCH  66  67
ENDBRANCH  45  59
BRANCH  46  71
ATOM     71  C   UNL A   1      36.434  33.372  30.873  1.00  0.00     0.058 A 
ATOM     72  C   UNL A   1      35.126  33.287  31.372  1.00  0.00     0.135 A 
ATOM     73  C   UNL A   1      36.657  34.199  29.761  1.00  0.00     0.135 A 
ATOM     74  F   UNL A   1      34.862  32.505  32.429  1.00  0.00    -0.206 F 
ATOM     75  C   UNL A   1      34.074  33.983  30.785  1.00  0.00     0.059 A 
ATOM     76  C   UNL A   1      35.625  34.923  29.171  1.00  0.00     0.059 A 
ATOM     77  F   UNL A   1      37.893  34.329  29.256  1.00  0.00    -0.206 F 
ATOM     78  C   UNL A   1      34.334  34.801  29.684  1.00  0.00     0.060 A 
BRANCH  78  79
ATOM     79  S   UNL A   1      32.972  35.742  28.963  1.00  0.00     0.124 S 
ATOM     80  O   UNL A   1      33.685  36.823  28.292  1.00  0.00    -0.237 OA
ATOM     81  O   UNL A   1      32.344  34.754  28.092  1.00  0.00    -0.237 OA
ATOM     82  O   UNL A   1      32.182  36.132  30.126  1.00  0.00    -0.744 OA
ENDBRANCH  78  79
ENDBRANCH  46  71
BRANCH  58  83
ATOM     83  C   UNL A   1      39.866  34.141  36.896  1.00  0.00     0.058 A 
ATOM     84  C   UNL A   1      40.498  35.390  36.795  1.00  0.00     0.135 A 
ATOM     85  C   UNL A   1      39.084  33.889  38.034  1.00  0.00     0.135 A 
ATOM     86  F   UNL A   1      41.264  35.676  35.731  1.00  0.00    -0.206 F 
ATOM     87  C   UNL A   1      40.366  36.351  37.792  1.00  0.00     0.059 A 
ATOM     88  C   UNL A   1      38.919  34.845  39.032  1.00  0.00     0.059 A 
ATOM     89  F   UNL A   1      38.453  32.713  38.175  1.00  0.00    -0.206 F 
ATOM     90  C   UNL A   1      39.571  36.071  38.905  1.00  0.00     0.060 A 
BRANCH  90  91
ATOM     91  S   UNL A   1      39.367  37.346  40.167  1.00  0.00     0.124 S 
ATOM     92  O   UNL A   1      38.530  38.317  39.470  1.00  0.00    -0.237 OA
ATOM     93  O   UNL A   1      38.720  36.613  41.251  1.00  0.00    -0.237 OA
ATOM     94  O   UNL A   1      40.736  37.776  40.438  1.00  0.00    -0.744 OA
ENDBRANCH  90  91
ENDBRANCH  58  83
ENDBRANCH  32  33
ENDBRANCH  24  27
ENDBRANCH   1  23
TORSDOF 15
ENDMDL
MODEL 3
REMARK VINA RESULT:     -12.6      7.269     12.703
REMARK SMILES Nc1ncc(C(=O)NCCCNC(=O)c2ccc(-c3c4nc(c(-c5c(F)cc(S(=O)(=O)[O-])cc5F)c5ccc([nH]5)c(-c5c(F)cc(S(=O)(=O)[O-])cc5F)c5nc(c(-c6c(F)cc(S(=O)(=O)[O-])cc6F)c6ccc3[nH]6)C=C5)C=C4)cc2)c(-c2ccccc2)n1
REMARK SMILES IDX 11 1 10 2 9 3 8 4 6 5 7 6 5 8 2 9 3 10 88 11 4 12 81 13 1 14
REMARK SMILES IDX 82 17 83 18 87 19 84 20 86 21 85 22 12 23 13 24 14 26 15 27
REMARK SMILES IDX 16 28 80 29 17 30 79 31 18 32 19 33 20 34 73 35 21 36 78 37
REMARK SMILES IDX 72 38 74 39 22 40 77 41 71 42 70 43 23 45 57 46 36 47 56 48
REMARK SMILES IDX 37 49 40 50 55 51 75 52 38 53 39 54 54 56 76 57 41 58 24 59
REMARK SMILES IDX 25 60 34 61 26 62 27 63 33 64 35 65 28 66 29 67 30 68 31 69
REMARK SMILES IDX 32 70 58 71 59 72 68 73 60 74 61 75 67 76 69 77 62 78 63 79
REMARK SMILES IDX 64 80 65 81 66 82 42 83 43 84 52 85 44 86 45 87 51 88 53 89
REMARK SMILES IDX 46 90 47 91 48 92 49 93 50 94
REMARK H PARENT 8 7 1 15 1 16 12 25 74 44 40 55
REMARK Flexibility Score: inf
ROOT
ATOM      1  C   UNL A   1      34.834  29.883  27.587  1.00  0.00     0.118 C 
ENDROOT
BRANCH   1   2
ATOM      2  C   UNL A   1      33.513  30.220  26.904  1.00  0.00     0.042 C 
BRANCH   2   3
ATOM      3  C   UNL A   1      33.019  29.168  25.925  1.00  0.00     0.118 C 
BRANCH   3   4
ATOM      4  N   UNL A   1      32.006  28.255  26.406  1.00  0.00    -0.352 N 
ATOM      5  C   UNL A   1      31.353  27.236  25.758  1.00  0.00     0.255 C 
ATOM      6  O   UNL A   1      30.602  26.534  26.443  1.00  0.00    -0.269 OA
ATOM      7  H   UNL A   1      31.745  28.385  27.347  1.00  0.00     0.163 HD
BRANCH   5   8
ATOM      8  C   UNL A   1      31.397  26.966  24.300  1.00  0.00     0.084 A 
ATOM      9  C   UNL A   1      31.827  26.201  21.704  1.00  0.00     0.220 A 
ATOM     10  N   UNL A   1      32.578  25.632  22.640  1.00  0.00    -0.221 NA
ATOM     11  N   UNL A   1      30.896  27.122  21.950  1.00  0.00    -0.212 NA
ATOM     12  C   UNL A   1      32.349  26.034  23.912  1.00  0.00     0.131 A 
ATOM     13  C   UNL A   1      30.689  27.513  23.240  1.00  0.00     0.089 A 
BRANCH   9  14
ATOM     14  N   UNL A   1      32.000  25.807  20.412  1.00  0.00    -0.368 N 
ATOM     15  H   UNL A   1      31.754  26.412  19.676  1.00  0.00     0.159 HD
ATOM     16  H   UNL A   1      32.372  24.918  20.213  1.00  0.00     0.159 HD
ENDBRANCH   9  14
BRANCH  13  17
ATOM     17  C   UNL A   1      29.623  28.519  23.323  1.00  0.00     0.001 A 
ATOM     18  C   UNL A   1      28.267  28.204  23.155  1.00  0.00     0.010 A 
ATOM     19  C   UNL A   1      29.973  29.870  23.539  1.00  0.00     0.010 A 
ATOM     20  C   UNL A   1      27.305  29.222  23.105  1.00  0.00     0.001 A 
ATOM     21  C   UNL A   1      29.018  30.885  23.471  1.00  0.00     0.001 A 
ATOM     22  C   UNL A   1      27.686  30.560  23.235  1.00  0.00     0.000 A 
ENDBRANCH  13  17
ENDBRANCH   5   8
ENDBRANCH   3   4
ENDBRANCH   2   3
ENDBRANCH   1   2
BRANCH   1  23
ATOM     23  N   UNL A   1      35.068  30.578  28.850  1.00  0.00    -0.352 N 
ATOM     24  C   UNL A   1      36.143  30.679  29.703  1.00  0.00     0.251 C 
ATOM     25  H   UNL A   1      34.283  31.086  29.160  1.00  0.00     0.163 HD
ATOM     26  O   UNL A   1      35.986  31.294  30.760  1.00  0.00    -0.269 OA
BRANCH  24  27
ATOM     27  C   UNL A   1      37.453  30.035  29.432  1.00  0.00     0.039 A 
ATOM     28  C   UNL A   1      37.946  30.038  28.119  1.00  0.00     0.014 A 
ATOM     29  C   UNL A   1      38.199  29.406  30.422  1.00  0.00     0.014 A 
ATOM     30  C   UNL A   1      39.217  29.520  27.836  1.00  0.00     0.010 A 
ATOM     31  C   UNL A   1      39.508  29.003  30.167  1.00  0.00     0.010 A 
ATOM     32  C   UNL A   1      40.043  29.063  28.873  1.00  0.00    -0.014 A 
BRANCH  32  33
ATOM     33  C   UNL A   1      41.460  28.658  28.658  1.00  0.00     0.031 A 
ATOM     34  C   UNL A   1      42.555  29.695  28.662  1.00  0.00     0.074 A 
ATOM     35  C   UNL A   1      41.750  27.382  28.326  1.00  0.00     0.049 A 
ATOM     36  N   UNL A   1      43.801  29.588  28.276  1.00  0.00    -0.248 NA
ATOM     37  C   UNL A   1      42.185  31.047  29.116  1.00  0.00     0.031 C 
ATOM     38  C   UNL A   1      40.783  26.285  28.233  1.00  0.00     0.029 A 
ATOM     39  N   UNL A   1      42.943  26.794  27.977  1.00  0.00    -0.354 N 
ATOM     40  C   UNL A   1      44.347  30.863  28.395  1.00  0.00     0.074 A 
ATOM     41  C   UNL A   1      43.284  31.735  28.844  1.00  0.00     0.031 C 
ATOM     42  C   UNL A   1      41.419  25.160  27.873  1.00  0.00     0.029 A 
ATOM     43  C   UNL A   1      42.829  25.461  27.654  1.00  0.00     0.049 A 
ATOM     44  H   UNL A   1      43.798  27.281  27.959  1.00  0.00     0.167 HD
ATOM     45  C   UNL A   1      45.621  31.265  28.171  1.00  0.00     0.037 A 
ATOM     46  C   UNL A   1      43.747  24.582  27.208  1.00  0.00     0.037 A 
ATOM     47  C   UNL A   1      46.689  30.381  27.786  1.00  0.00     0.049 A 
ATOM     48  C   UNL A   1      45.163  25.045  26.993  1.00  0.00     0.074 A 
ATOM     49  C   UNL A   1      48.031  30.674  27.618  1.00  0.00     0.029 A 
ATOM     50  N   UNL A   1      46.539  29.028  27.519  1.00  0.00    -0.354 N 
ATOM     51  N   UNL A   1      45.669  26.244  27.156  1.00  0.00    -0.248 NA
ATOM     52  C   UNL A   1      46.130  24.039  26.533  1.00  0.00     0.031 C 
ATOM     53  C   UNL A   1      48.687  29.505  27.217  1.00  0.00     0.029 A 
ATOM     54  C   UNL A   1      47.761  28.475  27.173  1.00  0.00     0.049 A 
ATOM     55  H   UNL A   1      45.688  28.533  27.567  1.00  0.00     0.167 HD
ATOM     56  C   UNL A   1      47.018  26.132  26.839  1.00  0.00     0.074 A 
ATOM     57  C   UNL A   1      47.251  24.745  26.488  1.00  0.00     0.031 C 
ATOM     58  C   UNL A   1      47.976  27.091  26.836  1.00  0.00     0.037 A 
BRANCH  45  59
ATOM     59  C   UNL A   1      45.935  32.726  28.354  1.00  0.00     0.058 A 
ATOM     60  C   UNL A   1      46.348  33.244  29.592  1.00  0.00     0.135 A 
ATOM     61  C   UNL A   1      45.851  33.617  27.270  1.00  0.00     0.135 A 
ATOM     62  F   UNL A   1      46.434  32.441  30.664  1.00  0.00    -0.206 F 
ATOM     63  C   UNL A   1      46.629  34.595  29.759  1.00  0.00     0.059 A 
ATOM     64  C   UNL A   1      46.157  34.968  27.407  1.00  0.00     0.059 A 
ATOM     65  F   UNL A   1      45.464  33.177  26.062  1.00  0.00    -0.206 F 
ATOM     66  C   UNL A   1      46.528  35.451  28.661  1.00  0.00     0.060 A 
BRANCH  66  67
ATOM     67  S   UNL A   1      46.893  37.203  28.897  1.00  0.00     0.124 S 
ATOM     68  O   UNL A   1      46.672  37.354  30.333  1.00  0.00    -0.237 OA
ATOM     69  O   UNL A   1      48.281  37.296  28.458  1.00  0.00    -0.237 OA
ATOM     70  O   UNL A   1      45.920  37.872  28.039  1.00  0.00    -0.744 OA
ENDBRANCH  66  67
ENDBRANCH  45  59
BRANCH  46  71
ATOM     71  C   UNL A   1      43.361  23.170  26.947  1.00  0.00     0.058 A 
ATOM     72  C   UNL A   1      43.274  22.681  25.636  1.00  0.00     0.135 A 
ATOM     73  C   UNL A   1      43.093  22.276  27.997  1.00  0.00     0.135 A 
ATOM     74  F   UNL A   1      43.514  23.499  24.599  1.00  0.00    -0.206 F 
ATOM     75  C   UNL A   1      42.922  21.362  25.370  1.00  0.00     0.059 A 
ATOM     76  C   UNL A   1      42.763  20.946  27.757  1.00  0.00     0.059 A 
ATOM     77  F   UNL A   1      43.180  22.689  29.271  1.00  0.00    -0.206 F 
ATOM     78  C   UNL A   1      42.670  20.500  26.439  1.00  0.00     0.060 A 
BRANCH  78  79
ATOM     79  S   UNL A   1      42.267  18.776  26.085  1.00  0.00     0.124 S 
ATOM     80  O   UNL A   1      43.203  18.470  25.009  1.00  0.00    -0.237 OA
ATOM     81  O   UNL A   1      42.531  18.129  27.366  1.00  0.00    -0.237 OA
ATOM     82  O   UNL A   1      40.860  18.833  25.700  1.00  0.00    -0.744 OA
ENDBRANCH  78  79
ENDBRANCH  46  71
BRANCH  58  83
ATOM     83  C   UNL A   1      49.373  26.674  26.469  1.00  0.00     0.058 A 
ATOM     84  C   UNL A   1      50.229  26.074  27.404  1.00  0.00     0.135 A 
ATOM     85  C   UNL A   1      49.833  26.816  25.151  1.00  0.00     0.135 A 
ATOM     86  F   UNL A   1      49.838  25.924  28.680  1.00  0.00    -0.206 F 
ATOM     87  C   UNL A   1      51.501  25.639  27.047  1.00  0.00     0.059 A 
ATOM     88  C   UNL A   1      51.092  26.366  24.766  1.00  0.00     0.059 A 
ATOM     89  F   UNL A   1      49.049  27.377  24.217  1.00  0.00    -0.206 F 
ATOM     90  C   UNL A   1      51.922  25.785  25.724  1.00  0.00     0.060 A 
BRANCH  90  91
ATOM     91  S   UNL A   1      53.555  25.169  25.261  1.00  0.00     0.124 S 
ATOM     92  O   UNL A   1      53.689  25.684  23.903  1.00  0.00    -0.237 OA
ATOM     93  O   UNL A   1      54.418  25.790  26.262  1.00  0.00    -0.237 OA
ATOM     94  O   UNL A   1      53.416  23.721  25.374  1.00  0.00    -0.744 OA
ENDBRANCH  90  91
ENDBRANCH  58  83
ENDBRANCH  32  33
ENDBRANCH  24  27
ENDBRANCH   1  23
TORSDOF 15
ENDMDL
