MODEL 1
REMARK VINA RESULT:     -12.8      0.000      0.000
REMARK SMILES O=C(NCCCNC(=O)c1c(F)cccc1N1CC[C@@H]([NH+]2CCCCC2)C1)c1ccc(-c2c3nc(c(-c4c(F)cc(S(=O)(=O)[O-])cc4F)c4ccc([nH]4)c(-c4c(F)cc(S(=O)(=O)[O-])cc4F)c4nc(c(-c5c(F)cc(S(=O)(=O)[O-])cc5F)c5ccc2[nH]5)C=C4)C=C3)cc1
REMARK SMILES IDX 4 1 3 2 1 3 2 4 28 6 29 7 93 8 30 9 92 10 31 11 32 12 33 13
REMARK SMILES IDX 86 14 34 15 91 16 85 17 87 18 35 19 90 20 84 21 83 22 36 24
REMARK SMILES IDX 70 25 49 26 69 27 50 28 53 29 68 30 88 31 51 32 52 33 67 35
REMARK SMILES IDX 89 36 54 37 37 38 38 39 47 40 39 41 40 42 46 43 48 44 41 45
REMARK SMILES IDX 42 46 43 47 44 48 45 49 71 50 72 51 81 52 73 53 74 54 80 55
REMARK SMILES IDX 82 56 75 57 76 58 77 59 78 60 79 61 55 62 56 63 65 64 57 65
REMARK SMILES IDX 58 66 64 67 66 68 59 69 60 70 61 71 62 72 63 73 5 74 6 75
REMARK SMILES IDX 7 76 8 77 9 79 10 80 11 81 16 82 12 83 13 84 15 85 14 86
REMARK SMILES IDX 17 87 18 88 27 89 19 90 20 91 21 92 22 93 26 94 23 96 25 97
REMARK SMILES IDX 24 98
REMARK H PARENT 3 5 87 23 53 34 7 78 21 95
REMARK Flexibility Score: inf
ROOT
ATOM      1  C   UNL A   1      38.144  23.847  26.459  1.00  0.00     0.118 C 
ENDROOT
BRANCH   1   2
ATOM      2  N   UNL A   1      39.555  23.878  26.094  1.00  0.00    -0.352 N 
ATOM      3  O   UNL A   1      41.671  24.601  25.922  1.00  0.00    -0.269 OA
ATOM      4  C   UNL A   1      40.588  24.692  26.497  1.00  0.00     0.251 C 
ATOM      5  H   UNL A   1      39.816  23.190  25.441  1.00  0.00     0.163 HD
BRANCH   4   6
ATOM      6  C   UNL A   1      40.414  25.688  27.579  1.00  0.00     0.039 A 
ATOM      7  C   UNL A   1      41.138  26.878  27.601  1.00  0.00     0.014 A 
ATOM      8  C   UNL A   1      39.462  25.445  28.578  1.00  0.00     0.014 A 
ATOM      9  C   UNL A   1      41.050  27.727  28.702  1.00  0.00     0.010 A 
ATOM     10  C   UNL A   1      39.298  26.352  29.632  1.00  0.00     0.010 A 
ATOM     11  C   UNL A   1      40.124  27.480  29.729  1.00  0.00    -0.014 A 
BRANCH  11  12
ATOM     12  C   UNL A   1      40.022  28.440  30.861  1.00  0.00     0.031 A 
ATOM     13  C   UNL A   1      40.983  28.389  32.018  1.00  0.00     0.074 A 
ATOM     14  C   UNL A   1      39.088  29.413  30.808  1.00  0.00     0.049 A 
ATOM     15  N   UNL A   1      41.076  29.192  33.047  1.00  0.00    -0.248 NA
ATOM     16  C   UNL A   1      41.965  27.293  32.027  1.00  0.00     0.031 C 
ATOM     17  C   UNL A   1      38.093  29.563  29.744  1.00  0.00     0.029 A 
ATOM     18  N   UNL A   1      38.845  30.475  31.641  1.00  0.00    -0.354 N 
ATOM     19  C   UNL A   1      42.115  28.699  33.829  1.00  0.00     0.074 A 
ATOM     20  C   UNL A   1      42.598  27.503  33.174  1.00  0.00     0.031 C 
ATOM     21  C   UNL A   1      37.399  30.691  29.947  1.00  0.00     0.029 A 
ATOM     22  C   UNL A   1      37.851  31.311  31.188  1.00  0.00     0.049 A 
ATOM     23  H   UNL A   1      39.334  30.625  32.482  1.00  0.00     0.167 HD
ATOM     24  C   UNL A   1      42.627  29.204  34.978  1.00  0.00     0.037 A 
ATOM     25  C   UNL A   1      37.354  32.450  31.708  1.00  0.00     0.037 A 
ATOM     26  C   UNL A   1      42.146  30.399  35.623  1.00  0.00     0.049 A 
ATOM     27  C   UNL A   1      37.922  32.977  32.992  1.00  0.00     0.074 A 
ATOM     28  C   UNL A   1      42.603  30.992  36.787  1.00  0.00     0.029 A 
ATOM     29  N   UNL A   1      41.102  31.188  35.159  1.00  0.00    -0.354 N 
ATOM     30  N   UNL A   1      38.903  32.495  33.716  1.00  0.00    -0.248 NA
ATOM     31  C   UNL A   1      37.311  34.197  33.538  1.00  0.00     0.031 C 
ATOM     32  C   UNL A   1      41.813  32.118  37.047  1.00  0.00     0.029 A 
ATOM     33  C   UNL A   1      40.891  32.252  36.021  1.00  0.00     0.049 A 
ATOM     34  H   UNL A   1      40.586  31.016  34.339  1.00  0.00     0.167 HD
ATOM     35  C   UNL A   1      39.033  33.354  34.799  1.00  0.00     0.074 A 
ATOM     36  C   UNL A   1      38.042  34.396  34.627  1.00  0.00     0.031 C 
ATOM     37  C   UNL A   1      39.894  33.280  35.844  1.00  0.00     0.037 A 
BRANCH  24  38
ATOM     38  C   UNL A   1      43.767  28.460  35.619  1.00  0.00     0.058 A 
ATOM     39  C   UNL A   1      43.524  27.475  36.590  1.00  0.00     0.135 A 
ATOM     40  C   UNL A   1      45.104  28.747  35.302  1.00  0.00     0.135 A 
ATOM     41  F   UNL A   1      42.265  27.157  36.931  1.00  0.00    -0.206 F 
ATOM     42  C   UNL A   1      44.565  26.804  37.225  1.00  0.00     0.059 A 
ATOM     43  C   UNL A   1      46.161  28.071  35.907  1.00  0.00     0.059 A 
ATOM     44  F   UNL A   1      45.394  29.665  34.366  1.00  0.00    -0.206 F 
ATOM     45  C   UNL A   1      45.882  27.108  36.875  1.00  0.00     0.060 A 
BRANCH  45  46
ATOM     46  S   UNL A   1      47.221  26.184  37.659  1.00  0.00     0.124 S 
ATOM     47  O   UNL A   1      46.754  24.809  37.529  1.00  0.00    -0.237 OA
ATOM     48  O   UNL A   1      48.371  26.548  36.835  1.00  0.00    -0.237 OA
ATOM     49  O   UNL A   1      47.245  26.717  39.019  1.00  0.00    -0.744 OA
ENDBRANCH  45  46
ENDBRANCH  24  38
BRANCH  25  50
ATOM     50  C   UNL A   1      36.274  33.167  30.981  1.00  0.00     0.058 A 
ATOM     51  C   UNL A   1      36.551  33.912  29.823  1.00  0.00     0.135 A 
ATOM     52  C   UNL A   1      34.964  33.192  31.479  1.00  0.00     0.135 A 
ATOM     53  F   UNL A   1      37.793  33.927  29.315  1.00  0.00    -0.206 F 
ATOM     54  C   UNL A   1      35.578  34.692  29.212  1.00  0.00     0.059 A 
ATOM     55  C   UNL A   1      33.966  33.946  30.869  1.00  0.00     0.059 A 
ATOM     56  F   UNL A   1      34.652  32.485  32.576  1.00  0.00    -0.206 F 
ATOM     57  C   UNL A   1      34.291  34.712  29.750  1.00  0.00     0.060 A 
BRANCH  57  58
ATOM     58  S   UNL A   1      33.055  35.775  28.973  1.00  0.00     0.124 S 
ATOM     59  O   UNL A   1      32.350  34.824  28.119  1.00  0.00    -0.237 OA
ATOM     60  O   UNL A   1      32.309  36.270  30.125  1.00  0.00    -0.237 OA
ATOM     61  O   UNL A   1      33.860  36.771  28.273  1.00  0.00    -0.744 OA
ENDBRANCH  57  58
ENDBRANCH  25  50
BRANCH  37  62
ATOM     62  C   UNL A   1      39.811  34.361  36.885  1.00  0.00     0.058 A 
ATOM     63  C   UNL A   1      39.033  34.181  38.039  1.00  0.00     0.135 A 
ATOM     64  C   UNL A   1      40.454  35.596  36.710  1.00  0.00     0.135 A 
ATOM     65  F   UNL A   1      38.396  33.018  38.251  1.00  0.00    -0.206 F 
ATOM     66  C   UNL A   1      38.886  35.193  38.981  1.00  0.00     0.059 A 
ATOM     67  C   UNL A   1      40.338  36.616  37.652  1.00  0.00     0.059 A 
ATOM     68  F   UNL A   1      41.219  35.813  35.629  1.00  0.00    -0.206 F 
ATOM     69  C   UNL A   1      39.540  36.410  38.777  1.00  0.00     0.060 A 
BRANCH  69  70
ATOM     70  S   UNL A   1      39.354  37.707  40.018  1.00  0.00     0.124 S 
ATOM     71  O   UNL A   1      39.175  36.928  41.238  1.00  0.00    -0.237 OA
ATOM     72  O   UNL A   1      40.619  38.428  39.904  1.00  0.00    -0.237 OA
ATOM     73  O   UNL A   1      38.179  38.445  39.564  1.00  0.00    -0.744 OA
ENDBRANCH  69  70
ENDBRANCH  37  62
ENDBRANCH  11  12
ENDBRANCH   4   6
ENDBRANCH   1   2
BRANCH   1  74
ATOM     74  C   UNL A   1      37.224  23.489  25.298  1.00  0.00     0.042 C 
BRANCH  74  75
ATOM     75  C   UNL A   1      36.577  22.114  25.395  1.00  0.00     0.118 C 
BRANCH  75  76
ATOM     76  N   UNL A   1      35.636  21.998  26.497  1.00  0.00    -0.352 N 
ATOM     77  C   UNL A   1      34.298  21.675  26.487  1.00  0.00     0.256 C 
ATOM     78  H   UNL A   1      36.014  22.178  27.389  1.00  0.00     0.163 HD
ATOM     79  O   UNL A   1      33.687  21.615  27.551  1.00  0.00    -0.269 OA
BRANCH  77  80
ATOM     80  C   UNL A   1      33.600  21.421  25.210  1.00  0.00     0.098 A 
ATOM     81  C   UNL A   1      33.406  20.081  24.851  1.00  0.00     0.138 A 
ATOM     82  C   UNL A   1      33.029  22.464  24.446  1.00  0.00     0.053 A 
ATOM     83  F   UNL A   1      33.905  19.089  25.605  1.00  0.00    -0.206 F 
ATOM     84  C   UNL A   1      32.706  19.739  23.702  1.00  0.00     0.040 A 
ATOM     85  C   UNL A   1      32.287  22.082  23.311  1.00  0.00     0.027 A 
ATOM     86  C   UNL A   1      32.143  20.743  22.929  1.00  0.00     0.005 A 
BRANCH  82  87
ATOM     87  N   UNL A   1      33.170  23.803  24.722  1.00  0.00    -0.365 N 
ATOM     88  C   UNL A   1      34.124  24.677  24.069  1.00  0.00     0.123 C 
ATOM     89  C   UNL A   1      32.431  24.504  25.776  1.00  0.00     0.181 C 
ATOM     90  C   UNL A   1      34.428  25.719  25.132  1.00  0.00     0.088 C 
ATOM     91  C   UNL A   1      33.117  25.908  25.903  1.00  0.00     0.205 C 
BRANCH  91  92
ATOM     92  N   UNL A   1      32.251  27.055  25.564  1.00  0.00    -0.331 N 
ATOM     93  C   UNL A   1      32.885  28.276  25.072  1.00  0.00     0.262 C 
ATOM     94  C   UNL A   1      31.189  27.337  26.536  1.00  0.00     0.262 C 
ATOM     95  H   UNL A   1      31.807  26.676  24.728  1.00  0.00     0.348 HD
ATOM     96  C   UNL A   1      33.335  29.259  26.155  1.00  0.00     0.062 C 
ATOM     97  C   UNL A   1      31.581  28.269  27.681  1.00  0.00     0.062 C 
ATOM     98  C   UNL A   1      32.241  29.546  27.176  1.00  0.00     0.012 C 
ENDBRANCH  91  92
ENDBRANCH  82  87
ENDBRANCH  77  80
ENDBRANCH  75  76
ENDBRANCH  74  75
ENDBRANCH   1  74
TORSDOF 15
ENDMDL
MODEL 2
REMARK VINA RESULT:     -12.6      1.104      1.769
REMARK SMILES O=C(NCCCNC(=O)c1c(F)cccc1N1CC[C@@H]([NH+]2CCCCC2)C1)c1ccc(-c2c3nc(c(-c4c(F)cc(S(=O)(=O)[O-])cc4F)c4ccc([nH]4)c(-c4c(F)cc(S(=O)(=O)[O-])cc4F)c4nc(c(-c5c(F)cc(S(=O)(=O)[O-])cc5F)c5ccc2[nH]5)C=C4)C=C3)cc1
REMARK SMILES IDX 4 1 3 2 1 3 2 4 28 6 29 7 93 8 30 9 92 10 31 11 32 12 33 13
REMARK SMILES IDX 86 14 34 15 91 16 85 17 87 18 35 19 90 20 84 21 83 22 36 24
REMARK SMILES IDX 70 25 49 26 69 27 50 28 53 29 68 30 88 31 51 32 52 33 67 35
REMARK SMILES IDX 89 36 54 37 37 38 38 39 47 40 39 41 40 42 46 43 48 44 41 45
REMARK SMILES IDX 42 46 43 47 44 48 45 49 71 50 72 51 81 52 73 53 74 54 80 55
REMARK SMILES IDX 82 56 75 57 76 58 77 59 78 60 79 61 55 62 56 63 65 64 57 65
REMARK SMILES IDX 58 66 64 67 66 68 59 69 60 70 61 71 62 72 63 73 5 74 6 75
REMARK SMILES IDX 7 76 8 77 9 79 10 80 11 81 16 82 12 83 13 84 15 85 14 86
REMARK SMILES IDX 17 87 18 88 27 89 19 90 20 91 21 92 22 93 26 94 23 96 25 97
REMARK SMILES IDX 24 98
REMARK H PARENT 3 5 87 23 53 34 7 78 21 95
REMARK Flexibility Score: inf
ROOT
ATOM      1  C   UNL A   1      40.006  23.099  27.055  1.00  0.00     0.118 C 
ENDROOT
BRANCH   1   2
ATOM      2  N   UNL A   1      40.758  23.905  26.101  1.00  0.00    -0.352 N 
ATOM      3  O   UNL A   1      41.681  25.703  25.130  1.00  0.00    -0.269 OA
ATOM      4  C   UNL A   1      41.181  25.213  26.140  1.00  0.00     0.251 C 
ATOM      5  H   UNL A   1      41.009  23.426  25.279  1.00  0.00     0.163 HD
BRANCH   4   6
ATOM      6  C   UNL A   1      41.020  26.045  27.355  1.00  0.00     0.039 A 
ATOM      7  C   UNL A   1      39.961  25.854  28.239  1.00  0.00     0.014 A 
ATOM      8  C   UNL A   1      41.987  27.017  27.644  1.00  0.00     0.014 A 
ATOM      9  C   UNL A   1      39.764  26.740  29.294  1.00  0.00     0.010 A 
ATOM     10  C   UNL A   1      41.846  27.842  28.767  1.00  0.00     0.010 A 
ATOM     11  C   UNL A   1      40.707  27.741  29.578  1.00  0.00    -0.014 A 
BRANCH  11  12
ATOM     12  C   UNL A   1      40.489  28.635  30.748  1.00  0.00     0.031 A 
ATOM     13  C   UNL A   1      41.399  28.588  31.946  1.00  0.00     0.074 A 
ATOM     14  C   UNL A   1      39.496  29.546  30.696  1.00  0.00     0.049 A 
ATOM     15  N   UNL A   1      41.391  29.343  33.015  1.00  0.00    -0.248 NA
ATOM     16  C   UNL A   1      42.452  27.560  31.951  1.00  0.00     0.031 C 
ATOM     17  C   UNL A   1      38.542  29.684  29.593  1.00  0.00     0.029 A 
ATOM     18  N   UNL A   1      39.144  30.547  31.566  1.00  0.00    -0.354 N 
ATOM     19  C   UNL A   1      42.425  28.880  33.822  1.00  0.00     0.074 A 
ATOM     20  C   UNL A   1      43.017  27.753  33.135  1.00  0.00     0.031 C 
ATOM     21  C   UNL A   1      37.764  30.753  29.815  1.00  0.00     0.029 A 
ATOM     22  C   UNL A   1      38.118  31.338  31.104  1.00  0.00     0.049 A 
ATOM     23  H   UNL A   1      39.583  30.686  32.435  1.00  0.00     0.167 HD
ATOM     24  C   UNL A   1      42.849  29.359  35.017  1.00  0.00     0.037 A 
ATOM     25  C   UNL A   1      37.522  32.414  31.653  1.00  0.00     0.037 A 
ATOM     26  C   UNL A   1      42.260  30.487  35.694  1.00  0.00     0.049 A 
ATOM     27  C   UNL A   1      37.994  32.913  32.986  1.00  0.00     0.074 A 
ATOM     28  C   UNL A   1      42.623  31.049  36.905  1.00  0.00     0.029 A 
ATOM     29  N   UNL A   1      41.187  31.228  35.218  1.00  0.00    -0.354 N 
ATOM     30  N   UNL A   1      38.972  32.459  33.733  1.00  0.00    -0.248 NA
ATOM     31  C   UNL A   1      37.278  34.061  33.559  1.00  0.00     0.031 C 
ATOM     32  C   UNL A   1      41.748  32.106  37.179  1.00  0.00     0.029 A 
ATOM     33  C   UNL A   1      40.866  32.232  36.118  1.00  0.00     0.049 A 
ATOM     34  H   UNL A   1      40.721  31.064  34.366  1.00  0.00     0.167 HD
ATOM     35  C   UNL A   1      38.995  33.269  34.861  1.00  0.00     0.074 A 
ATOM     36  C   UNL A   1      37.945  34.253  34.690  1.00  0.00     0.031 C 
ATOM     37  C   UNL A   1      39.812  33.200  35.941  1.00  0.00     0.037 A 
BRANCH  24  38
ATOM     38  C   UNL A   1      44.007  28.660  35.677  1.00  0.00     0.058 A 
ATOM     39  C   UNL A   1      43.787  27.626  36.601  1.00  0.00     0.135 A 
ATOM     40  C   UNL A   1      45.336  29.038  35.424  1.00  0.00     0.135 A 
ATOM     41  F   UNL A   1      42.538  27.221  36.879  1.00  0.00    -0.206 F 
ATOM     42  C   UNL A   1      44.842  26.994  37.253  1.00  0.00     0.059 A 
ATOM     43  C   UNL A   1      46.408  28.403  36.047  1.00  0.00     0.059 A 
ATOM     44  F   UNL A   1      45.605  30.007  34.534  1.00  0.00    -0.206 F 
ATOM     45  C   UNL A   1      46.150  27.388  36.967  1.00  0.00     0.060 A 
BRANCH  45  46
ATOM     46  S   UNL A   1      47.512  26.516  37.771  1.00  0.00     0.124 S 
ATOM     47  O   UNL A   1      47.080  26.502  39.164  1.00  0.00    -0.237 OA
ATOM     48  O   UNL A   1      47.500  25.226  37.086  1.00  0.00    -0.237 OA
ATOM     49  O   UNL A   1      48.670  27.358  37.477  1.00  0.00    -0.744 OA
ENDBRANCH  45  46
ENDBRANCH  24  38
BRANCH  25  50
ATOM     50  C   UNL A   1      36.430  33.095  30.909  1.00  0.00     0.058 A 
ATOM     51  C   UNL A   1      36.708  33.912  29.801  1.00  0.00     0.135 A 
ATOM     52  C   UNL A   1      35.100  33.011  31.346  1.00  0.00     0.135 A 
ATOM     53  F   UNL A   1      37.967  34.031  29.353  1.00  0.00    -0.206 F 
ATOM     54  C   UNL A   1      35.713  34.656  29.181  1.00  0.00     0.059 A 
ATOM     55  C   UNL A   1      34.082  33.728  30.724  1.00  0.00     0.059 A 
ATOM     56  F   UNL A   1      34.787  32.234  32.394  1.00  0.00    -0.206 F 
ATOM     57  C   UNL A   1      34.404  34.567  29.658  1.00  0.00     0.060 A 
BRANCH  57  58
ATOM     58  S   UNL A   1      33.136  35.585  28.873  1.00  0.00     0.124 S 
ATOM     59  O   UNL A   1      33.950  36.571  28.169  1.00  0.00    -0.237 OA
ATOM     60  O   UNL A   1      32.443  34.616  28.032  1.00  0.00    -0.237 OA
ATOM     61  O   UNL A   1      32.368  36.097  30.004  1.00  0.00    -0.744 OA
ENDBRANCH  57  58
ENDBRANCH  25  50
BRANCH  37  62
ATOM     62  C   UNL A   1      39.609  34.220  37.026  1.00  0.00     0.058 A 
ATOM     63  C   UNL A   1      40.220  35.481  36.941  1.00  0.00     0.135 A 
ATOM     64  C   UNL A   1      38.860  33.928  38.176  1.00  0.00     0.135 A 
ATOM     65  F   UNL A   1      40.949  35.809  35.863  1.00  0.00    -0.206 F 
ATOM     66  C   UNL A   1      40.103  36.414  37.966  1.00  0.00     0.059 A 
ATOM     67  C   UNL A   1      38.711  34.855  39.203  1.00  0.00     0.059 A 
ATOM     68  F   UNL A   1      38.246  32.740  38.298  1.00  0.00    -0.206 F 
ATOM     69  C   UNL A   1      39.350  36.091  39.095  1.00  0.00     0.060 A 
BRANCH  69  70
ATOM     70  S   UNL A   1      39.192  37.321  40.407  1.00  0.00     0.124 S 
ATOM     71  O   UNL A   1      38.285  38.289  39.801  1.00  0.00    -0.237 OA
ATOM     72  O   UNL A   1      38.640  36.533  41.506  1.00  0.00    -0.237 OA
ATOM     73  O   UNL A   1      40.564  37.781  40.606  1.00  0.00    -0.744 OA
ENDBRANCH  69  70
ENDBRANCH  37  62
ENDBRANCH  11  12
ENDBRANCH   4   6
ENDBRANCH   1   2
BRANCH   1  74
ATOM     74  C   UNL A   1      38.729  22.503  26.473  1.00  0.00     0.042 C 
BRANCH  74  75
ATOM     75  C   UNL A   1      37.667  23.523  26.085  1.00  0.00     0.118 C 
BRANCH  75  76
ATOM     76  N   UNL A   1      37.473  23.632  24.648  1.00  0.00    -0.352 N 
ATOM     77  C   UNL A   1      36.478  23.114  23.849  1.00  0.00     0.256 C 
ATOM     78  H   UNL A   1      38.157  24.156  24.172  1.00  0.00     0.163 HD
ATOM     79  O   UNL A   1      36.496  23.346  22.642  1.00  0.00    -0.269 OA
BRANCH  77  80
ATOM     80  C   UNL A   1      35.412  22.274  24.432  1.00  0.00     0.098 A 
ATOM     81  C   UNL A   1      35.745  20.947  24.731  1.00  0.00     0.138 A 
ATOM     82  C   UNL A   1      34.156  22.806  24.803  1.00  0.00     0.053 A 
ATOM     83  F   UNL A   1      36.957  20.457  24.424  1.00  0.00    -0.206 F 
ATOM     84  C   UNL A   1      34.832  20.096  25.339  1.00  0.00     0.040 A 
ATOM     85  C   UNL A   1      33.269  21.930  25.458  1.00  0.00     0.027 A 
ATOM     86  C   UNL A   1      33.588  20.590  25.706  1.00  0.00     0.005 A 
BRANCH  82  87
ATOM     87  N   UNL A   1      33.745  24.092  24.548  1.00  0.00    -0.365 N 
ATOM     88  C   UNL A   1      33.290  24.564  23.256  1.00  0.00     0.123 C 
ATOM     89  C   UNL A   1      33.796  25.178  25.531  1.00  0.00     0.181 C 
ATOM     90  C   UNL A   1      33.673  26.035  23.266  1.00  0.00     0.088 C 
ATOM     91  C   UNL A   1      33.506  26.488  24.720  1.00  0.00     0.205 C 
BRANCH  91  92
ATOM     92  N   UNL A   1      32.269  27.197  25.107  1.00  0.00    -0.331 N 
ATOM     93  C   UNL A   1      32.025  28.520  24.538  1.00  0.00     0.262 C 
ATOM     94  C   UNL A   1      31.946  27.142  26.537  1.00  0.00     0.262 C 
ATOM     95  H   UNL A   1      31.592  26.610  24.619  1.00  0.00     0.348 HD
ATOM     96  C   UNL A   1      32.636  29.687  25.315  1.00  0.00     0.062 C 
ATOM     97  C   UNL A   1      32.569  28.247  27.390  1.00  0.00     0.062 C 
ATOM     98  C   UNL A   1      32.318  29.630  26.804  1.00  0.00     0.012 C 
ENDBRANCH  91  92
ENDBRANCH  82  87
ENDBRANCH  77  80
ENDBRANCH  75  76
ENDBRANCH  74  75
ENDBRANCH   1  74
TORSDOF 15
ENDMDL
MODEL 3
REMARK VINA RESULT:     -12.6      6.849     12.072
REMARK SMILES O=C(NCCCNC(=O)c1c(F)cccc1N1CC[C@@H]([NH+]2CCCCC2)C1)c1ccc(-c2c3nc(c(-c4c(F)cc(S(=O)(=O)[O-])cc4F)c4ccc([nH]4)c(-c4c(F)cc(S(=O)(=O)[O-])cc4F)c4nc(c(-c5c(F)cc(S(=O)(=O)[O-])cc5F)c5ccc2[nH]5)C=C4)C=C3)cc1
REMARK SMILES IDX 4 1 3 2 1 3 2 4 28 6 29 7 93 8 30 9 92 10 31 11 32 12 33 13
REMARK SMILES IDX 86 14 34 15 91 16 85 17 87 18 35 19 90 20 84 21 83 22 36 24
REMARK SMILES IDX 70 25 49 26 69 27 50 28 53 29 68 30 88 31 51 32 52 33 67 35
REMARK SMILES IDX 89 36 54 37 37 38 38 39 47 40 39 41 40 42 46 43 48 44 41 45
REMARK SMILES IDX 42 46 43 47 44 48 45 49 71 50 72 51 81 52 73 53 74 54 80 55
REMARK SMILES IDX 82 56 75 57 76 58 77 59 78 60 79 61 55 62 56 63 65 64 57 65
REMARK SMILES IDX 58 66 64 67 66 68 59 69 60 70 61 71 62 72 63 73 5 74 6 75
REMARK SMILES IDX 7 76 8 77 9 79 10 80 11 81 16 82 12 83 13 84 15 85 14 86
REMARK SMILES IDX 17 87 18 88 27 89 19 90 20 91 21 92 22 93 26 94 23 96 25 97
REMARK SMILES IDX 24 98
REMARK H PARENT 3 5 87 23 53 34 7 78 21 95
REMARK Flexibility Score: inf
ROOT
ATOM      1  C   UNL A   1      35.164  30.477  27.863  1.00  0.00     0.118 C 
ENDROOT
BRANCH   1   2
ATOM      2  N   UNL A   1      35.251  30.574  29.315  1.00  0.00    -0.352 N 
ATOM      3  O   UNL A   1      36.024  30.297  31.402  1.00  0.00    -0.269 OA
ATOM      4  C   UNL A   1      36.257  30.254  30.196  1.00  0.00     0.251 C 
ATOM      5  H   UNL A   1      34.443  30.937  29.743  1.00  0.00     0.163 HD
BRANCH   4   6
ATOM      6  C   UNL A   1      37.596  29.831  29.724  1.00  0.00     0.039 A 
ATOM      7  C   UNL A   1      38.500  29.187  30.567  1.00  0.00     0.014 A 
ATOM      8  C   UNL A   1      37.941  30.043  28.382  1.00  0.00     0.014 A 
ATOM      9  C   UNL A   1      39.796  28.928  30.131  1.00  0.00     0.010 A 
ATOM     10  C   UNL A   1      39.211  29.685  27.914  1.00  0.00     0.010 A 
ATOM     11  C   UNL A   1      40.168  29.165  28.797  1.00  0.00    -0.014 A 
BRANCH  11  12
ATOM     12  C   UNL A   1      41.547  28.823  28.355  1.00  0.00     0.031 A 
ATOM     13  C   UNL A   1      42.666  29.827  28.439  1.00  0.00     0.074 A 
ATOM     14  C   UNL A   1      41.804  27.566  27.935  1.00  0.00     0.049 A 
ATOM     15  N   UNL A   1      43.936  29.668  28.162  1.00  0.00    -0.248 NA
ATOM     16  C   UNL A   1      42.318  31.185  28.886  1.00  0.00     0.031 C 
ATOM     17  C   UNL A   1      40.802  26.506  27.801  1.00  0.00     0.029 A 
ATOM     18  N   UNL A   1      42.980  26.957  27.580  1.00  0.00    -0.354 N 
ATOM     19  C   UNL A   1      44.536  30.901  28.391  1.00  0.00     0.074 A 
ATOM     20  C   UNL A   1      43.485  31.809  28.795  1.00  0.00     0.031 C 
ATOM     21  C   UNL A   1      41.415  25.362  27.468  1.00  0.00     0.029 A 
ATOM     22  C   UNL A   1      42.841  25.618  27.300  1.00  0.00     0.049 A 
ATOM     23  H   UNL A   1      43.841  27.432  27.531  1.00  0.00     0.167 HD
ATOM     24  C   UNL A   1      45.844  31.241  28.288  1.00  0.00     0.037 A 
ATOM     25  C   UNL A   1      43.755  24.694  26.945  1.00  0.00     0.037 A 
ATOM     26  C   UNL A   1      46.890  30.331  27.892  1.00  0.00     0.049 A 
ATOM     27  C   UNL A   1      45.194  25.098  26.816  1.00  0.00     0.074 A 
ATOM     28  C   UNL A   1      48.245  30.580  27.762  1.00  0.00     0.029 A 
ATOM     29  N   UNL A   1      46.699  28.995  27.564  1.00  0.00    -0.354 N 
ATOM     30  N   UNL A   1      45.740  26.270  27.035  1.00  0.00    -0.248 NA
ATOM     31  C   UNL A   1      46.139  24.062  26.381  1.00  0.00     0.031 C 
ATOM     32  C   UNL A   1      48.868  29.407  27.322  1.00  0.00     0.029 A 
ATOM     33  C   UNL A   1      47.908  28.413  27.219  1.00  0.00     0.049 A 
ATOM     34  H   UNL A   1      45.831  28.530  27.574  1.00  0.00     0.167 HD
ATOM     35  C   UNL A   1      47.095  26.112  26.773  1.00  0.00     0.074 A 
ATOM     36  C   UNL A   1      47.287  24.726  26.395  1.00  0.00     0.031 C 
ATOM     37  C   UNL A   1      48.086  27.034  26.836  1.00  0.00     0.037 A 
BRANCH  24  38
ATOM     38  C   UNL A   1      46.223  32.663  28.603  1.00  0.00     0.058 A 
ATOM     39  C   UNL A   1      46.270  33.633  27.590  1.00  0.00     0.135 A 
ATOM     40  C   UNL A   1      46.577  33.059  29.903  1.00  0.00     0.135 A 
ATOM     41  F   UNL A   1      45.939  33.311  26.329  1.00  0.00    -0.206 F 
ATOM     42  C   UNL A   1      46.657  34.945  27.852  1.00  0.00     0.059 A 
ATOM     43  C   UNL A   1      46.943  34.371  30.193  1.00  0.00     0.059 A 
ATOM     44  F   UNL A   1      46.530  32.177  30.914  1.00  0.00    -0.206 F 
ATOM     45  C   UNL A   1      46.989  35.305  29.159  1.00  0.00     0.060 A 
BRANCH  45  46
ATOM     46  S   UNL A   1      47.426  37.024  29.498  1.00  0.00     0.124 S 
ATOM     47  O   UNL A   1      48.070  37.422  28.252  1.00  0.00    -0.237 OA
ATOM     48  O   UNL A   1      46.123  37.627  29.764  1.00  0.00    -0.237 OA
ATOM     49  O   UNL A   1      48.307  36.924  30.660  1.00  0.00    -0.744 OA
ENDBRANCH  45  46
ENDBRANCH  24  38
BRANCH  25  50
ATOM     50  C   UNL A   1      43.316  23.292  26.717  1.00  0.00     0.058 A 
ATOM     51  C   UNL A   1      43.003  22.447  27.794  1.00  0.00     0.135 A 
ATOM     52  C   UNL A   1      43.287  22.748  25.425  1.00  0.00     0.135 A 
ATOM     53  F   UNL A   1      43.028  22.920  29.049  1.00  0.00    -0.206 F 
ATOM     54  C   UNL A   1      42.721  21.101  27.601  1.00  0.00     0.059 A 
ATOM     55  C   UNL A   1      42.982  21.408  25.205  1.00  0.00     0.059 A 
ATOM     56  F   UNL A   1      43.568  23.523  24.366  1.00  0.00    -0.206 F 
ATOM     57  C   UNL A   1      42.725  20.588  26.303  1.00  0.00     0.060 A 
BRANCH  57  58
ATOM     58  S   UNL A   1      42.409  18.824  26.080  1.00  0.00     0.124 S 
ATOM     59  O   UNL A   1      41.002  18.828  25.691  1.00  0.00    -0.237 OA
ATOM     60  O   UNL A   1      43.358  18.474  25.028  1.00  0.00    -0.237 OA
ATOM     61  O   UNL A   1      42.696  18.261  27.395  1.00  0.00    -0.744 OA
ENDBRANCH  57  58
ENDBRANCH  25  50
BRANCH  37  62
ATOM     62  C   UNL A   1      49.477  26.577  26.494  1.00  0.00     0.058 A 
ATOM     63  C   UNL A   1      49.966  26.700  25.184  1.00  0.00     0.135 A 
ATOM     64  C   UNL A   1      50.302  25.964  27.450  1.00  0.00     0.135 A 
ATOM     65  F   UNL A   1      49.215  27.277  24.233  1.00  0.00    -0.206 F 
ATOM     66  C   UNL A   1      51.223  26.221  24.831  1.00  0.00     0.059 A 
ATOM     67  C   UNL A   1      51.572  25.497  27.123  1.00  0.00     0.059 A 
ATOM     68  F   UNL A   1      49.884  25.835  28.719  1.00  0.00    -0.206 F 
ATOM     69  C   UNL A   1      52.018  25.617  25.806  1.00  0.00     0.060 A 
BRANCH  69  70
ATOM     70  S   UNL A   1      53.654  25.018  25.335  1.00  0.00     0.124 S 
ATOM     71  O   UNL A   1      54.501  25.637  26.347  1.00  0.00    -0.237 OA
ATOM     72  O   UNL A   1      53.495  23.570  25.439  1.00  0.00    -0.237 OA
ATOM     73  O   UNL A   1      53.822  25.525  23.977  1.00  0.00    -0.744 OA
ENDBRANCH  69  70
ENDBRANCH  37  62
ENDBRANCH  11  12
ENDBRANCH   4   6
ENDBRANCH   1   2
BRANCH   1  74
ATOM     74  C   UNL A   1      34.599  29.147  27.377  1.00  0.00     0.042 C 
BRANCH  74  75
ATOM     75  C   UNL A   1      33.571  29.261  26.258  1.00  0.00     0.118 C 
BRANCH  75  76
ATOM     76  N   UNL A   1      34.048  28.747  24.984  1.00  0.00    -0.352 N 
ATOM     77  C   UNL A   1      33.682  27.613  24.296  1.00  0.00     0.256 C 
ATOM     78  H   UNL A   1      34.740  29.294  24.547  1.00  0.00     0.163 HD
ATOM     79  O   UNL A   1      34.207  27.373  23.211  1.00  0.00    -0.269 OA
BRANCH  77  80
ATOM     80  C   UNL A   1      32.682  26.684  24.862  1.00  0.00     0.098 A 
ATOM     81  C   UNL A   1      33.166  25.658  25.683  1.00  0.00     0.138 A 
ATOM     82  C   UNL A   1      31.292  26.890  24.705  1.00  0.00     0.053 A 
ATOM     83  F   UNL A   1      34.485  25.495  25.874  1.00  0.00    -0.206 F 
ATOM     84  C   UNL A   1      32.302  24.774  26.314  1.00  0.00     0.040 A 
ATOM     85  C   UNL A   1      30.441  26.003  25.393  1.00  0.00     0.027 A 
ATOM     86  C   UNL A   1      30.933  24.947  26.169  1.00  0.00     0.005 A 
BRANCH  82  87
ATOM     87  N   UNL A   1      30.730  27.867  23.919  1.00  0.00    -0.365 N 
ATOM     88  C   UNL A   1      30.489  27.735  22.497  1.00  0.00     0.123 C 
ATOM     89  C   UNL A   1      30.381  29.206  24.403  1.00  0.00     0.181 C 
ATOM     90  C   UNL A   1      30.601  29.162  21.988  1.00  0.00     0.088 C 
ATOM     91  C   UNL A   1      30.050  30.040  23.117  1.00  0.00     0.205 C 
BRANCH  91  92
ATOM     92  N   UNL A   1      28.656  30.520  23.030  1.00  0.00    -0.331 N 
ATOM     93  C   UNL A   1      27.896  30.215  21.819  1.00  0.00     0.262 C 
ATOM     94  C   UNL A   1      28.447  31.900  23.481  1.00  0.00     0.262 C 
ATOM     95  H   UNL A   1      28.233  29.904  23.725  1.00  0.00     0.348 HD
ATOM     96  C   UNL A   1      28.049  31.226  20.682  1.00  0.00     0.062 C 
ATOM     97  C   UNL A   1      28.638  32.973  22.410  1.00  0.00     0.062 C 
ATOM     98  C   UNL A   1      27.847  32.664  21.145  1.00  0.00     0.012 C 
ENDBRANCH  91  92
ENDBRANCH  82  87
ENDBRANCH  77  80
ENDBRANCH  75  76
ENDBRANCH  74  75
ENDBRANCH   1  74
TORSDOF 15
ENDMDL
