MODEL 1
REMARK VINA RESULT:     -11.5      0.000      0.000
REMARK SMILES O=C(NCCCNC(=O)[C@@H](Cc1ccncc1)c1ccc(Cl)cc1)c1ccc(-c2c3nc(c(-c4c(F)cc(S(=O)(=O)[O-])cc4F)c4ccc([nH]4)c(-c4c(F)cc(S(=O)(=O)[O-])cc4F)c4nc(c(-c5c(F)cc(S(=O)(=O)[O-])cc5F)c5ccc2[nH]5)C=C4)C=C3)cc1
REMARK SMILES IDX 4 1 3 2 1 3 2 4 25 6 26 7 90 8 27 9 89 10 28 11 29 12 30 13
REMARK SMILES IDX 83 14 31 15 88 16 82 17 84 18 32 19 87 20 81 21 80 22 33 24
REMARK SMILES IDX 67 25 46 26 66 27 47 28 50 29 65 30 85 31 48 32 49 33 64 35
REMARK SMILES IDX 86 36 51 37 34 38 35 39 44 40 36 41 37 42 43 43 45 44 38 45
REMARK SMILES IDX 39 46 40 47 41 48 42 49 68 50 69 51 78 52 70 53 71 54 77 55
REMARK SMILES IDX 79 56 72 57 73 58 74 59 75 60 76 61 52 62 53 63 62 64 54 65
REMARK SMILES IDX 55 66 61 67 63 68 56 69 57 70 58 71 59 72 60 73 5 74 6 75
REMARK SMILES IDX 7 76 8 77 9 79 10 80 11 81 12 82 13 83 17 84 14 85 16 86
REMARK SMILES IDX 15 87 18 88 19 89 24 90 20 91 23 92 21 93 22 94
REMARK H PARENT 3 5 84 23 50 34 7 78
REMARK Flexibility Score: inf
ROOT
ATOM      1  C   UNL A   1      33.199  28.534  27.132  1.00  0.00     0.118 C 
ENDROOT
BRANCH   1   2
ATOM      2  N   UNL A   1      33.349  29.926  27.517  1.00  0.00    -0.352 N 
ATOM      3  O   UNL A   1      34.149  31.723  28.567  1.00  0.00    -0.269 OA
ATOM      4  C   UNL A   1      34.382  30.596  28.128  1.00  0.00     0.251 C 
ATOM      5  H   UNL A   1      32.572  30.491  27.302  1.00  0.00     0.163 HD
BRANCH   4   6
ATOM      6  C   UNL A   1      35.746  30.019  28.284  1.00  0.00     0.039 A 
ATOM      7  C   UNL A   1      36.697  30.039  27.265  1.00  0.00     0.014 A 
ATOM      8  C   UNL A   1      36.135  29.568  29.554  1.00  0.00     0.014 A 
ATOM      9  C   UNL A   1      37.980  29.532  27.474  1.00  0.00     0.010 A 
ATOM     10  C   UNL A   1      37.456  29.164  29.796  1.00  0.00     0.010 A 
ATOM     11  C   UNL A   1      38.395  29.148  28.758  1.00  0.00    -0.014 A 
BRANCH  11  12
ATOM     12  C   UNL A   1      39.840  28.895  29.014  1.00  0.00     0.031 A 
ATOM     13  C   UNL A   1      40.741  29.959  29.576  1.00  0.00     0.074 A 
ATOM     14  C   UNL A   1      40.344  27.680  28.707  1.00  0.00     0.049 A 
ATOM     15  N   UNL A   1      42.026  29.899  29.823  1.00  0.00    -0.248 NA
ATOM     16  C   UNL A   1      40.131  31.259  29.893  1.00  0.00     0.031 C 
ATOM     17  C   UNL A   1      39.580  26.574  28.118  1.00  0.00     0.029 A 
ATOM     18  N   UNL A   1      41.609  27.162  28.846  1.00  0.00    -0.354 N 
ATOM     19  C   UNL A   1      42.385  31.156  30.296  1.00  0.00     0.074 A 
ATOM     20  C   UNL A   1      41.183  31.963  30.291  1.00  0.00     0.031 C 
ATOM     21  C   UNL A   1      40.376  25.505  27.984  1.00  0.00     0.029 A 
ATOM     22  C   UNL A   1      41.724  25.863  28.404  1.00  0.00     0.049 A 
ATOM     23  H   UNL A   1      42.361  27.671  29.225  1.00  0.00     0.167 HD
ATOM     24  C   UNL A   1      43.604  31.588  30.698  1.00  0.00     0.037 A 
ATOM     25  C   UNL A   1      42.797  25.054  28.315  1.00  0.00     0.037 A 
ATOM     26  C   UNL A   1      44.790  30.769  30.725  1.00  0.00     0.049 A 
ATOM     27  C   UNL A   1      44.136  25.566  28.757  1.00  0.00     0.074 A 
ATOM     28  C   UNL A   1      46.051  31.100  31.189  1.00  0.00     0.029 A 
ATOM     29  N   UNL A   1      44.868  29.465  30.258  1.00  0.00    -0.354 N 
ATOM     30  N   UNL A   1      44.440  26.737  29.263  1.00  0.00    -0.248 NA
ATOM     31  C   UNL A   1      45.280  24.657  28.607  1.00  0.00     0.031 C 
ATOM     32  C   UNL A   1      46.903  30.013  30.959  1.00  0.00     0.029 A 
ATOM     33  C   UNL A   1      46.163  28.989  30.392  1.00  0.00     0.049 A 
ATOM     34  H   UNL A   1      44.113  28.952  29.886  1.00  0.00     0.167 HD
ATOM     35  C   UNL A   1      45.808  26.704  29.497  1.00  0.00     0.074 A 
ATOM     36  C   UNL A   1      46.270  25.389  29.100  1.00  0.00     0.031 C 
ATOM     37  C   UNL A   1      46.610  27.679  29.990  1.00  0.00     0.037 A 
BRANCH  24  38
ATOM     38  C   UNL A   1      43.736  33.023  31.133  1.00  0.00     0.058 A 
ATOM     39  C   UNL A   1      43.598  33.405  32.476  1.00  0.00     0.135 A 
ATOM     40  C   UNL A   1      44.080  34.018  30.201  1.00  0.00     0.135 A 
ATOM     41  F   UNL A   1      43.261  32.498  33.406  1.00  0.00    -0.206 F 
ATOM     42  C   UNL A   1      43.781  34.725  32.879  1.00  0.00     0.059 A 
ATOM     43  C   UNL A   1      44.290  35.339  30.585  1.00  0.00     0.059 A 
ATOM     44  F   UNL A   1      44.228  33.705  28.904  1.00  0.00    -0.206 F 
ATOM     45  C   UNL A   1      44.128  35.685  31.925  1.00  0.00     0.060 A 
BRANCH  45  46
ATOM     46  S   UNL A   1      44.386  37.389  32.467  1.00  0.00     0.124 S 
ATOM     47  O   UNL A   1      45.780  37.349  32.897  1.00  0.00    -0.237 OA
ATOM     48  O   UNL A   1      44.122  38.149  31.249  1.00  0.00    -0.237 OA
ATOM     49  O   UNL A   1      43.406  37.560  33.534  1.00  0.00    -0.744 OA
ENDBRANCH  45  46
ENDBRANCH  24  38
BRANCH  25  50
ATOM     50  C   UNL A   1      42.647  23.686  27.748  1.00  0.00     0.058 A 
ATOM     51  C   UNL A   1      42.522  22.566  28.581  1.00  0.00     0.135 A 
ATOM     52  C   UNL A   1      42.608  23.478  26.360  1.00  0.00     0.135 A 
ATOM     53  F   UNL A   1      42.559  22.712  29.914  1.00  0.00    -0.206 F 
ATOM     54  C   UNL A   1      42.376  21.284  28.059  1.00  0.00     0.059 A 
ATOM     55  C   UNL A   1      42.434  22.211  25.814  1.00  0.00     0.059 A 
ATOM     56  F   UNL A   1      42.706  24.521  25.521  1.00  0.00    -0.206 F 
ATOM     57  C   UNL A   1      42.331  21.117  26.672  1.00  0.00     0.060 A 
BRANCH  57  58
ATOM     58  S   UNL A   1      42.095  19.458  26.002  1.00  0.00     0.124 S 
ATOM     59  O   UNL A   1      40.655  19.438  25.772  1.00  0.00    -0.237 OA
ATOM     60  O   UNL A   1      42.932  19.485  24.806  1.00  0.00    -0.237 OA
ATOM     61  O   UNL A   1      42.577  18.592  27.075  1.00  0.00    -0.744 OA
ENDBRANCH  57  58
ENDBRANCH  25  50
BRANCH  37  62
ATOM     62  C   UNL A   1      48.069  27.359  30.141  1.00  0.00     0.058 A 
ATOM     63  C   UNL A   1      48.992  27.652  29.125  1.00  0.00     0.135 A 
ATOM     64  C   UNL A   1      48.559  26.804  31.334  1.00  0.00     0.135 A 
ATOM     65  F   UNL A   1      48.571  28.171  27.960  1.00  0.00    -0.206 F 
ATOM     66  C   UNL A   1      50.349  27.397  29.281  1.00  0.00     0.059 A 
ATOM     67  C   UNL A   1      49.916  26.562  31.522  1.00  0.00     0.059 A 
ATOM     68  F   UNL A   1      47.718  26.509  32.338  1.00  0.00    -0.206 F 
ATOM     69  C   UNL A   1      50.803  26.855  30.486  1.00  0.00     0.060 A 
BRANCH  69  70
ATOM     70  S   UNL A   1      52.574  26.575  30.697  1.00  0.00     0.124 S 
ATOM     71  O   UNL A   1      53.002  27.836  31.291  1.00  0.00    -0.237 OA
ATOM     72  O   UNL A   1      52.606  25.414  31.580  1.00  0.00    -0.237 OA
ATOM     73  O   UNL A   1      53.042  26.332  29.335  1.00  0.00    -0.744 OA
ENDBRANCH  69  70
ENDBRANCH  37  62
ENDBRANCH  11  12
ENDBRANCH   4   6
ENDBRANCH   1   2
BRANCH   1  74
ATOM     74  C   UNL A   1      33.651  28.287  25.701  1.00  0.00     0.042 C 
BRANCH  74  75
ATOM     75  C   UNL A   1      32.596  27.558  24.880  1.00  0.00     0.117 C 
BRANCH  75  76
ATOM     76  N   UNL A   1      33.110  27.216  23.562  1.00  0.00    -0.355 N 
ATOM     77  C   UNL A   1      33.474  26.022  23.024  1.00  0.00     0.227 C 
ATOM     78  H   UNL A   1      33.210  27.983  22.953  1.00  0.00     0.163 HD
ATOM     79  O   UNL A   1      33.889  26.050  21.859  1.00  0.00    -0.274 OA
BRANCH  77  80
ATOM     80  C   UNL A   1      33.421  24.691  23.783  1.00  0.00     0.113 C 
BRANCH  80  81
ATOM     81  C   UNL A   1      32.324  23.756  23.198  1.00  0.00     0.054 C 
BRANCH  81  82
ATOM     82  C   UNL A   1      32.268  22.298  23.595  1.00  0.00    -0.044 A 
ATOM     83  C   UNL A   1      32.298  21.266  22.653  1.00  0.00     0.024 A 
ATOM     84  C   UNL A   1      32.254  21.935  24.948  1.00  0.00     0.024 A 
ATOM     85  C   UNL A   1      32.245  19.948  23.087  1.00  0.00     0.111 A 
ATOM     86  C   UNL A   1      32.212  20.589  25.288  1.00  0.00     0.111 A 
ATOM     87  N   UNL A   1      32.186  19.590  24.383  1.00  0.00    -0.265 NA
ENDBRANCH  81  82
ENDBRANCH  80  81
BRANCH  80  88
ATOM     88  C   UNL A   1      34.751  24.083  24.232  1.00  0.00    -0.035 A 
ATOM     89  C   UNL A   1      35.244  24.348  25.523  1.00  0.00     0.006 A 
ATOM     90  C   UNL A   1      35.568  23.327  23.372  1.00  0.00     0.006 A 
ATOM     91  C   UNL A   1      36.436  23.777  25.978  1.00  0.00     0.021 A 
ATOM     92  C   UNL A   1      36.757  22.748  23.825  1.00  0.00     0.021 A 
ATOM     93  C   UNL A   1      37.177  22.960  25.132  1.00  0.00     0.041 A 
ATOM     94  Cl  UNL A   1      38.625  22.226  25.699  1.00  0.00    -0.084 Cl
ENDBRANCH  80  88
ENDBRANCH  77  80
ENDBRANCH  75  76
ENDBRANCH  74  75
ENDBRANCH   1  74
TORSDOF 16
ENDMDL
MODEL 2
REMARK VINA RESULT:     -11.4      0.461      8.407
REMARK SMILES O=C(NCCCNC(=O)[C@@H](Cc1ccncc1)c1ccc(Cl)cc1)c1ccc(-c2c3nc(c(-c4c(F)cc(S(=O)(=O)[O-])cc4F)c4ccc([nH]4)c(-c4c(F)cc(S(=O)(=O)[O-])cc4F)c4nc(c(-c5c(F)cc(S(=O)(=O)[O-])cc5F)c5ccc2[nH]5)C=C4)C=C3)cc1
REMARK SMILES IDX 4 1 3 2 1 3 2 4 25 6 26 7 90 8 27 9 89 10 28 11 29 12 30 13
REMARK SMILES IDX 83 14 31 15 88 16 82 17 84 18 32 19 87 20 81 21 80 22 33 24
REMARK SMILES IDX 67 25 46 26 66 27 47 28 50 29 65 30 85 31 48 32 49 33 64 35
REMARK SMILES IDX 86 36 51 37 34 38 35 39 44 40 36 41 37 42 43 43 45 44 38 45
REMARK SMILES IDX 39 46 40 47 41 48 42 49 68 50 69 51 78 52 70 53 71 54 77 55
REMARK SMILES IDX 79 56 72 57 73 58 74 59 75 60 76 61 52 62 53 63 62 64 54 65
REMARK SMILES IDX 55 66 61 67 63 68 56 69 57 70 58 71 59 72 60 73 5 74 6 75
REMARK SMILES IDX 7 76 8 77 9 79 10 80 11 81 12 82 13 83 17 84 14 85 16 86
REMARK SMILES IDX 15 87 18 88 19 89 24 90 20 91 23 92 21 93 22 94
REMARK H PARENT 3 5 84 23 50 34 7 78
REMARK Flexibility Score: inf
ROOT
ATOM      1  C   UNL A   1      33.268  28.553  27.281  1.00  0.00     0.118 C 
ENDROOT
BRANCH   1   2
ATOM      2  N   UNL A   1      33.459  29.948  27.631  1.00  0.00    -0.352 N 
ATOM      3  O   UNL A   1      34.343  31.751  28.600  1.00  0.00    -0.269 OA
ATOM      4  C   UNL A   1      34.534  30.614  28.169  1.00  0.00     0.251 C 
ATOM      5  H   UNL A   1      32.679  30.521  27.449  1.00  0.00     0.163 HD
BRANCH   4   6
ATOM      6  C   UNL A   1      35.897  30.019  28.259  1.00  0.00     0.039 A 
ATOM      7  C   UNL A   1      36.835  30.118  27.232  1.00  0.00     0.014 A 
ATOM      8  C   UNL A   1      36.300  29.462  29.482  1.00  0.00     0.014 A 
ATOM      9  C   UNL A   1      38.117  29.589  27.381  1.00  0.00     0.010 A 
ATOM     10  C   UNL A   1      37.621  29.034  29.672  1.00  0.00     0.010 A 
ATOM     11  C   UNL A   1      38.546  29.099  28.623  1.00  0.00    -0.014 A 
BRANCH  11  12
ATOM     12  C   UNL A   1      39.994  28.818  28.838  1.00  0.00     0.031 A 
ATOM     13  C   UNL A   1      40.609  27.503  28.450  1.00  0.00     0.074 A 
ATOM     14  C   UNL A   1      40.754  29.772  29.419  1.00  0.00     0.049 A 
ATOM     15  N   UNL A   1      41.845  27.099  28.604  1.00  0.00    -0.248 NA
ATOM     16  C   UNL A   1      39.728  26.509  27.818  1.00  0.00     0.031 C 
ATOM     17  C   UNL A   1      40.265  31.077  29.877  1.00  0.00     0.029 A 
ATOM     18  N   UNL A   1      42.093  29.803  29.722  1.00  0.00    -0.354 N 
ATOM     19  C   UNL A   1      41.887  25.798  28.117  1.00  0.00     0.074 A 
ATOM     20  C   UNL A   1      40.548  25.474  27.672  1.00  0.00     0.031 C 
ATOM     21  C   UNL A   1      41.289  31.790  30.365  1.00  0.00     0.029 A 
ATOM     22  C   UNL A   1      42.496  30.974  30.325  1.00  0.00     0.049 A 
ATOM     23  H   UNL A   1      42.707  29.058  29.527  1.00  0.00     0.167 HD
ATOM     24  C   UNL A   1      42.947  24.958  28.048  1.00  0.00     0.037 A 
ATOM     25  C   UNL A   1      43.691  31.344  30.821  1.00  0.00     0.037 A 
ATOM     26  C   UNL A   1      44.283  25.298  28.470  1.00  0.00     0.049 A 
ATOM     27  C   UNL A   1      44.843  30.387  30.741  1.00  0.00     0.074 A 
ATOM     28  C   UNL A   1      45.436  24.538  28.366  1.00  0.00     0.029 A 
ATOM     29  N   UNL A   1      44.646  26.487  29.085  1.00  0.00    -0.354 N 
ATOM     30  N   UNL A   1      44.876  29.186  30.217  1.00  0.00    -0.248 NA
ATOM     31  C   UNL A   1      46.117  30.826  31.327  1.00  0.00     0.031 C 
ATOM     32  C   UNL A   1      46.485  25.247  28.962  1.00  0.00     0.029 A 
ATOM     33  C   UNL A   1      45.996  26.467  29.398  1.00  0.00     0.049 A 
ATOM     34  H   UNL A   1      44.034  27.235  29.273  1.00  0.00     0.167 HD
ATOM     35  C   UNL A   1      46.173  28.726  30.404  1.00  0.00     0.074 A 
ATOM     36  C   UNL A   1      46.901  29.788  31.070  1.00  0.00     0.031 C 
ATOM     37  C   UNL A   1      46.709  27.530  30.063  1.00  0.00     0.037 A 
BRANCH  24  38
ATOM     38  C   UNL A   1      42.716  23.572  27.510  1.00  0.00     0.058 A 
ATOM     39  C   UNL A   1      42.896  23.265  26.153  1.00  0.00     0.135 A 
ATOM     40  C   UNL A   1      42.383  22.519  28.380  1.00  0.00     0.135 A 
ATOM     41  F   UNL A   1      43.205  24.233  25.277  1.00  0.00    -0.206 F 
ATOM     42  C   UNL A   1      42.738  21.968  25.673  1.00  0.00     0.059 A 
ATOM     43  C   UNL A   1      42.242  21.211  27.927  1.00  0.00     0.059 A 
ATOM     44  F   UNL A   1      42.203  22.758  29.689  1.00  0.00    -0.206 F 
ATOM     45  C   UNL A   1      42.412  20.947  26.569  1.00  0.00     0.060 A 
BRANCH  45  46
ATOM     46  S   UNL A   1      42.235  19.264  25.936  1.00  0.00     0.124 S 
ATOM     47  O   UNL A   1      42.765  18.479  27.046  1.00  0.00    -0.237 OA
ATOM     48  O   UNL A   1      40.795  19.161  25.719  1.00  0.00    -0.237 OA
ATOM     49  O   UNL A   1      43.049  19.268  24.725  1.00  0.00    -0.744 OA
ENDBRANCH  45  46
ENDBRANCH  24  38
BRANCH  25  50
ATOM     50  C   UNL A   1      43.842  32.674  31.472  1.00  0.00     0.058 A 
ATOM     51  C   UNL A   1      44.124  33.822  30.718  1.00  0.00     0.135 A 
ATOM     52  C   UNL A   1      43.687  32.823  32.859  1.00  0.00     0.135 A 
ATOM     53  F   UNL A   1      44.287  33.731  29.390  1.00  0.00    -0.206 F 
ATOM     54  C   UNL A   1      44.261  35.070  31.319  1.00  0.00     0.059 A 
ATOM     55  C   UNL A   1      43.791  34.064  33.479  1.00  0.00     0.059 A 
ATOM     56  F   UNL A   1      43.398  31.757  33.622  1.00  0.00    -0.206 F 
ATOM     57  C   UNL A   1      44.091  35.181  32.701  1.00  0.00     0.060 A 
BRANCH  57  58
ATOM     58  S   UNL A   1      44.224  36.810  33.467  1.00  0.00     0.124 S 
ATOM     59  O   UNL A   1      44.764  37.605  32.370  1.00  0.00    -0.237 OA
ATOM     60  O   UNL A   1      42.840  37.091  33.838  1.00  0.00    -0.237 OA
ATOM     61  O   UNL A   1      45.130  36.579  34.589  1.00  0.00    -0.744 OA
ENDBRANCH  57  58
ENDBRANCH  25  50
BRANCH  37  62
ATOM     62  C   UNL A   1      48.157  27.306  30.389  1.00  0.00     0.058 A 
ATOM     63  C   UNL A   1      48.552  26.723  31.604  1.00  0.00     0.135 A 
ATOM     64  C   UNL A   1      49.157  27.626  29.458  1.00  0.00     0.135 A 
ATOM     65  F   UNL A   1      47.634  26.411  32.533  1.00  0.00    -0.206 F 
ATOM     66  C   UNL A   1      49.889  26.476  31.889  1.00  0.00     0.059 A 
ATOM     67  C   UNL A   1      50.500  27.365  29.712  1.00  0.00     0.059 A 
ATOM     68  F   UNL A   1      48.832  28.181  28.280  1.00  0.00    -0.206 F 
ATOM     69  C   UNL A   1      50.858  26.796  30.934  1.00  0.00     0.060 A 
BRANCH  69  70
ATOM     70  S   UNL A   1      52.586  26.422  31.294  1.00  0.00     0.124 S 
ATOM     71  O   UNL A   1      52.928  27.486  32.232  1.00  0.00    -0.237 OA
ATOM     72  O   UNL A   1      52.506  25.080  31.861  1.00  0.00    -0.237 OA
ATOM     73  O   UNL A   1      53.231  26.506  29.986  1.00  0.00    -0.744 OA
ENDBRANCH  69  70
ENDBRANCH  37  62
ENDBRANCH  11  12
ENDBRANCH   4   6
ENDBRANCH   1   2
BRANCH   1  74
ATOM     74  C   UNL A   1      33.713  28.256  25.856  1.00  0.00     0.042 C 
BRANCH  74  75
ATOM     75  C   UNL A   1      32.778  27.284  25.150  1.00  0.00     0.117 C 
BRANCH  75  76
ATOM     76  N   UNL A   1      33.214  27.046  23.782  1.00  0.00    -0.355 N 
ATOM     77  C   UNL A   1      33.536  25.897  23.131  1.00  0.00     0.227 C 
ATOM     78  H   UNL A   1      33.289  27.859  23.232  1.00  0.00     0.163 HD
ATOM     79  O   UNL A   1      33.887  26.017  21.950  1.00  0.00    -0.274 OA
BRANCH  77  80
ATOM     80  C   UNL A   1      33.511  24.510  23.782  1.00  0.00     0.113 C 
BRANCH  80  81
ATOM     81  C   UNL A   1      32.551  23.551  23.022  1.00  0.00     0.054 C 
BRANCH  81  82
ATOM     82  C   UNL A   1      32.402  22.110  23.457  1.00  0.00    -0.044 A 
ATOM     83  C   UNL A   1      32.300  21.060  22.541  1.00  0.00     0.024 A 
ATOM     84  C   UNL A   1      32.433  21.778  24.817  1.00  0.00     0.024 A 
ATOM     85  C   UNL A   1      32.168  19.760  23.009  1.00  0.00     0.111 A 
ATOM     86  C   UNL A   1      32.304  20.446  25.193  1.00  0.00     0.111 A 
ATOM     87  N   UNL A   1      32.151  19.434  24.316  1.00  0.00    -0.265 NA
ENDBRANCH  81  82
ENDBRANCH  80  81
BRANCH  80  88
ATOM     88  C   UNL A   1      34.834  23.960  24.321  1.00  0.00    -0.035 A 
ATOM     89  C   UNL A   1      35.654  23.170  23.495  1.00  0.00     0.006 A 
ATOM     90  C   UNL A   1      35.240  24.136  25.655  1.00  0.00     0.006 A 
ATOM     91  C   UNL A   1      36.885  22.685  23.943  1.00  0.00     0.021 A 
ATOM     92  C   UNL A   1      36.476  23.659  26.106  1.00  0.00     0.021 A 
ATOM     93  C   UNL A   1      37.301  22.951  25.242  1.00  0.00     0.041 A 
ATOM     94  Cl  UNL A   1      38.832  22.388  25.786  1.00  0.00    -0.084 Cl
ENDBRANCH  80  88
ENDBRANCH  77  80
ENDBRANCH  75  76
ENDBRANCH  74  75
ENDBRANCH   1  74
TORSDOF 16
ENDMDL
MODEL 3
REMARK VINA RESULT:     -11.3      1.647      8.802
REMARK SMILES O=C(NCCCNC(=O)[C@@H](Cc1ccncc1)c1ccc(Cl)cc1)c1ccc(-c2c3nc(c(-c4c(F)cc(S(=O)(=O)[O-])cc4F)c4ccc([nH]4)c(-c4c(F)cc(S(=O)(=O)[O-])cc4F)c4nc(c(-c5c(F)cc(S(=O)(=O)[O-])cc5F)c5ccc2[nH]5)C=C4)C=C3)cc1
REMARK SMILES IDX 4 1 3 2 1 3 2 4 25 6 26 7 90 8 27 9 89 10 28 11 29 12 30 13
REMARK SMILES IDX 83 14 31 15 88 16 82 17 84 18 32 19 87 20 81 21 80 22 33 24
REMARK SMILES IDX 67 25 46 26 66 27 47 28 50 29 65 30 85 31 48 32 49 33 64 35
REMARK SMILES IDX 86 36 51 37 34 38 35 39 44 40 36 41 37 42 43 43 45 44 38 45
REMARK SMILES IDX 39 46 40 47 41 48 42 49 68 50 69 51 78 52 70 53 71 54 77 55
REMARK SMILES IDX 79 56 72 57 73 58 74 59 75 60 76 61 52 62 53 63 62 64 54 65
REMARK SMILES IDX 55 66 61 67 63 68 56 69 57 70 58 71 59 72 60 73 5 74 6 75
REMARK SMILES IDX 7 76 8 77 9 79 10 80 11 81 12 82 13 83 17 84 14 85 16 86
REMARK SMILES IDX 15 87 18 88 19 89 24 90 20 91 23 92 21 93 22 94
REMARK H PARENT 3 5 84 23 50 34 7 78
REMARK Flexibility Score: inf
ROOT
ATOM      1  C   UNL A   1      33.515  28.967  27.251  1.00  0.00     0.118 C 
ENDROOT
BRANCH   1   2
ATOM      2  N   UNL A   1      33.693  30.270  27.866  1.00  0.00    -0.352 N 
ATOM      3  O   UNL A   1      34.534  31.847  29.199  1.00  0.00    -0.269 OA
ATOM      4  C   UNL A   1      34.743  30.808  28.572  1.00  0.00     0.251 C 
ATOM      5  H   UNL A   1      32.925  30.876  27.759  1.00  0.00     0.163 HD
BRANCH   4   6
ATOM      6  C   UNL A   1      36.097  30.190  28.612  1.00  0.00     0.039 A 
ATOM      7  C   UNL A   1      36.998  30.270  27.551  1.00  0.00     0.014 A 
ATOM      8  C   UNL A   1      36.535  29.629  29.822  1.00  0.00     0.014 A 
ATOM      9  C   UNL A   1      38.275  29.718  27.655  1.00  0.00     0.010 A 
ATOM     10  C   UNL A   1      37.855  29.178  29.965  1.00  0.00     0.010 A 
ATOM     11  C   UNL A   1      38.742  29.224  28.882  1.00  0.00    -0.014 A 
BRANCH  11  12
ATOM     12  C   UNL A   1      40.191  28.919  29.044  1.00  0.00     0.031 A 
ATOM     13  C   UNL A   1      40.771  27.597  28.625  1.00  0.00     0.074 A 
ATOM     14  C   UNL A   1      40.986  29.855  29.606  1.00  0.00     0.049 A 
ATOM     15  N   UNL A   1      42.005  27.172  28.733  1.00  0.00    -0.248 NA
ATOM     16  C   UNL A   1      39.853  26.622  28.016  1.00  0.00     0.031 C 
ATOM     17  C   UNL A   1      40.535  31.164  30.092  1.00  0.00     0.029 A 
ATOM     18  N   UNL A   1      42.336  29.862  29.863  1.00  0.00    -0.354 N 
ATOM     19  C   UNL A   1      42.009  25.875  28.234  1.00  0.00     0.074 A 
ATOM     20  C   UNL A   1      40.650  25.576  27.833  1.00  0.00     0.031 C 
ATOM     21  C   UNL A   1      41.587  31.856  30.549  1.00  0.00     0.029 A 
ATOM     22  C   UNL A   1      42.777  31.021  30.461  1.00  0.00     0.049 A 
ATOM     23  H   UNL A   1      42.930  29.109  29.641  1.00  0.00     0.167 HD
ATOM     24  C   UNL A   1      43.053  25.018  28.121  1.00  0.00     0.037 A 
ATOM     25  C   UNL A   1      43.995  31.368  30.918  1.00  0.00     0.037 A 
ATOM     26  C   UNL A   1      44.408  25.333  28.499  1.00  0.00     0.049 A 
ATOM     27  C   UNL A   1      45.128  30.393  30.790  1.00  0.00     0.074 A 
ATOM     28  C   UNL A   1      45.544  24.556  28.349  1.00  0.00     0.029 A 
ATOM     29  N   UNL A   1      44.811  26.511  29.111  1.00  0.00    -0.354 N 
ATOM     30  N   UNL A   1      45.123  29.197  30.255  1.00  0.00    -0.248 NA
ATOM     31  C   UNL A   1      46.428  30.807  31.336  1.00  0.00     0.031 C 
ATOM     32  C   UNL A   1      46.624  25.243  28.914  1.00  0.00     0.029 A 
ATOM     33  C   UNL A   1      46.171  26.468  29.377  1.00  0.00     0.049 A 
ATOM     34  H   UNL A   1      44.217  27.268  29.326  1.00  0.00     0.167 HD
ATOM     35  C   UNL A   1      46.418  28.715  30.394  1.00  0.00     0.074 A 
ATOM     36  C   UNL A   1      47.186  29.759  31.042  1.00  0.00     0.031 C 
ATOM     37  C   UNL A   1      46.923  27.513  30.025  1.00  0.00     0.037 A 
BRANCH  24  38
ATOM     38  C   UNL A   1      42.781  23.641  27.580  1.00  0.00     0.058 A 
ATOM     39  C   UNL A   1      42.873  23.352  26.211  1.00  0.00     0.135 A 
ATOM     40  C   UNL A   1      42.497  22.578  28.456  1.00  0.00     0.135 A 
ATOM     41  F   UNL A   1      43.132  24.331  25.330  1.00  0.00    -0.206 F 
ATOM     42  C   UNL A   1      42.678  22.062  25.724  1.00  0.00     0.059 A 
ATOM     43  C   UNL A   1      42.321  21.277  27.995  1.00  0.00     0.059 A 
ATOM     44  F   UNL A   1      42.401  22.800  29.776  1.00  0.00    -0.206 F 
ATOM     45  C   UNL A   1      42.404  21.030  26.625  1.00  0.00     0.060 A 
BRANCH  45  46
ATOM     46  S   UNL A   1      42.178  19.358  25.982  1.00  0.00     0.124 S 
ATOM     47  O   UNL A   1      42.669  18.550  27.095  1.00  0.00    -0.237 OA
ATOM     48  O   UNL A   1      40.738  19.303  25.749  1.00  0.00    -0.237 OA
ATOM     49  O   UNL A   1      43.005  19.339  24.781  1.00  0.00    -0.744 OA
ENDBRANCH  45  46
ENDBRANCH  24  38
BRANCH  25  50
ATOM     50  C   UNL A   1      44.190  32.690  31.574  1.00  0.00     0.058 A 
ATOM     51  C   UNL A   1      44.526  33.827  30.827  1.00  0.00     0.135 A 
ATOM     52  C   UNL A   1      44.023  32.842  32.959  1.00  0.00     0.135 A 
ATOM     53  F   UNL A   1      44.702  33.732  29.501  1.00  0.00    -0.206 F 
ATOM     54  C   UNL A   1      44.705  35.068  31.431  1.00  0.00     0.059 A 
ATOM     55  C   UNL A   1      44.168  34.077  33.583  1.00  0.00     0.059 A 
ATOM     56  F   UNL A   1      43.684  31.787  33.716  1.00  0.00    -0.206 F 
ATOM     57  C   UNL A   1      44.522  35.182  32.812  1.00  0.00     0.060 A 
BRANCH  57  58
ATOM     58  S   UNL A   1      44.709  36.804  33.584  1.00  0.00     0.124 S 
ATOM     59  O   UNL A   1      46.149  37.008  33.487  1.00  0.00    -0.237 OA
ATOM     60  O   UNL A   1      43.884  37.650  32.727  1.00  0.00    -0.237 OA
ATOM     61  O   UNL A   1      44.188  36.595  34.932  1.00  0.00    -0.744 OA
ENDBRANCH  57  58
ENDBRANCH  25  50
BRANCH  37  62
ATOM     62  C   UNL A   1      48.378  27.263  30.299  1.00  0.00     0.058 A 
ATOM     63  C   UNL A   1      48.801  26.613  31.469  1.00  0.00     0.135 A 
ATOM     64  C   UNL A   1      49.355  27.628  29.359  1.00  0.00     0.135 A 
ATOM     65  F   UNL A   1      47.906  26.256  32.405  1.00  0.00    -0.206 F 
ATOM     66  C   UNL A   1      50.144  26.342  31.703  1.00  0.00     0.059 A 
ATOM     67  C   UNL A   1      50.702  27.346  29.562  1.00  0.00     0.059 A 
ATOM     68  F   UNL A   1      49.001  28.248  28.222  1.00  0.00    -0.206 F 
ATOM     69  C   UNL A   1      51.088  26.708  30.741  1.00  0.00     0.060 A 
BRANCH  69  70
ATOM     70  S   UNL A   1      52.823  26.306  31.033  1.00  0.00     0.124 S 
ATOM     71  O   UNL A   1      53.321  26.145  29.672  1.00  0.00    -0.237 OA
ATOM     72  O   UNL A   1      53.302  27.484  31.749  1.00  0.00    -0.237 OA
ATOM     73  O   UNL A   1      52.757  25.081  31.828  1.00  0.00    -0.744 OA
ENDBRANCH  69  70
ENDBRANCH  37  62
ENDBRANCH  11  12
ENDBRANCH   4   6
ENDBRANCH   1   2
BRANCH   1  74
ATOM     74  C   UNL A   1      32.119  28.797  26.670  1.00  0.00     0.042 C 
BRANCH  74  75
ATOM     75  C   UNL A   1      31.838  29.783  25.544  1.00  0.00     0.117 C 
BRANCH  75  76
ATOM     76  N   UNL A   1      32.862  29.696  24.513  1.00  0.00    -0.355 N 
ATOM     77  C   UNL A   1      33.165  28.707  23.632  1.00  0.00     0.227 C 
ATOM     78  H   UNL A   1      33.435  30.494  24.440  1.00  0.00     0.163 HD
ATOM     79  O   UNL A   1      34.114  28.925  22.868  1.00  0.00    -0.274 OA
BRANCH  77  80
ATOM     80  C   UNL A   1      32.424  27.366  23.564  1.00  0.00     0.113 C 
BRANCH  80  81
ATOM     81  C   UNL A   1      31.348  27.377  22.442  1.00  0.00     0.054 C 
BRANCH  81  82
ATOM     82  C   UNL A   1      30.172  28.326  22.515  1.00  0.00    -0.044 A 
ATOM     83  C   UNL A   1      30.214  29.610  21.965  1.00  0.00     0.024 A 
ATOM     84  C   UNL A   1      28.964  27.909  23.086  1.00  0.00     0.024 A 
ATOM     85  C   UNL A   1      29.099  30.429  22.066  1.00  0.00     0.111 A 
ATOM     86  C   UNL A   1      27.895  28.796  23.134  1.00  0.00     0.111 A 
ATOM     87  N   UNL A   1      27.947  30.054  22.654  1.00  0.00    -0.265 NA
ENDBRANCH  81  82
ENDBRANCH  80  81
BRANCH  80  88
ATOM     88  C   UNL A   1      33.246  26.095  23.791  1.00  0.00    -0.035 A 
ATOM     89  C   UNL A   1      33.944  25.917  25.001  1.00  0.00     0.006 A 
ATOM     90  C   UNL A   1      33.416  25.115  22.798  1.00  0.00     0.006 A 
ATOM     91  C   UNL A   1      34.672  24.752  25.255  1.00  0.00     0.021 A 
ATOM     92  C   UNL A   1      34.137  23.943  23.051  1.00  0.00     0.021 A 
ATOM     93  C   UNL A   1      34.747  23.759  24.285  1.00  0.00     0.041 A 
ATOM     94  Cl  UNL A   1      35.610  22.307  24.608  1.00  0.00    -0.084 Cl
ENDBRANCH  80  88
ENDBRANCH  77  80
ENDBRANCH  75  76
ENDBRANCH  74  75
ENDBRANCH   1  74
TORSDOF 16
ENDMDL
