MODEL 1
REMARK VINA RESULT:     -10.6      0.000      0.000
REMARK SMILES CC[NH2+][C@H](CC[N@@H+](C)C1CCC(C)(C)CC1)C(=O)NCCCNC(=O)c1ccc(-c2c3nc(c(-c4c(F)cc(S(=O)(=O)[O-])cc4F)c4ccc([nH]4)c(-c4c(F)cc(S(=O)(=O)[O-])cc4F)c4nc(c(-c5c(F)cc(S(=O)(=O)[O-])cc5F)c5ccc2[nH]5)C=C4)C=C3)cc1
REMARK SMILES IDX 20 1 19 2 17 3 18 4 4 6 3 7 2 10 1 11 5 12 6 13 7 14 8 15
REMARK SMILES IDX 9 17 10 18 16 19 11 20 15 21 12 22 13 23 14 24 21 25 22 26
REMARK SMILES IDX 23 27 24 28 25 30 26 31 27 32 91 33 28 34 90 35 29 36 30 37
REMARK SMILES IDX 31 38 84 39 32 40 89 41 83 42 85 43 33 44 88 45 82 46 81 47
REMARK SMILES IDX 34 49 68 50 47 51 67 52 48 53 51 54 66 55 86 56 49 57 50 58
REMARK SMILES IDX 65 60 87 61 52 62 35 63 36 64 45 65 37 66 38 67 44 68 46 69
REMARK SMILES IDX 39 70 40 71 41 72 42 73 43 74 69 75 70 76 79 77 71 78 72 79
REMARK SMILES IDX 78 80 80 81 73 82 74 83 75 84 76 85 77 86 53 87 54 88 63 89
REMARK SMILES IDX 55 90 56 91 62 92 64 93 57 94 58 95 59 96 60 97 61 98
REMARK H PARENT 19 5 3 8 3 9 7 16 23 29 85 48 51 59
REMARK Flexibility Score: inf
ROOT
ATOM      1  C   UNL A   1      37.452  22.148  25.605  1.00  0.00     0.118 C 
ENDROOT
BRANCH   1   2
ATOM      2  N   UNL A   1      37.168  22.453  24.211  1.00  0.00    -0.351 N 
ATOM      3  C   UNL A   1      35.975  22.685  23.586  1.00  0.00     0.278 C 
ATOM      4  O   UNL A   1      36.000  22.959  22.383  1.00  0.00    -0.268 OA
ATOM      5  H   UNL A   1      37.959  22.502  23.626  1.00  0.00     0.163 HD
BRANCH   3   6
ATOM      6  C   UNL A   1      34.632  22.655  24.375  1.00  0.00     0.278 C 
BRANCH   6   7
ATOM      7  N   UNL A   1      34.023  21.323  24.106  1.00  0.00    -0.336 N 
ATOM      8  H   UNL A   1      33.095  21.482  23.714  1.00  0.00     0.346 HD
ATOM      9  H   UNL A   1      34.679  20.853  23.482  1.00  0.00     0.346 HD
BRANCH   7  10
ATOM     10  C   UNL A   1      33.873  20.427  25.241  1.00  0.00     0.257 C 
ATOM     11  C   UNL A   1      32.686  19.501  25.025  1.00  0.00     0.071 C 
ENDBRANCH   7  10
ENDBRANCH   6   7
BRANCH   6  12
ATOM     12  C   UNL A   1      33.819  23.907  23.978  1.00  0.00     0.137 C 
BRANCH  12  13
ATOM     13  C   UNL A   1      34.346  25.334  24.201  1.00  0.00     0.269 C 
BRANCH  13  14
ATOM     14  N   UNL A   1      33.581  26.469  23.645  1.00  0.00    -0.335 N 
ATOM     15  C   UNL A   1      33.330  26.247  22.221  1.00  0.00     0.332 C 
ATOM     16  H   UNL A   1      34.189  27.282  23.736  1.00  0.00     0.348 HD
BRANCH  14  17
ATOM     17  C   UNL A   1      32.448  27.005  24.437  1.00  0.00     0.183 C 
ATOM     18  C   UNL A   1      32.419  26.732  25.967  1.00  0.00     0.065 C 
ATOM     19  C   UNL A   1      32.149  28.497  24.273  1.00  0.00     0.065 C 
ATOM     20  C   UNL A   1      33.292  27.679  26.817  1.00  0.00     0.012 C 
ATOM     21  C   UNL A   1      33.149  29.398  24.971  1.00  0.00     0.012 C 
ATOM     22  C   UNL A   1      33.134  29.185  26.488  1.00  0.00    -0.035 C 
ATOM     23  C   UNL A   1      34.305  29.982  27.090  1.00  0.00     0.011 C 
ATOM     24  C   UNL A   1      31.823  29.738  27.083  1.00  0.00     0.011 C 
ENDBRANCH  14  17
ENDBRANCH  13  14
ENDBRANCH  12  13
ENDBRANCH   6  12
ENDBRANCH   3   6
ENDBRANCH   1   2
BRANCH   1  25
ATOM     25  C   UNL A   1      37.405  23.389  26.489  1.00  0.00     0.042 C 
BRANCH  25  26
ATOM     26  C   UNL A   1      38.438  24.442  26.115  1.00  0.00     0.118 C 
BRANCH  26  27
ATOM     27  N   UNL A   1      39.799  23.935  26.215  1.00  0.00    -0.352 N 
ATOM     28  C   UNL A   1      40.898  24.476  26.836  1.00  0.00     0.251 C 
ATOM     29  H   UNL A   1      39.955  23.071  25.769  1.00  0.00     0.163 HD
ATOM     30  O   UNL A   1      42.012  24.021  26.597  1.00  0.00    -0.269 OA
BRANCH  28  31
ATOM     31  C   UNL A   1      40.742  25.607  27.774  1.00  0.00     0.039 A 
ATOM     32  C   UNL A   1      39.669  25.599  28.669  1.00  0.00     0.014 A 
ATOM     33  C   UNL A   1      41.634  26.683  27.762  1.00  0.00     0.014 A 
ATOM     34  C   UNL A   1      39.535  26.633  29.598  1.00  0.00     0.010 A 
ATOM     35  C   UNL A   1      41.543  27.673  28.736  1.00  0.00     0.010 A 
ATOM     36  C   UNL A   1      40.495  27.656  29.667  1.00  0.00    -0.014 A 
BRANCH  36  37
ATOM     37  C   UNL A   1      40.439  28.695  30.726  1.00  0.00     0.031 A 
ATOM     38  C   UNL A   1      41.314  28.589  31.945  1.00  0.00     0.074 A 
ATOM     39  C   UNL A   1      39.537  29.692  30.619  1.00  0.00     0.049 A 
ATOM     40  N   UNL A   1      41.343  29.353  33.006  1.00  0.00    -0.248 NA
ATOM     41  C   UNL A   1      42.265  27.465  31.990  1.00  0.00     0.031 C 
ATOM     42  C   UNL A   1      38.594  29.866  29.510  1.00  0.00     0.029 A 
ATOM     43  N   UNL A   1      39.250  30.737  31.461  1.00  0.00    -0.354 N 
ATOM     44  C   UNL A   1      42.298  28.797  33.849  1.00  0.00     0.074 A 
ATOM     45  C   UNL A   1      42.801  27.610  33.194  1.00  0.00     0.031 C 
ATOM     46  C   UNL A   1      37.843  30.956  29.735  1.00  0.00     0.029 A 
ATOM     47  C   UNL A   1      38.221  31.537  31.019  1.00  0.00     0.049 A 
ATOM     48  H   UNL A   1      39.734  30.900  32.303  1.00  0.00     0.167 HD
ATOM     49  C   UNL A   1      42.725  29.249  35.052  1.00  0.00     0.037 A 
ATOM     50  C   UNL A   1      37.634  32.605  31.591  1.00  0.00     0.037 A 
ATOM     51  C   UNL A   1      42.245  30.453  35.679  1.00  0.00     0.049 A 
ATOM     52  C   UNL A   1      38.134  33.084  32.928  1.00  0.00     0.074 A 
ATOM     53  C   UNL A   1      42.683  31.043  36.853  1.00  0.00     0.029 A 
ATOM     54  N   UNL A   1      41.218  31.248  35.191  1.00  0.00    -0.354 N 
ATOM     55  N   UNL A   1      39.099  32.595  33.669  1.00  0.00    -0.248 NA
ATOM     56  C   UNL A   1      37.467  34.259  33.506  1.00  0.00     0.031 C 
ATOM     57  C   UNL A   1      41.889  32.168  37.099  1.00  0.00     0.029 A 
ATOM     58  C   UNL A   1      40.988  32.305  36.056  1.00  0.00     0.049 A 
ATOM     59  H   UNL A   1      40.727  31.084  34.354  1.00  0.00     0.167 HD
ATOM     60  C   UNL A   1      39.165  33.413  34.792  1.00  0.00     0.074 A 
ATOM     61  C   UNL A   1      38.158  34.439  34.622  1.00  0.00     0.031 C 
ATOM     62  C   UNL A   1      39.982  33.319  35.870  1.00  0.00     0.037 A 
BRANCH  49  63
ATOM     63  C   UNL A   1      43.777  28.456  35.775  1.00  0.00     0.058 A 
ATOM     64  C   UNL A   1      45.143  28.748  35.635  1.00  0.00     0.135 A 
ATOM     65  C   UNL A   1      43.411  27.453  36.689  1.00  0.00     0.135 A 
ATOM     66  F   UNL A   1      45.548  29.685  34.764  1.00  0.00    -0.206 F 
ATOM     67  C   UNL A   1      46.109  28.071  36.373  1.00  0.00     0.059 A 
ATOM     68  C   UNL A   1      44.359  26.780  37.453  1.00  0.00     0.059 A 
ATOM     69  F   UNL A   1      42.118  27.133  36.856  1.00  0.00    -0.206 F 
ATOM     70  C   UNL A   1      45.706  27.094  37.286  1.00  0.00     0.060 A 
BRANCH  70  71
ATOM     71  S   UNL A   1      46.971  26.266  38.273  1.00  0.00     0.124 S 
ATOM     72  O   UNL A   1      46.155  25.448  39.164  1.00  0.00    -0.237 OA
ATOM     73  O   UNL A   1      47.728  25.536  37.261  1.00  0.00    -0.237 OA
ATOM     74  O   UNL A   1      47.683  27.368  38.909  1.00  0.00    -0.744 OA
ENDBRANCH  70  71
ENDBRANCH  49  63
BRANCH  50  75
ATOM     75  C   UNL A   1      36.504  33.294  30.915  1.00  0.00     0.058 A 
ATOM     76  C   UNL A   1      36.715  34.080  29.773  1.00  0.00     0.135 A 
ATOM     77  C   UNL A   1      35.193  33.197  31.408  1.00  0.00     0.135 A 
ATOM     78  F   UNL A   1      37.951  34.208  29.266  1.00  0.00    -0.206 F 
ATOM     79  C   UNL A   1      35.674  34.772  29.161  1.00  0.00     0.059 A 
ATOM     80  C   UNL A   1      34.132  33.858  30.798  1.00  0.00     0.059 A 
ATOM     81  F   UNL A   1      34.934  32.442  32.487  1.00  0.00    -0.206 F 
ATOM     82  C   UNL A   1      34.386  34.658  29.685  1.00  0.00     0.060 A 
BRANCH  82  83
ATOM     83  S   UNL A   1      33.037  35.546  28.878  1.00  0.00     0.124 S 
ATOM     84  O   UNL A   1      32.494  34.517  27.999  1.00  0.00    -0.237 OA
ATOM     85  O   UNL A   1      32.197  35.927  30.011  1.00  0.00    -0.237 OA
ATOM     86  O   UNL A   1      33.716  36.653  28.213  1.00  0.00    -0.744 OA
ENDBRANCH  82  83
ENDBRANCH  50  75
BRANCH  62  87
ATOM     87  C   UNL A   1      39.832  34.361  36.941  1.00  0.00     0.058 A 
ATOM     88  C   UNL A   1      39.042  34.134  38.079  1.00  0.00     0.135 A 
ATOM     89  C   UNL A   1      40.521  35.582  36.852  1.00  0.00     0.135 A 
ATOM     90  F   UNL A   1      38.356  32.987  38.206  1.00  0.00    -0.206 F 
ATOM     91  C   UNL A   1      38.923  35.089  39.082  1.00  0.00     0.059 A 
ATOM     92  C   UNL A   1      40.438  36.540  37.857  1.00  0.00     0.059 A 
ATOM     93  F   UNL A   1      41.296  35.844  35.788  1.00  0.00    -0.206 F 
ATOM     94  C   UNL A   1      39.627  36.289  38.963  1.00  0.00     0.060 A 
BRANCH  94  95
ATOM     95  S   UNL A   1      39.491  37.506  40.289  1.00  0.00     0.124 S 
ATOM     96  O   UNL A   1      38.759  36.755  41.303  1.00  0.00    -0.237 OA
ATOM     97  O   UNL A   1      40.888  37.792  40.597  1.00  0.00    -0.237 OA
ATOM     98  O   UNL A   1      38.756  38.604  39.667  1.00  0.00    -0.744 OA
ENDBRANCH  94  95
ENDBRANCH  62  87
ENDBRANCH  36  37
ENDBRANCH  28  31
ENDBRANCH  26  27
ENDBRANCH  25  26
ENDBRANCH   1  25
TORSDOF 19
ENDMDL
MODEL 2
REMARK VINA RESULT:     -10.5      3.419      9.594
REMARK SMILES CC[NH2+][C@H](CC[N@@H+](C)C1CCC(C)(C)CC1)C(=O)NCCCNC(=O)c1ccc(-c2c3nc(c(-c4c(F)cc(S(=O)(=O)[O-])cc4F)c4ccc([nH]4)c(-c4c(F)cc(S(=O)(=O)[O-])cc4F)c4nc(c(-c5c(F)cc(S(=O)(=O)[O-])cc5F)c5ccc2[nH]5)C=C4)C=C3)cc1
REMARK SMILES IDX 20 1 19 2 17 3 18 4 4 6 3 7 2 10 1 11 5 12 6 13 7 14 8 15
REMARK SMILES IDX 9 17 10 18 16 19 11 20 15 21 12 22 13 23 14 24 21 25 22 26
REMARK SMILES IDX 23 27 24 28 25 30 26 31 27 32 91 33 28 34 90 35 29 36 30 37
REMARK SMILES IDX 31 38 84 39 32 40 89 41 83 42 85 43 33 44 88 45 82 46 81 47
REMARK SMILES IDX 34 49 68 50 47 51 67 52 48 53 51 54 66 55 86 56 49 57 50 58
REMARK SMILES IDX 65 60 87 61 52 62 35 63 36 64 45 65 37 66 38 67 44 68 46 69
REMARK SMILES IDX 39 70 40 71 41 72 42 73 43 74 69 75 70 76 79 77 71 78 72 79
REMARK SMILES IDX 78 80 80 81 73 82 74 83 75 84 76 85 77 86 53 87 54 88 63 89
REMARK SMILES IDX 55 90 56 91 62 92 64 93 57 94 58 95 59 96 60 97 61 98
REMARK H PARENT 19 5 3 8 3 9 7 16 23 29 85 48 51 59
REMARK Flexibility Score: inf
ROOT
ATOM      1  C   UNL A   1      33.334  26.588  24.815  1.00  0.00     0.118 C 
ENDROOT
BRANCH   1   2
ATOM      2  N   UNL A   1      33.770  26.068  23.528  1.00  0.00    -0.351 N 
ATOM      3  C   UNL A   1      33.051  25.811  22.394  1.00  0.00     0.278 C 
ATOM      4  O   UNL A   1      33.665  25.397  21.406  1.00  0.00    -0.268 OA
ATOM      5  H   UNL A   1      34.732  25.872  23.463  1.00  0.00     0.163 HD
BRANCH   3   6
ATOM      6  C   UNL A   1      31.518  26.079  22.332  1.00  0.00     0.278 C 
BRANCH   6   7
ATOM      7  N   UNL A   1      31.358  27.558  22.248  1.00  0.00    -0.336 N 
ATOM      8  H   UNL A   1      32.150  27.980  22.732  1.00  0.00     0.346 HD
ATOM      9  H   UNL A   1      31.306  27.763  21.250  1.00  0.00     0.346 HD
BRANCH   7  10
ATOM     10  C   UNL A   1      30.144  28.121  22.814  1.00  0.00     0.257 C 
ATOM     11  C   UNL A   1      30.470  29.375  23.612  1.00  0.00     0.071 C 
ENDBRANCH   7  10
ENDBRANCH   6   7
BRANCH   6  12
ATOM     12  C   UNL A   1      30.858  25.354  23.525  1.00  0.00     0.137 C 
BRANCH  12  13
ATOM     13  C   UNL A   1      31.016  23.842  23.758  1.00  0.00     0.269 C 
BRANCH  13  14
ATOM     14  N   UNL A   1      31.666  23.379  25.001  1.00  0.00    -0.335 N 
ATOM     15  C   UNL A   1      30.724  23.472  26.117  1.00  0.00     0.332 C 
ATOM     16  H   UNL A   1      32.427  24.034  25.174  1.00  0.00     0.348 HD
BRANCH  14  17
ATOM     17  C   UNL A   1      32.497  22.152  24.942  1.00  0.00     0.183 C 
ATOM     18  C   UNL A   1      33.455  21.964  23.733  1.00  0.00     0.065 C 
ATOM     19  C   UNL A   1      33.327  21.833  26.187  1.00  0.00     0.065 C 
ATOM     20  C   UNL A   1      34.800  22.713  23.841  1.00  0.00     0.012 C 
ATOM     21  C   UNL A   1      34.541  22.727  26.355  1.00  0.00     0.012 C 
ATOM     22  C   UNL A   1      35.531  22.552  25.197  1.00  0.00    -0.035 C 
ATOM     23  C   UNL A   1      36.622  23.629  25.341  1.00  0.00     0.011 C 
ATOM     24  C   UNL A   1      36.208  21.170  25.290  1.00  0.00     0.011 C 
ENDBRANCH  14  17
ENDBRANCH  13  14
ENDBRANCH  12  13
ENDBRANCH   6  12
ENDBRANCH   3   6
ENDBRANCH   1   2
BRANCH   1  25
ATOM     25  C   UNL A   1      33.713  28.053  25.005  1.00  0.00     0.042 C 
BRANCH  25  26
ATOM     26  C   UNL A   1      33.942  28.439  26.459  1.00  0.00     0.118 C 
BRANCH  26  27
ATOM     27  N   UNL A   1      33.861  29.878  26.663  1.00  0.00    -0.352 N 
ATOM     28  C   UNL A   1      34.612  30.697  27.469  1.00  0.00     0.251 C 
ATOM     29  H   UNL A   1      33.161  30.334  26.142  1.00  0.00     0.163 HD
ATOM     30  O   UNL A   1      34.230  31.842  27.692  1.00  0.00    -0.269 OA
BRANCH  28  31
ATOM     31  C   UNL A   1      35.865  30.200  28.076  1.00  0.00     0.039 A 
ATOM     32  C   UNL A   1      37.051  30.285  27.341  1.00  0.00     0.014 A 
ATOM     33  C   UNL A   1      35.873  29.634  29.353  1.00  0.00     0.014 A 
ATOM     34  C   UNL A   1      38.253  29.869  27.917  1.00  0.00     0.010 A 
ATOM     35  C   UNL A   1      37.080  29.289  29.954  1.00  0.00     0.010 A 
ATOM     36  C   UNL A   1      38.284  29.408  29.244  1.00  0.00    -0.014 A 
BRANCH  36  37
ATOM     37  C   UNL A   1      39.566  29.077  29.915  1.00  0.00     0.031 A 
ATOM     38  C   UNL A   1      40.069  29.921  31.054  1.00  0.00     0.074 A 
ATOM     39  C   UNL A   1      40.312  28.060  29.439  1.00  0.00     0.049 A 
ATOM     40  N   UNL A   1      41.200  29.835  31.705  1.00  0.00    -0.248 NA
ATOM     41  C   UNL A   1      39.199  31.019  31.508  1.00  0.00     0.031 C 
ATOM     42  C   UNL A   1      39.955  27.207  28.301  1.00  0.00     0.029 A 
ATOM     43  N   UNL A   1      41.535  27.580  29.837  1.00  0.00    -0.354 N 
ATOM     44  C   UNL A   1      41.187  30.872  32.630  1.00  0.00     0.074 A 
ATOM     45  C   UNL A   1      39.951  31.598  32.434  1.00  0.00     0.031 C 
ATOM     46  C   UNL A   1      40.930  26.306  28.101  1.00  0.00     0.029 A 
ATOM     47  C   UNL A   1      41.997  26.537  29.068  1.00  0.00     0.049 A 
ATOM     48  H   UNL A   1      42.035  27.948  30.601  1.00  0.00     0.167 HD
ATOM     49  C   UNL A   1      42.114  31.177  33.567  1.00  0.00     0.037 A 
ATOM     50  C   UNL A   1      43.158  25.857  29.122  1.00  0.00     0.037 A 
ATOM     51  C   UNL A   1      43.325  30.426  33.780  1.00  0.00     0.049 A 
ATOM     52  C   UNL A   1      44.168  26.219  30.177  1.00  0.00     0.074 A 
ATOM     53  C   UNL A   1      44.282  30.600  34.765  1.00  0.00     0.029 A 
ATOM     54  N   UNL A   1      43.748  29.363  32.996  1.00  0.00    -0.354 N 
ATOM     55  N   UNL A   1      44.098  27.147  31.100  1.00  0.00    -0.248 NA
ATOM     56  C   UNL A   1      45.415  25.441  30.199  1.00  0.00     0.031 C 
ATOM     57  C   UNL A   1      45.307  29.674  34.548  1.00  0.00     0.029 A 
ATOM     58  C   UNL A   1      44.967  28.893  33.455  1.00  0.00     0.049 A 
ATOM     59  H   UNL A   1      43.254  28.998  32.226  1.00  0.00     0.167 HD
ATOM     60  C   UNL A   1      45.282  27.054  31.823  1.00  0.00     0.074 A 
ATOM     61  C   UNL A   1      46.041  25.965  31.243  1.00  0.00     0.031 C 
ATOM     62  C   UNL A   1      45.707  27.806  32.868  1.00  0.00     0.037 A 
BRANCH  49  63
ATOM     63  C   UNL A   1      41.864  32.364  34.454  1.00  0.00     0.058 A 
ATOM     64  C   UNL A   1      42.336  33.643  34.120  1.00  0.00     0.135 A 
ATOM     65  C   UNL A   1      41.066  32.239  35.603  1.00  0.00     0.135 A 
ATOM     66  F   UNL A   1      43.117  33.816  33.042  1.00  0.00    -0.206 F 
ATOM     67  C   UNL A   1      42.029  34.756  34.896  1.00  0.00     0.059 A 
ATOM     68  C   UNL A   1      40.728  33.343  36.381  1.00  0.00     0.059 A 
ATOM     69  F   UNL A   1      40.593  31.037  35.969  1.00  0.00    -0.206 F 
ATOM     70  C   UNL A   1      41.217  34.597  36.021  1.00  0.00     0.060 A 
BRANCH  70  71
ATOM     71  S   UNL A   1      40.785  36.061  36.984  1.00  0.00     0.124 S 
ATOM     72  O   UNL A   1      39.798  36.699  36.119  1.00  0.00    -0.237 OA
ATOM     73  O   UNL A   1      40.265  35.481  38.218  1.00  0.00    -0.237 OA
ATOM     74  O   UNL A   1      42.054  36.770  37.116  1.00  0.00    -0.744 OA
ENDBRANCH  70  71
ENDBRANCH  49  63
BRANCH  50  75
ATOM     75  C   UNL A   1      43.439  24.771  28.146  1.00  0.00     0.058 A 
ATOM     76  C   UNL A   1      44.057  25.046  26.917  1.00  0.00     0.135 A 
ATOM     77  C   UNL A   1      43.078  23.442  28.413  1.00  0.00     0.135 A 
ATOM     78  F   UNL A   1      44.417  26.302  26.613  1.00  0.00    -0.206 F 
ATOM     79  C   UNL A   1      44.277  24.047  25.973  1.00  0.00     0.059 A 
ATOM     80  C   UNL A   1      43.313  22.422  27.497  1.00  0.00     0.059 A 
ATOM     81  F   UNL A   1      42.502  23.123  29.583  1.00  0.00    -0.206 F 
ATOM     82  C   UNL A   1      43.896  22.738  26.271  1.00  0.00     0.060 A 
BRANCH  82  83
ATOM     83  S   UNL A   1      44.199  21.444  25.049  1.00  0.00     0.124 S 
ATOM     84  O   UNL A   1      44.094  22.190  23.800  1.00  0.00    -0.237 OA
ATOM     85  O   UNL A   1      45.538  20.986  25.409  1.00  0.00    -0.237 OA
ATOM     86  O   UNL A   1      43.129  20.485  25.306  1.00  0.00    -0.744 OA
ENDBRANCH  82  83
ENDBRANCH  50  75
BRANCH  62  87
ATOM     87  C   UNL A   1      47.044  27.467  33.462  1.00  0.00     0.058 A 
ATOM     88  C   UNL A   1      47.169  26.519  34.491  1.00  0.00     0.135 A 
ATOM     89  C   UNL A   1      48.218  28.059  32.968  1.00  0.00     0.135 A 
ATOM     90  F   UNL A   1      46.075  25.932  35.003  1.00  0.00    -0.206 F 
ATOM     91  C   UNL A   1      48.409  26.186  35.024  1.00  0.00     0.059 A 
ATOM     92  C   UNL A   1      49.470  27.721  33.468  1.00  0.00     0.059 A 
ATOM     93  F   UNL A   1      48.153  28.964  31.979  1.00  0.00    -0.206 F 
ATOM     94  C   UNL A   1      49.555  26.791  34.504  1.00  0.00     0.060 A 
BRANCH  94  95
ATOM     95  S   UNL A   1      51.161  26.325  35.182  1.00  0.00     0.124 S 
ATOM     96  O   UNL A   1      51.973  26.223  33.974  1.00  0.00    -0.237 OA
ATOM     97  O   UNL A   1      51.470  27.448  36.060  1.00  0.00    -0.237 OA
ATOM     98  O   UNL A   1      50.888  25.063  35.864  1.00  0.00    -0.744 OA
ENDBRANCH  94  95
ENDBRANCH  62  87
ENDBRANCH  36  37
ENDBRANCH  28  31
ENDBRANCH  26  27
ENDBRANCH  25  26
ENDBRANCH   1  25
TORSDOF 19
ENDMDL
MODEL 3
REMARK VINA RESULT:     -10.4      1.077      1.975
REMARK SMILES CC[NH2+][C@H](CC[N@@H+](C)C1CCC(C)(C)CC1)C(=O)NCCCNC(=O)c1ccc(-c2c3nc(c(-c4c(F)cc(S(=O)(=O)[O-])cc4F)c4ccc([nH]4)c(-c4c(F)cc(S(=O)(=O)[O-])cc4F)c4nc(c(-c5c(F)cc(S(=O)(=O)[O-])cc5F)c5ccc2[nH]5)C=C4)C=C3)cc1
REMARK SMILES IDX 20 1 19 2 17 3 18 4 4 6 3 7 2 10 1 11 5 12 6 13 7 14 8 15
REMARK SMILES IDX 9 17 10 18 16 19 11 20 15 21 12 22 13 23 14 24 21 25 22 26
REMARK SMILES IDX 23 27 24 28 25 30 26 31 27 32 91 33 28 34 90 35 29 36 30 37
REMARK SMILES IDX 31 38 84 39 32 40 89 41 83 42 85 43 33 44 88 45 82 46 81 47
REMARK SMILES IDX 34 49 68 50 47 51 67 52 48 53 51 54 66 55 86 56 49 57 50 58
REMARK SMILES IDX 65 60 87 61 52 62 35 63 36 64 45 65 37 66 38 67 44 68 46 69
REMARK SMILES IDX 39 70 40 71 41 72 42 73 43 74 69 75 70 76 79 77 71 78 72 79
REMARK SMILES IDX 78 80 80 81 73 82 74 83 75 84 76 85 77 86 53 87 54 88 63 89
REMARK SMILES IDX 55 90 56 91 62 92 64 93 57 94 58 95 59 96 60 97 61 98
REMARK H PARENT 19 5 3 8 3 9 7 16 23 29 85 48 51 59
REMARK Flexibility Score: inf
ROOT
ATOM      1  C   UNL A   1      37.698  23.188  25.832  1.00  0.00     0.118 C 
ENDROOT
BRANCH   1   2
ATOM      2  N   UNL A   1      37.513  23.049  24.396  1.00  0.00    -0.351 N 
ATOM      3  C   UNL A   1      36.367  23.063  23.651  1.00  0.00     0.278 C 
ATOM      4  O   UNL A   1      36.476  22.956  22.426  1.00  0.00    -0.268 OA
ATOM      5  H   UNL A   1      38.343  22.927  23.879  1.00  0.00     0.163 HD
BRANCH   3   6
ATOM      6  C   UNL A   1      34.973  23.257  24.319  1.00  0.00     0.278 C 
BRANCH   6   7
ATOM      7  N   UNL A   1      34.235  21.979  24.118  1.00  0.00    -0.336 N 
ATOM      8  H   UNL A   1      33.730  22.051  23.235  1.00  0.00     0.346 HD
ATOM      9  H   UNL A   1      34.951  21.253  24.144  1.00  0.00     0.346 HD
BRANCH   7  10
ATOM     10  C   UNL A   1      33.277  21.604  25.144  1.00  0.00     0.257 C 
ATOM     11  C   UNL A   1      33.411  20.125  25.471  1.00  0.00     0.071 C 
ENDBRANCH   7  10
ENDBRANCH   6   7
BRANCH   6  12
ATOM     12  C   UNL A   1      34.344  24.545  23.742  1.00  0.00     0.137 C 
BRANCH  12  13
ATOM     13  C   UNL A   1      33.147  24.514  22.778  1.00  0.00     0.269 C 
BRANCH  13  14
ATOM     14  N   UNL A   1      31.908  25.221  23.161  1.00  0.00    -0.335 N 
ATOM     15  C   UNL A   1      30.837  24.253  23.398  1.00  0.00     0.332 C 
ATOM     16  H   UNL A   1      31.651  25.786  22.352  1.00  0.00     0.348 HD
BRANCH  14  17
ATOM     17  C   UNL A   1      32.011  26.338  24.132  1.00  0.00     0.183 C 
ATOM     18  C   UNL A   1      32.856  27.583  23.741  1.00  0.00     0.065 C 
ATOM     19  C   UNL A   1      30.692  26.885  24.682  1.00  0.00     0.065 C 
ATOM     20  C   UNL A   1      32.137  28.607  22.838  1.00  0.00     0.012 C 
ATOM     21  C   UNL A   1      29.922  27.733  23.687  1.00  0.00     0.012 C 
ATOM     22  C   UNL A   1      30.707  28.990  23.295  1.00  0.00    -0.035 C 
ATOM     23  C   UNL A   1      29.952  29.680  22.144  1.00  0.00     0.011 C 
ATOM     24  C   UNL A   1      30.760  29.967  24.487  1.00  0.00     0.011 C 
ENDBRANCH  14  17
ENDBRANCH  13  14
ENDBRANCH  12  13
ENDBRANCH   6  12
ENDBRANCH   3   6
ENDBRANCH   1   2
BRANCH   1  25
ATOM     25  C   UNL A   1      38.891  22.386  26.341  1.00  0.00     0.042 C 
BRANCH  25  26
ATOM     26  C   UNL A   1      39.892  23.217  27.131  1.00  0.00     0.118 C 
BRANCH  26  27
ATOM     27  N   UNL A   1      41.034  23.614  26.321  1.00  0.00    -0.352 N 
ATOM     28  C   UNL A   1      41.690  24.818  26.254  1.00  0.00     0.251 C 
ATOM     29  H   UNL A   1      41.392  22.911  25.731  1.00  0.00     0.163 HD
ATOM     30  O   UNL A   1      42.470  25.031  25.331  1.00  0.00    -0.269 OA
BRANCH  28  31
ATOM     31  C   UNL A   1      41.448  25.857  27.277  1.00  0.00     0.039 A 
ATOM     32  C   UNL A   1      40.437  25.654  28.220  1.00  0.00     0.014 A 
ATOM     33  C   UNL A   1      42.197  27.037  27.298  1.00  0.00     0.014 A 
ATOM     34  C   UNL A   1      40.228  26.600  29.226  1.00  0.00     0.010 A 
ATOM     35  C   UNL A   1      42.039  27.942  28.344  1.00  0.00     0.010 A 
ATOM     36  C   UNL A   1      41.056  27.730  29.321  1.00  0.00    -0.014 A 
BRANCH  36  37
ATOM     37  C   UNL A   1      40.931  28.683  30.453  1.00  0.00     0.031 A 
ATOM     38  C   UNL A   1      41.791  28.528  31.678  1.00  0.00     0.074 A 
ATOM     39  C   UNL A   1      39.983  29.641  30.402  1.00  0.00     0.049 A 
ATOM     40  N   UNL A   1      41.765  29.211  32.793  1.00  0.00    -0.248 NA
ATOM     41  C   UNL A   1      42.795  27.452  31.658  1.00  0.00     0.031 C 
ATOM     42  C   UNL A   1      39.051  29.852  29.291  1.00  0.00     0.029 A 
ATOM     43  N   UNL A   1      39.631  30.605  31.313  1.00  0.00    -0.354 N 
ATOM     44  C   UNL A   1      42.732  28.640  33.611  1.00  0.00     0.074 A 
ATOM     45  C   UNL A   1      43.304  27.531  32.880  1.00  0.00     0.031 C 
ATOM     46  C   UNL A   1      38.243  30.884  29.581  1.00  0.00     0.029 A 
ATOM     47  C   UNL A   1      38.571  31.385  30.912  1.00  0.00     0.049 A 
ATOM     48  H   UNL A   1      40.093  30.727  32.175  1.00  0.00     0.167 HD
ATOM     49  C   UNL A   1      43.117  29.020  34.852  1.00  0.00     0.037 A 
ATOM     50  C   UNL A   1      37.923  32.377  31.550  1.00  0.00     0.037 A 
ATOM     51  C   UNL A   1      42.567  30.149  35.557  1.00  0.00     0.049 A 
ATOM     52  C   UNL A   1      38.376  32.778  32.928  1.00  0.00     0.074 A 
ATOM     53  C   UNL A   1      42.957  30.669  36.780  1.00  0.00     0.029 A 
ATOM     54  N   UNL A   1      41.511  30.928  35.110  1.00  0.00    -0.354 N 
ATOM     55  N   UNL A   1      39.353  32.282  33.650  1.00  0.00    -0.248 NA
ATOM     56  C   UNL A   1      37.642  33.873  33.579  1.00  0.00     0.031 C 
ATOM     57  C   UNL A   1      42.104  31.733  37.093  1.00  0.00     0.029 A 
ATOM     58  C   UNL A   1      41.214  31.904  36.046  1.00  0.00     0.049 A 
ATOM     59  H   UNL A   1      41.042  30.804  34.253  1.00  0.00     0.167 HD
ATOM     60  C   UNL A   1      39.360  33.015  34.832  1.00  0.00     0.074 A 
ATOM     61  C   UNL A   1      38.306  34.002  34.719  1.00  0.00     0.031 C 
ATOM     62  C   UNL A   1      40.162  32.880  35.916  1.00  0.00     0.037 A 
BRANCH  49  63
ATOM     63  C   UNL A   1      44.195  28.226  35.535  1.00  0.00     0.058 A 
ATOM     64  C   UNL A   1      45.552  28.553  35.388  1.00  0.00     0.135 A 
ATOM     65  C   UNL A   1      43.862  27.187  36.419  1.00  0.00     0.135 A 
ATOM     66  F   UNL A   1      45.926  29.526  34.544  1.00  0.00    -0.206 F 
ATOM     67  C   UNL A   1      46.542  27.873  36.090  1.00  0.00     0.059 A 
ATOM     68  C   UNL A   1      44.835  26.509  37.149  1.00  0.00     0.059 A 
ATOM     69  F   UNL A   1      42.579  26.833  36.592  1.00  0.00    -0.206 F 
ATOM     70  C   UNL A   1      46.173  26.858  36.976  1.00  0.00     0.060 A 
BRANCH  70  71
ATOM     71  S   UNL A   1      47.467  26.025  37.918  1.00  0.00     0.124 S 
ATOM     72  O   UNL A   1      47.409  26.740  39.189  1.00  0.00    -0.237 OA
ATOM     73  O   UNL A   1      46.994  24.645  37.947  1.00  0.00    -0.237 OA
ATOM     74  O   UNL A   1      48.669  26.254  37.123  1.00  0.00    -0.744 OA
ENDBRANCH  70  71
ENDBRANCH  49  63
BRANCH  50  75
ATOM     75  C   UNL A   1      36.771  33.060  30.905  1.00  0.00     0.058 A 
ATOM     76  C   UNL A   1      35.453  32.784  31.299  1.00  0.00     0.135 A 
ATOM     77  C   UNL A   1      36.962  33.986  29.868  1.00  0.00     0.135 A 
ATOM     78  F   UNL A   1      35.218  31.903  32.283  1.00  0.00    -0.206 F 
ATOM     79  C   UNL A   1      34.364  33.376  30.667  1.00  0.00     0.059 A 
ATOM     80  C   UNL A   1      35.890  34.612  29.239  1.00  0.00     0.059 A 
ATOM     81  F   UNL A   1      38.204  34.299  29.466  1.00  0.00    -0.206 F 
ATOM     82  C   UNL A   1      34.593  34.286  29.634  1.00  0.00     0.060 A 
BRANCH  82  83
ATOM     83  S   UNL A   1      33.177  35.063  28.828  1.00  0.00     0.124 S 
ATOM     84  O   UNL A   1      32.359  35.440  29.975  1.00  0.00    -0.237 OA
ATOM     85  O   UNL A   1      33.801  36.164  28.099  1.00  0.00    -0.237 OA
ATOM     86  O   UNL A   1      32.640  33.994  27.992  1.00  0.00    -0.744 OA
ENDBRANCH  82  83
ENDBRANCH  50  75
BRANCH  62  87
ATOM     87  C   UNL A   1      39.943  33.831  37.058  1.00  0.00     0.058 A 
ATOM     88  C   UNL A   1      40.538  35.102  37.076  1.00  0.00     0.135 A 
ATOM     89  C   UNL A   1      39.094  33.487  38.122  1.00  0.00     0.135 A 
ATOM     90  F   UNL A   1      41.365  35.474  36.086  1.00  0.00    -0.206 F 
ATOM     91  C   UNL A   1      40.315  35.992  38.121  1.00  0.00     0.059 A 
ATOM     92  C   UNL A   1      38.836  34.371  39.163  1.00  0.00     0.059 A 
ATOM     93  F   UNL A   1      38.495  32.286  38.147  1.00  0.00    -0.206 F 
ATOM     94  C   UNL A   1      39.460  35.618  39.160  1.00  0.00     0.060 A 
BRANCH  94  95
ATOM     95  S   UNL A   1      39.153  36.796  40.493  1.00  0.00     0.124 S 
ATOM     96  O   UNL A   1      40.501  37.014  41.009  1.00  0.00    -0.237 OA
ATOM     97  O   UNL A   1      38.555  37.922  39.784  1.00  0.00    -0.237 OA
ATOM     98  O   UNL A   1      38.249  36.073  41.382  1.00  0.00    -0.744 OA
ENDBRANCH  94  95
ENDBRANCH  62  87
ENDBRANCH  36  37
ENDBRANCH  28  31
ENDBRANCH  26  27
ENDBRANCH  25  26
ENDBRANCH   1  25
TORSDOF 19
ENDMDL
