MODEL 1
REMARK VINA RESULT:     -12.4      0.000      0.000
REMARK SMILES Cc1ccc2[nH]c3c(=O)n(CC(=O)NCCCNC(=O)c4ccc(-c5c6nc(c(-c7c(F)cc(S(=O)(=O)[O-])cc7F)c7ccc([nH]7)c(-c7c(F)cc(S(=O)(=O)[O-])cc7F)c7nc(c(-c8c(F)cc(S(=O)(=O)[O-])cc8F)c8ccc5[nH]8)C=C7)C=C6)cc4)cnc3c2c1
REMARK SMILES IDX 17 1 16 2 15 3 14 4 12 5 13 6 11 8 10 9 1 10 2 11 3 12 91 13
REMARK SMILES IDX 4 14 90 15 5 16 89 17 6 18 7 19 88 20 8 22 87 23 9 24 18 25
REMARK SMILES IDX 19 26 20 28 21 29 22 30 86 31 23 32 85 33 24 34 25 35 26 36
REMARK SMILES IDX 79 37 27 38 84 39 78 40 80 41 28 42 83 43 77 44 76 45 29 47
REMARK SMILES IDX 63 48 42 49 62 50 43 51 46 52 61 53 81 54 44 55 45 56 60 58
REMARK SMILES IDX 82 59 47 60 30 61 31 62 40 63 32 64 33 65 39 66 41 67 34 68
REMARK SMILES IDX 35 69 36 70 37 71 38 72 64 73 65 74 74 75 66 76 67 77 73 78
REMARK SMILES IDX 75 79 68 80 69 81 70 82 71 83 72 84 48 85 49 86 58 87 50 88
REMARK SMILES IDX 51 89 57 90 59 91 52 92 53 93 54 94 55 95 56 96
REMARK H PARENT 14 7 6 21 18 27 80 46 46 57
REMARK Flexibility Score: inf
ROOT
ATOM      1  C   UNL A   1      35.248  34.024  28.349  1.00  0.00     0.118 C 
ENDROOT
BRANCH   1   2
ATOM      2  C   UNL A   1      34.384  35.259  28.085  1.00  0.00     0.042 C 
BRANCH   2   3
ATOM      3  C   UNL A   1      33.014  35.224  28.760  1.00  0.00     0.117 C 
BRANCH   3   4
ATOM      4  N   UNL A   1      32.780  36.357  29.638  1.00  0.00    -0.354 N 
ATOM      5  C   UNL A   1      32.731  36.434  30.997  1.00  0.00     0.240 C 
ATOM      6  O   UNL A   1      32.813  37.559  31.499  1.00  0.00    -0.273 OA
ATOM      7  H   UNL A   1      32.631  37.212  29.174  1.00  0.00     0.163 HD
BRANCH   5   8
ATOM      8  C   UNL A   1      32.733  35.182  31.878  1.00  0.00     0.226 C 
BRANCH   8   9
ATOM      9  N   UNL A   1      34.058  34.805  32.337  1.00  0.00    -0.288 N 
ATOM     10  C   UNL A   1      41.156  33.743  35.358  1.00  0.00     0.044 C 
ATOM     11  C   UNL A   1      40.032  33.327  34.452  1.00  0.00    -0.050 A 
ATOM     12  C   UNL A   1      40.124  32.150  33.700  1.00  0.00     0.005 A 
ATOM     13  C   UNL A   1      38.857  34.096  34.404  1.00  0.00     0.016 A 
ATOM     14  C   UNL A   1      39.080  31.725  32.870  1.00  0.00     0.027 A 
ATOM     15  C   UNL A   1      37.792  33.689  33.578  1.00  0.00     0.026 A 
ATOM     16  C   UNL A   1      37.926  32.514  32.827  1.00  0.00     0.048 A 
ATOM     17  C   UNL A   1      36.511  34.196  33.281  1.00  0.00     0.103 A 
ATOM     18  N   UNL A   1      36.756  32.345  32.113  1.00  0.00    -0.349 N 
ATOM     19  C   UNL A   1      35.897  33.371  32.385  1.00  0.00     0.132 A 
ATOM     20  N   UNL A   1      35.900  35.340  33.790  1.00  0.00    -0.236 NA
ATOM     21  H   UNL A   1      36.569  31.596  31.500  1.00  0.00     0.167 HD
ATOM     22  C   UNL A   1      34.594  33.610  31.870  1.00  0.00     0.278 A 
ATOM     23  C   UNL A   1      34.723  35.561  33.293  1.00  0.00     0.203 A 
ATOM     24  O   UNL A   1      34.022  32.840  31.101  1.00  0.00    -0.267 OA
ENDBRANCH   8   9
ENDBRANCH   5   8
ENDBRANCH   3   4
ENDBRANCH   2   3
ENDBRANCH   1   2
BRANCH   1  25
ATOM     25  N   UNL A   1      34.667  32.771  27.906  1.00  0.00    -0.352 N 
ATOM     26  C   UNL A   1      35.029  31.455  27.962  1.00  0.00     0.251 C 
ATOM     27  H   UNL A   1      33.803  32.901  27.454  1.00  0.00     0.163 HD
ATOM     28  O   UNL A   1      34.175  30.655  27.568  1.00  0.00    -0.269 OA
BRANCH  26  29
ATOM     29  C   UNL A   1      36.355  30.936  28.391  1.00  0.00     0.039 A 
ATOM     30  C   UNL A   1      37.378  31.681  28.978  1.00  0.00     0.014 A 
ATOM     31  C   UNL A   1      36.589  29.573  28.119  1.00  0.00     0.014 A 
ATOM     32  C   UNL A   1      38.633  31.110  29.192  1.00  0.00     0.010 A 
ATOM     33  C   UNL A   1      37.832  28.996  28.345  1.00  0.00     0.010 A 
ATOM     34  C   UNL A   1      38.870  29.782  28.832  1.00  0.00    -0.014 A 
BRANCH  34  35
ATOM     35  C   UNL A   1      40.205  29.225  29.050  1.00  0.00     0.031 A 
ATOM     36  C   UNL A   1      40.610  29.075  30.479  1.00  0.00     0.074 A 
ATOM     37  C   UNL A   1      40.960  28.737  28.043  1.00  0.00     0.049 A 
ATOM     38  N   UNL A   1      41.623  29.596  31.093  1.00  0.00    -0.248 NA
ATOM     39  C   UNL A   1      39.709  28.313  31.360  1.00  0.00     0.031 C 
ATOM     40  C   UNL A   1      40.573  28.549  26.641  1.00  0.00     0.029 A 
ATOM     41  N   UNL A   1      42.212  28.202  28.084  1.00  0.00    -0.354 N 
ATOM     42  C   UNL A   1      41.599  29.075  32.388  1.00  0.00     0.074 A 
ATOM     43  C   UNL A   1      40.329  28.413  32.536  1.00  0.00     0.031 C 
ATOM     44  C   UNL A   1      41.473  27.745  26.031  1.00  0.00     0.029 A 
ATOM     45  C   UNL A   1      42.564  27.474  26.952  1.00  0.00     0.049 A 
ATOM     46  H   UNL A   1      42.817  28.320  28.852  1.00  0.00     0.167 HD
ATOM     47  C   UNL A   1      42.706  29.047  33.184  1.00  0.00     0.037 A 
ATOM     48  C   UNL A   1      43.640  26.660  26.809  1.00  0.00     0.037 A 
ATOM     49  C   UNL A   1      43.713  29.964  32.723  1.00  0.00     0.049 A 
ATOM     50  C   UNL A   1      44.621  27.041  27.856  1.00  0.00     0.074 A 
ATOM     51  C   UNL A   1      43.784  31.333  32.561  1.00  0.00     0.029 A 
ATOM     52  N   UNL A   1      44.776  29.451  32.023  1.00  0.00    -0.354 N 
ATOM     53  N   UNL A   1      45.257  28.178  27.887  1.00  0.00    -0.248 NA
ATOM     54  C   UNL A   1      44.587  26.311  29.114  1.00  0.00     0.031 C 
ATOM     55  C   UNL A   1      44.581  31.528  31.397  1.00  0.00     0.029 A 
ATOM     56  C   UNL A   1      44.986  30.271  30.944  1.00  0.00     0.049 A 
ATOM     57  H   UNL A   1      45.292  28.644  32.252  1.00  0.00     0.167 HD
ATOM     58  C   UNL A   1      45.338  28.504  29.233  1.00  0.00     0.074 A 
ATOM     59  C   UNL A   1      44.998  27.274  29.942  1.00  0.00     0.031 C 
ATOM     60  C   UNL A   1      45.406  29.804  29.642  1.00  0.00     0.037 A 
BRANCH  47  61
ATOM     61  C   UNL A   1      43.010  27.952  34.181  1.00  0.00     0.058 A 
ATOM     62  C   UNL A   1      43.159  28.269  35.548  1.00  0.00     0.135 A 
ATOM     63  C   UNL A   1      43.439  26.660  33.808  1.00  0.00     0.135 A 
ATOM     64  F   UNL A   1      42.794  29.475  36.014  1.00  0.00    -0.206 F 
ATOM     65  C   UNL A   1      43.754  27.394  36.459  1.00  0.00     0.059 A 
ATOM     66  C   UNL A   1      43.986  25.753  34.708  1.00  0.00     0.059 A 
ATOM     67  F   UNL A   1      43.443  26.252  32.533  1.00  0.00    -0.206 F 
ATOM     68  C   UNL A   1      44.180  26.143  36.023  1.00  0.00     0.060 A 
BRANCH  68  69
ATOM     69  S   UNL A   1      45.060  25.059  37.163  1.00  0.00     0.124 S 
ATOM     70  O   UNL A   1      46.404  25.623  37.121  1.00  0.00    -0.237 OA
ATOM     71  O   UNL A   1      44.319  25.261  38.404  1.00  0.00    -0.237 OA
ATOM     72  O   UNL A   1      44.908  23.740  36.556  1.00  0.00    -0.744 OA
ENDBRANCH  68  69
ENDBRANCH  47  61
BRANCH  48  73
ATOM     73  C   UNL A   1      43.736  25.370  26.069  1.00  0.00     0.058 A 
ATOM     74  C   UNL A   1      44.801  25.119  25.184  1.00  0.00     0.135 A 
ATOM     75  C   UNL A   1      42.960  24.253  26.436  1.00  0.00     0.135 A 
ATOM     76  F   UNL A   1      45.604  26.120  24.792  1.00  0.00    -0.206 F 
ATOM     77  C   UNL A   1      45.117  23.829  24.740  1.00  0.00     0.059 A 
ATOM     78  C   UNL A   1      43.248  22.961  25.998  1.00  0.00     0.059 A 
ATOM     79  F   UNL A   1      41.952  24.367  27.312  1.00  0.00    -0.206 F 
ATOM     80  C   UNL A   1      44.348  22.750  25.175  1.00  0.00     0.060 A 
BRANCH  80  81
ATOM     81  S   UNL A   1      44.865  21.067  24.764  1.00  0.00     0.124 S 
ATOM     82  O   UNL A   1      43.937  20.264  25.553  1.00  0.00    -0.237 OA
ATOM     83  O   UNL A   1      44.670  21.031  23.318  1.00  0.00    -0.237 OA
ATOM     84  O   UNL A   1      46.257  21.022  25.204  1.00  0.00    -0.744 OA
ENDBRANCH  80  81
ENDBRANCH  48  73
BRANCH  60  85
ATOM     85  C   UNL A   1      45.701  30.861  28.609  1.00  0.00     0.058 A 
ATOM     86  C   UNL A   1      44.728  31.461  27.789  1.00  0.00     0.135 A 
ATOM     87  C   UNL A   1      46.995  31.400  28.564  1.00  0.00     0.135 A 
ATOM     88  F   UNL A   1      43.447  31.073  27.843  1.00  0.00    -0.206 F 
ATOM     89  C   UNL A   1      45.038  32.525  26.940  1.00  0.00     0.059 A 
ATOM     90  C   UNL A   1      47.319  32.481  27.750  1.00  0.00     0.059 A 
ATOM     91  F   UNL A   1      47.955  30.911  29.369  1.00  0.00    -0.206 F 
ATOM     92  C   UNL A   1      46.335  33.034  26.932  1.00  0.00     0.060 A 
BRANCH  92  93
ATOM     93  S   UNL A   1      46.709  34.471  25.904  1.00  0.00     0.124 S 
ATOM     94  O   UNL A   1      45.693  34.378  24.862  1.00  0.00    -0.237 OA
ATOM     95  O   UNL A   1      46.554  35.580  26.843  1.00  0.00    -0.237 OA
ATOM     96  O   UNL A   1      48.080  34.229  25.462  1.00  0.00    -0.744 OA
ENDBRANCH  92  93
ENDBRANCH  60  85
ENDBRANCH  34  35
ENDBRANCH  26  29
ENDBRANCH   1  25
TORSDOF 14
ENDMDL
MODEL 2
REMARK VINA RESULT:     -12.4      4.472     11.048
REMARK SMILES Cc1ccc2[nH]c3c(=O)n(CC(=O)NCCCNC(=O)c4ccc(-c5c6nc(c(-c7c(F)cc(S(=O)(=O)[O-])cc7F)c7ccc([nH]7)c(-c7c(F)cc(S(=O)(=O)[O-])cc7F)c7nc(c(-c8c(F)cc(S(=O)(=O)[O-])cc8F)c8ccc5[nH]8)C=C7)C=C6)cc4)cnc3c2c1
REMARK SMILES IDX 17 1 16 2 15 3 14 4 12 5 13 6 11 8 10 9 1 10 2 11 3 12 91 13
REMARK SMILES IDX 4 14 90 15 5 16 89 17 6 18 7 19 88 20 8 22 87 23 9 24 18 25
REMARK SMILES IDX 19 26 20 28 21 29 22 30 86 31 23 32 85 33 24 34 25 35 26 36
REMARK SMILES IDX 79 37 27 38 84 39 78 40 80 41 28 42 83 43 77 44 76 45 29 47
REMARK SMILES IDX 63 48 42 49 62 50 43 51 46 52 61 53 81 54 44 55 45 56 60 58
REMARK SMILES IDX 82 59 47 60 30 61 31 62 40 63 32 64 33 65 39 66 41 67 34 68
REMARK SMILES IDX 35 69 36 70 37 71 38 72 64 73 65 74 74 75 66 76 67 77 73 78
REMARK SMILES IDX 75 79 68 80 69 81 70 82 71 83 72 84 48 85 49 86 58 87 50 88
REMARK SMILES IDX 51 89 57 90 59 91 52 92 53 93 54 94 55 95 56 96
REMARK H PARENT 14 7 6 21 18 27 80 46 46 57
REMARK Flexibility Score: inf
ROOT
ATOM      1  C   UNL A   1      37.331  22.313  25.180  1.00  0.00     0.118 C 
ENDROOT
BRANCH   1   2
ATOM      2  C   UNL A   1      36.218  21.504  25.848  1.00  0.00     0.042 C 
BRANCH   2   3
ATOM      3  C   UNL A   1      35.511  20.520  24.918  1.00  0.00     0.117 C 
BRANCH   3   4
ATOM      4  N   UNL A   1      34.156  20.209  25.338  1.00  0.00    -0.354 N 
ATOM      5  C   UNL A   1      32.956  20.639  24.860  1.00  0.00     0.240 C 
ATOM      6  O   UNL A   1      31.955  19.999  25.195  1.00  0.00    -0.273 OA
ATOM      7  H   UNL A   1      34.095  19.582  26.094  1.00  0.00     0.163 HD
BRANCH   5   8
ATOM      8  C   UNL A   1      32.853  21.767  23.831  1.00  0.00     0.226 C 
BRANCH   8   9
ATOM      9  N   UNL A   1      32.946  23.092  24.419  1.00  0.00    -0.288 N 
ATOM     10  C   UNL A   1      34.509  30.172  27.258  1.00  0.00     0.044 C 
ATOM     11  C   UNL A   1      33.583  29.006  27.057  1.00  0.00    -0.050 A 
ATOM     12  C   UNL A   1      32.273  29.046  27.548  1.00  0.00     0.005 A 
ATOM     13  C   UNL A   1      34.019  27.891  26.321  1.00  0.00     0.016 A 
ATOM     14  C   UNL A   1      31.381  27.985  27.350  1.00  0.00     0.027 A 
ATOM     15  C   UNL A   1      33.141  26.812  26.108  1.00  0.00     0.026 A 
ATOM     16  C   UNL A   1      31.842  26.880  26.628  1.00  0.00     0.048 A 
ATOM     17  C   UNL A   1      33.230  25.569  25.448  1.00  0.00     0.103 A 
ATOM     18  N   UNL A   1      31.196  25.708  26.282  1.00  0.00    -0.349 N 
ATOM     19  C   UNL A   1      32.043  24.909  25.569  1.00  0.00     0.132 A 
ATOM     20  N   UNL A   1      34.317  25.040  24.756  1.00  0.00    -0.236 NA
ATOM     21  H   UNL A   1      30.265  25.485  26.514  1.00  0.00     0.167 HD
ATOM     22  C   UNL A   1      31.809  23.617  25.024  1.00  0.00     0.278 A 
ATOM     23  C   UNL A   1      34.100  23.851  24.286  1.00  0.00     0.203 A 
ATOM     24  O   UNL A   1      30.724  23.045  25.090  1.00  0.00    -0.267 OA
ENDBRANCH   8   9
ENDBRANCH   5   8
ENDBRANCH   3   4
ENDBRANCH   2   3
ENDBRANCH   1   2
BRANCH   1  25
ATOM     25  N   UNL A   1      38.669  21.796  25.393  1.00  0.00    -0.352 N 
ATOM     26  C   UNL A   1      39.738  22.147  26.168  1.00  0.00     0.251 C 
ATOM     27  H   UNL A   1      38.852  20.999  24.846  1.00  0.00     0.163 HD
ATOM     28  O   UNL A   1      40.683  21.352  26.155  1.00  0.00    -0.269 OA
BRANCH  26  29
ATOM     29  C   UNL A   1      39.869  23.405  26.951  1.00  0.00     0.039 A 
ATOM     30  C   UNL A   1      38.977  24.478  26.934  1.00  0.00     0.014 A 
ATOM     31  C   UNL A   1      41.037  23.514  27.732  1.00  0.00     0.014 A 
ATOM     32  C   UNL A   1      39.292  25.666  27.595  1.00  0.00     0.010 A 
ATOM     33  C   UNL A   1      41.346  24.689  28.404  1.00  0.00     0.010 A 
ATOM     34  C   UNL A   1      40.497  25.784  28.290  1.00  0.00    -0.014 A 
BRANCH  34  35
ATOM     35  C   UNL A   1      40.803  27.053  28.950  1.00  0.00     0.031 A 
ATOM     36  C   UNL A   1      41.959  27.808  28.381  1.00  0.00     0.074 A 
ATOM     37  C   UNL A   1      40.010  27.583  29.905  1.00  0.00     0.049 A 
ATOM     38  N   UNL A   1      43.050  28.181  28.966  1.00  0.00    -0.248 NA
ATOM     39  C   UNL A   1      41.927  28.103  26.938  1.00  0.00     0.031 C 
ATOM     40  C   UNL A   1      38.698  27.104  30.350  1.00  0.00     0.029 A 
ATOM     41  N   UNL A   1      40.165  28.737  30.612  1.00  0.00    -0.354 N 
ATOM     42  C   UNL A   1      43.759  28.928  28.022  1.00  0.00     0.074 A 
ATOM     43  C   UNL A   1      43.095  28.723  26.762  1.00  0.00     0.031 C 
ATOM     44  C   UNL A   1      38.088  28.071  31.072  1.00  0.00     0.029 A 
ATOM     45  C   UNL A   1      39.012  29.177  31.255  1.00  0.00     0.049 A 
ATOM     46  H   UNL A   1      41.022  29.220  30.664  1.00  0.00     0.167 HD
ATOM     47  C   UNL A   1      44.724  29.823  28.376  1.00  0.00     0.037 A 
ATOM     48  C   UNL A   1      38.815  30.387  31.836  1.00  0.00     0.037 A 
ATOM     49  C   UNL A   1      45.200  29.591  29.713  1.00  0.00     0.049 A 
ATOM     50  C   UNL A   1      40.154  30.970  32.101  1.00  0.00     0.074 A 
ATOM     51  C   UNL A   1      45.841  28.549  30.352  1.00  0.00     0.029 A 
ATOM     52  N   UNL A   1      44.731  30.408  30.712  1.00  0.00    -0.354 N 
ATOM     53  N   UNL A   1      41.006  30.492  32.964  1.00  0.00    -0.248 NA
ATOM     54  C   UNL A   1      40.717  31.858  31.096  1.00  0.00     0.031 C 
ATOM     55  C   UNL A   1      45.311  28.542  31.674  1.00  0.00     0.029 A 
ATOM     56  C   UNL A   1      44.413  29.606  31.777  1.00  0.00     0.049 A 
ATOM     57  H   UNL A   1      44.640  31.388  30.670  1.00  0.00     0.167 HD
ATOM     58  C   UNL A   1      42.248  30.671  32.375  1.00  0.00     0.074 A 
ATOM     59  C   UNL A   1      42.016  31.603  31.275  1.00  0.00     0.031 C 
ATOM     60  C   UNL A   1      43.293  29.841  32.661  1.00  0.00     0.037 A 
BRANCH  47  61
ATOM     61  C   UNL A   1      45.000  31.113  27.636  1.00  0.00     0.058 A 
ATOM     62  C   UNL A   1      46.191  31.256  26.894  1.00  0.00     0.135 A 
ATOM     63  C   UNL A   1      44.279  32.306  27.863  1.00  0.00     0.135 A 
ATOM     64  F   UNL A   1      46.963  30.189  26.627  1.00  0.00    -0.206 F 
ATOM     65  C   UNL A   1      46.665  32.499  26.470  1.00  0.00     0.059 A 
ATOM     66  C   UNL A   1      44.705  33.548  27.404  1.00  0.00     0.059 A 
ATOM     67  F   UNL A   1      43.180  32.340  28.626  1.00  0.00    -0.206 F 
ATOM     68  C   UNL A   1      45.920  33.642  26.746  1.00  0.00     0.060 A 
BRANCH  68  69
ATOM     69  S   UNL A   1      46.585  35.260  26.311  1.00  0.00     0.124 S 
ATOM     70  O   UNL A   1      47.335  34.950  25.100  1.00  0.00    -0.237 OA
ATOM     71  O   UNL A   1      45.369  36.047  26.129  1.00  0.00    -0.237 OA
ATOM     72  O   UNL A   1      47.386  35.617  27.478  1.00  0.00    -0.744 OA
ENDBRANCH  68  69
ENDBRANCH  47  61
BRANCH  48  73
ATOM     73  C   UNL A   1      37.575  31.213  31.863  1.00  0.00     0.058 A 
ATOM     74  C   UNL A   1      37.029  31.663  33.080  1.00  0.00     0.135 A 
ATOM     75  C   UNL A   1      37.074  31.824  30.697  1.00  0.00     0.135 A 
ATOM     76  F   UNL A   1      37.457  31.149  34.243  1.00  0.00    -0.206 F 
ATOM     77  C   UNL A   1      36.089  32.699  33.141  1.00  0.00     0.059 A 
ATOM     78  C   UNL A   1      36.130  32.850  30.731  1.00  0.00     0.059 A 
ATOM     79  F   UNL A   1      37.558  31.509  29.487  1.00  0.00    -0.206 F 
ATOM     80  C   UNL A   1      35.665  33.306  31.959  1.00  0.00     0.060 A 
BRANCH  80  81
ATOM     81  S   UNL A   1      34.604  34.768  32.042  1.00  0.00     0.124 S 
ATOM     82  O   UNL A   1      33.413  34.242  32.698  1.00  0.00    -0.237 OA
ATOM     83  O   UNL A   1      35.414  35.689  32.833  1.00  0.00    -0.237 OA
ATOM     84  O   UNL A   1      34.430  35.141  30.641  1.00  0.00    -0.744 OA
ENDBRANCH  80  81
ENDBRANCH  48  73
BRANCH  60  85
ATOM     85  C   UNL A   1      43.167  28.922  33.849  1.00  0.00     0.058 A 
ATOM     86  C   UNL A   1      43.365  29.320  35.184  1.00  0.00     0.135 A 
ATOM     87  C   UNL A   1      42.667  27.629  33.635  1.00  0.00     0.135 A 
ATOM     88  F   UNL A   1      43.745  30.570  35.481  1.00  0.00    -0.206 F 
ATOM     89  C   UNL A   1      43.109  28.459  36.253  1.00  0.00     0.059 A 
ATOM     90  C   UNL A   1      42.374  26.765  34.686  1.00  0.00     0.059 A 
ATOM     91  F   UNL A   1      42.399  27.211  32.386  1.00  0.00    -0.206 F 
ATOM     92  C   UNL A   1      42.606  27.185  35.994  1.00  0.00     0.060 A 
BRANCH  92  93
ATOM     93  S   UNL A   1      42.186  26.109  37.383  1.00  0.00     0.124 S 
ATOM     94  O   UNL A   1      42.324  24.780  36.797  1.00  0.00    -0.237 OA
ATOM     95  O   UNL A   1      43.193  26.470  38.378  1.00  0.00    -0.237 OA
ATOM     96  O   UNL A   1      40.821  26.504  37.721  1.00  0.00    -0.744 OA
ENDBRANCH  92  93
ENDBRANCH  60  85
ENDBRANCH  34  35
ENDBRANCH  26  29
ENDBRANCH   1  25
TORSDOF 14
ENDMDL
MODEL 3
REMARK VINA RESULT:     -12.3      3.374      5.991
REMARK SMILES Cc1ccc2[nH]c3c(=O)n(CC(=O)NCCCNC(=O)c4ccc(-c5c6nc(c(-c7c(F)cc(S(=O)(=O)[O-])cc7F)c7ccc([nH]7)c(-c7c(F)cc(S(=O)(=O)[O-])cc7F)c7nc(c(-c8c(F)cc(S(=O)(=O)[O-])cc8F)c8ccc5[nH]8)C=C7)C=C6)cc4)cnc3c2c1
REMARK SMILES IDX 17 1 16 2 15 3 14 4 12 5 13 6 11 8 10 9 1 10 2 11 3 12 91 13
REMARK SMILES IDX 4 14 90 15 5 16 89 17 6 18 7 19 88 20 8 22 87 23 9 24 18 25
REMARK SMILES IDX 19 26 20 28 21 29 22 30 86 31 23 32 85 33 24 34 25 35 26 36
REMARK SMILES IDX 79 37 27 38 84 39 78 40 80 41 28 42 83 43 77 44 76 45 29 47
REMARK SMILES IDX 63 48 42 49 62 50 43 51 46 52 61 53 81 54 44 55 45 56 60 58
REMARK SMILES IDX 82 59 47 60 30 61 31 62 40 63 32 64 33 65 39 66 41 67 34 68
REMARK SMILES IDX 35 69 36 70 37 71 38 72 64 73 65 74 74 75 66 76 67 77 73 78
REMARK SMILES IDX 75 79 68 80 69 81 70 82 71 83 72 84 48 85 49 86 58 87 50 88
REMARK SMILES IDX 51 89 57 90 59 91 52 92 53 93 54 94 55 95 56 96
REMARK H PARENT 14 7 6 21 18 27 80 46 46 57
REMARK Flexibility Score: inf
ROOT
ATOM      1  C   UNL A   1      33.036  29.716  27.054  1.00  0.00     0.118 C 
ENDROOT
BRANCH   1   2
ATOM      2  C   UNL A   1      32.813  29.856  25.546  1.00  0.00     0.042 C 
BRANCH   2   3
ATOM      3  C   UNL A   1      31.345  29.928  25.132  1.00  0.00     0.117 C 
BRANCH   3   4
ATOM      4  N   UNL A   1      31.117  29.513  23.759  1.00  0.00    -0.354 N 
ATOM      5  C   UNL A   1      30.665  28.334  23.249  1.00  0.00     0.240 C 
ATOM      6  O   UNL A   1      30.280  28.339  22.076  1.00  0.00    -0.273 OA
ATOM      7  H   UNL A   1      31.324  30.199  23.084  1.00  0.00     0.163 HD
BRANCH   5   8
ATOM      8  C   UNL A   1      30.490  27.090  24.124  1.00  0.00     0.226 C 
BRANCH   8   9
ATOM      9  N   UNL A   1      31.723  26.351  24.326  1.00  0.00    -0.288 N 
ATOM     10  C   UNL A   1      38.456  22.995  26.336  1.00  0.00     0.044 C 
ATOM     11  C   UNL A   1      37.318  23.198  25.376  1.00  0.00    -0.050 A 
ATOM     12  C   UNL A   1      37.261  22.476  24.179  1.00  0.00     0.005 A 
ATOM     13  C   UNL A   1      36.275  24.079  25.711  1.00  0.00     0.016 A 
ATOM     14  C   UNL A   1      36.197  22.626  23.281  1.00  0.00     0.027 A 
ATOM     15  C   UNL A   1      35.195  24.247  24.825  1.00  0.00     0.026 A 
ATOM     16  C   UNL A   1      35.179  23.518  23.628  1.00  0.00     0.048 A 
ATOM     17  C   UNL A   1      34.017  25.021  24.824  1.00  0.00     0.103 A 
ATOM     18  N   UNL A   1      34.025  23.863  22.950  1.00  0.00    -0.349 N 
ATOM     19  C   UNL A   1      33.321  24.782  23.676  1.00  0.00     0.132 A 
ATOM     20  N   UNL A   1      33.567  25.901  25.806  1.00  0.00    -0.236 NA
ATOM     21  H   UNL A   1      33.752  23.500  22.076  1.00  0.00     0.167 HD
ATOM     22  C   UNL A   1      32.090  25.419  23.362  1.00  0.00     0.278 A 
ATOM     23  C   UNL A   1      32.457  26.495  25.496  1.00  0.00     0.203 A 
ATOM     24  O   UNL A   1      31.440  25.165  22.351  1.00  0.00    -0.267 OA
ENDBRANCH   8   9
ENDBRANCH   5   8
ENDBRANCH   3   4
ENDBRANCH   2   3
ENDBRANCH   1   2
BRANCH   1  25
ATOM     25  N   UNL A   1      33.321  30.960  27.743  1.00  0.00    -0.352 N 
ATOM     26  C   UNL A   1      34.447  31.586  28.199  1.00  0.00     0.251 C 
ATOM     27  H   UNL A   1      32.506  31.478  27.928  1.00  0.00     0.163 HD
ATOM     28  O   UNL A   1      34.275  32.728  28.636  1.00  0.00    -0.269 OA
BRANCH  26  29
ATOM     29  C   UNL A   1      35.808  30.990  28.264  1.00  0.00     0.039 A 
ATOM     30  C   UNL A   1      36.133  29.657  28.009  1.00  0.00     0.014 A 
ATOM     31  C   UNL A   1      36.834  31.865  28.672  1.00  0.00     0.014 A 
ATOM     32  C   UNL A   1      37.423  29.187  28.255  1.00  0.00     0.010 A 
ATOM     33  C   UNL A   1      38.124  31.405  28.903  1.00  0.00     0.010 A 
ATOM     34  C   UNL A   1      38.403  30.052  28.745  1.00  0.00    -0.014 A 
BRANCH  34  35
ATOM     35  C   UNL A   1      39.738  29.518  29.013  1.00  0.00     0.031 A 
ATOM     36  C   UNL A   1      40.120  29.443  30.455  1.00  0.00     0.074 A 
ATOM     37  C   UNL A   1      40.514  28.986  28.045  1.00  0.00     0.049 A 
ATOM     38  N   UNL A   1      41.117  30.003  31.059  1.00  0.00    -0.248 NA
ATOM     39  C   UNL A   1      39.208  28.719  31.357  1.00  0.00     0.031 C 
ATOM     40  C   UNL A   1      40.154  28.724  26.648  1.00  0.00     0.029 A 
ATOM     41  N   UNL A   1      41.770  28.464  28.135  1.00  0.00    -0.354 N 
ATOM     42  C   UNL A   1      41.075  29.547  32.379  1.00  0.00     0.074 A 
ATOM     43  C   UNL A   1      39.807  28.883  32.538  1.00  0.00     0.031 C 
ATOM     44  C   UNL A   1      41.071  27.899  26.095  1.00  0.00     0.029 A 
ATOM     45  C   UNL A   1      42.147  27.684  27.047  1.00  0.00     0.049 A 
ATOM     46  H   UNL A   1      42.360  28.626  28.907  1.00  0.00     0.167 HD
ATOM     47  C   UNL A   1      42.167  29.569  33.193  1.00  0.00     0.037 A 
ATOM     48  C   UNL A   1      43.232  26.872  26.964  1.00  0.00     0.037 A 
ATOM     49  C   UNL A   1      43.176  30.470  32.705  1.00  0.00     0.049 A 
ATOM     50  C   UNL A   1      44.191  27.313  28.008  1.00  0.00     0.074 A 
ATOM     51  C   UNL A   1      43.239  31.830  32.475  1.00  0.00     0.029 A 
ATOM     52  N   UNL A   1      44.255  29.931  32.049  1.00  0.00    -0.354 N 
ATOM     53  N   UNL A   1      44.818  28.456  27.992  1.00  0.00    -0.248 NA
ATOM     54  C   UNL A   1      44.141  26.647  29.300  1.00  0.00     0.031 C 
ATOM     55  C   UNL A   1      44.055  31.972  31.316  1.00  0.00     0.029 A 
ATOM     56  C   UNL A   1      44.477  30.697  30.935  1.00  0.00     0.049 A 
ATOM     57  H   UNL A   1      44.773  29.140  32.328  1.00  0.00     0.167 HD
ATOM     58  C   UNL A   1      44.873  28.850  29.321  1.00  0.00     0.074 A 
ATOM     59  C   UNL A   1      44.530  27.654  30.085  1.00  0.00     0.031 C 
ATOM     60  C   UNL A   1      44.924  30.169  29.666  1.00  0.00     0.037 A 
BRANCH  47  61
ATOM     61  C   UNL A   1      42.462  28.528  34.250  1.00  0.00     0.058 A 
ATOM     62  C   UNL A   1      42.510  28.902  35.610  1.00  0.00     0.135 A 
ATOM     63  C   UNL A   1      42.976  27.247  33.954  1.00  0.00     0.135 A 
ATOM     64  F   UNL A   1      42.058  30.103  36.005  1.00  0.00    -0.206 F 
ATOM     65  C   UNL A   1      43.090  28.092  36.589  1.00  0.00     0.059 A 
ATOM     66  C   UNL A   1      43.510  26.402  34.921  1.00  0.00     0.059 A 
ATOM     67  F   UNL A   1      43.079  26.793  32.699  1.00  0.00    -0.206 F 
ATOM     68  C   UNL A   1      43.602  26.849  36.229  1.00  0.00     0.060 A 
BRANCH  68  69
ATOM     69  S   UNL A   1      44.461  25.854  37.462  1.00  0.00     0.124 S 
ATOM     70  O   UNL A   1      44.166  24.502  37.002  1.00  0.00    -0.237 OA
ATOM     71  O   UNL A   1      45.842  26.299  37.300  1.00  0.00    -0.237 OA
ATOM     72  O   UNL A   1      43.825  26.249  38.715  1.00  0.00    -0.744 OA
ENDBRANCH  68  69
ENDBRANCH  47  61
BRANCH  48  73
ATOM     73  C   UNL A   1      43.350  25.547  26.292  1.00  0.00     0.058 A 
ATOM     74  C   UNL A   1      44.351  25.308  25.332  1.00  0.00     0.135 A 
ATOM     75  C   UNL A   1      42.684  24.409  26.788  1.00  0.00     0.135 A 
ATOM     76  F   UNL A   1      45.050  26.330  24.815  1.00  0.00    -0.206 F 
ATOM     77  C   UNL A   1      44.713  24.015  24.935  1.00  0.00     0.059 A 
ATOM     78  C   UNL A   1      43.019  23.113  26.399  1.00  0.00     0.059 A 
ATOM     79  F   UNL A   1      41.748  24.515  27.742  1.00  0.00    -0.206 F 
ATOM     80  C   UNL A   1      44.057  22.920  25.496  1.00  0.00     0.060 A 
BRANCH  80  81
ATOM     81  S   UNL A   1      44.649  21.249  25.135  1.00  0.00     0.124 S 
ATOM     82  O   UNL A   1      46.004  21.285  25.673  1.00  0.00    -0.237 OA
ATOM     83  O   UNL A   1      43.693  20.423  25.866  1.00  0.00    -0.237 OA
ATOM     84  O   UNL A   1      44.557  21.163  23.680  1.00  0.00    -0.744 OA
ENDBRANCH  80  81
ENDBRANCH  48  73
BRANCH  60  85
ATOM     85  C   UNL A   1      45.229  31.175  28.586  1.00  0.00     0.058 A 
ATOM     86  C   UNL A   1      44.280  31.670  27.672  1.00  0.00     0.135 A 
ATOM     87  C   UNL A   1      46.495  31.780  28.583  1.00  0.00     0.135 A 
ATOM     88  F   UNL A   1      43.020  31.217  27.675  1.00  0.00    -0.206 F 
ATOM     89  C   UNL A   1      44.588  32.696  26.776  1.00  0.00     0.059 A 
ATOM     90  C   UNL A   1      46.814  32.826  27.721  1.00  0.00     0.059 A 
ATOM     91  F   UNL A   1      47.426  31.394  29.473  1.00  0.00    -0.206 F 
ATOM     92  C   UNL A   1      45.857  33.273  26.813  1.00  0.00     0.060 A 
BRANCH  92  93
ATOM     93  S   UNL A   1      46.221  34.662  25.718  1.00  0.00     0.124 S 
ATOM     94  O   UNL A   1      45.976  35.810  26.584  1.00  0.00    -0.237 OA
ATOM     95  O   UNL A   1      47.617  34.425  25.360  1.00  0.00    -0.237 OA
ATOM     96  O   UNL A   1      45.269  34.493  24.622  1.00  0.00    -0.744 OA
ENDBRANCH  92  93
ENDBRANCH  60  85
ENDBRANCH  34  35
ENDBRANCH  26  29
ENDBRANCH   1  25
TORSDOF 14
ENDMDL
