MODEL 1
REMARK VINA RESULT:     -12.3      0.000      0.000
REMARK SMILES Cc1sc(C(=O)NCCCNC(=O)c2ccc(-c3c4nc(c(-c5c(F)cc(S(=O)(=O)[O-])cc5F)c5ccc([nH]5)c(-c5c(F)cc(S(=O)(=O)[O-])cc5F)c5nc(c(-c6c(F)cc(S(=O)(=O)[O-])cc6F)c6ccc3[nH]6)C=C5)C=C4)cc2)cc1S(=O)(=O)N1C[C@@H](C)[C@H](C)C1
REMARK SMILES IDX 9 1 8 2 7 3 5 4 6 5 4 7 1 8 2 9 3 10 81 11 80 12 82 13 83 14
REMARK SMILES IDX 84 15 85 16 86 17 91 18 87 19 89 20 88 21 90 22 10 23 11 24
REMARK SMILES IDX 12 25 13 27 14 28 15 29 79 30 16 31 78 32 17 33 18 34 19 35
REMARK SMILES IDX 72 36 20 37 77 38 71 39 73 40 21 41 76 42 70 43 69 44 22 46
REMARK SMILES IDX 56 47 35 48 55 49 36 50 39 51 54 52 74 53 37 54 38 55 53 57
REMARK SMILES IDX 75 58 40 59 23 60 24 61 33 62 25 63 26 64 32 65 34 66 27 67
REMARK SMILES IDX 28 68 29 69 30 70 31 71 57 72 58 73 67 74 59 75 60 76 66 77
REMARK SMILES IDX 68 78 61 79 62 80 63 81 64 82 65 83 41 84 42 85 51 86 43 87
REMARK SMILES IDX 44 88 50 89 52 90 45 91 46 92 47 93 48 94 49 95
REMARK H PARENT 7 6 11 26 73 45 39 56
REMARK Flexibility Score: inf
ROOT
ATOM      1  C   UNL A   1      34.344  31.682  27.703  1.00  0.00     0.042 C 
ENDROOT
BRANCH   1   2
ATOM      2  C   UNL A   1      33.489  30.421  27.627  1.00  0.00     0.118 C 
BRANCH   2   3
ATOM      3  N   UNL A   1      32.468  30.552  26.609  1.00  0.00    -0.351 N 
ATOM      4  C   UNL A   1      31.862  29.633  25.792  1.00  0.00     0.261 C 
ATOM      5  O   UNL A   1      31.026  30.103  25.015  1.00  0.00    -0.268 OA
ATOM      6  H   UNL A   1      32.148  31.475  26.480  1.00  0.00     0.163 HD
BRANCH   4   7
ATOM      7  C   UNL A   1      32.159  28.212  25.888  1.00  0.00     0.093 A 
ATOM      8  C   UNL A   1      34.457  25.115  25.209  1.00  0.00     0.058 C 
ATOM      9  C   UNL A   1      33.360  26.039  25.577  1.00  0.00     0.022 A 
ATOM     10  S   UNL A   1      33.704  27.706  25.346  1.00  0.00    -0.134 S 
ATOM     11  C   UNL A   1      32.084  25.860  26.079  1.00  0.00     0.097 A 
ATOM     12  C   UNL A   1      31.451  27.122  26.351  1.00  0.00     0.047 A 
BRANCH  11  13
ATOM     13  S   UNL A   1      31.183  24.394  26.380  1.00  0.00     0.244 S 
ATOM     14  O   UNL A   1      31.777  23.898  27.599  1.00  0.00    -0.207 OA
ATOM     15  O   UNL A   1      29.811  24.868  26.342  1.00  0.00    -0.207 OA
BRANCH  13  16
ATOM     16  N   UNL A   1      31.348  23.232  25.212  1.00  0.00    -0.197 NA
ATOM     17  C   UNL A   1      31.320  23.539  23.785  1.00  0.00     0.106 C 
ATOM     18  C   UNL A   1      31.864  21.901  25.506  1.00  0.00     0.106 C 
ATOM     19  C   UNL A   1      31.877  22.284  23.101  1.00  0.00     0.005 C 
ATOM     20  C   UNL A   1      32.561  21.470  24.215  1.00  0.00     0.005 C 
ATOM     21  C   UNL A   1      32.845  22.642  21.973  1.00  0.00     0.009 C 
ATOM     22  C   UNL A   1      32.474  19.967  23.991  1.00  0.00     0.009 C 
ENDBRANCH  13  16
ENDBRANCH  11  13
ENDBRANCH   4   7
ENDBRANCH   2   3
ENDBRANCH   1   2
BRANCH   1  23
ATOM     23  C   UNL A   1      35.722  31.422  28.308  1.00  0.00     0.118 C 
BRANCH  23  24
ATOM     24  N   UNL A   1      35.635  31.133  29.733  1.00  0.00    -0.352 N 
ATOM     25  C   UNL A   1      36.454  30.380  30.531  1.00  0.00     0.251 C 
ATOM     26  H   UNL A   1      34.868  31.544  30.195  1.00  0.00     0.163 HD
ATOM     27  O   UNL A   1      36.049  30.016  31.633  1.00  0.00    -0.269 OA
BRANCH  25  28
ATOM     28  C   UNL A   1      37.814  30.024  30.081  1.00  0.00     0.039 A 
ATOM     29  C   UNL A   1      38.067  29.926  28.712  1.00  0.00     0.014 A 
ATOM     30  C   UNL A   1      38.818  29.721  31.005  1.00  0.00     0.014 A 
ATOM     31  C   UNL A   1      39.335  29.549  28.270  1.00  0.00     0.010 A 
ATOM     32  C   UNL A   1      40.104  29.432  30.564  1.00  0.00     0.010 A 
ATOM     33  C   UNL A   1      40.369  29.318  29.194  1.00  0.00    -0.014 A 
BRANCH  33  34
ATOM     34  C   UNL A   1      41.724  28.925  28.739  1.00  0.00     0.031 A 
ATOM     35  C   UNL A   1      42.822  29.953  28.663  1.00  0.00     0.074 A 
ATOM     36  C   UNL A   1      41.950  27.654  28.356  1.00  0.00     0.049 A 
ATOM     37  N   UNL A   1      44.058  29.811  28.260  1.00  0.00    -0.248 NA
ATOM     38  C   UNL A   1      42.479  31.327  29.064  1.00  0.00     0.031 C 
ATOM     39  C   UNL A   1      40.946  26.586  28.336  1.00  0.00     0.029 A 
ATOM     40  N   UNL A   1      43.091  27.042  27.905  1.00  0.00    -0.354 N 
ATOM     41  C   UNL A   1      44.634  31.074  28.348  1.00  0.00     0.074 A 
ATOM     42  C   UNL A   1      43.594  31.982  28.781  1.00  0.00     0.031 C 
ATOM     43  C   UNL A   1      41.524  25.445  27.929  1.00  0.00     0.029 A 
ATOM     44  C   UNL A   1      42.926  25.708  27.619  1.00  0.00     0.049 A 
ATOM     45  H   UNL A   1      43.949  27.514  27.798  1.00  0.00     0.167 HD
ATOM     46  C   UNL A   1      45.917  31.438  28.115  1.00  0.00     0.037 A 
ATOM     47  C   UNL A   1      43.806  24.799  27.157  1.00  0.00     0.037 A 
ATOM     48  C   UNL A   1      46.946  30.519  27.705  1.00  0.00     0.049 A 
ATOM     49  C   UNL A   1      45.228  25.226  26.913  1.00  0.00     0.074 A 
ATOM     50  C   UNL A   1      48.290  30.770  27.492  1.00  0.00     0.029 A 
ATOM     51  N   UNL A   1      46.746  29.170  27.446  1.00  0.00    -0.354 N 
ATOM     52  N   UNL A   1      45.771  26.412  27.061  1.00  0.00    -0.248 NA
ATOM     53  C   UNL A   1      46.160  24.190  26.452  1.00  0.00     0.031 C 
ATOM     54  C   UNL A   1      48.892  29.584  27.055  1.00  0.00     0.029 A 
ATOM     55  C   UNL A   1      47.937  28.580  27.057  1.00  0.00     0.049 A 
ATOM     56  H   UNL A   1      45.884  28.701  27.527  1.00  0.00     0.167 HD
ATOM     57  C   UNL A   1      47.116  26.257  26.744  1.00  0.00     0.074 A 
ATOM     58  C   UNL A   1      47.304  24.859  26.409  1.00  0.00     0.031 C 
ATOM     59  C   UNL A   1      48.106  27.184  26.732  1.00  0.00     0.037 A 
BRANCH  46  60
ATOM     60  C   UNL A   1      46.278  32.888  28.300  1.00  0.00     0.058 A 
ATOM     61  C   UNL A   1      46.178  33.817  27.251  1.00  0.00     0.135 A 
ATOM     62  C   UNL A   1      46.700  33.366  29.552  1.00  0.00     0.135 A 
ATOM     63  F   UNL A   1      45.796  33.416  26.028  1.00  0.00    -0.206 F 
ATOM     64  C   UNL A   1      46.512  35.156  27.426  1.00  0.00     0.059 A 
ATOM     65  C   UNL A   1      47.010  34.707  29.759  1.00  0.00     0.059 A 
ATOM     66  F   UNL A   1      46.817  32.525  30.592  1.00  0.00    -0.206 F 
ATOM     67  C   UNL A   1      46.926  35.593  28.685  1.00  0.00     0.060 A 
BRANCH  67  68
ATOM     68  S   UNL A   1      47.347  37.335  28.897  1.00  0.00     0.124 S 
ATOM     69  O   UNL A   1      48.039  37.622  27.645  1.00  0.00    -0.237 OA
ATOM     70  O   UNL A   1      46.035  37.955  29.052  1.00  0.00    -0.237 OA
ATOM     71  O   UNL A   1      48.185  37.340  30.092  1.00  0.00    -0.744 OA
ENDBRANCH  67  68
ENDBRANCH  46  60
BRANCH  47  72
ATOM     72  C   UNL A   1      43.372  23.395  26.926  1.00  0.00     0.058 A 
ATOM     73  C   UNL A   1      43.196  22.897  25.627  1.00  0.00     0.135 A 
ATOM     74  C   UNL A   1      43.142  22.518  27.999  1.00  0.00     0.135 A 
ATOM     75  F   UNL A   1      43.402  23.695  24.569  1.00  0.00    -0.206 F 
ATOM     76  C   UNL A   1      42.785  21.588  25.397  1.00  0.00     0.059 A 
ATOM     77  C   UNL A   1      42.759  21.197  27.793  1.00  0.00     0.059 A 
ATOM     78  F   UNL A   1      43.317  22.938  29.261  1.00  0.00    -0.206 F 
ATOM     79  C   UNL A   1      42.570  20.744  26.488  1.00  0.00     0.060 A 
BRANCH  79  80
ATOM     80  S   UNL A   1      42.075  19.036  26.176  1.00  0.00     0.124 S 
ATOM     81  O   UNL A   1      42.976  18.662  25.092  1.00  0.00    -0.237 OA
ATOM     82  O   UNL A   1      42.330  18.404  27.466  1.00  0.00    -0.237 OA
ATOM     83  O   UNL A   1      40.666  19.156  25.812  1.00  0.00    -0.744 OA
ENDBRANCH  79  80
ENDBRANCH  47  72
BRANCH  59  84
ATOM     84  C   UNL A   1      49.491  26.707  26.390  1.00  0.00     0.058 A 
ATOM     85  C   UNL A   1      50.326  26.103  27.342  1.00  0.00     0.135 A 
ATOM     86  C   UNL A   1      49.976  26.830  25.076  1.00  0.00     0.135 A 
ATOM     87  F   UNL A   1      49.914  25.965  28.612  1.00  0.00    -0.206 F 
ATOM     88  C   UNL A   1      51.609  25.675  27.016  1.00  0.00     0.059 A 
ATOM     89  C   UNL A   1      51.241  26.376  24.720  1.00  0.00     0.059 A 
ATOM     90  F   UNL A   1      49.212  27.385  24.122  1.00  0.00    -0.206 F 
ATOM     91  C   UNL A   1      52.058  25.816  25.701  1.00  0.00     0.060 A 
BRANCH  91  92
ATOM     92  S   UNL A   1      53.719  25.247  25.288  1.00  0.00     0.124 S 
ATOM     93  O   UNL A   1      53.576  23.801  25.421  1.00  0.00    -0.237 OA
ATOM     94  O   UNL A   1      53.890  25.744  23.925  1.00  0.00    -0.237 OA
ATOM     95  O   UNL A   1      54.560  25.890  26.292  1.00  0.00    -0.744 OA
ENDBRANCH  91  92
ENDBRANCH  59  84
ENDBRANCH  33  34
ENDBRANCH  25  28
ENDBRANCH  23  24
ENDBRANCH   1  23
TORSDOF 15
ENDMDL
MODEL 2
REMARK VINA RESULT:     -12.2      6.472     12.168
REMARK SMILES Cc1sc(C(=O)NCCCNC(=O)c2ccc(-c3c4nc(c(-c5c(F)cc(S(=O)(=O)[O-])cc5F)c5ccc([nH]5)c(-c5c(F)cc(S(=O)(=O)[O-])cc5F)c5nc(c(-c6c(F)cc(S(=O)(=O)[O-])cc6F)c6ccc3[nH]6)C=C5)C=C4)cc2)cc1S(=O)(=O)N1C[C@@H](C)[C@H](C)C1
REMARK SMILES IDX 9 1 8 2 7 3 5 4 6 5 4 7 1 8 2 9 3 10 81 11 80 12 82 13 83 14
REMARK SMILES IDX 84 15 85 16 86 17 91 18 87 19 89 20 88 21 90 22 10 23 11 24
REMARK SMILES IDX 12 25 13 27 14 28 15 29 79 30 16 31 78 32 17 33 18 34 19 35
REMARK SMILES IDX 72 36 20 37 77 38 71 39 73 40 21 41 76 42 70 43 69 44 22 46
REMARK SMILES IDX 56 47 35 48 55 49 36 50 39 51 54 52 74 53 37 54 38 55 53 57
REMARK SMILES IDX 75 58 40 59 23 60 24 61 33 62 25 63 26 64 32 65 34 66 27 67
REMARK SMILES IDX 28 68 29 69 30 70 31 71 57 72 58 73 67 74 59 75 60 76 66 77
REMARK SMILES IDX 68 78 61 79 62 80 63 81 64 82 65 83 41 84 42 85 51 86 43 87
REMARK SMILES IDX 44 88 50 89 52 90 45 91 46 92 47 93 48 94 49 95
REMARK H PARENT 7 6 11 26 73 45 39 56
REMARK Flexibility Score: inf
ROOT
ATOM      1  C   UNL A   1      39.054  22.505  26.500  1.00  0.00     0.042 C 
ENDROOT
BRANCH   1   2
ATOM      2  C   UNL A   1      37.834  23.342  26.127  1.00  0.00     0.118 C 
BRANCH   2   3
ATOM      3  N   UNL A   1      37.650  23.372  24.691  1.00  0.00    -0.351 N 
ATOM      4  C   UNL A   1      36.530  23.279  23.906  1.00  0.00     0.261 C 
ATOM      5  O   UNL A   1      36.743  23.329  22.691  1.00  0.00    -0.268 OA
ATOM      6  H   UNL A   1      38.487  23.480  24.183  1.00  0.00     0.163 HD
BRANCH   4   7
ATOM      7  C   UNL A   1      35.198  23.182  24.483  1.00  0.00     0.093 A 
ATOM      8  C   UNL A   1      32.011  21.137  25.478  1.00  0.00     0.058 C 
ATOM      9  C   UNL A   1      33.016  22.187  25.196  1.00  0.00     0.022 A 
ATOM     10  S   UNL A   1      34.535  21.610  24.638  1.00  0.00    -0.134 S 
ATOM     11  C   UNL A   1      33.010  23.567  25.283  1.00  0.00     0.097 A 
ATOM     12  C   UNL A   1      34.304  24.113  24.972  1.00  0.00     0.047 A 
BRANCH  11  13
ATOM     13  S   UNL A   1      31.711  24.670  25.665  1.00  0.00     0.244 S 
ATOM     14  O   UNL A   1      30.698  24.318  24.698  1.00  0.00    -0.207 OA
ATOM     15  O   UNL A   1      31.520  24.435  27.084  1.00  0.00    -0.207 OA
BRANCH  13  16
ATOM     16  N   UNL A   1      32.086  26.271  25.465  1.00  0.00    -0.197 NA
ATOM     17  C   UNL A   1      31.654  27.041  24.302  1.00  0.00     0.106 C 
ATOM     18  C   UNL A   1      32.566  27.102  26.562  1.00  0.00     0.106 C 
ATOM     19  C   UNL A   1      31.874  28.507  24.697  1.00  0.00     0.005 C 
ATOM     20  C   UNL A   1      32.059  28.504  26.226  1.00  0.00     0.005 C 
ATOM     21  C   UNL A   1      30.705  29.389  24.260  1.00  0.00     0.009 C 
ATOM     22  C   UNL A   1      33.011  29.589  26.712  1.00  0.00     0.009 C 
ENDBRANCH  13  16
ENDBRANCH  11  13
ENDBRANCH   4   7
ENDBRANCH   2   3
ENDBRANCH   1   2
BRANCH   1  23
ATOM     23  C   UNL A   1      40.157  23.335  27.155  1.00  0.00     0.118 C 
BRANCH  23  24
ATOM     24  N   UNL A   1      40.960  24.036  26.163  1.00  0.00    -0.352 N 
ATOM     25  C   UNL A   1      41.285  25.363  26.071  1.00  0.00     0.251 C 
ATOM     26  H   UNL A   1      41.327  23.468  25.447  1.00  0.00     0.163 HD
ATOM     27  O   UNL A   1      41.717  25.802  25.008  1.00  0.00    -0.269 OA
BRANCH  25  28
ATOM     28  C   UNL A   1      41.134  26.252  27.240  1.00  0.00     0.039 A 
ATOM     29  C   UNL A   1      40.030  26.083  28.077  1.00  0.00     0.014 A 
ATOM     30  C   UNL A   1      42.040  27.291  27.471  1.00  0.00     0.014 A 
ATOM     31  C   UNL A   1      39.850  26.941  29.161  1.00  0.00     0.010 A 
ATOM     32  C   UNL A   1      41.907  28.089  28.600  1.00  0.00     0.010 A 
ATOM     33  C   UNL A   1      40.798  27.940  29.443  1.00  0.00    -0.014 A 
BRANCH  33  34
ATOM     34  C   UNL A   1      40.624  28.854  30.597  1.00  0.00     0.031 A 
ATOM     35  C   UNL A   1      41.483  28.693  31.823  1.00  0.00     0.074 A 
ATOM     36  C   UNL A   1      39.664  29.798  30.553  1.00  0.00     0.049 A 
ATOM     37  N   UNL A   1      41.459  29.370  32.942  1.00  0.00    -0.248 NA
ATOM     38  C   UNL A   1      42.482  27.612  31.801  1.00  0.00     0.031 C 
ATOM     39  C   UNL A   1      38.737  30.009  29.438  1.00  0.00     0.029 A 
ATOM     40  N   UNL A   1      39.304  30.753  31.468  1.00  0.00    -0.354 N 
ATOM     41  C   UNL A   1      42.425  28.791  33.757  1.00  0.00     0.074 A 
ATOM     42  C   UNL A   1      42.974  27.668  33.029  1.00  0.00     0.031 C 
ATOM     43  C   UNL A   1      37.938  31.049  29.721  1.00  0.00     0.029 A 
ATOM     44  C   UNL A   1      38.267  31.552  31.051  1.00  0.00     0.049 A 
ATOM     45  H   UNL A   1      39.748  30.858  32.341  1.00  0.00     0.167 HD
ATOM     46  C   UNL A   1      42.836  29.177  34.988  1.00  0.00     0.037 A 
ATOM     47  C   UNL A   1      37.649  32.575  31.672  1.00  0.00     0.037 A 
ATOM     48  C   UNL A   1      42.296  30.311  35.692  1.00  0.00     0.049 A 
ATOM     49  C   UNL A   1      38.128  32.990  33.037  1.00  0.00     0.074 A 
ATOM     50  C   UNL A   1      42.675  30.823  36.920  1.00  0.00     0.029 A 
ATOM     51  N   UNL A   1      41.261  31.111  35.228  1.00  0.00    -0.354 N 
ATOM     52  N   UNL A   1      39.087  32.470  33.768  1.00  0.00    -0.248 NA
ATOM     53  C   UNL A   1      37.454  34.138  33.655  1.00  0.00     0.031 C 
ATOM     54  C   UNL A   1      41.835  31.900  37.222  1.00  0.00     0.029 A 
ATOM     55  C   UNL A   1      40.975  32.100  36.155  1.00  0.00     0.049 A 
ATOM     56  H   UNL A   1      40.797  30.992  34.368  1.00  0.00     0.167 HD
ATOM     57  C   UNL A   1      39.152  33.249  34.919  1.00  0.00     0.074 A 
ATOM     58  C   UNL A   1      38.145  34.282  34.778  1.00  0.00     0.031 C 
ATOM     59  C   UNL A   1      39.971  33.123  35.993  1.00  0.00     0.037 A 
BRANCH  46  60
ATOM     60  C   UNL A   1      43.922  28.369  35.650  1.00  0.00     0.058 A 
ATOM     61  C   UNL A   1      45.283  28.634  35.426  1.00  0.00     0.135 A 
ATOM     62  C   UNL A   1      43.599  27.336  36.545  1.00  0.00     0.135 A 
ATOM     63  F   UNL A   1      45.652  29.600  34.569  1.00  0.00    -0.206 F 
ATOM     64  C   UNL A   1      46.283  27.887  36.040  1.00  0.00     0.059 A 
ATOM     65  C   UNL A   1      44.583  26.595  37.194  1.00  0.00     0.059 A 
ATOM     66  F   UNL A   1      42.316  27.035  36.797  1.00  0.00    -0.206 F 
ATOM     67  C   UNL A   1      45.923  26.869  36.924  1.00  0.00     0.060 A 
BRANCH  67  68
ATOM     68  S   UNL A   1      47.233  25.915  37.718  1.00  0.00     0.124 S 
ATOM     69  O   UNL A   1      47.059  24.606  37.096  1.00  0.00    -0.237 OA
ATOM     70  O   UNL A   1      48.433  26.647  37.326  1.00  0.00    -0.237 OA
ATOM     71  O   UNL A   1      46.895  25.985  39.136  1.00  0.00    -0.744 OA
ENDBRANCH  67  68
ENDBRANCH  46  60
BRANCH  47  72
ATOM     72  C   UNL A   1      36.534  33.292  30.997  1.00  0.00     0.058 A 
ATOM     73  C   UNL A   1      36.778  34.151  29.915  1.00  0.00     0.135 A 
ATOM     74  C   UNL A   1      35.203  33.120  31.408  1.00  0.00     0.135 A 
ATOM     75  F   UNL A   1      38.032  34.350  29.486  1.00  0.00    -0.206 F 
ATOM     76  C   UNL A   1      35.745  34.833  29.279  1.00  0.00     0.059 A 
ATOM     77  C   UNL A   1      34.151  33.768  30.769  1.00  0.00     0.059 A 
ATOM     78  F   UNL A   1      34.913  32.293  32.424  1.00  0.00    -0.206 F 
ATOM     79  C   UNL A   1      34.434  34.633  29.712  1.00  0.00     0.060 A 
BRANCH  79  80
ATOM     80  S   UNL A   1      33.098  35.493  28.854  1.00  0.00     0.124 S 
ATOM     81  O   UNL A   1      33.837  36.484  28.080  1.00  0.00    -0.237 OA
ATOM     82  O   UNL A   1      32.483  34.414  28.088  1.00  0.00    -0.237 OA
ATOM     83  O   UNL A   1      32.284  36.022  29.944  1.00  0.00    -0.744 OA
ENDBRANCH  79  80
ENDBRANCH  47  72
BRANCH  59  84
ATOM     84  C   UNL A   1      39.842  34.156  37.080  1.00  0.00     0.058 A 
ATOM     85  C   UNL A   1      40.465  35.411  36.991  1.00  0.00     0.135 A 
ATOM     86  C   UNL A   1      39.056  33.893  38.215  1.00  0.00     0.135 A 
ATOM     87  F   UNL A   1      41.231  35.711  35.931  1.00  0.00    -0.206 F 
ATOM     88  C   UNL A   1      40.347  36.354  38.007  1.00  0.00     0.059 A 
ATOM     89  C   UNL A   1      38.895  34.835  39.225  1.00  0.00     0.059 A 
ATOM     90  F   UNL A   1      38.425  32.716  38.343  1.00  0.00    -0.206 F 
ATOM     91  C   UNL A   1      39.559  36.056  39.121  1.00  0.00     0.060 A 
BRANCH  91  92
ATOM     92  S   UNL A   1      39.405  37.291  40.428  1.00  0.00     0.124 S 
ATOM     93  O   UNL A   1      38.523  38.271  39.802  1.00  0.00    -0.237 OA
ATOM     94  O   UNL A   1      38.821  36.519  41.520  1.00  0.00    -0.237 OA
ATOM     95  O   UNL A   1      40.779  37.732  40.644  1.00  0.00    -0.744 OA
ENDBRANCH  91  92
ENDBRANCH  59  84
ENDBRANCH  33  34
ENDBRANCH  25  28
ENDBRANCH  23  24
ENDBRANCH   1  23
TORSDOF 15
ENDMDL
MODEL 3
REMARK VINA RESULT:     -12.2      1.343      2.260
REMARK SMILES Cc1sc(C(=O)NCCCNC(=O)c2ccc(-c3c4nc(c(-c5c(F)cc(S(=O)(=O)[O-])cc5F)c5ccc([nH]5)c(-c5c(F)cc(S(=O)(=O)[O-])cc5F)c5nc(c(-c6c(F)cc(S(=O)(=O)[O-])cc6F)c6ccc3[nH]6)C=C5)C=C4)cc2)cc1S(=O)(=O)N1C[C@@H](C)[C@H](C)C1
REMARK SMILES IDX 9 1 8 2 7 3 5 4 6 5 4 7 1 8 2 9 3 10 81 11 80 12 82 13 83 14
REMARK SMILES IDX 84 15 85 16 86 17 91 18 87 19 89 20 88 21 90 22 10 23 11 24
REMARK SMILES IDX 12 25 13 27 14 28 15 29 79 30 16 31 78 32 17 33 18 34 19 35
REMARK SMILES IDX 72 36 20 37 77 38 71 39 73 40 21 41 76 42 70 43 69 44 22 46
REMARK SMILES IDX 56 47 35 48 55 49 36 50 39 51 54 52 74 53 37 54 38 55 53 57
REMARK SMILES IDX 75 58 40 59 23 60 24 61 33 62 25 63 26 64 32 65 34 66 27 67
REMARK SMILES IDX 28 68 29 69 30 70 31 71 57 72 58 73 67 74 59 75 60 76 66 77
REMARK SMILES IDX 68 78 61 79 62 80 63 81 64 82 65 83 41 84 42 85 51 86 43 87
REMARK SMILES IDX 44 88 50 89 52 90 45 91 46 92 47 93 48 94 49 95
REMARK H PARENT 7 6 11 26 73 45 39 56
REMARK Flexibility Score: inf
ROOT
ATOM      1  C   UNL A   1      34.606  30.845  27.485  1.00  0.00     0.042 C 
ENDROOT
BRANCH   1   2
ATOM      2  C   UNL A   1      34.619  29.327  27.331  1.00  0.00     0.118 C 
BRANCH   2   3
ATOM      3  N   UNL A   1      33.386  28.749  27.825  1.00  0.00    -0.351 N 
ATOM      4  C   UNL A   1      32.300  28.215  27.182  1.00  0.00     0.261 C 
ATOM      5  O   UNL A   1      31.400  27.818  27.928  1.00  0.00    -0.268 OA
ATOM      6  H   UNL A   1      33.315  28.738  28.808  1.00  0.00     0.163 HD
BRANCH   4   7
ATOM      7  C   UNL A   1      32.256  28.088  25.733  1.00  0.00     0.093 A 
ATOM      8  C   UNL A   1      30.990  29.226  22.207  1.00  0.00     0.058 C 
ATOM      9  C   UNL A   1      31.604  28.524  23.357  1.00  0.00     0.022 A 
ATOM     10  S   UNL A   1      31.414  29.308  24.874  1.00  0.00    -0.134 S 
ATOM     11  C   UNL A   1      32.318  27.348  23.492  1.00  0.00     0.097 A 
ATOM     12  C   UNL A   1      32.775  27.168  24.844  1.00  0.00     0.047 A 
BRANCH  11  13
ATOM     13  S   UNL A   1      32.689  26.109  22.317  1.00  0.00     0.244 S 
ATOM     14  O   UNL A   1      31.433  25.937  21.627  1.00  0.00    -0.207 OA
ATOM     15  O   UNL A   1      33.852  26.663  21.648  1.00  0.00    -0.207 OA
BRANCH  13  16
ATOM     16  N   UNL A   1      33.128  24.651  22.968  1.00  0.00    -0.197 NA
ATOM     17  C   UNL A   1      34.425  24.429  23.599  1.00  0.00     0.106 C 
ATOM     18  C   UNL A   1      32.156  23.606  23.261  1.00  0.00     0.106 C 
ATOM     19  C   UNL A   1      34.265  23.116  24.377  1.00  0.00     0.005 C 
ATOM     20  C   UNL A   1      32.747  22.862  24.459  1.00  0.00     0.005 C 
ATOM     21  C   UNL A   1      34.910  23.199  25.760  1.00  0.00     0.009 C 
ATOM     22  C   UNL A   1      32.391  21.382  24.448  1.00  0.00     0.009 C 
ENDBRANCH  13  16
ENDBRANCH  11  13
ENDBRANCH   4   7
ENDBRANCH   2   3
ENDBRANCH   1   2
BRANCH   1  23
ATOM     23  C   UNL A   1      35.788  31.362  28.302  1.00  0.00     0.118 C 
BRANCH  23  24
ATOM     24  N   UNL A   1      35.674  30.987  29.705  1.00  0.00    -0.352 N 
ATOM     25  C   UNL A   1      36.471  30.176  30.468  1.00  0.00     0.251 C 
ATOM     26  H   UNL A   1      34.905  31.379  30.179  1.00  0.00     0.163 HD
ATOM     27  O   UNL A   1      36.044  29.750  31.538  1.00  0.00    -0.269 OA
BRANCH  25  28
ATOM     28  C   UNL A   1      37.834  29.830  30.017  1.00  0.00     0.039 A 
ATOM     29  C   UNL A   1      38.092  29.750  28.648  1.00  0.00     0.014 A 
ATOM     30  C   UNL A   1      38.836  29.520  30.941  1.00  0.00     0.014 A 
ATOM     31  C   UNL A   1      39.362  29.384  28.206  1.00  0.00     0.010 A 
ATOM     32  C   UNL A   1      40.124  29.241  30.500  1.00  0.00     0.010 A 
ATOM     33  C   UNL A   1      40.394  29.145  29.129  1.00  0.00    -0.014 A 
BRANCH  33  34
ATOM     34  C   UNL A   1      41.753  28.763  28.673  1.00  0.00     0.031 A 
ATOM     35  C   UNL A   1      42.840  29.801  28.589  1.00  0.00     0.074 A 
ATOM     36  C   UNL A   1      41.990  27.492  28.298  1.00  0.00     0.049 A 
ATOM     37  N   UNL A   1      44.076  29.670  28.184  1.00  0.00    -0.248 NA
ATOM     38  C   UNL A   1      42.484  31.175  28.982  1.00  0.00     0.031 C 
ATOM     39  C   UNL A   1      40.997  26.414  28.288  1.00  0.00     0.029 A 
ATOM     40  N   UNL A   1      43.137  26.889  27.849  1.00  0.00    -0.354 N 
ATOM     41  C   UNL A   1      44.639  30.940  28.262  1.00  0.00     0.074 A 
ATOM     42  C   UNL A   1      43.591  31.839  28.692  1.00  0.00     0.031 C 
ATOM     43  C   UNL A   1      41.586  25.277  27.886  1.00  0.00     0.029 A 
ATOM     44  C   UNL A   1      42.984  25.551  27.572  1.00  0.00     0.049 A 
ATOM     45  H   UNL A   1      43.989  27.369  27.737  1.00  0.00     0.167 HD
ATOM     46  C   UNL A   1      45.918  31.314  28.024  1.00  0.00     0.037 A 
ATOM     47  C   UNL A   1      43.872  24.649  27.114  1.00  0.00     0.037 A 
ATOM     48  C   UNL A   1      46.956  30.403  27.618  1.00  0.00     0.049 A 
ATOM     49  C   UNL A   1      45.289  25.088  26.863  1.00  0.00     0.074 A 
ATOM     50  C   UNL A   1      48.297  30.666  27.400  1.00  0.00     0.029 A 
ATOM     51  N   UNL A   1      46.769  29.051  27.368  1.00  0.00    -0.354 N 
ATOM     52  N   UNL A   1      45.820  26.281  27.003  1.00  0.00    -0.248 NA
ATOM     53  C   UNL A   1      46.231  24.059  26.407  1.00  0.00     0.031 C 
ATOM     54  C   UNL A   1      48.909  29.484  26.970  1.00  0.00     0.029 A 
ATOM     55  C   UNL A   1      47.965  28.470  26.980  1.00  0.00     0.049 A 
ATOM     56  H   UNL A   1      45.912  28.574  27.453  1.00  0.00     0.167 HD
ATOM     57  C   UNL A   1      47.166  26.137  26.684  1.00  0.00     0.074 A 
ATOM     58  C   UNL A   1      47.368  24.740  26.357  1.00  0.00     0.031 C 
ATOM     59  C   UNL A   1      48.147  27.074  26.664  1.00  0.00     0.037 A 
BRANCH  46  60
ATOM     60  C   UNL A   1      46.265  32.769  28.199  1.00  0.00     0.058 A 
ATOM     61  C   UNL A   1      46.111  33.698  27.157  1.00  0.00     0.135 A 
ATOM     62  C   UNL A   1      46.728  33.250  29.436  1.00  0.00     0.135 A 
ATOM     63  F   UNL A   1      45.687  33.295  25.948  1.00  0.00    -0.206 F 
ATOM     64  C   UNL A   1      46.432  35.042  27.323  1.00  0.00     0.059 A 
ATOM     65  C   UNL A   1      47.026  34.596  29.634  1.00  0.00     0.059 A 
ATOM     66  F   UNL A   1      46.897  32.409  30.468  1.00  0.00    -0.206 F 
ATOM     67  C   UNL A   1      46.888  35.482  28.567  1.00  0.00     0.060 A 
BRANCH  67  68
ATOM     68  S   UNL A   1      47.291  37.230  28.767  1.00  0.00     0.124 S 
ATOM     69  O   UNL A   1      46.664  37.529  30.051  1.00  0.00    -0.237 OA
ATOM     70  O   UNL A   1      48.750  37.215  28.764  1.00  0.00    -0.237 OA
ATOM     71  O   UNL A   1      46.671  37.858  27.605  1.00  0.00    -0.744 OA
ENDBRANCH  67  68
ENDBRANCH  46  60
BRANCH  47  72
ATOM     72  C   UNL A   1      43.453  23.238  26.893  1.00  0.00     0.058 A 
ATOM     73  C   UNL A   1      43.188  22.385  27.974  1.00  0.00     0.135 A 
ATOM     74  C   UNL A   1      43.293  22.721  25.597  1.00  0.00     0.135 A 
ATOM     75  F   UNL A   1      43.328  22.832  29.231  1.00  0.00    -0.206 F 
ATOM     76  C   UNL A   1      42.802  21.063  27.781  1.00  0.00     0.059 A 
ATOM     77  C   UNL A   1      42.879  21.410  25.380  1.00  0.00     0.059 A 
ATOM     78  F   UNL A   1      43.513  23.501  24.528  1.00  0.00    -0.206 F 
ATOM     79  C   UNL A   1      42.648  20.585  26.480  1.00  0.00     0.060 A 
BRANCH  79  80
ATOM     80  S   UNL A   1      42.108  18.878  26.242  1.00  0.00     0.124 S 
ATOM     81  O   UNL A   1      42.267  18.331  27.585  1.00  0.00    -0.237 OA
ATOM     82  O   UNL A   1      40.734  19.053  25.782  1.00  0.00    -0.237 OA
ATOM     83  O   UNL A   1      43.038  18.368  25.239  1.00  0.00    -0.744 OA
ENDBRANCH  79  80
ENDBRANCH  47  72
BRANCH  59  84
ATOM     84  C   UNL A   1      49.536  26.609  26.321  1.00  0.00     0.058 A 
ATOM     85  C   UNL A   1      50.078  26.768  25.037  1.00  0.00     0.135 A 
ATOM     86  C   UNL A   1      50.347  26.022  27.307  1.00  0.00     0.135 A 
ATOM     87  F   UNL A   1      49.344  27.318  24.057  1.00  0.00    -0.206 F 
ATOM     88  C   UNL A   1      51.361  26.325  24.730  1.00  0.00     0.059 A 
ATOM     89  C   UNL A   1      51.645  25.605  27.031  1.00  0.00     0.059 A 
ATOM     90  F   UNL A   1      49.884  25.861  28.557  1.00  0.00    -0.206 F 
ATOM     91  C   UNL A   1      52.137  25.743  25.735  1.00  0.00     0.060 A 
BRANCH  91  92
ATOM     92  S   UNL A   1      53.802  25.182  25.327  1.00  0.00     0.124 S 
ATOM     93  O   UNL A   1      53.991  25.761  24.001  1.00  0.00    -0.237 OA
ATOM     94  O   UNL A   1      54.602  25.774  26.396  1.00  0.00    -0.237 OA
ATOM     95  O   UNL A   1      53.692  23.728  25.367  1.00  0.00    -0.744 OA
ENDBRANCH  91  92
ENDBRANCH  59  84
ENDBRANCH  33  34
ENDBRANCH  25  28
ENDBRANCH  23  24
ENDBRANCH   1  23
TORSDOF 15
ENDMDL
