MODEL 1
REMARK VINA RESULT:     -12.4      0.000      0.000
REMARK SMILES O=C(NCCCNC(=O)[C@@H]1[C@H](C(=O)Nc2cccc(Cl)c2F)[C@@H]2C=C[C@H]1C2)c1ccc(-c2c3nc(c(-c4c(F)cc(S(=O)(=O)[O-])cc4F)c4ccc([nH]4)c(-c4c(F)cc(S(=O)(=O)[O-])cc4F)c4nc(c(-c5c(F)cc(S(=O)(=O)[O-])cc5F)c5ccc2[nH]5)C=C4)C=C3)cc1
REMARK SMILES IDX 4 1 3 2 1 3 2 4 28 6 29 7 93 8 30 9 92 10 31 11 32 12 33 13
REMARK SMILES IDX 86 14 34 15 91 16 85 17 87 18 35 19 90 20 84 21 83 22 36 24
REMARK SMILES IDX 70 25 49 26 69 27 50 28 53 29 68 30 88 31 51 32 52 33 67 35
REMARK SMILES IDX 89 36 54 37 37 38 38 39 47 40 39 41 40 42 46 43 48 44 41 45
REMARK SMILES IDX 42 46 43 47 44 48 45 49 71 50 72 51 81 52 73 53 74 54 80 55
REMARK SMILES IDX 82 56 75 57 76 58 77 59 78 60 79 61 55 62 56 63 65 64 57 65
REMARK SMILES IDX 58 66 64 67 66 68 59 69 60 70 61 71 62 72 63 73 5 74 6 75
REMARK SMILES IDX 7 76 8 77 9 79 10 80 11 81 26 82 23 83 25 84 27 85 24 86
REMARK SMILES IDX 12 87 13 88 14 89 15 91 16 92 21 93 17 94 19 95 22 96 18 97
REMARK SMILES IDX 20 98
REMARK H PARENT 3 5 87 23 53 34 7 78 14 90
REMARK Flexibility Score: inf
ROOT
ATOM      1  C   UNL A   1      33.457  28.727  27.280  1.00  0.00     0.118 C 
ENDROOT
BRANCH   1   2
ATOM      2  N   UNL A   1      33.545  30.096  27.770  1.00  0.00    -0.352 N 
ATOM      3  O   UNL A   1      34.453  31.944  28.701  1.00  0.00    -0.269 OA
ATOM      4  C   UNL A   1      34.612  30.797  28.292  1.00  0.00     0.251 C 
ATOM      5  H   UNL A   1      32.704  30.606  27.719  1.00  0.00     0.163 HD
BRANCH   4   6
ATOM      6  C   UNL A   1      35.937  30.149  28.419  1.00  0.00     0.039 A 
ATOM      7  C   UNL A   1      36.351  29.595  29.626  1.00  0.00     0.014 A 
ATOM      8  C   UNL A   1      36.804  30.145  27.322  1.00  0.00     0.014 A 
ATOM      9  C   UNL A   1      37.693  29.293  29.816  1.00  0.00     0.010 A 
ATOM     10  C   UNL A   1      38.124  29.705  27.478  1.00  0.00     0.010 A 
ATOM     11  C   UNL A   1      38.605  29.348  28.747  1.00  0.00    -0.014 A 
BRANCH  11  12
ATOM     12  C   UNL A   1      40.041  29.041  29.004  1.00  0.00     0.031 A 
ATOM     13  C   UNL A   1      40.650  27.728  28.569  1.00  0.00     0.074 A 
ATOM     14  C   UNL A   1      40.823  29.988  29.560  1.00  0.00     0.049 A 
ATOM     15  N   UNL A   1      41.894  27.325  28.666  1.00  0.00    -0.248 NA
ATOM     16  C   UNL A   1      39.753  26.735  27.958  1.00  0.00     0.031 C 
ATOM     17  C   UNL A   1      40.355  31.295  30.034  1.00  0.00     0.029 A 
ATOM     18  N   UNL A   1      42.176  30.026  29.782  1.00  0.00    -0.354 N 
ATOM     19  C   UNL A   1      41.917  26.023  28.176  1.00  0.00     0.074 A 
ATOM     20  C   UNL A   1      40.561  25.697  27.791  1.00  0.00     0.031 C 
ATOM     21  C   UNL A   1      41.409  32.034  30.404  1.00  0.00     0.029 A 
ATOM     22  C   UNL A   1      42.620  31.233  30.269  1.00  0.00     0.049 A 
ATOM     23  H   UNL A   1      42.773  29.263  29.609  1.00  0.00     0.167 HD
ATOM     24  C   UNL A   1      42.971  25.179  28.055  1.00  0.00     0.037 A 
ATOM     25  C   UNL A   1      43.860  31.654  30.580  1.00  0.00     0.037 A 
ATOM     26  C   UNL A   1      44.329  25.526  28.390  1.00  0.00     0.049 A 
ATOM     27  C   UNL A   1      45.015  30.713  30.402  1.00  0.00     0.074 A 
ATOM     28  C   UNL A   1      45.471  24.752  28.269  1.00  0.00     0.029 A 
ATOM     29  N   UNL A   1      44.731  26.751  28.901  1.00  0.00    -0.354 N 
ATOM     30  N   UNL A   1      45.012  29.487  29.938  1.00  0.00    -0.248 NA
ATOM     31  C   UNL A   1      46.339  31.209  30.797  1.00  0.00     0.031 C 
ATOM     32  C   UNL A   1      46.559  25.500  28.736  1.00  0.00     0.029 A 
ATOM     33  C   UNL A   1      46.101  26.752  29.110  1.00  0.00     0.049 A 
ATOM     34  H   UNL A   1      44.131  27.509  29.089  1.00  0.00     0.167 HD
ATOM     35  C   UNL A   1      46.336  29.067  29.973  1.00  0.00     0.074 A 
ATOM     36  C   UNL A   1      47.113  30.177  30.485  1.00  0.00     0.031 C 
ATOM     37  C   UNL A   1      46.859  27.867  29.617  1.00  0.00     0.037 A 
BRANCH  24  38
ATOM     38  C   UNL A   1      42.699  23.783  27.558  1.00  0.00     0.058 A 
ATOM     39  C   UNL A   1      42.715  23.460  26.192  1.00  0.00     0.135 A 
ATOM     40  C   UNL A   1      42.452  22.745  28.472  1.00  0.00     0.135 A 
ATOM     41  F   UNL A   1      42.931  24.416  25.274  1.00  0.00    -0.206 F 
ATOM     42  C   UNL A   1      42.468  22.164  25.748  1.00  0.00     0.059 A 
ATOM     43  C   UNL A   1      42.226  21.436  28.051  1.00  0.00     0.059 A 
ATOM     44  F   UNL A   1      42.428  22.995  29.790  1.00  0.00    -0.206 F 
ATOM     45  C   UNL A   1      42.220  21.160  26.685  1.00  0.00     0.060 A 
BRANCH  45  46
ATOM     46  S   UNL A   1      41.893  19.484  26.095  1.00  0.00     0.124 S 
ATOM     47  O   UNL A   1      42.733  19.427  24.903  1.00  0.00    -0.237 OA
ATOM     48  O   UNL A   1      42.333  18.663  27.220  1.00  0.00    -0.237 OA
ATOM     49  O   UNL A   1      40.454  19.484  25.852  1.00  0.00    -0.744 OA
ENDBRANCH  45  46
ENDBRANCH  24  38
BRANCH  25  50
ATOM     50  C   UNL A   1      44.063  33.036  31.087  1.00  0.00     0.058 A 
ATOM     51  C   UNL A   1      44.356  34.091  30.211  1.00  0.00     0.135 A 
ATOM     52  C   UNL A   1      43.927  33.337  32.452  1.00  0.00     0.135 A 
ATOM     53  F   UNL A   1      44.500  33.852  28.899  1.00  0.00    -0.206 F 
ATOM     54  C   UNL A   1      44.514  35.394  30.669  1.00  0.00     0.059 A 
ATOM     55  C   UNL A   1      44.053  34.636  32.930  1.00  0.00     0.059 A 
ATOM     56  F   UNL A   1      43.628  32.365  33.327  1.00  0.00    -0.206 F 
ATOM     57  C   UNL A   1      44.356  35.658  32.031  1.00  0.00     0.060 A 
BRANCH  57  58
ATOM     58  S   UNL A   1      44.495  37.362  32.612  1.00  0.00     0.124 S 
ATOM     59  O   UNL A   1      45.942  37.541  32.645  1.00  0.00    -0.237 OA
ATOM     60  O   UNL A   1      43.784  38.102  31.574  1.00  0.00    -0.237 OA
ATOM     61  O   UNL A   1      43.831  37.325  33.911  1.00  0.00    -0.744 OA
ENDBRANCH  57  58
ENDBRANCH  25  50
BRANCH  37  62
ATOM     62  C   UNL A   1      48.347  27.713  29.739  1.00  0.00     0.058 A 
ATOM     63  C   UNL A   1      48.939  27.169  30.889  1.00  0.00     0.135 A 
ATOM     64  C   UNL A   1      49.189  28.100  28.685  1.00  0.00     0.135 A 
ATOM     65  F   UNL A   1      48.177  26.791  31.928  1.00  0.00    -0.206 F 
ATOM     66  C   UNL A   1      50.319  27.043  31.004  1.00  0.00     0.059 A 
ATOM     67  C   UNL A   1      50.571  27.962  28.769  1.00  0.00     0.059 A 
ATOM     68  F   UNL A   1      48.670  28.617  27.560  1.00  0.00    -0.206 F 
ATOM     69  C   UNL A   1      51.127  27.447  29.939  1.00  0.00     0.060 A 
BRANCH  69  70
ATOM     70  S   UNL A   1      52.918  27.274  30.091  1.00  0.00     0.124 S 
ATOM     71  O   UNL A   1      53.053  26.838  31.477  1.00  0.00    -0.237 OA
ATOM     72  O   UNL A   1      53.225  26.270  29.078  1.00  0.00    -0.237 OA
ATOM     73  O   UNL A   1      53.412  28.617  29.803  1.00  0.00    -0.744 OA
ENDBRANCH  69  70
ENDBRANCH  37  62
ENDBRANCH  11  12
ENDBRANCH   4   6
ENDBRANCH   1   2
BRANCH   1  74
ATOM     74  C   UNL A   1      32.179  27.993  27.676  1.00  0.00     0.042 C 
BRANCH  74  75
ATOM     75  C   UNL A   1      31.400  27.399  26.511  1.00  0.00     0.117 C 
BRANCH  75  76
ATOM     76  N   UNL A   1      31.078  25.998  26.712  1.00  0.00    -0.356 N 
ATOM     77  C   UNL A   1      31.878  24.908  26.677  1.00  0.00     0.224 C 
ATOM     78  H   UNL A   1      30.131  25.812  26.904  1.00  0.00     0.163 HD
ATOM     79  O   UNL A   1      31.466  23.912  27.281  1.00  0.00    -0.275 OA
BRANCH  77  80
ATOM     80  C   UNL A   1      33.093  24.799  25.788  1.00  0.00     0.098 C 
ATOM     81  C   UNL A   1      32.808  24.654  24.263  1.00  0.00     0.099 C 
ATOM     82  C   UNL A   1      34.340  23.905  25.978  1.00  0.00     0.025 C 
ATOM     83  C   UNL A   1      34.011  23.816  23.754  1.00  0.00     0.025 C 
ATOM     84  C   UNL A   1      34.110  22.463  25.601  1.00  0.00    -0.027 C 
ATOM     85  C   UNL A   1      35.119  24.303  24.703  1.00  0.00     0.017 C 
ATOM     86  C   UNL A   1      33.944  22.408  24.271  1.00  0.00    -0.027 C 
BRANCH  81  87
ATOM     87  C   UNL A   1      31.431  24.374  23.644  1.00  0.00     0.228 C 
ATOM     88  O   UNL A   1      31.087  23.180  23.555  1.00  0.00    -0.274 OA
ATOM     89  N   UNL A   1      30.425  25.240  23.362  1.00  0.00    -0.323 N 
ATOM     90  H   UNL A   1      29.564  24.767  23.293  1.00  0.00     0.170 HD
BRANCH  89  91
ATOM     91  C   UNL A   1      30.259  26.617  23.142  1.00  0.00     0.078 A 
ATOM     92  C   UNL A   1      31.416  27.345  22.826  1.00  0.00     0.029 A 
ATOM     93  C   UNL A   1      29.076  27.327  23.311  1.00  0.00     0.165 A 
ATOM     94  C   UNL A   1      31.357  28.723  22.575  1.00  0.00     0.004 A 
ATOM     95  C   UNL A   1      29.007  28.700  23.057  1.00  0.00     0.078 A 
ATOM     96  F   UNL A   1      28.006  26.716  23.810  1.00  0.00    -0.203 F 
ATOM     97  C   UNL A   1      30.145  29.399  22.671  1.00  0.00     0.024 A 
ATOM     98  Cl  UNL A   1      27.521  29.554  23.231  1.00  0.00    -0.081 Cl
ENDBRANCH  89  91
ENDBRANCH  81  87
ENDBRANCH  77  80
ENDBRANCH  75  76
ENDBRANCH  74  75
ENDBRANCH   1  74
TORSDOF 15
ENDMDL
MODEL 2
REMARK VINA RESULT:     -12.4      2.712      8.739
REMARK SMILES O=C(NCCCNC(=O)[C@@H]1[C@H](C(=O)Nc2cccc(Cl)c2F)[C@@H]2C=C[C@H]1C2)c1ccc(-c2c3nc(c(-c4c(F)cc(S(=O)(=O)[O-])cc4F)c4ccc([nH]4)c(-c4c(F)cc(S(=O)(=O)[O-])cc4F)c4nc(c(-c5c(F)cc(S(=O)(=O)[O-])cc5F)c5ccc2[nH]5)C=C4)C=C3)cc1
REMARK SMILES IDX 4 1 3 2 1 3 2 4 28 6 29 7 93 8 30 9 92 10 31 11 32 12 33 13
REMARK SMILES IDX 86 14 34 15 91 16 85 17 87 18 35 19 90 20 84 21 83 22 36 24
REMARK SMILES IDX 70 25 49 26 69 27 50 28 53 29 68 30 88 31 51 32 52 33 67 35
REMARK SMILES IDX 89 36 54 37 37 38 38 39 47 40 39 41 40 42 46 43 48 44 41 45
REMARK SMILES IDX 42 46 43 47 44 48 45 49 71 50 72 51 81 52 73 53 74 54 80 55
REMARK SMILES IDX 82 56 75 57 76 58 77 59 78 60 79 61 55 62 56 63 65 64 57 65
REMARK SMILES IDX 58 66 64 67 66 68 59 69 60 70 61 71 62 72 63 73 5 74 6 75
REMARK SMILES IDX 7 76 8 77 9 79 10 80 11 81 26 82 23 83 25 84 27 85 24 86
REMARK SMILES IDX 12 87 13 88 14 89 15 91 16 92 21 93 17 94 19 95 22 96 18 97
REMARK SMILES IDX 20 98
REMARK H PARENT 3 5 87 23 53 34 7 78 14 90
REMARK Flexibility Score: inf
ROOT
ATOM      1  C   UNL A   1      35.398  30.098  27.620  1.00  0.00     0.118 C 
ENDROOT
BRANCH   1   2
ATOM      2  N   UNL A   1      35.327  29.909  29.063  1.00  0.00    -0.352 N 
ATOM      3  O   UNL A   1      36.042  29.543  31.175  1.00  0.00    -0.269 OA
ATOM      4  C   UNL A   1      36.328  29.744  29.997  1.00  0.00     0.251 C 
ATOM      5  H   UNL A   1      34.414  29.900  29.433  1.00  0.00     0.163 HD
BRANCH   4   6
ATOM      6  C   UNL A   1      37.747  29.744  29.576  1.00  0.00     0.039 A 
ATOM      7  C   UNL A   1      38.098  29.879  28.237  1.00  0.00     0.014 A 
ATOM      8  C   UNL A   1      38.745  29.552  30.536  1.00  0.00     0.014 A 
ATOM      9  C   UNL A   1      39.385  29.555  27.829  1.00  0.00     0.010 A 
ATOM     10  C   UNL A   1      40.074  29.365  30.133  1.00  0.00     0.010 A 
ATOM     11  C   UNL A   1      40.395  29.285  28.770  1.00  0.00    -0.014 A 
BRANCH  11  12
ATOM     12  C   UNL A   1      41.755  28.916  28.286  1.00  0.00     0.031 A 
ATOM     13  C   UNL A   1      42.895  29.907  28.324  1.00  0.00     0.074 A 
ATOM     14  C   UNL A   1      41.985  27.649  27.886  1.00  0.00     0.049 A 
ATOM     15  N   UNL A   1      44.151  29.730  27.993  1.00  0.00    -0.248 NA
ATOM     16  C   UNL A   1      42.590  31.272  28.779  1.00  0.00     0.031 C 
ATOM     17  C   UNL A   1      40.966  26.597  27.794  1.00  0.00     0.029 A 
ATOM     18  N   UNL A   1      43.145  27.011  27.528  1.00  0.00    -0.354 N 
ATOM     19  C   UNL A   1      44.770  30.966  28.152  1.00  0.00     0.074 A 
ATOM     20  C   UNL A   1      43.750  31.890  28.600  1.00  0.00     0.031 C 
ATOM     21  C   UNL A   1      41.558  25.434  27.494  1.00  0.00     0.029 A 
ATOM     22  C   UNL A   1      42.984  25.665  27.295  1.00  0.00     0.049 A 
ATOM     23  H   UNL A   1      44.011  27.472  27.445  1.00  0.00     0.167 HD
ATOM     24  C   UNL A   1      46.068  31.299  27.949  1.00  0.00     0.037 A 
ATOM     25  C   UNL A   1      43.878  24.718  26.955  1.00  0.00     0.037 A 
ATOM     26  C   UNL A   1      47.092  30.365  27.554  1.00  0.00     0.049 A 
ATOM     27  C   UNL A   1      45.316  25.105  26.772  1.00  0.00     0.074 A 
ATOM     28  C   UNL A   1      48.443  30.598  27.356  1.00  0.00     0.029 A 
ATOM     29  N   UNL A   1      46.882  29.016  27.307  1.00  0.00    -0.354 N 
ATOM     30  N   UNL A   1      45.877  26.280  26.927  1.00  0.00    -0.248 NA
ATOM     31  C   UNL A   1      46.240  24.042  26.358  1.00  0.00     0.031 C 
ATOM     32  C   UNL A   1      49.042  29.397  26.960  1.00  0.00     0.029 A 
ATOM     33  C   UNL A   1      48.074  28.407  26.950  1.00  0.00     0.049 A 
ATOM     34  H   UNL A   1      46.012  28.558  27.375  1.00  0.00     0.167 HD
ATOM     35  C   UNL A   1      47.224  26.096  26.643  1.00  0.00     0.074 A 
ATOM     36  C   UNL A   1      47.396  24.693  26.325  1.00  0.00     0.031 C 
ATOM     37  C   UNL A   1      48.227  27.008  26.641  1.00  0.00     0.037 A 
BRANCH  24  38
ATOM     38  C   UNL A   1      46.458  32.743  28.126  1.00  0.00     0.058 A 
ATOM     39  C   UNL A   1      46.349  33.679  27.085  1.00  0.00     0.135 A 
ATOM     40  C   UNL A   1      46.918  33.203  29.371  1.00  0.00     0.135 A 
ATOM     41  F   UNL A   1      45.929  33.293  25.870  1.00  0.00    -0.206 F 
ATOM     42  C   UNL A   1      46.707  35.013  27.265  1.00  0.00     0.059 A 
ATOM     43  C   UNL A   1      47.260  34.536  29.580  1.00  0.00     0.059 A 
ATOM     44  F   UNL A   1      47.040  32.352  30.402  1.00  0.00    -0.206 F 
ATOM     45  C   UNL A   1      47.167  35.431  28.515  1.00  0.00     0.060 A 
BRANCH  45  46
ATOM     46  S   UNL A   1      47.637  37.161  28.733  1.00  0.00     0.124 S 
ATOM     47  O   UNL A   1      47.945  37.200  30.160  1.00  0.00    -0.237 OA
ATOM     48  O   UNL A   1      48.780  37.292  27.835  1.00  0.00    -0.237 OA
ATOM     49  O   UNL A   1      46.440  37.892  28.329  1.00  0.00    -0.744 OA
ENDBRANCH  45  46
ENDBRANCH  24  38
BRANCH  25  50
ATOM     50  C   UNL A   1      43.429  23.314  26.772  1.00  0.00     0.058 A 
ATOM     51  C   UNL A   1      43.314  22.753  25.491  1.00  0.00     0.135 A 
ATOM     52  C   UNL A   1      43.145  22.492  27.874  1.00  0.00     0.135 A 
ATOM     53  F   UNL A   1      43.570  23.500  24.407  1.00  0.00    -0.206 F 
ATOM     54  C   UNL A   1      42.928  21.430  25.309  1.00  0.00     0.059 A 
ATOM     55  C   UNL A   1      42.784  21.159  27.718  1.00  0.00     0.059 A 
ATOM     56  F   UNL A   1      43.259  22.977  29.120  1.00  0.00    -0.206 F 
ATOM     57  C   UNL A   1      42.670  20.638  26.430  1.00  0.00     0.060 A 
BRANCH  57  58
ATOM     58  S   UNL A   1      42.235  18.902  26.190  1.00  0.00     0.124 S 
ATOM     59  O   UNL A   1      43.180  18.505  25.154  1.00  0.00    -0.237 OA
ATOM     60  O   UNL A   1      42.466  18.339  27.517  1.00  0.00    -0.237 OA
ATOM     61  O   UNL A   1      40.835  18.964  25.781  1.00  0.00    -0.744 OA
ENDBRANCH  57  58
ENDBRANCH  25  50
BRANCH  37  62
ATOM     62  C   UNL A   1      49.604  26.503  26.317  1.00  0.00     0.058 A 
ATOM     63  C   UNL A   1      50.149  26.623  25.030  1.00  0.00     0.135 A 
ATOM     64  C   UNL A   1      50.392  25.905  27.313  1.00  0.00     0.135 A 
ATOM     65  F   UNL A   1      49.431  27.181  24.042  1.00  0.00    -0.206 F 
ATOM     66  C   UNL A   1      51.417  26.139  24.731  1.00  0.00     0.059 A 
ATOM     67  C   UNL A   1      51.673  25.435  27.043  1.00  0.00     0.059 A 
ATOM     68  F   UNL A   1      49.919  25.776  28.563  1.00  0.00    -0.206 F 
ATOM     69  C   UNL A   1      52.170  25.542  25.745  1.00  0.00     0.060 A 
BRANCH  69  70
ATOM     70  S   UNL A   1      53.820  24.922  25.352  1.00  0.00     0.124 S 
ATOM     71  O   UNL A   1      53.559  23.501  25.152  1.00  0.00    -0.237 OA
ATOM     72  O   UNL A   1      54.164  25.678  24.152  1.00  0.00    -0.237 OA
ATOM     73  O   UNL A   1      54.598  25.258  26.541  1.00  0.00    -0.744 OA
ENDBRANCH  69  70
ENDBRANCH  37  62
ENDBRANCH  11  12
ENDBRANCH   4   6
ENDBRANCH   1   2
BRANCH   1  74
ATOM     74  C   UNL A   1      34.415  29.246  26.820  1.00  0.00     0.042 C 
BRANCH  74  75
ATOM     75  C   UNL A   1      33.104  29.940  26.479  1.00  0.00     0.117 C 
BRANCH  75  76
ATOM     76  N   UNL A   1      31.979  29.025  26.456  1.00  0.00    -0.356 N 
ATOM     77  C   UNL A   1      31.767  27.925  25.697  1.00  0.00     0.224 C 
ATOM     78  H   UNL A   1      31.257  29.237  27.090  1.00  0.00     0.163 HD
ATOM     79  O   UNL A   1      30.963  27.102  26.147  1.00  0.00    -0.275 OA
BRANCH  77  80
ATOM     80  C   UNL A   1      32.287  27.776  24.288  1.00  0.00     0.098 C 
ATOM     81  C   UNL A   1      31.212  27.797  23.162  1.00  0.00     0.099 C 
ATOM     82  C   UNL A   1      33.310  26.749  23.750  1.00  0.00     0.025 C 
ATOM     83  C   UNL A   1      31.829  26.893  22.062  1.00  0.00     0.025 C 
ATOM     84  C   UNL A   1      32.726  25.377  23.528  1.00  0.00    -0.027 C 
ATOM     85  C   UNL A   1      33.326  27.181  22.265  1.00  0.00     0.017 C 
ATOM     86  C   UNL A   1      31.866  25.458  22.502  1.00  0.00    -0.027 C 
BRANCH  81  87
ATOM     87  C   UNL A   1      29.695  27.711  23.386  1.00  0.00     0.228 C 
ATOM     88  O   UNL A   1      29.258  26.654  23.879  1.00  0.00    -0.274 OA
ATOM     89  N   UNL A   1      28.761  28.694  23.324  1.00  0.00    -0.323 N 
ATOM     90  H   UNL A   1      27.953  28.443  23.826  1.00  0.00     0.170 HD
BRANCH  89  91
ATOM     91  C   UNL A   1      28.619  29.968  22.750  1.00  0.00     0.078 A 
ATOM     92  C   UNL A   1      28.083  30.017  21.454  1.00  0.00     0.029 A 
ATOM     93  C   UNL A   1      29.055  31.163  23.312  1.00  0.00     0.165 A 
ATOM     94  C   UNL A   1      27.888  31.239  20.798  1.00  0.00     0.004 A 
ATOM     95  C   UNL A   1      28.859  32.388  22.667  1.00  0.00     0.078 A 
ATOM     96  F   UNL A   1      29.754  31.142  24.444  1.00  0.00    -0.203 F 
ATOM     97  C   UNL A   1      28.259  32.430  21.414  1.00  0.00     0.024 A 
ATOM     98  Cl  UNL A   1      29.369  33.861  23.400  1.00  0.00    -0.081 Cl
ENDBRANCH  89  91
ENDBRANCH  81  87
ENDBRANCH  77  80
ENDBRANCH  75  76
ENDBRANCH  74  75
ENDBRANCH   1  74
TORSDOF 15
ENDMDL
MODEL 3
REMARK VINA RESULT:     -12.3      4.945      9.885
REMARK SMILES O=C(NCCCNC(=O)[C@@H]1[C@H](C(=O)Nc2cccc(Cl)c2F)[C@@H]2C=C[C@H]1C2)c1ccc(-c2c3nc(c(-c4c(F)cc(S(=O)(=O)[O-])cc4F)c4ccc([nH]4)c(-c4c(F)cc(S(=O)(=O)[O-])cc4F)c4nc(c(-c5c(F)cc(S(=O)(=O)[O-])cc5F)c5ccc2[nH]5)C=C4)C=C3)cc1
REMARK SMILES IDX 4 1 3 2 1 3 2 4 28 6 29 7 93 8 30 9 92 10 31 11 32 12 33 13
REMARK SMILES IDX 86 14 34 15 91 16 85 17 87 18 35 19 90 20 84 21 83 22 36 24
REMARK SMILES IDX 70 25 49 26 69 27 50 28 53 29 68 30 88 31 51 32 52 33 67 35
REMARK SMILES IDX 89 36 54 37 37 38 38 39 47 40 39 41 40 42 46 43 48 44 41 45
REMARK SMILES IDX 42 46 43 47 44 48 45 49 71 50 72 51 81 52 73 53 74 54 80 55
REMARK SMILES IDX 82 56 75 57 76 58 77 59 78 60 79 61 55 62 56 63 65 64 57 65
REMARK SMILES IDX 58 66 64 67 66 68 59 69 60 70 61 71 62 72 63 73 5 74 6 75
REMARK SMILES IDX 7 76 8 77 9 79 10 80 11 81 26 82 23 83 25 84 27 85 24 86
REMARK SMILES IDX 12 87 13 88 14 89 15 91 16 92 21 93 17 94 19 95 22 96 18 97
REMARK SMILES IDX 20 98
REMARK H PARENT 3 5 87 23 53 34 7 78 14 90
REMARK Flexibility Score: inf
ROOT
ATOM      1  C   UNL A   1      33.128  32.325  27.522  1.00  0.00     0.118 C 
ENDROOT
BRANCH   1   2
ATOM      2  N   UNL A   1      32.705  33.703  27.738  1.00  0.00    -0.352 N 
ATOM      3  O   UNL A   1      32.659  35.772  28.643  1.00  0.00    -0.269 OA
ATOM      4  C   UNL A   1      33.208  34.675  28.577  1.00  0.00     0.251 C 
ATOM      5  H   UNL A   1      31.935  33.987  27.194  1.00  0.00     0.163 HD
BRANCH   4   6
ATOM      6  C   UNL A   1      34.369  34.382  29.445  1.00  0.00     0.039 A 
ATOM      7  C   UNL A   1      35.670  34.571  28.991  1.00  0.00     0.014 A 
ATOM      8  C   UNL A   1      34.153  33.855  30.722  1.00  0.00     0.014 A 
ATOM      9  C   UNL A   1      36.728  33.994  29.681  1.00  0.00     0.010 A 
ATOM     10  C   UNL A   1      35.238  33.401  31.482  1.00  0.00     0.010 A 
ATOM     11  C   UNL A   1      36.531  33.393  30.936  1.00  0.00    -0.014 A 
BRANCH  11  12
ATOM     12  C   UNL A   1      37.691  32.763  31.629  1.00  0.00     0.031 A 
ATOM     13  C   UNL A   1      38.121  33.216  33.004  1.00  0.00     0.074 A 
ATOM     14  C   UNL A   1      38.309  31.716  31.046  1.00  0.00     0.049 A 
ATOM     15  N   UNL A   1      39.073  32.738  33.767  1.00  0.00    -0.248 NA
ATOM     16  C   UNL A   1      37.404  34.356  33.596  1.00  0.00     0.031 C 
ATOM     17  C   UNL A   1      37.996  31.187  29.714  1.00  0.00     0.029 A 
ATOM     18  N   UNL A   1      39.294  30.879  31.506  1.00  0.00    -0.354 N 
ATOM     19  C   UNL A   1      39.100  33.545  34.901  1.00  0.00     0.074 A 
ATOM     20  C   UNL A   1      38.076  34.552  34.723  1.00  0.00     0.031 C 
ATOM     21  C   UNL A   1      38.704  30.069  29.505  1.00  0.00     0.029 A 
ATOM     22  C   UNL A   1      39.580  29.843  30.649  1.00  0.00     0.049 A 
ATOM     23  H   UNL A   1      39.753  31.008  32.368  1.00  0.00     0.167 HD
ATOM     24  C   UNL A   1      39.901  33.453  35.991  1.00  0.00     0.037 A 
ATOM     25  C   UNL A   1      40.451  28.823  30.761  1.00  0.00     0.037 A 
ATOM     26  C   UNL A   1      40.884  32.418  36.189  1.00  0.00     0.049 A 
ATOM     27  C   UNL A   1      41.300  28.722  31.994  1.00  0.00     0.074 A 
ATOM     28  C   UNL A   1      41.720  32.218  37.275  1.00  0.00     0.029 A 
ATOM     29  N   UNL A   1      41.157  31.401  35.286  1.00  0.00    -0.354 N 
ATOM     30  N   UNL A   1      41.308  29.497  33.052  1.00  0.00    -0.248 NA
ATOM     31  C   UNL A   1      42.264  27.616  32.046  1.00  0.00     0.031 C 
ATOM     32  C   UNL A   1      42.518  31.099  37.015  1.00  0.00     0.029 A 
ATOM     33  C   UNL A   1      42.153  30.577  35.785  1.00  0.00     0.049 A 
ATOM     34  H   UNL A   1      40.708  31.281  34.417  1.00  0.00     0.167 HD
ATOM     35  C   UNL A   1      42.269  28.964  33.903  1.00  0.00     0.074 A 
ATOM     36  C   UNL A   1      42.806  27.791  33.244  1.00  0.00     0.031 C 
ATOM     37  C   UNL A   1      42.672  29.411  35.118  1.00  0.00     0.037 A 
BRANCH  24  38
ATOM     38  C   UNL A   1      39.769  34.514  37.051  1.00  0.00     0.058 A 
ATOM     39  C   UNL A   1      40.463  35.733  36.979  1.00  0.00     0.135 A 
ATOM     40  C   UNL A   1      38.904  34.320  38.141  1.00  0.00     0.135 A 
ATOM     41  F   UNL A   1      41.314  35.967  35.968  1.00  0.00    -0.206 F 
ATOM     42  C   UNL A   1      40.326  36.708  37.964  1.00  0.00     0.059 A 
ATOM     43  C   UNL A   1      38.733  35.291  39.125  1.00  0.00     0.059 A 
ATOM     44  F   UNL A   1      38.212  33.176  38.259  1.00  0.00    -0.206 F 
ATOM     45  C   UNL A   1      39.462  36.476  39.035  1.00  0.00     0.060 A 
BRANCH  45  46
ATOM     46  S   UNL A   1      39.299  37.745  40.310  1.00  0.00     0.124 S 
ATOM     47  O   UNL A   1      40.571  38.448  40.183  1.00  0.00    -0.237 OA
ATOM     48  O   UNL A   1      38.120  38.485  39.869  1.00  0.00    -0.237 OA
ATOM     49  O   UNL A   1      39.127  36.974  41.537  1.00  0.00    -0.744 OA
ENDBRANCH  45  46
ENDBRANCH  24  38
BRANCH  25  50
ATOM     50  C   UNL A   1      40.553  27.818  29.671  1.00  0.00     0.058 A 
ATOM     51  C   UNL A   1      39.627  26.770  29.566  1.00  0.00     0.135 A 
ATOM     52  C   UNL A   1      41.553  27.909  28.690  1.00  0.00     0.135 A 
ATOM     53  F   UNL A   1      38.657  26.639  30.483  1.00  0.00    -0.206 F 
ATOM     54  C   UNL A   1      39.691  25.844  28.531  1.00  0.00     0.059 A 
ATOM     55  C   UNL A   1      41.621  27.012  27.630  1.00  0.00     0.059 A 
ATOM     56  F   UNL A   1      42.451  28.905  28.736  1.00  0.00    -0.206 F 
ATOM     57  C   UNL A   1      40.690  25.976  27.564  1.00  0.00     0.060 A 
BRANCH  57  58
ATOM     58  S   UNL A   1      40.729  24.811  26.185  1.00  0.00     0.124 S 
ATOM     59  O   UNL A   1      39.319  24.463  26.058  1.00  0.00    -0.237 OA
ATOM     60  O   UNL A   1      41.286  25.624  25.109  1.00  0.00    -0.237 OA
ATOM     61  O   UNL A   1      41.603  23.748  26.673  1.00  0.00    -0.744 OA
ENDBRANCH  57  58
ENDBRANCH  25  50
BRANCH  37  62
ATOM     62  C   UNL A   1      43.723  28.602  35.824  1.00  0.00     0.058 A 
ATOM     63  C   UNL A   1      45.089  28.888  35.685  1.00  0.00     0.135 A 
ATOM     64  C   UNL A   1      43.354  27.538  36.661  1.00  0.00     0.135 A 
ATOM     65  F   UNL A   1      45.492  29.891  34.888  1.00  0.00    -0.206 F 
ATOM     66  C   UNL A   1      46.058  28.126  36.327  1.00  0.00     0.059 A 
ATOM     67  C   UNL A   1      44.305  26.776  37.332  1.00  0.00     0.059 A 
ATOM     68  F   UNL A   1      42.058  27.231  36.834  1.00  0.00    -0.206 F 
ATOM     69  C   UNL A   1      45.656  27.068  37.146  1.00  0.00     0.060 A 
BRANCH  69  70
ATOM     70  S   UNL A   1      46.919  26.087  37.984  1.00  0.00     0.124 S 
ATOM     71  O   UNL A   1      46.541  24.732  37.597  1.00  0.00    -0.237 OA
ATOM     72  O   UNL A   1      48.154  26.594  37.394  1.00  0.00    -0.237 OA
ATOM     73  O   UNL A   1      46.723  26.418  39.392  1.00  0.00    -0.744 OA
ENDBRANCH  69  70
ENDBRANCH  37  62
ENDBRANCH  11  12
ENDBRANCH   4   6
ENDBRANCH   1   2
BRANCH   1  74
ATOM     74  C   UNL A   1      32.067  31.428  26.889  1.00  0.00     0.042 C 
BRANCH  74  75
ATOM     75  C   UNL A   1      32.614  30.181  26.208  1.00  0.00     0.117 C 
BRANCH  75  76
ATOM     76  N   UNL A   1      31.721  29.044  26.329  1.00  0.00    -0.356 N 
ATOM     77  C   UNL A   1      31.730  27.857  25.679  1.00  0.00     0.224 C 
ATOM     78  H   UNL A   1      30.996  29.152  26.986  1.00  0.00     0.163 HD
ATOM     79  O   UNL A   1      31.148  26.925  26.243  1.00  0.00    -0.275 OA
BRANCH  77  80
ATOM     80  C   UNL A   1      32.213  27.693  24.258  1.00  0.00     0.098 C 
ATOM     81  C   UNL A   1      31.114  27.759  23.156  1.00  0.00     0.099 C 
ATOM     82  C   UNL A   1      33.184  26.630  23.696  1.00  0.00     0.025 C 
ATOM     83  C   UNL A   1      31.672  26.836  22.041  1.00  0.00     0.025 C 
ATOM     84  C   UNL A   1      32.542  25.282  23.484  1.00  0.00    -0.027 C 
ATOM     85  C   UNL A   1      33.184  27.066  22.212  1.00  0.00     0.017 C 
ATOM     86  C   UNL A   1      31.664  25.399  22.477  1.00  0.00    -0.027 C 
BRANCH  81  87
ATOM     87  C   UNL A   1      29.601  27.731  23.413  1.00  0.00     0.228 C 
ATOM     88  O   UNL A   1      29.137  26.697  23.931  1.00  0.00    -0.274 OA
ATOM     89  N   UNL A   1      28.701  28.746  23.357  1.00  0.00    -0.323 N 
ATOM     90  H   UNL A   1      27.896  28.531  23.879  1.00  0.00     0.170 HD
BRANCH  89  91
ATOM     91  C   UNL A   1      28.592  30.016  22.768  1.00  0.00     0.078 A 
ATOM     92  C   UNL A   1      28.101  30.059  21.454  1.00  0.00     0.029 A 
ATOM     93  C   UNL A   1      29.022  31.211  23.334  1.00  0.00     0.165 A 
ATOM     94  C   UNL A   1      27.942  31.277  20.781  1.00  0.00     0.004 A 
ATOM     95  C   UNL A   1      28.860  32.432  22.673  1.00  0.00     0.078 A 
ATOM     96  F   UNL A   1      29.682  31.193  24.489  1.00  0.00    -0.203 F 
ATOM     97  C   UNL A   1      28.303  32.470  21.400  1.00  0.00     0.024 A 
ATOM     98  Cl  UNL A   1      29.361  33.906  23.410  1.00  0.00    -0.081 Cl
ENDBRANCH  89  91
ENDBRANCH  81  87
ENDBRANCH  77  80
ENDBRANCH  75  76
ENDBRANCH  74  75
ENDBRANCH   1  74
TORSDOF 15
ENDMDL
