MODEL 1
REMARK VINA RESULT:     -10.2      0.000      0.000
REMARK SMILES CC[N@@H+](C[C@@H](C)C(=O)NCCCNC(=O)c1ccc(-c2c3nc(c(-c4c(F)cc(S(=O)(=O)[O-])cc4F)c4ccc([nH]4)c(-c4c(F)cc(S(=O)(=O)[O-])cc4F)c4nc(c(-c5c(F)cc(S(=O)(=O)[O-])cc5F)c5ccc2[nH]5)C=C4)C=C3)cc1)[C@@H](C)c1ccoc1
REMARK SMILES IDX 10 1 9 2 7 3 8 4 5 6 6 7 4 8 3 9 2 11 1 12 82 13 83 14 84 15
REMARK SMILES IDX 85 16 88 17 86 18 87 19 11 20 12 21 13 22 14 23 15 25 16 26
REMARK SMILES IDX 17 27 81 28 18 29 80 30 19 31 20 32 21 33 74 34 22 35 79 36
REMARK SMILES IDX 73 37 75 38 23 39 78 40 72 41 71 42 24 44 58 45 37 46 57 47
REMARK SMILES IDX 38 48 41 49 56 50 76 51 39 52 40 53 55 55 77 56 42 57 25 58
REMARK SMILES IDX 26 59 35 60 27 61 28 62 34 63 36 64 29 65 30 66 31 67 32 68
REMARK SMILES IDX 33 69 59 70 60 71 69 72 61 73 62 74 68 75 70 76 63 77 64 78
REMARK SMILES IDX 65 79 66 80 67 81 43 82 44 83 53 84 45 85 46 86 52 87 54 88
REMARK SMILES IDX 47 89 48 90 49 91 50 92 51 93
REMARK H PARENT 9 5 3 10 13 24 75 43 41 54
REMARK Flexibility Score: inf
ROOT
ATOM      1  C   UNL A   1      32.037  28.033  25.229  1.00  0.00     0.117 C 
ENDROOT
BRANCH   1   2
ATOM      2  N   UNL A   1      31.341  26.917  24.610  1.00  0.00    -0.356 N 
ATOM      3  C   UNL A   1      31.819  25.906  23.834  1.00  0.00     0.228 C 
ATOM      4  O   UNL A   1      31.030  25.041  23.451  1.00  0.00    -0.275 OA
ATOM      5  H   UNL A   1      30.371  26.886  24.778  1.00  0.00     0.163 HD
BRANCH   3   6
ATOM      6  C   UNL A   1      33.299  25.827  23.479  1.00  0.00     0.130 C 
ATOM      7  C   UNL A   1      33.541  26.657  22.208  1.00  0.00     0.024 C 
BRANCH   6   8
ATOM      8  C   UNL A   1      33.778  24.350  23.502  1.00  0.00     0.275 C 
BRANCH   8   9
ATOM      9  N   UNL A   1      34.438  23.806  24.713  1.00  0.00    -0.328 N 
ATOM     10  H   UNL A   1      34.299  24.472  25.472  1.00  0.00     0.348 HD
BRANCH   9  11
ATOM     11  C   UNL A   1      35.898  23.769  24.576  1.00  0.00     0.259 C 
ATOM     12  C   UNL A   1      36.416  23.046  23.336  1.00  0.00     0.071 C 
ENDBRANCH   9  11
BRANCH   9  13
ATOM     13  C   UNL A   1      33.767  22.623  25.280  1.00  0.00     0.215 C 
ATOM     14  C   UNL A   1      34.657  21.773  26.204  1.00  0.00     0.081 C 
BRANCH  13  15
ATOM     15  C   UNL A   1      32.466  23.006  25.951  1.00  0.00     0.047 A 
ATOM     16  C   UNL A   1      31.192  22.379  25.780  1.00  0.00     0.052 A 
ATOM     17  C   UNL A   1      32.223  24.054  26.820  1.00  0.00     0.204 A 
ATOM     18  C   UNL A   1      30.307  23.041  26.594  1.00  0.00     0.195 A 
ATOM     19  O   UNL A   1      30.928  24.065  27.227  1.00  0.00    -0.472 OA
ENDBRANCH  13  15
ENDBRANCH   9  13
ENDBRANCH   8   9
ENDBRANCH   6   8
ENDBRANCH   3   6
ENDBRANCH   1   2
BRANCH   1  20
ATOM     20  C   UNL A   1      32.276  27.791  26.707  1.00  0.00     0.042 C 
BRANCH  20  21
ATOM     21  C   UNL A   1      33.614  28.341  27.173  1.00  0.00     0.118 C 
BRANCH  21  22
ATOM     22  N   UNL A   1      33.550  29.770  27.464  1.00  0.00    -0.352 N 
ATOM     23  C   UNL A   1      34.493  30.576  28.056  1.00  0.00     0.251 C 
ATOM     24  H   UNL A   1      32.715  30.221  27.199  1.00  0.00     0.163 HD
ATOM     25  O   UNL A   1      34.203  31.705  28.425  1.00  0.00    -0.269 OA
BRANCH  23  26
ATOM     26  C   UNL A   1      35.853  30.039  28.253  1.00  0.00     0.039 A 
ATOM     27  C   UNL A   1      36.791  30.147  27.225  1.00  0.00     0.014 A 
ATOM     28  C   UNL A   1      36.203  29.480  29.485  1.00  0.00     0.014 A 
ATOM     29  C   UNL A   1      38.109  29.758  27.463  1.00  0.00     0.010 A 
ATOM     30  C   UNL A   1      37.531  29.192  29.750  1.00  0.00     0.010 A 
ATOM     31  C   UNL A   1      38.497  29.316  28.740  1.00  0.00    -0.014 A 
BRANCH  31  32
ATOM     32  C   UNL A   1      39.898  28.945  29.051  1.00  0.00     0.031 A 
ATOM     33  C   UNL A   1      40.816  29.978  29.647  1.00  0.00     0.074 A 
ATOM     34  C   UNL A   1      40.362  27.727  28.713  1.00  0.00     0.049 A 
ATOM     35  N   UNL A   1      42.104  29.914  29.860  1.00  0.00    -0.248 NA
ATOM     36  C   UNL A   1      40.210  31.271  30.011  1.00  0.00     0.031 C 
ATOM     37  C   UNL A   1      39.577  26.662  28.083  1.00  0.00     0.029 A 
ATOM     38  N   UNL A   1      41.616  27.183  28.835  1.00  0.00    -0.354 N 
ATOM     39  C   UNL A   1      42.464  31.161  30.356  1.00  0.00     0.074 A 
ATOM     40  C   UNL A   1      41.273  31.981  30.356  1.00  0.00     0.031 C 
ATOM     41  C   UNL A   1      40.361  25.587  27.896  1.00  0.00     0.029 A 
ATOM     42  C   UNL A   1      41.712  25.900  28.349  1.00  0.00     0.049 A 
ATOM     43  H   UNL A   1      42.375  27.666  29.234  1.00  0.00     0.167 HD
ATOM     44  C   UNL A   1      43.672  31.576  30.802  1.00  0.00     0.037 A 
ATOM     45  C   UNL A   1      42.775  25.076  28.268  1.00  0.00     0.037 A 
ATOM     46  C   UNL A   1      44.840  30.737  30.837  1.00  0.00     0.049 A 
ATOM     47  C   UNL A   1      44.107  25.556  28.779  1.00  0.00     0.074 A 
ATOM     48  C   UNL A   1      46.100  31.037  31.322  1.00  0.00     0.029 A 
ATOM     49  N   UNL A   1      44.887  29.430  30.374  1.00  0.00    -0.354 N 
ATOM     50  N   UNL A   1      44.420  26.720  29.296  1.00  0.00    -0.248 NA
ATOM     51  C   UNL A   1      45.229  24.611  28.700  1.00  0.00     0.031 C 
ATOM     52  C   UNL A   1      46.919  29.922  31.121  1.00  0.00     0.029 A 
ATOM     53  C   UNL A   1      46.157  28.912  30.552  1.00  0.00     0.049 A 
ATOM     54  H   UNL A   1      44.128  28.943  29.979  1.00  0.00     0.167 HD
ATOM     55  C   UNL A   1      45.766  26.637  29.634  1.00  0.00     0.074 A 
ATOM     56  C   UNL A   1      46.206  25.307  29.268  1.00  0.00     0.031 C 
ATOM     57  C   UNL A   1      46.566  27.575  30.198  1.00  0.00     0.037 A 
BRANCH  44  58
ATOM     58  C   UNL A   1      43.783  32.991  31.297  1.00  0.00     0.058 A 
ATOM     59  C   UNL A   1      44.197  34.036  30.453  1.00  0.00     0.135 A 
ATOM     60  C   UNL A   1      43.454  33.313  32.624  1.00  0.00     0.135 A 
ATOM     61  F   UNL A   1      44.542  33.781  29.181  1.00  0.00    -0.206 F 
ATOM     62  C   UNL A   1      44.313  35.342  30.915  1.00  0.00     0.059 A 
ATOM     63  C   UNL A   1      43.533  34.620  33.099  1.00  0.00     0.059 A 
ATOM     64  F   UNL A   1      43.056  32.355  33.474  1.00  0.00    -0.206 F 
ATOM     65  C   UNL A   1      43.979  35.624  32.241  1.00  0.00     0.060 A 
BRANCH  65  66
ATOM     66  S   UNL A   1      44.131  37.326  32.823  1.00  0.00     0.124 S 
ATOM     67  O   UNL A   1      43.067  37.388  33.820  1.00  0.00    -0.237 OA
ATOM     68  O   UNL A   1      45.493  37.355  33.348  1.00  0.00    -0.237 OA
ATOM     69  O   UNL A   1      43.909  38.118  31.618  1.00  0.00    -0.744 OA
ENDBRANCH  65  66
ENDBRANCH  44  58
BRANCH  45  70
ATOM     70  C   UNL A   1      42.617  23.708  27.707  1.00  0.00     0.058 A 
ATOM     71  C   UNL A   1      42.451  22.600  28.552  1.00  0.00     0.135 A 
ATOM     72  C   UNL A   1      42.615  23.479  26.323  1.00  0.00     0.135 A 
ATOM     73  F   UNL A   1      42.450  22.768  29.883  1.00  0.00    -0.206 F 
ATOM     74  C   UNL A   1      42.309  21.312  28.047  1.00  0.00     0.059 A 
ATOM     75  C   UNL A   1      42.449  22.203  25.793  1.00  0.00     0.059 A 
ATOM     76  F   UNL A   1      42.749  24.507  25.470  1.00  0.00    -0.206 F 
ATOM     77  C   UNL A   1      42.308  21.124  26.664  1.00  0.00     0.060 A 
BRANCH  77  78
ATOM     78  S   UNL A   1      42.082  19.453  26.019  1.00  0.00     0.124 S 
ATOM     79  O   UNL A   1      42.540  18.640  27.139  1.00  0.00    -0.237 OA
ATOM     80  O   UNL A   1      40.648  19.419  25.750  1.00  0.00    -0.237 OA
ATOM     81  O   UNL A   1      42.934  19.433  24.834  1.00  0.00    -0.744 OA
ENDBRANCH  77  78
ENDBRANCH  45  70
BRANCH  57  82
ATOM     82  C   UNL A   1      47.986  27.188  30.498  1.00  0.00     0.058 A 
ATOM     83  C   UNL A   1      49.004  27.320  29.543  1.00  0.00     0.135 A 
ATOM     84  C   UNL A   1      48.342  26.753  31.785  1.00  0.00     0.135 A 
ATOM     85  F   UNL A   1      48.714  27.725  28.296  1.00  0.00    -0.206 F 
ATOM     86  C   UNL A   1      50.328  27.022  29.849  1.00  0.00     0.059 A 
ATOM     87  C   UNL A   1      49.662  26.475  32.121  1.00  0.00     0.059 A 
ATOM     88  F   UNL A   1      47.404  26.620  32.737  1.00  0.00    -0.206 F 
ATOM     89  C   UNL A   1      50.647  26.606  31.144  1.00  0.00     0.060 A 
BRANCH  89  90
ATOM     90  S   UNL A   1      52.376  26.277  31.545  1.00  0.00     0.124 S 
ATOM     91  O   UNL A   1      52.332  24.862  31.897  1.00  0.00    -0.237 OA
ATOM     92  O   UNL A   1      53.053  26.598  30.292  1.00  0.00    -0.237 OA
ATOM     93  O   UNL A   1      52.649  27.191  32.649  1.00  0.00    -0.744 OA
ENDBRANCH  89  90
ENDBRANCH  57  82
ENDBRANCH  31  32
ENDBRANCH  23  26
ENDBRANCH  21  22
ENDBRANCH  20  21
ENDBRANCH   1  20
TORSDOF 18
ENDMDL
MODEL 2
REMARK VINA RESULT:     -10.2      3.089      6.086
REMARK SMILES CC[N@@H+](C[C@@H](C)C(=O)NCCCNC(=O)c1ccc(-c2c3nc(c(-c4c(F)cc(S(=O)(=O)[O-])cc4F)c4ccc([nH]4)c(-c4c(F)cc(S(=O)(=O)[O-])cc4F)c4nc(c(-c5c(F)cc(S(=O)(=O)[O-])cc5F)c5ccc2[nH]5)C=C4)C=C3)cc1)[C@@H](C)c1ccoc1
REMARK SMILES IDX 10 1 9 2 7 3 8 4 5 6 6 7 4 8 3 9 2 11 1 12 82 13 83 14 84 15
REMARK SMILES IDX 85 16 88 17 86 18 87 19 11 20 12 21 13 22 14 23 15 25 16 26
REMARK SMILES IDX 17 27 81 28 18 29 80 30 19 31 20 32 21 33 74 34 22 35 79 36
REMARK SMILES IDX 73 37 75 38 23 39 78 40 72 41 71 42 24 44 58 45 37 46 57 47
REMARK SMILES IDX 38 48 41 49 56 50 76 51 39 52 40 53 55 55 77 56 42 57 25 58
REMARK SMILES IDX 26 59 35 60 27 61 28 62 34 63 36 64 29 65 30 66 31 67 32 68
REMARK SMILES IDX 33 69 59 70 60 71 69 72 61 73 62 74 68 75 70 76 63 77 64 78
REMARK SMILES IDX 65 79 66 80 67 81 43 82 44 83 53 84 45 85 46 86 52 87 54 88
REMARK SMILES IDX 47 89 48 90 49 91 50 92 51 93
REMARK H PARENT 9 5 3 10 13 24 75 43 41 54
REMARK Flexibility Score: inf
ROOT
ATOM      1  C   UNL A   1      34.384  34.954  29.064  1.00  0.00     0.117 C 
ENDROOT
BRANCH   1   2
ATOM      2  N   UNL A   1      33.860  35.375  30.353  1.00  0.00    -0.356 N 
ATOM      3  C   UNL A   1      34.211  34.989  31.611  1.00  0.00     0.228 C 
ATOM      4  O   UNL A   1      33.640  35.522  32.564  1.00  0.00    -0.275 OA
ATOM      5  H   UNL A   1      33.137  36.043  30.311  1.00  0.00     0.163 HD
BRANCH   3   6
ATOM      6  C   UNL A   1      35.306  33.954  31.833  1.00  0.00     0.130 C 
ATOM      7  C   UNL A   1      34.657  32.562  31.896  1.00  0.00     0.024 C 
BRANCH   6   8
ATOM      8  C   UNL A   1      36.230  34.393  33.001  1.00  0.00     0.275 C 
BRANCH   8   9
ATOM      9  N   UNL A   1      37.487  33.653  33.268  1.00  0.00    -0.328 N 
ATOM     10  H   UNL A   1      37.962  34.112  34.045  1.00  0.00     0.348 HD
BRANCH   9  11
ATOM     11  C   UNL A   1      38.452  33.792  32.171  1.00  0.00     0.259 C 
ATOM     12  C   UNL A   1      39.790  34.414  32.560  1.00  0.00     0.071 C 
ENDBRANCH   9  11
BRANCH   9  13
ATOM     13  C   UNL A   1      37.283  32.313  33.843  1.00  0.00     0.215 C 
ATOM     14  C   UNL A   1      37.974  31.178  33.065  1.00  0.00     0.081 C 
BRANCH  13  15
ATOM     15  C   UNL A   1      37.647  32.290  35.311  1.00  0.00     0.047 A 
ATOM     16  C   UNL A   1      37.517  33.365  36.247  1.00  0.00     0.052 A 
ATOM     17  C   UNL A   1      38.217  31.263  36.041  1.00  0.00     0.204 A 
ATOM     18  C   UNL A   1      37.948  32.893  37.462  1.00  0.00     0.195 A 
ATOM     19  O   UNL A   1      38.380  31.615  37.341  1.00  0.00    -0.472 OA
ENDBRANCH  13  15
ENDBRANCH   9  13
ENDBRANCH   8   9
ENDBRANCH   6   8
ENDBRANCH   3   6
ENDBRANCH   1   2
BRANCH   1  20
ATOM     20  C   UNL A   1      33.669  33.720  28.548  1.00  0.00     0.042 C 
BRANCH  20  21
ATOM     21  C   UNL A   1      34.634  32.604  28.185  1.00  0.00     0.118 C 
BRANCH  21  22
ATOM     22  N   UNL A   1      33.956  31.322  28.018  1.00  0.00    -0.352 N 
ATOM     23  C   UNL A   1      34.497  30.060  27.949  1.00  0.00     0.251 C 
ATOM     24  H   UNL A   1      32.975  31.367  27.944  1.00  0.00     0.163 HD
ATOM     25  O   UNL A   1      33.814  29.111  27.591  1.00  0.00    -0.269 OA
BRANCH  23  26
ATOM     26  C   UNL A   1      35.919  29.883  28.298  1.00  0.00     0.039 A 
ATOM     27  C   UNL A   1      36.269  29.521  29.599  1.00  0.00     0.014 A 
ATOM     28  C   UNL A   1      36.895  30.026  27.308  1.00  0.00     0.014 A 
ATOM     29  C   UNL A   1      37.601  29.227  29.889  1.00  0.00     0.010 A 
ATOM     30  C   UNL A   1      38.197  29.635  27.574  1.00  0.00     0.010 A 
ATOM     31  C   UNL A   1      38.567  29.243  28.869  1.00  0.00    -0.014 A 
BRANCH  31  32
ATOM     32  C   UNL A   1      39.983  28.884  29.122  1.00  0.00     0.031 A 
ATOM     33  C   UNL A   1      40.920  29.928  29.667  1.00  0.00     0.074 A 
ATOM     34  C   UNL A   1      40.440  27.666  28.774  1.00  0.00     0.049 A 
ATOM     35  N   UNL A   1      42.216  29.874  29.824  1.00  0.00    -0.248 NA
ATOM     36  C   UNL A   1      40.322  31.220  30.046  1.00  0.00     0.031 C 
ATOM     37  C   UNL A   1      39.635  26.590  28.189  1.00  0.00     0.029 A 
ATOM     38  N   UNL A   1      41.702  27.131  28.845  1.00  0.00    -0.354 N 
ATOM     39  C   UNL A   1      42.589  31.128  30.292  1.00  0.00     0.074 A 
ATOM     40  C   UNL A   1      41.394  31.940  30.337  1.00  0.00     0.031 C 
ATOM     41  C   UNL A   1      40.416  25.519  27.976  1.00  0.00     0.029 A 
ATOM     42  C   UNL A   1      41.784  25.844  28.366  1.00  0.00     0.049 A 
ATOM     43  H   UNL A   1      42.474  27.622  29.206  1.00  0.00     0.167 HD
ATOM     44  C   UNL A   1      43.814  31.553  30.681  1.00  0.00     0.037 A 
ATOM     45  C   UNL A   1      42.848  25.026  28.246  1.00  0.00     0.037 A 
ATOM     46  C   UNL A   1      44.988  30.723  30.672  1.00  0.00     0.049 A 
ATOM     47  C   UNL A   1      44.198  25.518  28.694  1.00  0.00     0.074 A 
ATOM     48  C   UNL A   1      46.265  31.034  31.098  1.00  0.00     0.029 A 
ATOM     49  N   UNL A   1      45.022  29.411  30.218  1.00  0.00    -0.354 N 
ATOM     50  N   UNL A   1      44.526  26.689  29.186  1.00  0.00    -0.248 NA
ATOM     51  C   UNL A   1      45.322  24.580  28.574  1.00  0.00     0.031 C 
ATOM     52  C   UNL A   1      47.082  29.923  30.870  1.00  0.00     0.029 A 
ATOM     53  C   UNL A   1      46.302  28.903  30.345  1.00  0.00     0.049 A 
ATOM     54  H   UNL A   1      44.250  28.916  29.862  1.00  0.00     0.167 HD
ATOM     55  C   UNL A   1      45.886  26.617  29.465  1.00  0.00     0.074 A 
ATOM     56  C   UNL A   1      46.318  25.287  29.091  1.00  0.00     0.031 C 
ATOM     57  C   UNL A   1      46.704  27.566  29.984  1.00  0.00     0.037 A 
BRANCH  44  58
ATOM     58  C   UNL A   1      43.937  32.974  31.157  1.00  0.00     0.058 A 
ATOM     59  C   UNL A   1      43.654  33.332  32.486  1.00  0.00     0.135 A 
ATOM     60  C   UNL A   1      44.362  33.988  30.283  1.00  0.00     0.135 A 
ATOM     61  F   UNL A   1      43.226  32.407  33.359  1.00  0.00    -0.206 F 
ATOM     62  C   UNL A   1      43.755  34.649  32.923  1.00  0.00     0.059 A 
ATOM     63  C   UNL A   1      44.499  35.307  30.707  1.00  0.00     0.059 A 
ATOM     64  F   UNL A   1      44.643  33.703  29.003  1.00  0.00    -0.206 F 
ATOM     65  C   UNL A   1      44.178  35.630  32.025  1.00  0.00     0.060 A 
BRANCH  65  66
ATOM     66  S   UNL A   1      44.307  37.333  32.609  1.00  0.00     0.124 S 
ATOM     67  O   UNL A   1      43.314  37.347  33.680  1.00  0.00    -0.237 OA
ATOM     68  O   UNL A   1      45.700  37.412  33.037  1.00  0.00    -0.237 OA
ATOM     69  O   UNL A   1      43.969  38.123  31.430  1.00  0.00    -0.744 OA
ENDBRANCH  65  66
ENDBRANCH  44  58
BRANCH  45  70
ATOM     70  C   UNL A   1      42.674  23.652  27.705  1.00  0.00     0.058 A 
ATOM     71  C   UNL A   1      42.729  23.413  26.323  1.00  0.00     0.135 A 
ATOM     72  C   UNL A   1      42.463  22.552  28.549  1.00  0.00     0.135 A 
ATOM     73  F   UNL A   1      42.925  24.433  25.474  1.00  0.00    -0.206 F 
ATOM     74  C   UNL A   1      42.562  22.136  25.796  1.00  0.00     0.059 A 
ATOM     75  C   UNL A   1      42.317  21.262  28.048  1.00  0.00     0.059 A 
ATOM     76  F   UNL A   1      42.422  22.723  29.880  1.00  0.00    -0.206 F 
ATOM     77  C   UNL A   1      42.358  21.066  26.668  1.00  0.00     0.060 A 
BRANCH  77  78
ATOM     78  S   UNL A   1      42.182  19.408  25.975  1.00  0.00     0.124 S 
ATOM     79  O   UNL A   1      42.691  18.580  27.062  1.00  0.00    -0.237 OA
ATOM     80  O   UNL A   1      40.745  19.328  25.732  1.00  0.00    -0.237 OA
ATOM     81  O   UNL A   1      43.011  19.456  24.775  1.00  0.00    -0.744 OA
ENDBRANCH  77  78
ENDBRANCH  45  70
BRANCH  57  82
ATOM     82  C   UNL A   1      48.139  27.190  30.225  1.00  0.00     0.058 A 
ATOM     83  C   UNL A   1      49.136  27.442  29.273  1.00  0.00     0.135 A 
ATOM     84  C   UNL A   1      48.527  26.641  31.458  1.00  0.00     0.135 A 
ATOM     85  F   UNL A   1      48.815  27.959  28.077  1.00  0.00    -0.206 F 
ATOM     86  C   UNL A   1      50.473  27.152  29.530  1.00  0.00     0.059 A 
ATOM     87  C   UNL A   1      49.859  26.368  31.746  1.00  0.00     0.059 A 
ATOM     88  F   UNL A   1      47.609  26.390  32.405  1.00  0.00    -0.206 F 
ATOM     89  C   UNL A   1      50.824  26.620  30.773  1.00  0.00     0.060 A 
BRANCH  89  90
ATOM     90  S   UNL A   1      52.567  26.301  31.115  1.00  0.00     0.124 S 
ATOM     91  O   UNL A   1      52.502  25.012  31.795  1.00  0.00    -0.237 OA
ATOM     92  O   UNL A   1      53.150  26.283  29.776  1.00  0.00    -0.237 OA
ATOM     93  O   UNL A   1      52.963  27.432  31.948  1.00  0.00    -0.744 OA
ENDBRANCH  89  90
ENDBRANCH  57  82
ENDBRANCH  31  32
ENDBRANCH  23  26
ENDBRANCH  21  22
ENDBRANCH  20  21
ENDBRANCH   1  20
TORSDOF 18
ENDMDL
MODEL 3
REMARK VINA RESULT:      -9.8      1.624      2.474
REMARK SMILES CC[N@@H+](C[C@@H](C)C(=O)NCCCNC(=O)c1ccc(-c2c3nc(c(-c4c(F)cc(S(=O)(=O)[O-])cc4F)c4ccc([nH]4)c(-c4c(F)cc(S(=O)(=O)[O-])cc4F)c4nc(c(-c5c(F)cc(S(=O)(=O)[O-])cc5F)c5ccc2[nH]5)C=C4)C=C3)cc1)[C@@H](C)c1ccoc1
REMARK SMILES IDX 10 1 9 2 7 3 8 4 5 6 6 7 4 8 3 9 2 11 1 12 82 13 83 14 84 15
REMARK SMILES IDX 85 16 88 17 86 18 87 19 11 20 12 21 13 22 14 23 15 25 16 26
REMARK SMILES IDX 17 27 81 28 18 29 80 30 19 31 20 32 21 33 74 34 22 35 79 36
REMARK SMILES IDX 73 37 75 38 23 39 78 40 72 41 71 42 24 44 58 45 37 46 57 47
REMARK SMILES IDX 38 48 41 49 56 50 76 51 39 52 40 53 55 55 77 56 42 57 25 58
REMARK SMILES IDX 26 59 35 60 27 61 28 62 34 63 36 64 29 65 30 66 31 67 32 68
REMARK SMILES IDX 33 69 59 70 60 71 69 72 61 73 62 74 68 75 70 76 63 77 64 78
REMARK SMILES IDX 65 79 66 80 67 81 43 82 44 83 53 84 45 85 46 86 52 87 54 88
REMARK SMILES IDX 47 89 48 90 49 91 50 92 51 93
REMARK H PARENT 9 5 3 10 13 24 75 43 41 54
REMARK Flexibility Score: inf
ROOT
ATOM      1  C   UNL A   1      33.335  25.453  25.971  1.00  0.00     0.117 C 
ENDROOT
BRANCH   1   2
ATOM      2  N   UNL A   1      32.027  25.019  26.437  1.00  0.00    -0.356 N 
ATOM      3  C   UNL A   1      31.610  23.796  26.863  1.00  0.00     0.228 C 
ATOM      4  O   UNL A   1      30.446  23.679  27.250  1.00  0.00    -0.275 OA
ATOM      5  H   UNL A   1      31.335  25.719  26.445  1.00  0.00     0.163 HD
BRANCH   3   6
ATOM      6  C   UNL A   1      32.567  22.611  26.895  1.00  0.00     0.130 C 
ATOM      7  C   UNL A   1      33.717  22.938  27.861  1.00  0.00     0.024 C 
BRANCH   6   8
ATOM      8  C   UNL A   1      32.918  22.166  25.450  1.00  0.00     0.275 C 
BRANCH   8   9
ATOM      9  N   UNL A   1      33.388  20.782  25.196  1.00  0.00    -0.328 N 
ATOM     10  H   UNL A   1      33.365  20.276  26.081  1.00  0.00     0.348 HD
BRANCH   9  11
ATOM     11  C   UNL A   1      34.811  20.740  24.835  1.00  0.00     0.259 C 
ATOM     12  C   UNL A   1      35.401  22.069  24.372  1.00  0.00     0.071 C 
ENDBRANCH   9  11
BRANCH   9  13
ATOM     13  C   UNL A   1      32.450  19.967  24.406  1.00  0.00     0.215 C 
ATOM     14  C   UNL A   1      32.276  20.434  22.950  1.00  0.00     0.081 C 
BRANCH  13  15
ATOM     15  C   UNL A   1      32.808  18.499  24.485  1.00  0.00     0.047 A 
ATOM     16  C   UNL A   1      33.370  17.692  23.446  1.00  0.00     0.052 A 
ATOM     17  C   UNL A   1      32.630  17.626  25.543  1.00  0.00     0.204 A 
ATOM     18  C   UNL A   1      33.546  16.434  23.965  1.00  0.00     0.195 A 
ATOM     19  O   UNL A   1      33.093  16.386  25.240  1.00  0.00    -0.472 OA
ENDBRANCH  13  15
ENDBRANCH   9  13
ENDBRANCH   8   9
ENDBRANCH   6   8
ENDBRANCH   3   6
ENDBRANCH   1   2
BRANCH   1  20
ATOM     20  C   UNL A   1      33.352  26.939  25.668  1.00  0.00     0.042 C 
BRANCH  20  21
ATOM     21  C   UNL A   1      34.297  27.703  26.581  1.00  0.00     0.118 C 
BRANCH  21  22
ATOM     22  N   UNL A   1      33.828  29.060  26.848  1.00  0.00    -0.352 N 
ATOM     23  C   UNL A   1      34.423  30.050  27.593  1.00  0.00     0.251 C 
ATOM     24  H   UNL A   1      32.966  29.300  26.436  1.00  0.00     0.163 HD
ATOM     25  O   UNL A   1      33.800  31.057  27.897  1.00  0.00    -0.269 OA
BRANCH  23  26
ATOM     26  C   UNL A   1      35.818  29.859  28.031  1.00  0.00     0.039 A 
ATOM     27  C   UNL A   1      36.079  29.395  29.321  1.00  0.00     0.014 A 
ATOM     28  C   UNL A   1      36.862  30.091  27.130  1.00  0.00     0.014 A 
ATOM     29  C   UNL A   1      37.391  29.091  29.683  1.00  0.00     0.010 A 
ATOM     30  C   UNL A   1      38.147  29.693  27.458  1.00  0.00     0.010 A 
ATOM     31  C   UNL A   1      38.428  29.200  28.741  1.00  0.00    -0.014 A 
BRANCH  31  32
ATOM     32  C   UNL A   1      39.828  28.835  29.067  1.00  0.00     0.031 A 
ATOM     33  C   UNL A   1      40.734  29.870  29.678  1.00  0.00     0.074 A 
ATOM     34  C   UNL A   1      40.302  27.620  28.729  1.00  0.00     0.049 A 
ATOM     35  N   UNL A   1      42.019  29.812  29.906  1.00  0.00    -0.248 NA
ATOM     36  C   UNL A   1      40.116  31.158  30.041  1.00  0.00     0.031 C 
ATOM     37  C   UNL A   1      39.529  26.555  28.086  1.00  0.00     0.029 A 
ATOM     38  N   UNL A   1      41.557  27.083  28.864  1.00  0.00    -0.354 N 
ATOM     39  C   UNL A   1      42.367  31.058  30.411  1.00  0.00     0.074 A 
ATOM     40  C   UNL A   1      41.172  31.872  30.400  1.00  0.00     0.031 C 
ATOM     41  C   UNL A   1      40.321  25.485  27.903  1.00  0.00     0.029 A 
ATOM     42  C   UNL A   1      41.665  25.802  28.373  1.00  0.00     0.049 A 
ATOM     43  H   UNL A   1      42.309  27.568  29.273  1.00  0.00     0.167 HD
ATOM     44  C   UNL A   1      43.568  31.477  30.873  1.00  0.00     0.037 A 
ATOM     45  C   UNL A   1      42.733  24.984  28.301  1.00  0.00     0.037 A 
ATOM     46  C   UNL A   1      44.740  30.644  30.918  1.00  0.00     0.049 A 
ATOM     47  C   UNL A   1      44.057  25.468  28.829  1.00  0.00     0.074 A 
ATOM     48  C   UNL A   1      45.992  30.948  31.419  1.00  0.00     0.029 A 
ATOM     49  N   UNL A   1      44.798  29.339  30.450  1.00  0.00    -0.354 N 
ATOM     50  N   UNL A   1      44.358  26.632  29.355  1.00  0.00    -0.248 NA
ATOM     51  C   UNL A   1      45.184  24.529  28.760  1.00  0.00     0.031 C 
ATOM     52  C   UNL A   1      46.819  29.838  31.222  1.00  0.00     0.029 A 
ATOM     53  C   UNL A   1      46.069  28.827  30.640  1.00  0.00     0.049 A 
ATOM     54  H   UNL A   1      44.047  28.850  30.044  1.00  0.00     0.167 HD
ATOM     55  C   UNL A   1      45.700  26.554  29.708  1.00  0.00     0.074 A 
ATOM     56  C   UNL A   1      46.151  25.228  29.341  1.00  0.00     0.031 C 
ATOM     57  C   UNL A   1      46.489  27.494  30.285  1.00  0.00     0.037 A 
BRANCH  44  58
ATOM     58  C   UNL A   1      43.666  32.891  31.375  1.00  0.00     0.058 A 
ATOM     59  C   UNL A   1      43.866  33.971  30.499  1.00  0.00     0.135 A 
ATOM     60  C   UNL A   1      43.540  33.174  32.744  1.00  0.00     0.135 A 
ATOM     61  F   UNL A   1      44.013  33.756  29.182  1.00  0.00    -0.206 F 
ATOM     62  C   UNL A   1      43.970  35.277  30.965  1.00  0.00     0.059 A 
ATOM     63  C   UNL A   1      43.610  34.477  33.230  1.00  0.00     0.059 A 
ATOM     64  F   UNL A   1      43.350  32.181  33.626  1.00  0.00    -0.206 F 
ATOM     65  C   UNL A   1      43.842  35.520  32.334  1.00  0.00     0.060 A 
BRANCH  65  66
ATOM     66  S   UNL A   1      43.977  37.221  32.922  1.00  0.00     0.124 S 
ATOM     67  O   UNL A   1      43.914  37.967  31.668  1.00  0.00    -0.237 OA
ATOM     68  O   UNL A   1      42.810  37.345  33.790  1.00  0.00    -0.237 OA
ATOM     69  O   UNL A   1      45.267  37.244  33.601  1.00  0.00    -0.744 OA
ENDBRANCH  65  66
ENDBRANCH  44  58
BRANCH  45  70
ATOM     70  C   UNL A   1      42.588  23.617  27.732  1.00  0.00     0.058 A 
ATOM     71  C   UNL A   1      42.659  23.406  26.347  1.00  0.00     0.135 A 
ATOM     72  C   UNL A   1      42.389  22.498  28.554  1.00  0.00     0.135 A 
ATOM     73  F   UNL A   1      42.844  24.446  25.519  1.00  0.00    -0.206 F 
ATOM     74  C   UNL A   1      42.519  22.137  25.795  1.00  0.00     0.059 A 
ATOM     75  C   UNL A   1      42.272  21.215  28.027  1.00  0.00     0.059 A 
ATOM     76  F   UNL A   1      42.335  22.643  29.888  1.00  0.00    -0.206 F 
ATOM     77  C   UNL A   1      42.327  21.047  26.644  1.00  0.00     0.060 A 
BRANCH  77  78
ATOM     78  S   UNL A   1      42.187  19.399  25.919  1.00  0.00     0.124 S 
ATOM     79  O   UNL A   1      42.728  18.563  26.983  1.00  0.00    -0.237 OA
ATOM     80  O   UNL A   1      40.750  19.287  25.688  1.00  0.00    -0.237 OA
ATOM     81  O   UNL A   1      43.002  19.493  24.712  1.00  0.00    -0.744 OA
ENDBRANCH  77  78
ENDBRANCH  45  70
BRANCH  57  82
ATOM     82  C   UNL A   1      47.908  27.112  30.600  1.00  0.00     0.058 A 
ATOM     83  C   UNL A   1      48.934  27.245  29.654  1.00  0.00     0.135 A 
ATOM     84  C   UNL A   1      48.252  26.682  31.892  1.00  0.00     0.135 A 
ATOM     85  F   UNL A   1      48.654  27.646  28.404  1.00  0.00    -0.206 F 
ATOM     86  C   UNL A   1      50.256  26.953  29.974  1.00  0.00     0.059 A 
ATOM     87  C   UNL A   1      49.570  26.410  32.241  1.00  0.00     0.059 A 
ATOM     88  F   UNL A   1      47.306  26.548  32.835  1.00  0.00    -0.206 F 
ATOM     89  C   UNL A   1      50.564  26.542  31.273  1.00  0.00     0.060 A 
BRANCH  89  90
ATOM     90  S   UNL A   1      52.290  26.220  31.691  1.00  0.00     0.124 S 
ATOM     91  O   UNL A   1      52.425  26.939  32.954  1.00  0.00    -0.237 OA
ATOM     92  O   UNL A   1      52.322  24.764  31.786  1.00  0.00    -0.237 OA
ATOM     93  O   UNL A   1      53.024  26.786  30.564  1.00  0.00    -0.744 OA
ENDBRANCH  89  90
ENDBRANCH  57  82
ENDBRANCH  31  32
ENDBRANCH  23  26
ENDBRANCH  21  22
ENDBRANCH  20  21
ENDBRANCH   1  20
TORSDOF 18
ENDMDL
