MODEL 1
REMARK VINA RESULT:     -11.8      0.000      0.000
REMARK SMILES C=Cc1cc(Cl)cc2c1O[C@H](C(F)(F)F)C(C(=O)NCCCNC(=O)c1ccc(-c3c4nc(c(-c5c(F)cc(S(=O)(=O)[O-])cc5F)c5ccc([nH]5)c(-c5c(F)cc(S(=O)(=O)[O-])cc5F)c5nc(c(-c6c(F)cc(S(=O)(=O)[O-])cc6F)c6ccc3[nH]6)C=C5)C=C4)cc1)=C2
REMARK SMILES IDX 22 1 21 2 20 3 19 4 17 5 18 6 16 8 3 9 4 10 9 11 5 12 8 13
REMARK SMILES IDX 10 14 6 15 7 16 92 17 11 18 2 19 1 20 12 21 13 22 14 23
REMARK SMILES IDX 15 24 23 25 24 26 25 28 26 29 27 30 91 31 28 32 90 33 29 34
REMARK SMILES IDX 30 35 31 36 84 37 32 38 89 39 83 40 85 41 33 42 88 43 82 44
REMARK SMILES IDX 81 45 34 47 68 48 47 49 67 50 48 51 51 52 66 53 86 54 49 55
REMARK SMILES IDX 50 56 65 58 87 59 52 60 35 61 36 62 45 63 37 64 38 65 44 66
REMARK SMILES IDX 46 67 39 68 40 69 41 70 42 71 43 72 69 73 70 74 79 75 71 76
REMARK SMILES IDX 72 77 78 78 80 79 73 80 74 81 75 82 76 83 77 84 53 85 54 86
REMARK SMILES IDX 63 87 55 88 56 89 62 90 64 91 57 92 58 93 59 94 60 95 61 96
REMARK H PARENT 19 7 23 27 85 46 51 57
REMARK Flexibility Score: inf
ROOT
ATOM      1  C   UNL A   1      33.228  28.677  27.284  1.00  0.00     0.118 C 
ENDROOT
BRANCH   1   2
ATOM      2  C   UNL A   1      31.873  28.047  27.587  1.00  0.00     0.042 C 
BRANCH   2   3
ATOM      3  C   UNL A   1      31.349  27.206  26.433  1.00  0.00     0.118 C 
BRANCH   3   4
ATOM      4  N   UNL A   1      32.095  27.437  25.204  1.00  0.00    -0.352 N 
ATOM      5  C   UNL A   1      32.950  26.751  24.413  1.00  0.00     0.251 C 
ATOM      6  O   UNL A   1      33.352  27.365  23.420  1.00  0.00    -0.270 OA
ATOM      7  H   UNL A   1      31.931  28.342  24.852  1.00  0.00     0.163 HD
BRANCH   5   8
ATOM      8  C   UNL A   1      33.411  25.351  24.648  1.00  0.00     0.067 C 
ATOM      9  C   UNL A   1      34.808  21.486  25.577  1.00  0.00     0.018 A 
ATOM     10  C   UNL A   1      36.184  21.290  25.751  1.00  0.00     0.032 A 
ATOM     11  C   UNL A   1      34.339  22.786  25.321  1.00  0.00     0.135 A 
ATOM     12  C   UNL A   1      37.060  22.375  25.699  1.00  0.00     0.042 A 
ATOM     13  C   UNL A   1      35.217  23.875  25.279  1.00  0.00     0.019 A 
ATOM     14  O   UNL A   1      32.987  22.961  25.170  1.00  0.00    -0.475 OA
ATOM     15  Cl  UNL A   1      38.749  22.117  25.913  1.00  0.00    -0.084 Cl
ATOM     16  C   UNL A   1      36.584  23.666  25.473  1.00  0.00     0.032 A 
ATOM     17  C   UNL A   1      34.685  25.216  25.064  1.00  0.00     0.025 C 
ATOM     18  C   UNL A   1      32.569  24.130  24.419  1.00  0.00     0.314 C 
BRANCH   9  19
ATOM     19  C   UNL A   1      33.875  20.350  25.595  1.00  0.00     0.004 C 
ATOM     20  C   UNL A   1      33.669  19.537  24.553  1.00  0.00     0.009 C 
ENDBRANCH   9  19
BRANCH  18  21
ATOM     21  C   UNL A   1      32.453  23.763  22.927  1.00  0.00     0.429 C 
ATOM     22  F   UNL A   1      31.498  24.511  22.322  1.00  0.00    -0.167 F 
ATOM     23  F   UNL A   1      33.603  23.983  22.246  1.00  0.00    -0.167 F 
ATOM     24  F   UNL A   1      32.132  22.463  22.733  1.00  0.00    -0.167 F 
ENDBRANCH  18  21
ENDBRANCH   5   8
ENDBRANCH   3   4
ENDBRANCH   2   3
ENDBRANCH   1   2
BRANCH   1  25
ATOM     25  N   UNL A   1      33.281  30.086  27.670  1.00  0.00    -0.352 N 
ATOM     26  C   UNL A   1      34.295  30.809  28.253  1.00  0.00     0.251 C 
ATOM     27  H   UNL A   1      32.463  30.599  27.480  1.00  0.00     0.163 HD
ATOM     28  O   UNL A   1      34.068  31.930  28.700  1.00  0.00    -0.269 OA
BRANCH  26  29
ATOM     29  C   UNL A   1      35.647  30.222  28.365  1.00  0.00     0.039 A 
ATOM     30  C   UNL A   1      36.097  29.730  29.591  1.00  0.00     0.014 A 
ATOM     31  C   UNL A   1      36.478  30.187  27.244  1.00  0.00     0.014 A 
ATOM     32  C   UNL A   1      37.435  29.395  29.745  1.00  0.00     0.010 A 
ATOM     33  C   UNL A   1      37.800  29.755  27.379  1.00  0.00     0.010 A 
ATOM     34  C   UNL A   1      38.306  29.414  28.644  1.00  0.00    -0.014 A 
BRANCH  34  35
ATOM     35  C   UNL A   1      39.745  29.110  28.843  1.00  0.00     0.031 A 
ATOM     36  C   UNL A   1      40.667  30.142  29.438  1.00  0.00     0.074 A 
ATOM     37  C   UNL A   1      40.213  27.885  28.536  1.00  0.00     0.049 A 
ATOM     38  N   UNL A   1      41.960  30.081  29.631  1.00  0.00    -0.248 NA
ATOM     39  C   UNL A   1      40.059  31.411  29.867  1.00  0.00     0.031 C 
ATOM     40  C   UNL A   1      39.413  26.792  27.978  1.00  0.00     0.029 A 
ATOM     41  N   UNL A   1      41.467  27.345  28.666  1.00  0.00    -0.354 N 
ATOM     42  C   UNL A   1      42.326  31.312  30.163  1.00  0.00     0.074 A 
ATOM     43  C   UNL A   1      41.119  32.107  30.253  1.00  0.00     0.031 C 
ATOM     44  C   UNL A   1      40.182  25.701  27.857  1.00  0.00     0.029 A 
ATOM     45  C   UNL A   1      41.544  26.036  28.257  1.00  0.00     0.049 A 
ATOM     46  H   UNL A   1      42.236  27.848  29.018  1.00  0.00     0.167 HD
ATOM     47  C   UNL A   1      43.554  31.739  30.544  1.00  0.00     0.037 A 
ATOM     48  C   UNL A   1      42.600  25.204  28.181  1.00  0.00     0.037 A 
ATOM     49  C   UNL A   1      44.742  30.928  30.488  1.00  0.00     0.049 A 
ATOM     50  C   UNL A   1      43.953  25.704  28.588  1.00  0.00     0.074 A 
ATOM     51  C   UNL A   1      46.029  31.254  30.880  1.00  0.00     0.029 A 
ATOM     52  N   UNL A   1      44.789  29.623  30.015  1.00  0.00    -0.354 N 
ATOM     53  N   UNL A   1      44.287  26.883  29.058  1.00  0.00    -0.248 NA
ATOM     54  C   UNL A   1      45.076  24.770  28.437  1.00  0.00     0.031 C 
ATOM     55  C   UNL A   1      46.861  30.160  30.611  1.00  0.00     0.029 A 
ATOM     56  C   UNL A   1      46.085  29.138  30.086  1.00  0.00     0.049 A 
ATOM     57  H   UNL A   1      44.015  29.117  29.679  1.00  0.00     0.167 HD
ATOM     58  C   UNL A   1      45.662  26.840  29.244  1.00  0.00     0.074 A 
ATOM     59  C   UNL A   1      46.092  25.506  28.871  1.00  0.00     0.031 C 
ATOM     60  C   UNL A   1      46.496  27.819  29.677  1.00  0.00     0.037 A 
BRANCH  47  61
ATOM     61  C   UNL A   1      43.677  33.157  31.029  1.00  0.00     0.058 A 
ATOM     62  C   UNL A   1      44.005  34.212  30.163  1.00  0.00     0.135 A 
ATOM     63  C   UNL A   1      43.448  33.467  32.380  1.00  0.00     0.135 A 
ATOM     64  F   UNL A   1      44.254  33.969  28.865  1.00  0.00    -0.206 F 
ATOM     65  C   UNL A   1      44.129  35.519  30.623  1.00  0.00     0.059 A 
ATOM     66  C   UNL A   1      43.545  34.770  32.858  1.00  0.00     0.059 A 
ATOM     67  F   UNL A   1      43.135  32.496  33.251  1.00  0.00    -0.206 F 
ATOM     68  C   UNL A   1      43.901  35.788  31.974  1.00  0.00     0.060 A 
BRANCH  68  69
ATOM     69  S   UNL A   1      44.082  37.486  32.561  1.00  0.00     0.124 S 
ATOM     70  O   UNL A   1      45.479  37.499  32.985  1.00  0.00    -0.237 OA
ATOM     71  O   UNL A   1      43.778  38.264  31.364  1.00  0.00    -0.237 OA
ATOM     72  O   UNL A   1      43.099  37.583  33.635  1.00  0.00    -0.744 OA
ENDBRANCH  68  69
ENDBRANCH  47  61
BRANCH  48  73
ATOM     73  C   UNL A   1      42.400  23.825  27.670  1.00  0.00     0.058 A 
ATOM     74  C   UNL A   1      42.409  23.557  26.295  1.00  0.00     0.135 A 
ATOM     75  C   UNL A   1      42.276  22.739  28.550  1.00  0.00     0.135 A 
ATOM     76  F   UNL A   1      42.515  24.565  25.415  1.00  0.00    -0.206 F 
ATOM     77  C   UNL A   1      42.320  22.257  25.808  1.00  0.00     0.059 A 
ATOM     78  C   UNL A   1      42.208  21.428  28.090  1.00  0.00     0.059 A 
ATOM     79  F   UNL A   1      42.276  22.947  29.877  1.00  0.00    -0.206 F 
ATOM     80  C   UNL A   1      42.233  21.198  26.715  1.00  0.00     0.060 A 
BRANCH  80  81
ATOM     81  S   UNL A   1      42.229  19.508  26.078  1.00  0.00     0.124 S 
ATOM     82  O   UNL A   1      42.697  18.755  27.234  1.00  0.00    -0.237 OA
ATOM     83  O   UNL A   1      40.827  19.322  25.716  1.00  0.00    -0.237 OA
ATOM     84  O   UNL A   1      43.153  19.575  24.948  1.00  0.00    -0.744 OA
ENDBRANCH  80  81
ENDBRANCH  48  73
BRANCH  60  85
ATOM     85  C   UNL A   1      47.957  27.481  29.741  1.00  0.00     0.058 A 
ATOM     86  C   UNL A   1      48.518  26.897  30.888  1.00  0.00     0.135 A 
ATOM     87  C   UNL A   1      48.801  27.729  28.648  1.00  0.00     0.135 A 
ATOM     88  F   UNL A   1      47.753  26.648  31.962  1.00  0.00    -0.206 F 
ATOM     89  C   UNL A   1      49.874  26.600  30.961  1.00  0.00     0.059 A 
ATOM     90  C   UNL A   1      50.157  27.419  28.690  1.00  0.00     0.059 A 
ATOM     91  F   UNL A   1      48.311  28.278  27.525  1.00  0.00    -0.206 F 
ATOM     92  C   UNL A   1      50.686  26.869  29.858  1.00  0.00     0.060 A 
BRANCH  92  93
ATOM     93  S   UNL A   1      52.445  26.480  29.963  1.00  0.00     0.124 S 
ATOM     94  O   UNL A   1      52.710  25.953  28.629  1.00  0.00    -0.237 OA
ATOM     95  O   UNL A   1      53.039  27.780  30.261  1.00  0.00    -0.237 OA
ATOM     96  O   UNL A   1      52.512  25.506  31.048  1.00  0.00    -0.744 OA
ENDBRANCH  92  93
ENDBRANCH  60  85
ENDBRANCH  34  35
ENDBRANCH  26  29
ENDBRANCH   1  25
TORSDOF 15
ENDMDL
MODEL 2
REMARK VINA RESULT:     -11.7      2.290      3.053
REMARK SMILES C=Cc1cc(Cl)cc2c1O[C@H](C(F)(F)F)C(C(=O)NCCCNC(=O)c1ccc(-c3c4nc(c(-c5c(F)cc(S(=O)(=O)[O-])cc5F)c5ccc([nH]5)c(-c5c(F)cc(S(=O)(=O)[O-])cc5F)c5nc(c(-c6c(F)cc(S(=O)(=O)[O-])cc6F)c6ccc3[nH]6)C=C5)C=C4)cc1)=C2
REMARK SMILES IDX 22 1 21 2 20 3 19 4 17 5 18 6 16 8 3 9 4 10 9 11 5 12 8 13
REMARK SMILES IDX 10 14 6 15 7 16 92 17 11 18 2 19 1 20 12 21 13 22 14 23
REMARK SMILES IDX 15 24 23 25 24 26 25 28 26 29 27 30 91 31 28 32 90 33 29 34
REMARK SMILES IDX 30 35 31 36 84 37 32 38 89 39 83 40 85 41 33 42 88 43 82 44
REMARK SMILES IDX 81 45 34 47 68 48 47 49 67 50 48 51 51 52 66 53 86 54 49 55
REMARK SMILES IDX 50 56 65 58 87 59 52 60 35 61 36 62 45 63 37 64 38 65 44 66
REMARK SMILES IDX 46 67 39 68 40 69 41 70 42 71 43 72 69 73 70 74 79 75 71 76
REMARK SMILES IDX 72 77 78 78 80 79 73 80 74 81 75 82 76 83 77 84 53 85 54 86
REMARK SMILES IDX 63 87 55 88 56 89 62 90 64 91 57 92 58 93 59 94 60 95 61 96
REMARK H PARENT 19 7 23 27 85 46 51 57
REMARK Flexibility Score: inf
ROOT
ATOM      1  C   UNL A   1      34.678  29.230  27.426  1.00  0.00     0.118 C 
ENDROOT
BRANCH   1   2
ATOM      2  C   UNL A   1      33.207  29.045  27.071  1.00  0.00     0.042 C 
BRANCH   2   3
ATOM      3  C   UNL A   1      32.735  30.026  26.009  1.00  0.00     0.118 C 
BRANCH   3   4
ATOM      4  N   UNL A   1      33.264  29.703  24.691  1.00  0.00    -0.352 N 
ATOM      5  C   UNL A   1      33.428  28.599  23.926  1.00  0.00     0.251 C 
ATOM      6  O   UNL A   1      33.939  28.801  22.820  1.00  0.00    -0.270 OA
ATOM      7  H   UNL A   1      33.591  30.509  24.230  1.00  0.00     0.163 HD
BRANCH   5   8
ATOM      8  C   UNL A   1      33.037  27.213  24.314  1.00  0.00     0.067 C 
ATOM      9  C   UNL A   1      32.065  23.344  25.669  1.00  0.00     0.018 A 
ATOM     10  C   UNL A   1      33.103  22.437  25.924  1.00  0.00     0.032 A 
ATOM     11  C   UNL A   1      32.393  24.651  25.270  1.00  0.00     0.135 A 
ATOM     12  C   UNL A   1      34.432  22.843  25.809  1.00  0.00     0.042 A 
ATOM     13  C   UNL A   1      33.728  25.059  25.165  1.00  0.00     0.019 A 
ATOM     14  O   UNL A   1      31.364  25.528  25.041  1.00  0.00    -0.475 OA
ATOM     15  Cl  UNL A   1      35.696  21.717  26.124  1.00  0.00    -0.084 Cl
ATOM     16  C   UNL A   1      34.751  24.150  25.440  1.00  0.00     0.032 A 
ATOM     17  C   UNL A   1      34.028  26.439  24.799  1.00  0.00     0.025 C 
ATOM     18  C   UNL A   1      31.655  26.647  24.164  1.00  0.00     0.314 C 
BRANCH   9  19
ATOM     19  C   UNL A   1      30.659  22.924  25.754  1.00  0.00     0.004 C 
ATOM     20  C   UNL A   1      29.973  22.840  26.900  1.00  0.00     0.009 C 
ENDBRANCH   9  19
BRANCH  18  21
ATOM     21  C   UNL A   1      31.332  26.252  22.710  1.00  0.00     0.429 C 
ATOM     22  F   UNL A   1      30.534  25.157  22.677  1.00  0.00    -0.167 F 
ATOM     23  F   UNL A   1      30.675  27.228  22.039  1.00  0.00    -0.167 F 
ATOM     24  F   UNL A   1      32.441  25.966  21.989  1.00  0.00    -0.167 F 
ENDBRANCH  18  21
ENDBRANCH   5   8
ENDBRANCH   3   4
ENDBRANCH   2   3
ENDBRANCH   1   2
BRANCH   1  25
ATOM     25  N   UNL A   1      34.876  30.267  28.437  1.00  0.00    -0.352 N 
ATOM     26  C   UNL A   1      35.972  30.547  29.219  1.00  0.00     0.251 C 
ATOM     27  H   UNL A   1      34.103  30.860  28.580  1.00  0.00     0.163 HD
ATOM     28  O   UNL A   1      35.866  31.322  30.165  1.00  0.00    -0.269 OA
BRANCH  26  29
ATOM     29  C   UNL A   1      37.266  29.893  28.933  1.00  0.00     0.039 A 
ATOM     30  C   UNL A   1      38.005  29.320  29.969  1.00  0.00     0.014 A 
ATOM     31  C   UNL A   1      37.755  29.874  27.625  1.00  0.00     0.014 A 
ATOM     32  C   UNL A   1      39.312  28.916  29.736  1.00  0.00     0.010 A 
ATOM     33  C   UNL A   1      39.035  29.375  27.376  1.00  0.00     0.010 A 
ATOM     34  C   UNL A   1      39.847  28.948  28.439  1.00  0.00    -0.014 A 
BRANCH  34  35
ATOM     35  C   UNL A   1      41.266  28.567  28.222  1.00  0.00     0.031 A 
ATOM     36  C   UNL A   1      42.362  29.587  28.385  1.00  0.00     0.074 A 
ATOM     37  C   UNL A   1      41.572  27.289  27.928  1.00  0.00     0.049 A 
ATOM     38  N   UNL A   1      43.648  29.457  28.179  1.00  0.00    -0.248 NA
ATOM     39  C   UNL A   1      41.962  30.931  28.832  1.00  0.00     0.031 C 
ATOM     40  C   UNL A   1      40.601  26.204  27.771  1.00  0.00     0.029 A 
ATOM     41  N   UNL A   1      42.785  26.680  27.730  1.00  0.00    -0.354 N 
ATOM     42  C   UNL A   1      44.204  30.706  28.430  1.00  0.00     0.074 A 
ATOM     43  C   UNL A   1      43.113  31.587  28.792  1.00  0.00     0.031 C 
ATOM     44  C   UNL A   1      41.256  25.056  27.546  1.00  0.00     0.029 A 
ATOM     45  C   UNL A   1      42.686  25.335  27.470  1.00  0.00     0.049 A 
ATOM     46  H   UNL A   1      43.643  27.161  27.770  1.00  0.00     0.167 HD
ATOM     47  C   UNL A   1      45.503  31.084  28.367  1.00  0.00     0.037 A 
ATOM     48  C   UNL A   1      43.636  24.429  27.171  1.00  0.00     0.037 A 
ATOM     49  C   UNL A   1      46.586  30.192  28.043  1.00  0.00     0.049 A 
ATOM     50  C   UNL A   1      45.065  24.874  27.085  1.00  0.00     0.074 A 
ATOM     51  C   UNL A   1      47.942  30.466  27.983  1.00  0.00     0.029 A 
ATOM     52  N   UNL A   1      46.439  28.847  27.731  1.00  0.00    -0.354 N 
ATOM     53  N   UNL A   1      45.569  26.067  27.292  1.00  0.00    -0.248 NA
ATOM     54  C   UNL A   1      46.052  23.855  26.706  1.00  0.00     0.031 C 
ATOM     55  C   UNL A   1      48.610  29.297  27.600  1.00  0.00     0.029 A 
ATOM     56  C   UNL A   1      47.675  28.284  27.457  1.00  0.00     0.049 A 
ATOM     57  H   UNL A   1      45.581  28.365  27.708  1.00  0.00     0.167 HD
ATOM     58  C   UNL A   1      46.932  25.948  27.053  1.00  0.00     0.074 A 
ATOM     59  C   UNL A   1      47.177  24.558  26.721  1.00  0.00     0.031 C 
ATOM     60  C   UNL A   1      47.892  26.906  27.095  1.00  0.00     0.037 A 
BRANCH  47  61
ATOM     61  C   UNL A   1      45.821  32.531  28.624  1.00  0.00     0.058 A 
ATOM     62  C   UNL A   1      45.841  33.482  27.592  1.00  0.00     0.135 A 
ATOM     63  C   UNL A   1      46.093  32.974  29.929  1.00  0.00     0.135 A 
ATOM     64  F   UNL A   1      45.608  33.108  26.324  1.00  0.00    -0.206 F 
ATOM     65  C   UNL A   1      46.148  34.817  27.840  1.00  0.00     0.059 A 
ATOM     66  C   UNL A   1      46.381  34.308  30.203  1.00  0.00     0.059 A 
ATOM     67  F   UNL A   1      46.089  32.106  30.952  1.00  0.00    -0.206 F 
ATOM     68  C   UNL A   1      46.421  35.220  29.149  1.00  0.00     0.060 A 
BRANCH  68  69
ATOM     69  S   UNL A   1      46.834  36.951  29.452  1.00  0.00     0.124 S 
ATOM     70  O   UNL A   1      47.400  37.344  28.165  1.00  0.00    -0.237 OA
ATOM     71  O   UNL A   1      45.533  37.531  29.774  1.00  0.00    -0.237 OA
ATOM     72  O   UNL A   1      47.780  36.887  30.561  1.00  0.00    -0.744 OA
ENDBRANCH  68  69
ENDBRANCH  47  61
BRANCH  48  73
ATOM     73  C   UNL A   1      43.239  23.024  26.906  1.00  0.00     0.058 A 
ATOM     74  C   UNL A   1      43.257  22.501  25.606  1.00  0.00     0.135 A 
ATOM     75  C   UNL A   1      42.911  22.155  27.959  1.00  0.00     0.135 A 
ATOM     76  F   UNL A   1      43.555  23.297  24.567  1.00  0.00    -0.206 F 
ATOM     77  C   UNL A   1      42.981  21.161  25.359  1.00  0.00     0.059 A 
ATOM     78  C   UNL A   1      42.654  20.806  27.741  1.00  0.00     0.059 A 
ATOM     79  F   UNL A   1      42.895  22.608  29.223  1.00  0.00    -0.206 F 
ATOM     80  C   UNL A   1      42.694  20.318  26.436  1.00  0.00     0.060 A 
BRANCH  80  81
ATOM     81  S   UNL A   1      42.445  18.558  26.116  1.00  0.00     0.124 S 
ATOM     82  O   UNL A   1      41.035  18.520  25.751  1.00  0.00    -0.237 OA
ATOM     83  O   UNL A   1      43.394  18.307  25.035  1.00  0.00    -0.237 OA
ATOM     84  O   UNL A   1      42.786  17.935  27.392  1.00  0.00    -0.744 OA
ENDBRANCH  80  81
ENDBRANCH  48  73
BRANCH  60  85
ATOM     85  C   UNL A   1      49.288  26.476  26.749  1.00  0.00     0.058 A 
ATOM     86  C   UNL A   1      49.767  26.556  25.432  1.00  0.00     0.135 A 
ATOM     87  C   UNL A   1      50.158  25.993  27.738  1.00  0.00     0.135 A 
ATOM     88  F   UNL A   1      48.969  27.003  24.449  1.00  0.00    -0.206 F 
ATOM     89  C   UNL A   1      51.052  26.141  25.101  1.00  0.00     0.059 A 
ATOM     90  C   UNL A   1      51.456  25.595  27.434  1.00  0.00     0.059 A 
ATOM     91  F   UNL A   1      49.750  25.907  29.015  1.00  0.00    -0.206 F 
ATOM     92  C   UNL A   1      51.888  25.658  26.110  1.00  0.00     0.060 A 
BRANCH  92  93
ATOM     93  S   UNL A   1      53.554  25.122  25.669  1.00  0.00     0.124 S 
ATOM     94  O   UNL A   1      53.843  25.977  24.523  1.00  0.00    -0.237 OA
ATOM     95  O   UNL A   1      54.310  25.413  26.884  1.00  0.00    -0.237 OA
ATOM     96  O   UNL A   1      53.386  23.704  25.369  1.00  0.00    -0.744 OA
ENDBRANCH  92  93
ENDBRANCH  60  85
ENDBRANCH  34  35
ENDBRANCH  26  29
ENDBRANCH   1  25
TORSDOF 15
ENDMDL
MODEL 3
REMARK VINA RESULT:     -11.6      5.074     10.432
REMARK SMILES C=Cc1cc(Cl)cc2c1O[C@H](C(F)(F)F)C(C(=O)NCCCNC(=O)c1ccc(-c3c4nc(c(-c5c(F)cc(S(=O)(=O)[O-])cc5F)c5ccc([nH]5)c(-c5c(F)cc(S(=O)(=O)[O-])cc5F)c5nc(c(-c6c(F)cc(S(=O)(=O)[O-])cc6F)c6ccc3[nH]6)C=C5)C=C4)cc1)=C2
REMARK SMILES IDX 22 1 21 2 20 3 19 4 17 5 18 6 16 8 3 9 4 10 9 11 5 12 8 13
REMARK SMILES IDX 10 14 6 15 7 16 92 17 11 18 2 19 1 20 12 21 13 22 14 23
REMARK SMILES IDX 15 24 23 25 24 26 25 28 26 29 27 30 91 31 28 32 90 33 29 34
REMARK SMILES IDX 30 35 31 36 84 37 32 38 89 39 83 40 85 41 33 42 88 43 82 44
REMARK SMILES IDX 81 45 34 47 68 48 47 49 67 50 48 51 51 52 66 53 86 54 49 55
REMARK SMILES IDX 50 56 65 58 87 59 52 60 35 61 36 62 45 63 37 64 38 65 44 66
REMARK SMILES IDX 46 67 39 68 40 69 41 70 42 71 43 72 69 73 70 74 79 75 71 76
REMARK SMILES IDX 72 77 78 78 80 79 73 80 74 81 75 82 76 83 77 84 53 85 54 86
REMARK SMILES IDX 63 87 55 88 56 89 62 90 64 91 57 92 58 93 59 94 60 95 61 96
REMARK H PARENT 19 7 23 27 85 46 51 57
REMARK Flexibility Score: inf
ROOT
ATOM      1  C   UNL A   1      40.470  22.990  26.988  1.00  0.00     0.118 C 
ENDROOT
BRANCH   1   2
ATOM      2  C   UNL A   1      39.161  22.367  26.516  1.00  0.00     0.042 C 
BRANCH   2   3
ATOM      3  C   UNL A   1      38.139  23.410  26.088  1.00  0.00     0.118 C 
BRANCH   3   4
ATOM      4  N   UNL A   1      37.680  23.198  24.722  1.00  0.00    -0.352 N 
ATOM      5  C   UNL A   1      36.514  23.272  24.040  1.00  0.00     0.251 C 
ATOM      6  O   UNL A   1      36.594  22.998  22.838  1.00  0.00    -0.270 OA
ATOM      7  H   UNL A   1      38.421  22.926  24.134  1.00  0.00     0.163 HD
BRANCH   5   8
ATOM      8  C   UNL A   1      35.196  23.657  24.622  1.00  0.00     0.067 C 
ATOM      9  C   UNL A   1      31.449  24.949  26.052  1.00  0.00     0.018 A 
ATOM     10  C   UNL A   1      31.328  26.257  26.541  1.00  0.00     0.032 A 
ATOM     11  C   UNL A   1      32.686  24.538  25.525  1.00  0.00     0.135 A 
ATOM     12  C   UNL A   1      32.410  27.134  26.474  1.00  0.00     0.042 A 
ATOM     13  C   UNL A   1      33.768  25.422  25.450  1.00  0.00     0.019 A 
ATOM     14  O   UNL A   1      32.780  23.260  25.036  1.00  0.00    -0.475 OA
ATOM     15  Cl  UNL A   1      32.245  28.737  27.081  1.00  0.00    -0.084 Cl
ATOM     16  C   UNL A   1      33.625  26.728  25.924  1.00  0.00     0.032 A 
ATOM     17  C   UNL A   1      35.019  24.974  24.847  1.00  0.00     0.025 C 
ATOM     18  C   UNL A   1      34.112  22.686  24.988  1.00  0.00     0.314 C 
BRANCH   9  19
ATOM     19  C   UNL A   1      30.329  24.002  26.144  1.00  0.00     0.004 C 
ATOM     20  C   UNL A   1      30.252  23.024  27.054  1.00  0.00     0.009 C 
ENDBRANCH   9  19
BRANCH  18  21
ATOM     21  C   UNL A   1      34.399  21.952  26.312  1.00  0.00     0.429 C 
ATOM     22  F   UNL A   1      34.648  22.838  27.307  1.00  0.00    -0.167 F 
ATOM     23  F   UNL A   1      33.354  21.194  26.724  1.00  0.00    -0.167 F 
ATOM     24  F   UNL A   1      35.467  21.125  26.230  1.00  0.00    -0.167 F 
ENDBRANCH  18  21
ENDBRANCH   5   8
ENDBRANCH   3   4
ENDBRANCH   2   3
ENDBRANCH   1   2
BRANCH   1  25
ATOM     25  N   UNL A   1      41.068  23.856  25.972  1.00  0.00    -0.352 N 
ATOM     26  C   UNL A   1      41.369  25.197  26.014  1.00  0.00     0.251 C 
ATOM     27  H   UNL A   1      41.292  23.407  25.126  1.00  0.00     0.163 HD
ATOM     28  O   UNL A   1      41.665  25.789  24.980  1.00  0.00    -0.269 OA
BRANCH  26  29
ATOM     29  C   UNL A   1      41.306  25.925  27.298  1.00  0.00     0.039 A 
ATOM     30  C   UNL A   1      40.133  25.914  28.053  1.00  0.00     0.014 A 
ATOM     31  C   UNL A   1      42.419  26.644  27.738  1.00  0.00     0.014 A 
ATOM     32  C   UNL A   1      40.003  26.779  29.131  1.00  0.00     0.010 A 
ATOM     33  C   UNL A   1      42.318  27.440  28.882  1.00  0.00     0.010 A 
ATOM     34  C   UNL A   1      41.090  27.560  29.552  1.00  0.00    -0.014 A 
BRANCH  34  35
ATOM     35  C   UNL A   1      40.912  28.521  30.670  1.00  0.00     0.031 A 
ATOM     36  C   UNL A   1      41.845  28.497  31.852  1.00  0.00     0.074 A 
ATOM     37  C   UNL A   1      39.940  29.451  30.597  1.00  0.00     0.049 A 
ATOM     38  N   UNL A   1      41.811  29.214  32.946  1.00  0.00    -0.248 NA
ATOM     39  C   UNL A   1      42.961  27.538  31.801  1.00  0.00     0.031 C 
ATOM     40  C   UNL A   1      38.990  29.592  29.492  1.00  0.00     0.029 A 
ATOM     41  N   UNL A   1      39.602  30.464  31.457  1.00  0.00    -0.354 N 
ATOM     42  C   UNL A   1      42.869  28.767  33.730  1.00  0.00     0.074 A 
ATOM     43  C   UNL A   1      43.522  27.708  32.990  1.00  0.00     0.031 C 
ATOM     44  C   UNL A   1      38.208  30.657  29.718  1.00  0.00     0.029 A 
ATOM     45  C   UNL A   1      38.549  31.227  31.016  1.00  0.00     0.049 A 
ATOM     46  H   UNL A   1      40.068  30.626  32.309  1.00  0.00     0.167 HD
ATOM     47  C   UNL A   1      43.261  29.203  34.951  1.00  0.00     0.037 A 
ATOM     48  C   UNL A   1      37.907  32.255  31.603  1.00  0.00     0.037 A 
ATOM     49  C   UNL A   1      42.630  30.284  35.662  1.00  0.00     0.049 A 
ATOM     50  C   UNL A   1      38.344  32.706  32.964  1.00  0.00     0.074 A 
ATOM     51  C   UNL A   1      42.970  30.824  36.891  1.00  0.00     0.029 A 
ATOM     52  N   UNL A   1      41.531  30.998  35.205  1.00  0.00    -0.354 N 
ATOM     53  N   UNL A   1      39.326  32.250  33.704  1.00  0.00    -0.248 NA
ATOM     54  C   UNL A   1      37.577  33.797  33.577  1.00  0.00     0.031 C 
ATOM     55  C   UNL A   1      42.054  31.840  37.192  1.00  0.00     0.029 A 
ATOM     56  C   UNL A   1      41.166  31.958  36.135  1.00  0.00     0.049 A 
ATOM     57  H   UNL A   1      41.076  30.843  34.345  1.00  0.00     0.167 HD
ATOM     58  C   UNL A   1      39.285  32.987  34.881  1.00  0.00     0.074 A 
ATOM     59  C   UNL A   1      38.205  33.943  34.737  1.00  0.00     0.031 C 
ATOM     60  C   UNL A   1      40.066  32.876  35.985  1.00  0.00     0.037 A 
BRANCH  47  61
ATOM     61  C   UNL A   1      44.410  28.488  35.608  1.00  0.00     0.058 A 
ATOM     62  C   UNL A   1      45.740  28.902  35.432  1.00  0.00     0.135 A 
ATOM     63  C   UNL A   1      44.173  27.382  36.440  1.00  0.00     0.135 A 
ATOM     64  F   UNL A   1      46.025  29.941  34.631  1.00  0.00    -0.206 F 
ATOM     65  C   UNL A   1      46.797  28.226  36.035  1.00  0.00     0.059 A 
ATOM     66  C   UNL A   1      45.213  26.705  37.070  1.00  0.00     0.059 A 
ATOM     67  F   UNL A   1      42.921  26.943  36.640  1.00  0.00    -0.206 F 
ATOM     68  C   UNL A   1      46.524  27.125  36.849  1.00  0.00     0.060 A 
BRANCH  68  69
ATOM     69  S   UNL A   1      47.906  26.249  37.611  1.00  0.00     0.124 S 
ATOM     70  O   UNL A   1      49.047  26.987  37.077  1.00  0.00    -0.237 OA
ATOM     71  O   UNL A   1      47.646  26.433  39.036  1.00  0.00    -0.237 OA
ATOM     72  O   UNL A   1      47.756  24.883  37.120  1.00  0.00    -0.744 OA
ENDBRANCH  68  69
ENDBRANCH  47  61
BRANCH  48  73
ATOM     73  C   UNL A   1      36.766  32.893  30.899  1.00  0.00     0.058 A 
ATOM     74  C   UNL A   1      35.444  32.616  31.269  1.00  0.00     0.135 A 
ATOM     75  C   UNL A   1      36.981  33.852  29.896  1.00  0.00     0.135 A 
ATOM     76  F   UNL A   1      35.190  31.699  32.216  1.00  0.00    -0.206 F 
ATOM     77  C   UNL A   1      34.372  33.280  30.682  1.00  0.00     0.059 A 
ATOM     78  C   UNL A   1      35.927  34.546  29.311  1.00  0.00     0.059 A 
ATOM     79  F   UNL A   1      38.232  34.160  29.519  1.00  0.00    -0.206 F 
ATOM     80  C   UNL A   1      34.626  34.254  29.714  1.00  0.00     0.060 A 
BRANCH  80  81
ATOM     81  S   UNL A   1      33.235  35.188  29.038  1.00  0.00     0.124 S 
ATOM     82  O   UNL A   1      32.656  34.225  28.111  1.00  0.00    -0.237 OA
ATOM     83  O   UNL A   1      32.450  35.476  30.235  1.00  0.00    -0.237 OA
ATOM     84  O   UNL A   1      33.877  36.349  28.428  1.00  0.00    -0.744 OA
ENDBRANCH  80  81
ENDBRANCH  48  73
BRANCH  60  85
ATOM     85  C   UNL A   1      39.754  33.800  37.127  1.00  0.00     0.058 A 
ATOM     86  C   UNL A   1      40.288  35.097  37.179  1.00  0.00     0.135 A 
ATOM     87  C   UNL A   1      38.908  33.393  38.170  1.00  0.00     0.135 A 
ATOM     88  F   UNL A   1      41.109  35.529  36.208  1.00  0.00    -0.206 F 
ATOM     89  C   UNL A   1      40.019  35.950  38.243  1.00  0.00     0.059 A 
ATOM     90  C   UNL A   1      38.607  34.238  39.234  1.00  0.00     0.059 A 
ATOM     91  F   UNL A   1      38.365  32.165  38.162  1.00  0.00    -0.206 F 
ATOM     92  C   UNL A   1      39.181  35.509  39.269  1.00  0.00     0.060 A 
BRANCH  92  93
ATOM     93  S   UNL A   1      38.839  36.624  40.646  1.00  0.00     0.124 S 
ATOM     94  O   UNL A   1      37.877  35.847  41.421  1.00  0.00    -0.237 OA
ATOM     95  O   UNL A   1      40.156  36.790  41.252  1.00  0.00    -0.237 OA
ATOM     96  O   UNL A   1      38.303  37.814  39.992  1.00  0.00    -0.744 OA
ENDBRANCH  92  93
ENDBRANCH  60  85
ENDBRANCH  34  35
ENDBRANCH  26  29
ENDBRANCH   1  25
TORSDOF 15
ENDMDL
