MODEL 1
REMARK VINA RESULT:     -11.2      0.000      0.000
REMARK SMILES CC[C@H](C)[C@H](NS(=O)(=O)c1ccc(C)cc1)C(=O)NCCCNC(=O)c1ccc(-c2c3nc(c(-c4c(F)cc(S(=O)(=O)[O-])cc4F)c4ccc([nH]4)c(-c4c(F)cc(S(=O)(=O)[O-])cc4F)c4nc(c(-c5c(F)cc(S(=O)(=O)[O-])cc5F)c5ccc2[nH]5)C=C4)C=C3)cc1
REMARK SMILES IDX 21 1 20 2 19 3 17 4 18 5 5 7 3 8 4 9 2 10 1 11 6 12 7 14
REMARK SMILES IDX 8 15 9 16 10 17 11 18 16 19 12 20 15 21 13 22 14 23 22 24
REMARK SMILES IDX 23 25 24 26 25 28 26 29 27 30 91 31 28 32 90 33 29 34 30 35
REMARK SMILES IDX 31 36 84 37 32 38 89 39 83 40 85 41 33 42 88 43 82 44 81 45
REMARK SMILES IDX 34 47 68 48 47 49 67 50 48 51 51 52 66 53 86 54 49 55 50 56
REMARK SMILES IDX 65 58 87 59 52 60 35 61 36 62 45 63 37 64 38 65 44 66 46 67
REMARK SMILES IDX 39 68 40 69 41 70 42 71 43 72 69 73 70 74 79 75 71 76 72 77
REMARK SMILES IDX 78 78 80 79 73 80 74 81 75 82 76 83 77 84 53 85 54 86 63 87
REMARK SMILES IDX 55 88 56 89 62 90 64 91 57 92 58 93 59 94 60 95 61 96
REMARK H PARENT 19 6 6 13 23 27 85 46 51 57
REMARK Flexibility Score: inf
ROOT
ATOM      1  C   UNL A   1      31.489  28.845  25.699  1.00  0.00     0.042 C 
ENDROOT
BRANCH   1   2
ATOM      2  C   UNL A   1      31.871  27.531  26.555  1.00  0.00     0.117 C 
BRANCH   2   3
ATOM      3  N   UNL A   1      31.150  26.258  26.658  1.00  0.00    -0.355 N 
ATOM      4  C   UNL A   1      31.632  25.058  26.146  1.00  0.00     0.238 C 
ATOM      5  O   UNL A   1      31.350  23.960  26.634  1.00  0.00    -0.273 OA
ATOM      6  H   UNL A   1      30.278  26.252  27.115  1.00  0.00     0.163 HD
BRANCH   4   7
ATOM      7  C   UNL A   1      32.417  25.118  24.800  1.00  0.00     0.161 C 
BRANCH   7   8
ATOM      8  C   UNL A   1      31.619  25.438  23.479  1.00  0.00     0.013 C 
ATOM      9  C   UNL A   1      30.111  25.307  23.547  1.00  0.00     0.010 C 
BRANCH   8  10
ATOM     10  C   UNL A   1      31.946  26.765  22.742  1.00  0.00     0.002 C 
ATOM     11  C   UNL A   1      33.419  27.109  22.546  1.00  0.00     0.004 C 
ENDBRANCH   8  10
ENDBRANCH   7   8
BRANCH   7  12
ATOM     12  N   UNL A   1      33.484  24.085  25.008  1.00  0.00    -0.198 NA
ATOM     13  H   UNL A   1      33.011  23.392  25.586  1.00  0.00     0.142 HD
BRANCH  12  14
ATOM     14  S   UNL A   1      34.438  23.146  24.037  1.00  0.00     0.241 S 
ATOM     15  O   UNL A   1      33.742  21.920  23.838  1.00  0.00    -0.207 OA
ATOM     16  O   UNL A   1      34.940  23.932  22.907  1.00  0.00    -0.207 OA
BRANCH  14  17
ATOM     17  C   UNL A   1      35.846  22.744  25.037  1.00  0.00     0.082 A 
ATOM     18  C   UNL A   1      36.380  21.460  24.903  1.00  0.00     0.022 A 
ATOM     19  C   UNL A   1      36.541  23.753  25.708  1.00  0.00     0.022 A 
ATOM     20  C   UNL A   1      37.677  21.213  25.337  1.00  0.00     0.005 A 
ATOM     21  C   UNL A   1      37.853  23.505  26.114  1.00  0.00     0.005 A 
ATOM     22  C   UNL A   1      38.436  22.245  25.903  1.00  0.00    -0.051 A 
ATOM     23  C   UNL A   1      39.901  22.043  26.148  1.00  0.00     0.044 C 
ENDBRANCH  14  17
ENDBRANCH  12  14
ENDBRANCH   7  12
ENDBRANCH   4   7
ENDBRANCH   2   3
ENDBRANCH   1   2
BRANCH   1  24
ATOM     24  C   UNL A   1      32.636  29.979  25.876  1.00  0.00     0.118 C 
BRANCH  24  25
ATOM     25  N   UNL A   1      34.208  30.033  26.349  1.00  0.00    -0.352 N 
ATOM     26  C   UNL A   1      35.237  30.442  27.374  1.00  0.00     0.251 C 
ATOM     27  H   UNL A   1      34.716  29.594  25.629  1.00  0.00     0.163 HD
ATOM     28  O   UNL A   1      36.082  29.529  27.514  1.00  0.00    -0.269 OA
BRANCH  26  29
ATOM     29  C   UNL A   1      35.510  31.663  28.479  1.00  0.00     0.039 A 
ATOM     30  C   UNL A   1      36.581  32.619  28.368  1.00  0.00     0.014 A 
ATOM     31  C   UNL A   1      34.890  31.825  29.689  1.00  0.00     0.014 A 
ATOM     32  C   UNL A   1      37.422  32.892  29.518  1.00  0.00     0.010 A 
ATOM     33  C   UNL A   1      35.704  32.074  30.820  1.00  0.00     0.010 A 
ATOM     34  C   UNL A   1      37.078  32.324  30.740  1.00  0.00    -0.014 A 
BRANCH  34  35
ATOM     35  C   UNL A   1      37.998  31.949  31.897  1.00  0.00     0.031 A 
ATOM     36  C   UNL A   1      38.244  32.975  32.901  1.00  0.00     0.074 A 
ATOM     37  C   UNL A   1      38.514  30.733  32.278  1.00  0.00     0.049 A 
ATOM     38  N   UNL A   1      39.398  33.430  33.247  1.00  0.00    -0.248 NA
ATOM     39  C   UNL A   1      37.128  33.585  33.605  1.00  0.00     0.031 C 
ATOM     40  C   UNL A   1      39.395  30.296  33.386  1.00  0.00     0.029 A 
ATOM     41  N   UNL A   1      38.370  29.511  31.655  1.00  0.00    -0.354 N 
ATOM     42  C   UNL A   1      39.178  34.121  34.421  1.00  0.00     0.074 A 
ATOM     43  C   UNL A   1      37.765  34.402  34.438  1.00  0.00     0.031 C 
ATOM     44  C   UNL A   1      40.029  29.147  33.034  1.00  0.00     0.029 A 
ATOM     45  C   UNL A   1      39.563  28.791  31.713  1.00  0.00     0.049 A 
ATOM     46  H   UNL A   1      37.541  29.192  31.229  1.00  0.00     0.167 HD
ATOM     47  C   UNL A   1      40.116  34.129  35.414  1.00  0.00     0.037 A 
ATOM     48  C   UNL A   1      40.258  28.640  30.544  1.00  0.00     0.037 A 
ATOM     49  C   UNL A   1      41.202  33.189  35.086  1.00  0.00     0.049 A 
ATOM     50  C   UNL A   1      41.471  29.547  30.576  1.00  0.00     0.074 A 
ATOM     51  C   UNL A   1      41.523  31.928  35.569  1.00  0.00     0.029 A 
ATOM     52  N   UNL A   1      41.900  33.322  33.886  1.00  0.00    -0.354 N 
ATOM     53  N   UNL A   1      41.599  30.502  31.456  1.00  0.00    -0.248 NA
ATOM     54  C   UNL A   1      42.654  29.432  29.729  1.00  0.00     0.031 C 
ATOM     55  C   UNL A   1      42.316  31.266  34.590  1.00  0.00     0.029 A 
ATOM     56  C   UNL A   1      42.495  32.127  33.520  1.00  0.00     0.049 A 
ATOM     57  H   UNL A   1      41.961  34.157  33.368  1.00  0.00     0.167 HD
ATOM     58  C   UNL A   1      42.834  31.064  31.384  1.00  0.00     0.074 A 
ATOM     59  C   UNL A   1      43.458  30.372  30.268  1.00  0.00     0.031 C 
ATOM     60  C   UNL A   1      43.244  32.021  32.269  1.00  0.00     0.037 A 
BRANCH  47  61
ATOM     61  C   UNL A   1      39.864  34.705  36.804  1.00  0.00     0.058 A 
ATOM     62  C   UNL A   1      39.326  33.912  37.839  1.00  0.00     0.135 A 
ATOM     63  C   UNL A   1      40.177  36.026  37.201  1.00  0.00     0.135 A 
ATOM     64  F   UNL A   1      39.077  32.607  37.664  1.00  0.00    -0.206 F 
ATOM     65  C   UNL A   1      39.055  34.405  39.122  1.00  0.00     0.059 A 
ATOM     66  C   UNL A   1      39.848  36.564  38.448  1.00  0.00     0.059 A 
ATOM     67  F   UNL A   1      40.914  36.838  36.432  1.00  0.00    -0.206 F 
ATOM     68  C   UNL A   1      39.301  35.739  39.414  1.00  0.00     0.060 A 
BRANCH  68  69
ATOM     69  S   UNL A   1      39.012  36.344  41.087  1.00  0.00     0.124 S 
ATOM     70  O   UNL A   1      40.238  35.954  41.774  1.00  0.00    -0.237 OA
ATOM     71  O   UNL A   1      38.835  37.775  40.865  1.00  0.00    -0.237 OA
ATOM     72  O   UNL A   1      37.811  35.628  41.508  1.00  0.00    -0.744 OA
ENDBRANCH  68  69
ENDBRANCH  47  61
BRANCH  48  73
ATOM     73  C   UNL A   1      39.318  28.351  29.363  1.00  0.00     0.058 A 
ATOM     74  C   UNL A   1      39.431  29.296  28.319  1.00  0.00     0.135 A 
ATOM     75  C   UNL A   1      39.325  27.063  28.878  1.00  0.00     0.135 A 
ATOM     76  F   UNL A   1      38.944  30.531  28.487  1.00  0.00    -0.206 F 
ATOM     77  C   UNL A   1      40.237  29.054  27.193  1.00  0.00     0.059 A 
ATOM     78  C   UNL A   1      39.949  26.809  27.645  1.00  0.00     0.059 A 
ATOM     79  F   UNL A   1      38.850  26.039  29.607  1.00  0.00    -0.206 F 
ATOM     80  C   UNL A   1      40.687  27.763  26.959  1.00  0.00     0.060 A 
BRANCH  80  81
ATOM     81  S   UNL A   1      42.492  27.538  25.970  1.00  0.00     0.124 S 
ATOM     82  O   UNL A   1      42.216  28.243  24.729  1.00  0.00    -0.237 OA
ATOM     83  O   UNL A   1      43.485  28.258  26.736  1.00  0.00    -0.237 OA
ATOM     84  O   UNL A   1      42.746  26.121  25.772  1.00  0.00    -0.744 OA
ENDBRANCH  80  81
ENDBRANCH  48  73
BRANCH  60  85
ATOM     85  C   UNL A   1      44.468  32.878  32.101  1.00  0.00     0.058 A 
ATOM     86  C   UNL A   1      44.478  34.087  31.389  1.00  0.00     0.135 A 
ATOM     87  C   UNL A   1      45.663  32.560  32.793  1.00  0.00     0.135 A 
ATOM     88  F   UNL A   1      43.370  34.573  30.811  1.00  0.00    -0.206 F 
ATOM     89  C   UNL A   1      45.624  34.868  31.277  1.00  0.00     0.059 A 
ATOM     90  C   UNL A   1      46.790  33.368  32.762  1.00  0.00     0.059 A 
ATOM     91  F   UNL A   1      45.780  31.451  33.538  1.00  0.00    -0.206 F 
ATOM     92  C   UNL A   1      46.776  34.497  31.962  1.00  0.00     0.060 A 
BRANCH  92  93
ATOM     93  S   UNL A   1      48.253  35.508  31.813  1.00  0.00     0.124 S 
ATOM     94  O   UNL A   1      49.158  34.592  31.126  1.00  0.00    -0.237 OA
ATOM     95  O   UNL A   1      47.783  36.642  31.023  1.00  0.00    -0.237 OA
ATOM     96  O   UNL A   1      48.596  35.815  33.198  1.00  0.00    -0.744 OA
ENDBRANCH  92  93
ENDBRANCH  60  85
ENDBRANCH  34  35
ENDBRANCH  26  29
ENDBRANCH  24  25
ENDBRANCH   1  24
TORSDOF 18
ENDMDL
MODEL 2
REMARK VINA RESULT:     -11.0      3.670      5.984
REMARK SMILES CC[C@H](C)[C@H](NS(=O)(=O)c1ccc(C)cc1)C(=O)NCCCNC(=O)c1ccc(-c2c3nc(c(-c4c(F)cc(S(=O)(=O)[O-])cc4F)c4ccc([nH]4)c(-c4c(F)cc(S(=O)(=O)[O-])cc4F)c4nc(c(-c5c(F)cc(S(=O)(=O)[O-])cc5F)c5ccc2[nH]5)C=C4)C=C3)cc1
REMARK SMILES IDX 21 1 20 2 19 3 17 4 18 5 5 7 3 8 4 9 2 10 1 11 6 12 7 14
REMARK SMILES IDX 8 15 9 16 10 17 11 18 16 19 12 20 15 21 13 22 14 23 22 24
REMARK SMILES IDX 23 25 24 26 25 28 26 29 27 30 91 31 28 32 90 33 29 34 30 35
REMARK SMILES IDX 31 36 84 37 32 38 89 39 83 40 85 41 33 42 88 43 82 44 81 45
REMARK SMILES IDX 34 47 68 48 47 49 67 50 48 51 51 52 66 53 86 54 49 55 50 56
REMARK SMILES IDX 65 58 87 59 52 60 35 61 36 62 45 63 37 64 38 65 44 66 46 67
REMARK SMILES IDX 39 68 40 69 41 70 42 71 43 72 69 73 70 74 79 75 71 76 72 77
REMARK SMILES IDX 78 78 80 79 73 80 74 81 75 82 76 83 77 84 53 85 54 86 63 87
REMARK SMILES IDX 55 88 56 89 62 90 64 91 57 92 58 93 59 94 60 95 61 96
REMARK H PARENT 19 6 6 13 23 27 85 46 51 57
REMARK Flexibility Score: inf
ROOT
ATOM      1  C   UNL A   1      36.216  21.433  25.201  1.00  0.00     0.042 C 
ENDROOT
BRANCH   1   2
ATOM      2  C   UNL A   1      35.382  20.158  24.669  1.00  0.00     0.117 C 
BRANCH   2   3
ATOM      3  N   UNL A   1      34.293  19.430  25.329  1.00  0.00    -0.355 N 
ATOM      4  C   UNL A   1      32.949  19.622  25.031  1.00  0.00     0.238 C 
ATOM      5  O   UNL A   1      32.101  18.734  25.155  1.00  0.00    -0.273 OA
ATOM      6  H   UNL A   1      34.527  18.769  26.020  1.00  0.00     0.163 HD
BRANCH   4   7
ATOM      7  C   UNL A   1      32.491  21.074  24.694  1.00  0.00     0.161 C 
BRANCH   7   8
ATOM      8  C   UNL A   1      32.653  21.588  23.213  1.00  0.00     0.013 C 
ATOM      9  C   UNL A   1      31.958  20.784  22.133  1.00  0.00     0.010 C 
BRANCH   8  10
ATOM     10  C   UNL A   1      32.376  23.091  22.936  1.00  0.00     0.002 C 
ATOM     11  C   UNL A   1      30.971  23.606  23.226  1.00  0.00     0.004 C 
ENDBRANCH   8  10
ENDBRANCH   7   8
BRANCH   7  12
ATOM     12  N   UNL A   1      32.798  21.808  25.965  1.00  0.00    -0.198 NA
ATOM     13  H   UNL A   1      33.647  22.319  25.725  1.00  0.00     0.142 HD
BRANCH  12  14
ATOM     14  S   UNL A   1      32.004  22.877  26.945  1.00  0.00     0.241 S 
ATOM     15  O   UNL A   1      30.635  22.855  26.554  1.00  0.00    -0.207 OA
ATOM     16  O   UNL A   1      32.403  22.678  28.341  1.00  0.00    -0.207 OA
BRANCH  14  17
ATOM     17  C   UNL A   1      32.616  24.471  26.468  1.00  0.00     0.082 A 
ATOM     18  C   UNL A   1      33.919  24.533  25.968  1.00  0.00     0.022 A 
ATOM     19  C   UNL A   1      31.738  25.551  26.344  1.00  0.00     0.022 A 
ATOM     20  C   UNL A   1      34.311  25.640  25.225  1.00  0.00     0.005 A 
ATOM     21  C   UNL A   1      32.130  26.645  25.571  1.00  0.00     0.005 A 
ATOM     22  C   UNL A   1      33.406  26.681  24.985  1.00  0.00    -0.051 A 
ATOM     23  C   UNL A   1      33.747  27.751  23.993  1.00  0.00     0.044 C 
ENDBRANCH  14  17
ENDBRANCH  12  14
ENDBRANCH   7  12
ENDBRANCH   4   7
ENDBRANCH   2   3
ENDBRANCH   1   2
BRANCH   1  24
ATOM     24  C   UNL A   1      37.744  21.000  25.536  1.00  0.00     0.118 C 
BRANCH  24  25
ATOM     25  N   UNL A   1      39.151  21.759  25.915  1.00  0.00    -0.352 N 
ATOM     26  C   UNL A   1      39.856  22.952  26.512  1.00  0.00     0.251 C 
ATOM     27  H   UNL A   1      39.867  21.157  25.608  1.00  0.00     0.163 HD
ATOM     28  O   UNL A   1      40.840  22.568  27.186  1.00  0.00    -0.269 OA
BRANCH  26  29
ATOM     29  C   UNL A   1      39.646  24.599  26.675  1.00  0.00     0.039 A 
ATOM     30  C   UNL A   1      40.470  25.580  26.018  1.00  0.00     0.014 A 
ATOM     31  C   UNL A   1      38.807  25.234  27.550  1.00  0.00     0.014 A 
ATOM     32  C   UNL A   1      41.015  26.687  26.781  1.00  0.00     0.010 A 
ATOM     33  C   UNL A   1      39.335  26.304  28.313  1.00  0.00     0.010 A 
ATOM     34  C   UNL A   1      40.607  26.846  28.101  1.00  0.00    -0.014 A 
BRANCH  34  35
ATOM     35  C   UNL A   1      41.376  27.481  29.254  1.00  0.00     0.031 A 
ATOM     36  C   UNL A   1      40.666  28.474  30.051  1.00  0.00     0.074 A 
ATOM     37  C   UNL A   1      42.589  27.157  29.813  1.00  0.00     0.049 A 
ATOM     38  N   UNL A   1      41.044  29.689  30.250  1.00  0.00    -0.248 NA
ATOM     39  C   UNL A   1      39.412  28.126  30.696  1.00  0.00     0.031 C 
ATOM     40  C   UNL A   1      43.384  27.715  30.932  1.00  0.00     0.029 A 
ATOM     41  N   UNL A   1      43.475  26.175  29.421  1.00  0.00    -0.354 N 
ATOM     42  C   UNL A   1      40.265  30.142  31.296  1.00  0.00     0.074 A 
ATOM     43  C   UNL A   1      39.132  29.255  31.339  1.00  0.00     0.031 C 
ATOM     44  C   UNL A   1      44.696  27.409  30.752  1.00  0.00     0.029 A 
ATOM     45  C   UNL A   1      44.788  26.628  29.540  1.00  0.00     0.049 A 
ATOM     46  H   UNL A   1      43.216  25.280  29.101  1.00  0.00     0.167 HD
ATOM     47  C   UNL A   1      40.775  31.009  32.221  1.00  0.00     0.037 A 
ATOM     48  C   UNL A   1      45.470  26.878  28.379  1.00  0.00     0.037 A 
ATOM     49  C   UNL A   1      42.222  31.182  32.004  1.00  0.00     0.049 A 
ATOM     50  C   UNL A   1      45.576  28.377  28.189  1.00  0.00     0.074 A 
ATOM     51  C   UNL A   1      43.332  30.697  32.682  1.00  0.00     0.029 A 
ATOM     52  N   UNL A   1      42.694  31.611  30.764  1.00  0.00    -0.354 N 
ATOM     53  N   UNL A   1      44.855  29.216  28.881  1.00  0.00    -0.248 NA
ATOM     54  C   UNL A   1      46.516  29.069  27.312  1.00  0.00     0.031 C 
ATOM     55  C   UNL A   1      44.442  30.726  31.792  1.00  0.00     0.029 A 
ATOM     56  C   UNL A   1      44.017  31.244  30.580  1.00  0.00     0.049 A 
ATOM     57  H   UNL A   1      42.157  32.109  30.106  1.00  0.00     0.167 HD
ATOM     58  C   UNL A   1      45.245  30.497  28.646  1.00  0.00     0.074 A 
ATOM     59  C   UNL A   1      46.281  30.357  27.636  1.00  0.00     0.031 C 
ATOM     60  C   UNL A   1      44.707  31.552  29.328  1.00  0.00     0.037 A 
BRANCH  47  61
ATOM     61  C   UNL A   1      40.042  31.398  33.502  1.00  0.00     0.058 A 
ATOM     62  C   UNL A   1      39.315  32.603  33.592  1.00  0.00     0.135 A 
ATOM     63  C   UNL A   1      39.977  30.602  34.669  1.00  0.00     0.135 A 
ATOM     64  F   UNL A   1      39.181  33.421  32.540  1.00  0.00    -0.206 F 
ATOM     65  C   UNL A   1      38.649  33.012  34.755  1.00  0.00     0.059 A 
ATOM     66  C   UNL A   1      39.386  31.019  35.865  1.00  0.00     0.059 A 
ATOM     67  F   UNL A   1      40.396  29.330  34.681  1.00  0.00    -0.206 F 
ATOM     68  C   UNL A   1      38.705  32.222  35.895  1.00  0.00     0.060 A 
BRANCH  68  69
ATOM     69  S   UNL A   1      37.789  32.727  37.363  1.00  0.00     0.124 S 
ATOM     70  O   UNL A   1      38.703  33.677  37.988  1.00  0.00    -0.237 OA
ATOM     71  O   UNL A   1      36.578  33.298  36.783  1.00  0.00    -0.237 OA
ATOM     72  O   UNL A   1      37.596  31.478  38.095  1.00  0.00    -0.744 OA
ENDBRANCH  68  69
ENDBRANCH  47  61
BRANCH  48  73
ATOM     73  C   UNL A   1      45.189  25.803  27.318  1.00  0.00     0.058 A 
ATOM     74  C   UNL A   1      44.828  26.341  26.062  1.00  0.00     0.135 A 
ATOM     75  C   UNL A   1      46.136  24.812  27.187  1.00  0.00     0.135 A 
ATOM     76  F   UNL A   1      43.624  26.902  25.904  1.00  0.00    -0.206 F 
ATOM     77  C   UNL A   1      45.773  26.510  25.036  1.00  0.00     0.059 A 
ATOM     78  C   UNL A   1      46.977  24.827  26.061  1.00  0.00     0.059 A 
ATOM     79  F   UNL A   1      46.343  23.909  28.160  1.00  0.00    -0.206 F 
ATOM     80  C   UNL A   1      47.000  25.871  25.147  1.00  0.00     0.060 A 
BRANCH  80  81
ATOM     81  S   UNL A   1      48.634  26.765  24.245  1.00  0.00     0.124 S 
ATOM     82  O   UNL A   1      49.721  25.970  24.792  1.00  0.00    -0.237 OA
ATOM     83  O   UNL A   1      48.515  26.526  22.824  1.00  0.00    -0.237 OA
ATOM     84  O   UNL A   1      48.691  28.160  24.652  1.00  0.00    -0.744 OA
ENDBRANCH  80  81
ENDBRANCH  48  73
BRANCH  60  85
ATOM     85  C   UNL A   1      44.877  32.997  28.949  1.00  0.00     0.058 A 
ATOM     86  C   UNL A   1      45.562  33.931  29.739  1.00  0.00     0.135 A 
ATOM     87  C   UNL A   1      44.461  33.454  27.674  1.00  0.00     0.135 A 
ATOM     88  F   UNL A   1      46.132  33.587  30.902  1.00  0.00    -0.206 F 
ATOM     89  C   UNL A   1      45.723  35.256  29.343  1.00  0.00     0.059 A 
ATOM     90  C   UNL A   1      44.685  34.747  27.226  1.00  0.00     0.059 A 
ATOM     91  F   UNL A   1      43.824  32.655  26.805  1.00  0.00    -0.206 F 
ATOM     92  C   UNL A   1      45.276  35.655  28.088  1.00  0.00     0.060 A 
BRANCH  92  93
ATOM     93  S   UNL A   1      45.485  37.365  27.582  1.00  0.00     0.124 S 
ATOM     94  O   UNL A   1      44.097  37.787  27.422  1.00  0.00    -0.237 OA
ATOM     95  O   UNL A   1      46.195  37.947  28.717  1.00  0.00    -0.237 OA
ATOM     96  O   UNL A   1      46.261  37.263  26.350  1.00  0.00    -0.744 OA
ENDBRANCH  92  93
ENDBRANCH  60  85
ENDBRANCH  34  35
ENDBRANCH  26  29
ENDBRANCH  24  25
ENDBRANCH   1  24
TORSDOF 18
ENDMDL
MODEL 3
REMARK VINA RESULT:     -10.9      5.388     10.188
REMARK SMILES CC[C@H](C)[C@H](NS(=O)(=O)c1ccc(C)cc1)C(=O)NCCCNC(=O)c1ccc(-c2c3nc(c(-c4c(F)cc(S(=O)(=O)[O-])cc4F)c4ccc([nH]4)c(-c4c(F)cc(S(=O)(=O)[O-])cc4F)c4nc(c(-c5c(F)cc(S(=O)(=O)[O-])cc5F)c5ccc2[nH]5)C=C4)C=C3)cc1
REMARK SMILES IDX 21 1 20 2 19 3 17 4 18 5 5 7 3 8 4 9 2 10 1 11 6 12 7 14
REMARK SMILES IDX 8 15 9 16 10 17 11 18 16 19 12 20 15 21 13 22 14 23 22 24
REMARK SMILES IDX 23 25 24 26 25 28 26 29 27 30 91 31 28 32 90 33 29 34 30 35
REMARK SMILES IDX 31 36 84 37 32 38 89 39 83 40 85 41 33 42 88 43 82 44 81 45
REMARK SMILES IDX 34 47 68 48 47 49 67 50 48 51 51 52 66 53 86 54 49 55 50 56
REMARK SMILES IDX 65 58 87 59 52 60 35 61 36 62 45 63 37 64 38 65 44 66 46 67
REMARK SMILES IDX 39 68 40 69 41 70 42 71 43 72 69 73 70 74 79 75 71 76 72 77
REMARK SMILES IDX 78 78 80 79 73 80 74 81 75 82 76 83 77 84 53 85 54 86 63 87
REMARK SMILES IDX 55 88 56 89 62 90 64 91 57 92 58 93 59 94 60 95 61 96
REMARK H PARENT 19 6 6 13 23 27 85 46 51 57
REMARK Flexibility Score: inf
ROOT
ATOM      1  C   UNL A   1      36.267  21.027  24.480  1.00  0.00     0.042 C 
ENDROOT
BRANCH   1   2
ATOM      2  C   UNL A   1      34.823  21.268  25.159  1.00  0.00     0.117 C 
BRANCH   2   3
ATOM      3  N   UNL A   1      33.957  20.304  25.846  1.00  0.00    -0.355 N 
ATOM      4  C   UNL A   1      32.715  19.907  25.364  1.00  0.00     0.238 C 
ATOM      5  O   UNL A   1      32.228  18.797  25.598  1.00  0.00    -0.273 OA
ATOM      6  H   UNL A   1      34.272  19.916  26.694  1.00  0.00     0.163 HD
BRANCH   4   7
ATOM      7  C   UNL A   1      31.847  20.986  24.647  1.00  0.00     0.161 C 
BRANCH   7   8
ATOM      8  C   UNL A   1      32.382  21.608  23.302  1.00  0.00     0.013 C 
ATOM      9  C   UNL A   1      32.104  20.828  22.033  1.00  0.00     0.010 C 
BRANCH   8  10
ATOM     10  C   UNL A   1      32.060  23.101  23.019  1.00  0.00     0.002 C 
ATOM     11  C   UNL A   1      33.061  23.882  22.174  1.00  0.00     0.004 C 
ENDBRANCH   8  10
ENDBRANCH   7   8
BRANCH   7  12
ATOM     12  N   UNL A   1      31.204  21.696  25.802  1.00  0.00    -0.198 NA
ATOM     13  H   UNL A   1      30.854  20.924  26.368  1.00  0.00     0.142 HD
BRANCH  12  14
ATOM     14  S   UNL A   1      31.685  22.787  26.947  1.00  0.00     0.241 S 
ATOM     15  O   UNL A   1      30.505  23.250  27.596  1.00  0.00    -0.207 OA
ATOM     16  O   UNL A   1      32.818  22.255  27.710  1.00  0.00    -0.207 OA
BRANCH  14  17
ATOM     17  C   UNL A   1      32.302  24.171  26.026  1.00  0.00     0.082 A 
ATOM     18  C   UNL A   1      31.394  25.181  25.705  1.00  0.00     0.022 A 
ATOM     19  C   UNL A   1      33.679  24.357  25.880  1.00  0.00     0.022 A 
ATOM     20  C   UNL A   1      31.870  26.437  25.350  1.00  0.00     0.005 A 
ATOM     21  C   UNL A   1      34.150  25.630  25.552  1.00  0.00     0.005 A 
ATOM     22  C   UNL A   1      33.249  26.681  25.316  1.00  0.00    -0.051 A 
ATOM     23  C   UNL A   1      33.754  28.085  25.169  1.00  0.00     0.044 C 
ENDBRANCH  14  17
ENDBRANCH  12  14
ENDBRANCH   7  12
ENDBRANCH   4   7
ENDBRANCH   2   3
ENDBRANCH   1   2
BRANCH   1  24
ATOM     24  C   UNL A   1      37.268  22.251  24.849  1.00  0.00     0.118 C 
BRANCH  24  25
ATOM     25  N   UNL A   1      37.969  22.861  26.204  1.00  0.00    -0.352 N 
ATOM     26  C   UNL A   1      39.207  23.365  26.903  1.00  0.00     0.251 C 
ATOM     27  H   UNL A   1      37.246  22.928  26.868  1.00  0.00     0.163 HD
ATOM     28  O   UNL A   1      38.924  24.373  27.590  1.00  0.00    -0.269 OA
BRANCH  26  29
ATOM     29  C   UNL A   1      40.853  23.087  26.928  1.00  0.00     0.039 A 
ATOM     30  C   UNL A   1      41.617  22.909  28.134  1.00  0.00     0.014 A 
ATOM     31  C   UNL A   1      41.709  23.154  25.862  1.00  0.00     0.014 A 
ATOM     32  C   UNL A   1      42.852  23.646  28.317  1.00  0.00     0.010 A 
ATOM     33  C   UNL A   1      42.910  23.887  26.024  1.00  0.00     0.010 A 
ATOM     34  C   UNL A   1      43.338  24.400  27.253  1.00  0.00    -0.014 A 
BRANCH  34  35
ATOM     35  C   UNL A   1      44.200  25.656  27.305  1.00  0.00     0.031 A 
ATOM     36  C   UNL A   1      45.640  25.461  27.417  1.00  0.00     0.074 A 
ATOM     37  C   UNL A   1      43.883  26.975  27.081  1.00  0.00     0.049 A 
ATOM     38  N   UNL A   1      46.393  25.933  28.349  1.00  0.00    -0.248 NA
ATOM     39  C   UNL A   1      46.346  24.667  26.426  1.00  0.00     0.031 C 
ATOM     40  C   UNL A   1      44.664  28.234  27.101  1.00  0.00     0.029 A 
ATOM     41  N   UNL A   1      42.649  27.520  26.797  1.00  0.00    -0.354 N 
ATOM     42  C   UNL A   1      47.684  25.780  27.883  1.00  0.00     0.074 A 
ATOM     43  C   UNL A   1      47.600  24.777  26.853  1.00  0.00     0.031 C 
ATOM     44  C   UNL A   1      43.830  29.280  27.339  1.00  0.00     0.029 A 
ATOM     45  C   UNL A   1      42.494  28.741  27.452  1.00  0.00     0.049 A 
ATOM     46  H   UNL A   1      41.972  27.104  26.215  1.00  0.00     0.167 HD
ATOM     47  C   UNL A   1      48.645  26.707  28.171  1.00  0.00     0.037 A 
ATOM     48  C   UNL A   1      41.612  28.781  28.499  1.00  0.00     0.037 A 
ATOM     49  C   UNL A   1      48.037  27.871  28.838  1.00  0.00     0.049 A 
ATOM     50  C   UNL A   1      42.395  28.837  29.794  1.00  0.00     0.074 A 
ATOM     51  C   UNL A   1      47.738  29.151  28.393  1.00  0.00     0.029 A 
ATOM     52  N   UNL A   1      47.299  27.696  30.009  1.00  0.00    -0.354 N 
ATOM     53  N   UNL A   1      43.673  28.576  29.844  1.00  0.00    -0.248 NA
ATOM     54  C   UNL A   1      41.880  29.258  31.093  1.00  0.00     0.031 C 
ATOM     55  C   UNL A   1      46.725  29.689  29.236  1.00  0.00     0.029 A 
ATOM     56  C   UNL A   1      46.419  28.748  30.205  1.00  0.00     0.049 A 
ATOM     57  H   UNL A   1      47.391  26.926  30.615  1.00  0.00     0.167 HD
ATOM     58  C   UNL A   1      44.175  28.851  31.076  1.00  0.00     0.074 A 
ATOM     59  C   UNL A   1      43.005  29.259  31.837  1.00  0.00     0.031 C 
ATOM     60  C   UNL A   1      45.510  28.753  31.350  1.00  0.00     0.037 A 
BRANCH  47  61
ATOM     61  C   UNL A   1      50.032  26.705  27.535  1.00  0.00     0.058 A 
ATOM     62  C   UNL A   1      50.264  27.307  26.280  1.00  0.00     0.135 A 
ATOM     63  C   UNL A   1      51.195  26.165  28.134  1.00  0.00     0.135 A 
ATOM     64  F   UNL A   1      49.294  27.961  25.628  1.00  0.00    -0.206 F 
ATOM     65  C   UNL A   1      51.514  27.306  25.649  1.00  0.00     0.059 A 
ATOM     66  C   UNL A   1      52.435  26.085  27.493  1.00  0.00     0.059 A 
ATOM     67  F   UNL A   1      51.214  25.779  29.416  1.00  0.00    -0.206 F 
ATOM     68  C   UNL A   1      52.592  26.676  26.254  1.00  0.00     0.060 A 
BRANCH  68  69
ATOM     69  S   UNL A   1      54.210  26.741  25.462  1.00  0.00     0.124 S 
ATOM     70  O   UNL A   1      54.264  25.462  24.762  1.00  0.00    -0.237 OA
ATOM     71  O   UNL A   1      54.086  27.923  24.616  1.00  0.00    -0.237 OA
ATOM     72  O   UNL A   1      55.136  26.874  26.583  1.00  0.00    -0.744 OA
ENDBRANCH  68  69
ENDBRANCH  47  61
BRANCH  48  73
ATOM     73  C   UNL A   1      40.338  27.980  28.192  1.00  0.00     0.058 A 
ATOM     74  C   UNL A   1      40.060  26.985  29.157  1.00  0.00     0.135 A 
ATOM     75  C   UNL A   1      39.213  28.713  27.888  1.00  0.00     0.135 A 
ATOM     76  F   UNL A   1      40.817  25.884  29.210  1.00  0.00    -0.206 F 
ATOM     77  C   UNL A   1      39.159  27.216  30.210  1.00  0.00     0.059 A 
ATOM     78  C   UNL A   1      38.187  28.803  28.844  1.00  0.00     0.059 A 
ATOM     79  F   UNL A   1      39.130  29.428  26.754  1.00  0.00    -0.206 F 
ATOM     80  C   UNL A   1      38.310  28.312  30.136  1.00  0.00     0.060 A 
BRANCH  80  81
ATOM     81  S   UNL A   1      37.702  29.178  31.915  1.00  0.00     0.124 S 
ATOM     82  O   UNL A   1      38.737  30.182  32.101  1.00  0.00    -0.237 OA
ATOM     83  O   UNL A   1      36.432  29.821  31.658  1.00  0.00    -0.237 OA
ATOM     84  O   UNL A   1      37.702  28.164  32.956  1.00  0.00    -0.744 OA
ENDBRANCH  80  81
ENDBRANCH  48  73
BRANCH  60  85
ATOM     85  C   UNL A   1      46.108  28.771  32.730  1.00  0.00     0.058 A 
ATOM     86  C   UNL A   1      46.706  29.904  33.301  1.00  0.00     0.135 A 
ATOM     87  C   UNL A   1      45.961  27.652  33.586  1.00  0.00     0.135 A 
ATOM     88  F   UNL A   1      46.774  31.071  32.646  1.00  0.00    -0.206 F 
ATOM     89  C   UNL A   1      47.225  29.892  34.593  1.00  0.00     0.059 A 
ATOM     90  C   UNL A   1      46.396  27.648  34.903  1.00  0.00     0.059 A 
ATOM     91  F   UNL A   1      45.377  26.516  33.178  1.00  0.00    -0.206 F 
ATOM     92  C   UNL A   1      47.071  28.758  35.383  1.00  0.00     0.060 A 
BRANCH  92  93
ATOM     93  S   UNL A   1      47.744  28.746  37.048  1.00  0.00     0.124 S 
ATOM     94  O   UNL A   1      49.110  29.199  36.806  1.00  0.00    -0.237 OA
ATOM     95  O   UNL A   1      46.879  29.693  37.746  1.00  0.00    -0.237 OA
ATOM     96  O   UNL A   1      47.602  27.354  37.462  1.00  0.00    -0.744 OA
ENDBRANCH  92  93
ENDBRANCH  60  85
ENDBRANCH  34  35
ENDBRANCH  26  29
ENDBRANCH  24  25
ENDBRANCH   1  24
TORSDOF 18
ENDMDL
