MODEL 1
REMARK VINA RESULT:     -13.1      0.000      0.000
REMARK SMILES N#C/C(=C/c1ccc(-c2cccc(C(=O)NCCCNC(=O)c3ccc(-c4c5nc(c(-c6c(F)cc(S(=O)(=O)[O-])cc6F)c6ccc([nH]6)c(-c6c(F)cc(S(=O)(=O)[O-])cc6F)c6nc(c(-c7c(F)cc(S(=O)(=O)[O-])cc7F)c7ccc4[nH]7)C=C6)C=C5)cc3)c2)o1)c1ccc(F)cc1
REMARK SMILES IDX 18 1 17 2 16 3 14 4 15 5 13 7 9 8 10 9 89 10 11 11 12 12
REMARK SMILES IDX 8 13 5 14 6 15 90 16 7 17 4 18 3 19 2 20 1 21 91 22 92 23
REMARK SMILES IDX 97 24 93 25 96 26 94 27 95 28 19 29 20 30 21 31 22 33 23 34
REMARK SMILES IDX 24 35 88 36 25 37 87 38 26 39 27 40 28 41 81 42 29 43 86 44
REMARK SMILES IDX 80 45 82 46 30 47 85 48 79 49 78 50 31 52 65 53 44 54 64 55
REMARK SMILES IDX 45 56 48 57 63 58 83 59 46 60 47 61 62 63 84 64 49 65 32 66
REMARK SMILES IDX 33 67 42 68 34 69 35 70 41 71 43 72 36 73 37 74 38 75 39 76
REMARK SMILES IDX 40 77 66 78 67 79 76 80 68 81 69 82 75 83 77 84 70 85 71 86
REMARK SMILES IDX 72 87 73 88 74 89 50 90 51 91 60 92 52 93 53 94 59 95 61 96
REMARK SMILES IDX 54 97 55 98 56 99 57 100 58 101
REMARK H PARENT 16 6 20 32 82 51 48 62
REMARK Flexibility Score: inf
ROOT
ATOM      1  C   UNL A   1      37.376  23.448  25.249  1.00  0.00     0.042 C 
ENDROOT
BRANCH   1   2
ATOM      2  C   UNL A   1      37.028  21.983  25.456  1.00  0.00     0.118 C 
BRANCH   2   3
ATOM      3  N   UNL A   1      36.019  21.731  26.484  1.00  0.00    -0.352 N 
ATOM      4  C   UNL A   1      34.639  21.700  26.502  1.00  0.00     0.251 C 
ATOM      5  O   UNL A   1      34.087  21.430  27.569  1.00  0.00    -0.269 OA
ATOM      6  H   UNL A   1      36.415  21.539  27.365  1.00  0.00     0.163 HD
BRANCH   4   7
ATOM      7  C   UNL A   1      33.789  22.037  25.327  1.00  0.00     0.040 A 
ATOM      8  C   UNL A   1      32.133  23.488  24.296  1.00  0.00     0.018 A 
ATOM      9  C   UNL A   1      31.834  22.496  23.364  1.00  0.00     0.012 A 
ATOM     10  C   UNL A   1      33.220  23.289  25.157  1.00  0.00     0.025 A 
ATOM     11  C   UNL A   1      32.568  21.304  23.360  1.00  0.00     0.002 A 
ATOM     12  C   UNL A   1      33.506  21.056  24.372  1.00  0.00     0.014 A 
BRANCH   8  13
ATOM     13  C   UNL A   1      31.302  24.659  24.550  1.00  0.00     0.134 A 
ATOM     14  C   UNL A   1      30.065  26.388  23.887  1.00  0.00     0.128 A 
ATOM     15  C   UNL A   1      29.696  26.064  25.188  1.00  0.00     0.051 A 
ATOM     16  O   UNL A   1      31.040  25.490  23.496  1.00  0.00    -0.457 OA
ATOM     17  C   UNL A   1      30.526  25.020  25.629  1.00  0.00     0.051 A 
BRANCH  14  18
ATOM     18  C   UNL A   1      29.613  27.486  23.093  1.00  0.00     0.067 C 
ATOM     19  C   UNL A   1      30.190  28.701  23.202  1.00  0.00     0.063 C 
BRANCH  19  20
ATOM     20  C   UNL A   1      29.676  29.899  22.419  1.00  0.00     0.100 C 
ATOM     21  N   UNL A   1      29.250  30.892  21.769  1.00  0.00    -0.192 NA
ENDBRANCH  19  20
BRANCH  19  22
ATOM     22  C   UNL A   1      31.400  28.962  24.041  1.00  0.00    -0.007 A 
ATOM     23  C   UNL A   1      32.648  28.398  23.705  1.00  0.00     0.012 A 
ATOM     24  C   UNL A   1      31.306  29.733  25.210  1.00  0.00     0.012 A 
ATOM     25  C   UNL A   1      33.743  28.517  24.563  1.00  0.00     0.040 A 
ATOM     26  C   UNL A   1      32.413  29.875  26.053  1.00  0.00     0.040 A 
ATOM     27  C   UNL A   1      33.612  29.248  25.734  1.00  0.00     0.123 A 
ATOM     28  F   UNL A   1      34.654  29.346  26.570  1.00  0.00    -0.207 F 
ENDBRANCH  19  22
ENDBRANCH  14  18
ENDBRANCH   8  13
ENDBRANCH   4   7
ENDBRANCH   2   3
ENDBRANCH   1   2
BRANCH   1  29
ATOM     29  C   UNL A   1      38.206  24.061  26.364  1.00  0.00     0.118 C 
BRANCH  29  30
ATOM     30  N   UNL A   1      39.641  23.882  26.163  1.00  0.00    -0.352 N 
ATOM     31  C   UNL A   1      40.718  24.634  26.569  1.00  0.00     0.251 C 
ATOM     32  H   UNL A   1      39.880  23.080  25.645  1.00  0.00     0.163 HD
ATOM     33  O   UNL A   1      41.822  24.402  26.083  1.00  0.00    -0.269 OA
BRANCH  31  34
ATOM     34  C   UNL A   1      40.563  25.720  27.564  1.00  0.00     0.039 A 
ATOM     35  C   UNL A   1      39.614  25.580  28.582  1.00  0.00     0.014 A 
ATOM     36  C   UNL A   1      41.317  26.891  27.481  1.00  0.00     0.014 A 
ATOM     37  C   UNL A   1      39.484  26.575  29.556  1.00  0.00     0.010 A 
ATOM     38  C   UNL A   1      41.261  27.830  28.505  1.00  0.00     0.010 A 
ATOM     39  C   UNL A   1      40.342  27.687  29.552  1.00  0.00    -0.014 A 
BRANCH  39  40
ATOM     40  C   UNL A   1      40.300  28.708  30.632  1.00  0.00     0.031 A 
ATOM     41  C   UNL A   1      41.183  28.567  31.844  1.00  0.00     0.074 A 
ATOM     42  C   UNL A   1      39.403  29.713  30.559  1.00  0.00     0.049 A 
ATOM     43  N   UNL A   1      41.222  29.299  32.927  1.00  0.00    -0.248 NA
ATOM     44  C   UNL A   1      42.124  27.434  31.856  1.00  0.00     0.031 C 
ATOM     45  C   UNL A   1      38.450  29.920  29.466  1.00  0.00     0.029 A 
ATOM     46  N   UNL A   1      39.135  30.740  31.429  1.00  0.00    -0.354 N 
ATOM     47  C   UNL A   1      42.170  28.707  33.754  1.00  0.00     0.074 A 
ATOM     48  C   UNL A   1      42.645  27.525  33.070  1.00  0.00     0.031 C 
ATOM     49  C   UNL A   1      37.718  31.015  29.720  1.00  0.00     0.029 A 
ATOM     50  C   UNL A   1      38.116  31.565  31.012  1.00  0.00     0.049 A 
ATOM     51  H   UNL A   1      39.626  30.876  32.271  1.00  0.00     0.167 HD
ATOM     52  C   UNL A   1      42.618  29.124  34.961  1.00  0.00     0.037 A 
ATOM     53  C   UNL A   1      37.553  32.634  31.609  1.00  0.00     0.037 A 
ATOM     54  C   UNL A   1      42.163  30.322  35.618  1.00  0.00     0.049 A 
ATOM     55  C   UNL A   1      38.079  33.085  32.944  1.00  0.00     0.074 A 
ATOM     56  C   UNL A   1      42.611  30.874  36.805  1.00  0.00     0.029 A 
ATOM     57  N   UNL A   1      41.154  31.148  35.148  1.00  0.00    -0.354 N 
ATOM     58  N   UNL A   1      39.034  32.557  33.674  1.00  0.00    -0.248 NA
ATOM     59  C   UNL A   1      37.459  34.278  33.536  1.00  0.00     0.031 C 
ATOM     60  C   UNL A   1      41.837  32.006  37.079  1.00  0.00     0.029 A 
ATOM     61  C   UNL A   1      40.945  32.192  36.035  1.00  0.00     0.049 A 
ATOM     62  H   UNL A   1      40.658  31.015  34.307  1.00  0.00     0.167 HD
ATOM     63  C   UNL A   1      39.144  33.368  34.798  1.00  0.00     0.074 A 
ATOM     64  C   UNL A   1      38.171  34.431  34.643  1.00  0.00     0.031 C 
ATOM     65  C   UNL A   1      39.975  33.245  35.863  1.00  0.00     0.037 A 
BRANCH  52  66
ATOM     66  C   UNL A   1      43.660  28.286  35.653  1.00  0.00     0.058 A 
ATOM     67  C   UNL A   1      45.033  28.466  35.417  1.00  0.00     0.135 A 
ATOM     68  C   UNL A   1      43.284  27.322  36.604  1.00  0.00     0.135 A 
ATOM     69  F   UNL A   1      45.450  29.361  34.508  1.00  0.00    -0.206 F 
ATOM     70  C   UNL A   1      45.992  27.707  36.079  1.00  0.00     0.059 A 
ATOM     71  C   UNL A   1      44.227  26.572  37.300  1.00  0.00     0.059 A 
ATOM     72  F   UNL A   1      41.985  27.105  36.869  1.00  0.00    -0.206 F 
ATOM     73  C   UNL A   1      45.580  26.765  37.022  1.00  0.00     0.060 A 
BRANCH  73  74
ATOM     74  S   UNL A   1      46.839  25.802  37.885  1.00  0.00     0.124 S 
ATOM     75  O   UNL A   1      46.297  25.759  39.239  1.00  0.00    -0.237 OA
ATOM     76  O   UNL A   1      46.820  24.539  37.155  1.00  0.00    -0.237 OA
ATOM     77  O   UNL A   1      48.051  26.599  37.720  1.00  0.00    -0.744 OA
ENDBRANCH  73  74
ENDBRANCH  52  66
BRANCH  53  78
ATOM     78  C   UNL A   1      36.438  33.358  30.941  1.00  0.00     0.058 A 
ATOM     79  C   UNL A   1      35.127  33.282  31.435  1.00  0.00     0.135 A 
ATOM     80  C   UNL A   1      36.662  34.147  29.802  1.00  0.00     0.135 A 
ATOM     81  F   UNL A   1      34.862  32.536  32.519  1.00  0.00    -0.206 F 
ATOM     82  C   UNL A   1      34.075  33.945  30.815  1.00  0.00     0.059 A 
ATOM     83  C   UNL A   1      35.630  34.844  29.181  1.00  0.00     0.059 A 
ATOM     84  F   UNL A   1      37.900  34.271  29.300  1.00  0.00    -0.206 F 
ATOM     85  C   UNL A   1      34.336  34.726  29.689  1.00  0.00     0.060 A 
BRANCH  85  86
ATOM     86  S   UNL A   1      32.969  35.619  28.917  1.00  0.00     0.124 S 
ATOM     87  O   UNL A   1      32.199  36.038  30.082  1.00  0.00    -0.237 OA
ATOM     88  O   UNL A   1      33.666  36.679  28.197  1.00  0.00    -0.237 OA
ATOM     89  O   UNL A   1      32.342  34.605  28.076  1.00  0.00    -0.744 OA
ENDBRANCH  85  86
ENDBRANCH  53  78
BRANCH  65  90
ATOM     90  C   UNL A   1      39.892  34.299  36.931  1.00  0.00     0.058 A 
ATOM     91  C   UNL A   1      40.562  35.527  36.811  1.00  0.00     0.135 A 
ATOM     92  C   UNL A   1      39.088  34.100  38.065  1.00  0.00     0.135 A 
ATOM     93  F   UNL A   1      41.350  35.766  35.750  1.00  0.00    -0.206 F 
ATOM     94  C   UNL A   1      40.457  36.510  37.790  1.00  0.00     0.059 A 
ATOM     95  C   UNL A   1      38.944  35.080  39.040  1.00  0.00     0.059 A 
ATOM     96  F   UNL A   1      38.417  32.947  38.224  1.00  0.00    -0.206 F 
ATOM     97  C   UNL A   1      39.643  36.278  38.900  1.00  0.00     0.060 A 
BRANCH  97  98
ATOM     98  S   UNL A   1      39.489  37.576  40.145  1.00  0.00     0.124 S 
ATOM     99  O   UNL A   1      40.847  38.111  40.181  1.00  0.00    -0.237 OA
ATOM    100  O   UNL A   1      38.478  38.451  39.561  1.00  0.00    -0.237 OA
ATOM    101  O   UNL A   1      39.068  36.852  41.341  1.00  0.00    -0.744 OA
ENDBRANCH  97  98
ENDBRANCH  65  90
ENDBRANCH  39  40
ENDBRANCH  31  34
ENDBRANCH  29  30
ENDBRANCH   1  29
TORSDOF 17
ENDMDL
MODEL 2
REMARK VINA RESULT:     -12.8      1.162      8.133
REMARK SMILES N#C/C(=C/c1ccc(-c2cccc(C(=O)NCCCNC(=O)c3ccc(-c4c5nc(c(-c6c(F)cc(S(=O)(=O)[O-])cc6F)c6ccc([nH]6)c(-c6c(F)cc(S(=O)(=O)[O-])cc6F)c6nc(c(-c7c(F)cc(S(=O)(=O)[O-])cc7F)c7ccc4[nH]7)C=C6)C=C5)cc3)c2)o1)c1ccc(F)cc1
REMARK SMILES IDX 18 1 17 2 16 3 14 4 15 5 13 7 9 8 10 9 89 10 11 11 12 12
REMARK SMILES IDX 8 13 5 14 6 15 90 16 7 17 4 18 3 19 2 20 1 21 91 22 92 23
REMARK SMILES IDX 97 24 93 25 96 26 94 27 95 28 19 29 20 30 21 31 22 33 23 34
REMARK SMILES IDX 24 35 88 36 25 37 87 38 26 39 27 40 28 41 81 42 29 43 86 44
REMARK SMILES IDX 80 45 82 46 30 47 85 48 79 49 78 50 31 52 65 53 44 54 64 55
REMARK SMILES IDX 45 56 48 57 63 58 83 59 46 60 47 61 62 63 84 64 49 65 32 66
REMARK SMILES IDX 33 67 42 68 34 69 35 70 41 71 43 72 36 73 37 74 38 75 39 76
REMARK SMILES IDX 40 77 66 78 67 79 76 80 68 81 69 82 75 83 77 84 70 85 71 86
REMARK SMILES IDX 72 87 73 88 74 89 50 90 51 91 60 92 52 93 53 94 59 95 61 96
REMARK SMILES IDX 54 97 55 98 56 99 57 100 58 101
REMARK H PARENT 16 6 20 32 82 51 48 62
REMARK Flexibility Score: inf
ROOT
ATOM      1  C   UNL A   1      39.307  22.248  26.382  1.00  0.00     0.042 C 
ENDROOT
BRANCH   1   2
ATOM      2  C   UNL A   1      37.895  22.688  26.031  1.00  0.00     0.118 C 
BRANCH   2   3
ATOM      3  N   UNL A   1      37.647  22.871  24.601  1.00  0.00    -0.352 N 
ATOM      4  C   UNL A   1      36.549  22.713  23.780  1.00  0.00     0.251 C 
ATOM      5  O   UNL A   1      36.686  22.978  22.585  1.00  0.00    -0.269 OA
ATOM      6  H   UNL A   1      38.445  23.177  24.113  1.00  0.00     0.163 HD
BRANCH   4   7
ATOM      7  C   UNL A   1      35.238  22.179  24.244  1.00  0.00     0.040 A 
ATOM      8  C   UNL A   1      32.967  22.592  25.002  1.00  0.00     0.018 A 
ATOM      9  C   UNL A   1      32.907  21.308  25.543  1.00  0.00     0.012 A 
ATOM     10  C   UNL A   1      34.079  22.937  24.225  1.00  0.00     0.025 A 
ATOM     11  C   UNL A   1      33.982  20.429  25.364  1.00  0.00     0.002 A 
ATOM     12  C   UNL A   1      35.164  20.882  24.761  1.00  0.00     0.014 A 
BRANCH   8  13
ATOM     13  C   UNL A   1      32.027  23.662  25.314  1.00  0.00     0.134 A 
ATOM     14  C   UNL A   1      30.717  25.372  24.748  1.00  0.00     0.128 A 
ATOM     15  C   UNL A   1      30.266  24.863  25.961  1.00  0.00     0.051 A 
ATOM     16  O   UNL A   1      31.789  24.599  24.346  1.00  0.00    -0.457 OA
ATOM     17  C   UNL A   1      31.135  23.831  26.351  1.00  0.00     0.051 A 
BRANCH  14  18
ATOM     18  C   UNL A   1      30.248  26.527  24.051  1.00  0.00     0.067 C 
ATOM     19  C   UNL A   1      30.708  27.757  24.364  1.00  0.00     0.063 C 
BRANCH  19  20
ATOM     20  C   UNL A   1      30.169  29.005  23.683  1.00  0.00     0.100 C 
ATOM     21  N   UNL A   1      29.722  30.040  23.119  1.00  0.00    -0.192 NA
ENDBRANCH  19  20
BRANCH  19  22
ATOM     22  C   UNL A   1      31.811  27.994  25.346  1.00  0.00    -0.007 A 
ATOM     23  C   UNL A   1      31.528  28.246  26.704  1.00  0.00     0.012 A 
ATOM     24  C   UNL A   1      33.150  28.022  24.924  1.00  0.00     0.012 A 
ATOM     25  C   UNL A   1      32.540  28.613  27.592  1.00  0.00     0.040 A 
ATOM     26  C   UNL A   1      34.166  28.360  25.823  1.00  0.00     0.040 A 
ATOM     27  C   UNL A   1      33.851  28.674  27.140  1.00  0.00     0.123 A 
ATOM     28  F   UNL A   1      34.822  29.047  27.984  1.00  0.00    -0.207 F 
ENDBRANCH  19  22
ENDBRANCH  14  18
ENDBRANCH   8  13
ENDBRANCH   4   7
ENDBRANCH   2   3
ENDBRANCH   1   2
BRANCH   1  29
ATOM     29  C   UNL A   1      40.151  23.317  27.055  1.00  0.00     0.118 C 
BRANCH  29  30
ATOM     30  N   UNL A   1      40.959  24.078  26.106  1.00  0.00    -0.352 N 
ATOM     31  C   UNL A   1      41.280  25.414  26.050  1.00  0.00     0.251 C 
ATOM     32  H   UNL A   1      41.342  23.539  25.377  1.00  0.00     0.163 HD
ATOM     33  O   UNL A   1      41.790  25.860  25.026  1.00  0.00    -0.269 OA
BRANCH  31  34
ATOM     34  C   UNL A   1      41.008  26.316  27.192  1.00  0.00     0.039 A 
ATOM     35  C   UNL A   1      40.048  25.944  28.140  1.00  0.00     0.014 A 
ATOM     36  C   UNL A   1      41.660  27.542  27.318  1.00  0.00     0.014 A 
ATOM     37  C   UNL A   1      39.809  26.762  29.248  1.00  0.00     0.010 A 
ATOM     38  C   UNL A   1      41.499  28.304  28.470  1.00  0.00     0.010 A 
ATOM     39  C   UNL A   1      40.568  27.927  29.447  1.00  0.00    -0.014 A 
BRANCH  39  40
ATOM     40  C   UNL A   1      40.412  28.761  30.667  1.00  0.00     0.031 A 
ATOM     41  C   UNL A   1      39.371  29.849  30.714  1.00  0.00     0.074 A 
ATOM     42  C   UNL A   1      41.266  28.596  31.697  1.00  0.00     0.049 A 
ATOM     43  N   UNL A   1      39.146  30.737  31.648  1.00  0.00    -0.248 NA
ATOM     44  C   UNL A   1      38.486  29.978  29.544  1.00  0.00     0.031 C 
ATOM     45  C   UNL A   1      42.358  27.618  31.743  1.00  0.00     0.029 A 
ATOM     46  N   UNL A   1      41.364  29.255  32.897  1.00  0.00    -0.354 N 
ATOM     47  C   UNL A   1      38.116  31.539  31.172  1.00  0.00     0.074 A 
ATOM     48  C   UNL A   1      37.793  31.066  29.844  1.00  0.00     0.031 C 
ATOM     49  C   UNL A   1      42.999  27.728  32.917  1.00  0.00     0.029 A 
ATOM     50  C   UNL A   1      42.397  28.810  33.689  1.00  0.00     0.049 A 
ATOM     51  H   UNL A   1      40.753  29.977  33.167  1.00  0.00     0.167 HD
ATOM     52  C   UNL A   1      37.481  32.561  31.793  1.00  0.00     0.037 A 
ATOM     53  C   UNL A   1      42.822  29.235  34.895  1.00  0.00     0.037 A 
ATOM     54  C   UNL A   1      37.787  33.002  33.129  1.00  0.00     0.049 A 
ATOM     55  C   UNL A   1      42.092  30.363  35.571  1.00  0.00     0.074 A 
ATOM     56  C   UNL A   1      37.151  33.975  33.879  1.00  0.00     0.029 A 
ATOM     57  N   UNL A   1      38.818  32.504  33.912  1.00  0.00    -0.354 N 
ATOM     58  N   UNL A   1      41.066  31.056  35.137  1.00  0.00    -0.248 NA
ATOM     59  C   UNL A   1      42.571  30.764  36.901  1.00  0.00     0.031 C 
ATOM     60  C   UNL A   1      37.829  34.102  35.096  1.00  0.00     0.029 A 
ATOM     61  C   UNL A   1      38.853  33.169  35.128  1.00  0.00     0.049 A 
ATOM     62  H   UNL A   1      39.434  31.783  33.645  1.00  0.00     0.167 HD
ATOM     63  C   UNL A   1      40.761  31.958  36.151  1.00  0.00     0.074 A 
ATOM     64  C   UNL A   1      41.701  31.710  37.226  1.00  0.00     0.031 C 
ATOM     65  C   UNL A   1      39.792  32.906  36.189  1.00  0.00     0.037 A 
BRANCH  52  66
ATOM     66  C   UNL A   1      36.387  33.272  31.043  1.00  0.00     0.058 A 
ATOM     67  C   UNL A   1      35.035  33.134  31.397  1.00  0.00     0.135 A 
ATOM     68  C   UNL A   1      36.698  34.143  29.985  1.00  0.00     0.135 A 
ATOM     69  F   UNL A   1      34.677  32.302  32.388  1.00  0.00    -0.206 F 
ATOM     70  C   UNL A   1      34.030  33.814  30.717  1.00  0.00     0.059 A 
ATOM     71  C   UNL A   1      35.712  34.857  29.311  1.00  0.00     0.059 A 
ATOM     72  F   UNL A   1      37.974  34.313  29.602  1.00  0.00    -0.206 F 
ATOM     73  C   UNL A   1      34.379  34.677  29.677  1.00  0.00     0.060 A 
BRANCH  73  74
ATOM     74  S   UNL A   1      33.064  35.566  28.818  1.00  0.00     0.124 S 
ATOM     75  O   UNL A   1      33.823  36.575  28.086  1.00  0.00    -0.237 OA
ATOM     76  O   UNL A   1      32.459  34.516  28.004  1.00  0.00    -0.237 OA
ATOM     77  O   UNL A   1      32.229  36.073  29.902  1.00  0.00    -0.744 OA
ENDBRANCH  73  74
ENDBRANCH  52  66
BRANCH  53  78
ATOM     78  C   UNL A   1      43.991  28.581  35.545  1.00  0.00     0.058 A 
ATOM     79  C   UNL A   1      43.819  27.511  36.435  1.00  0.00     0.135 A 
ATOM     80  C   UNL A   1      45.303  29.006  35.279  1.00  0.00     0.135 A 
ATOM     81  F   UNL A   1      42.584  27.072  36.724  1.00  0.00    -0.206 F 
ATOM     82  C   UNL A   1      44.901  26.898  37.055  1.00  0.00     0.059 A 
ATOM     83  C   UNL A   1      46.404  28.389  35.865  1.00  0.00     0.059 A 
ATOM     84  F   UNL A   1      45.524  30.012  34.419  1.00  0.00    -0.206 F 
ATOM     85  C   UNL A   1      46.192  27.342  36.761  1.00  0.00     0.060 A 
BRANCH  85  86
ATOM     86  S   UNL A   1      47.593  26.509  37.539  1.00  0.00     0.124 S 
ATOM     87  O   UNL A   1      46.951  25.336  38.119  1.00  0.00    -0.237 OA
ATOM     88  O   UNL A   1      48.469  26.261  36.399  1.00  0.00    -0.237 OA
ATOM     89  O   UNL A   1      48.081  27.499  38.494  1.00  0.00    -0.744 OA
ENDBRANCH  85  86
ENDBRANCH  53  78
BRANCH  65  90
ATOM     90  C   UNL A   1      39.677  33.727  37.443  1.00  0.00     0.058 A 
ATOM     91  C   UNL A   1      40.366  34.940  37.598  1.00  0.00     0.135 A 
ATOM     92  C   UNL A   1      38.823  33.321  38.481  1.00  0.00     0.135 A 
ATOM     93  F   UNL A   1      41.200  35.371  36.638  1.00  0.00    -0.206 F 
ATOM     94  C   UNL A   1      40.231  35.710  38.749  1.00  0.00     0.059 A 
ATOM     95  C   UNL A   1      38.650  34.089  39.627  1.00  0.00     0.059 A 
ATOM     96  F   UNL A   1      38.132  32.174  38.379  1.00  0.00    -0.206 F 
ATOM     97  C   UNL A   1      39.368  35.277  39.758  1.00  0.00     0.060 A 
BRANCH  97  98
ATOM     98  S   UNL A   1      39.178  36.302  41.231  1.00  0.00     0.124 S 
ATOM     99  O   UNL A   1      38.040  35.665  41.887  1.00  0.00    -0.237 OA
ATOM    100  O   UNL A   1      40.467  36.137  41.896  1.00  0.00    -0.237 OA
ATOM    101  O   UNL A   1      38.925  37.634  40.688  1.00  0.00    -0.744 OA
ENDBRANCH  97  98
ENDBRANCH  65  90
ENDBRANCH  39  40
ENDBRANCH  31  34
ENDBRANCH  29  30
ENDBRANCH   1  29
TORSDOF 17
ENDMDL
MODEL 3
REMARK VINA RESULT:     -12.7      6.429     11.962
REMARK SMILES N#C/C(=C/c1ccc(-c2cccc(C(=O)NCCCNC(=O)c3ccc(-c4c5nc(c(-c6c(F)cc(S(=O)(=O)[O-])cc6F)c6ccc([nH]6)c(-c6c(F)cc(S(=O)(=O)[O-])cc6F)c6nc(c(-c7c(F)cc(S(=O)(=O)[O-])cc7F)c7ccc4[nH]7)C=C6)C=C5)cc3)c2)o1)c1ccc(F)cc1
REMARK SMILES IDX 18 1 17 2 16 3 14 4 15 5 13 7 9 8 10 9 89 10 11 11 12 12
REMARK SMILES IDX 8 13 5 14 6 15 90 16 7 17 4 18 3 19 2 20 1 21 91 22 92 23
REMARK SMILES IDX 97 24 93 25 96 26 94 27 95 28 19 29 20 30 21 31 22 33 23 34
REMARK SMILES IDX 24 35 88 36 25 37 87 38 26 39 27 40 28 41 81 42 29 43 86 44
REMARK SMILES IDX 80 45 82 46 30 47 85 48 79 49 78 50 31 52 65 53 44 54 64 55
REMARK SMILES IDX 45 56 48 57 63 58 83 59 46 60 47 61 62 63 84 64 49 65 32 66
REMARK SMILES IDX 33 67 42 68 34 69 35 70 41 71 43 72 36 73 37 74 38 75 39 76
REMARK SMILES IDX 40 77 66 78 67 79 76 80 68 81 69 82 75 83 77 84 70 85 71 86
REMARK SMILES IDX 72 87 73 88 74 89 50 90 51 91 60 92 52 93 53 94 59 95 61 96
REMARK SMILES IDX 54 97 55 98 56 99 57 100 58 101
REMARK H PARENT 16 6 20 32 82 51 48 62
REMARK Flexibility Score: inf
ROOT
ATOM      1  C   UNL A   1      34.168  31.343  27.622  1.00  0.00     0.042 C 
ENDROOT
BRANCH   1   2
ATOM      2  C   UNL A   1      33.811  30.061  26.888  1.00  0.00     0.118 C 
BRANCH   2   3
ATOM      3  N   UNL A   1      32.827  29.218  27.567  1.00  0.00    -0.352 N 
ATOM      4  C   UNL A   1      31.867  28.319  27.150  1.00  0.00     0.251 C 
ATOM      5  O   UNL A   1      31.199  27.752  28.015  1.00  0.00    -0.269 OA
ATOM      6  H   UNL A   1      32.857  29.314  28.547  1.00  0.00     0.163 HD
BRANCH   4   7
ATOM      7  C   UNL A   1      31.552  28.050  25.719  1.00  0.00     0.040 A 
ATOM      8  C   UNL A   1      31.783  26.628  23.762  1.00  0.00     0.018 A 
ATOM      9  C   UNL A   1      31.396  27.685  22.940  1.00  0.00     0.012 A 
ATOM     10  C   UNL A   1      31.696  26.796  25.149  1.00  0.00     0.025 A 
ATOM     11  C   UNL A   1      31.008  28.902  23.511  1.00  0.00     0.002 A 
ATOM     12  C   UNL A   1      31.136  29.099  24.893  1.00  0.00     0.014 A 
BRANCH   8  13
ATOM     13  C   UNL A   1      32.422  25.406  23.288  1.00  0.00     0.134 A 
ATOM     14  C   UNL A   1      32.587  23.190  23.134  1.00  0.00     0.128 A 
ATOM     15  C   UNL A   1      33.261  23.751  22.055  1.00  0.00     0.051 A 
ATOM     16  O   UNL A   1      32.048  24.227  23.872  1.00  0.00    -0.457 OA
ATOM     17  C   UNL A   1      33.217  25.149  22.192  1.00  0.00     0.051 A 
BRANCH  14  18
ATOM     18  C   UNL A   1      32.509  21.812  23.502  1.00  0.00     0.067 C 
ATOM     19  C   UNL A   1      33.498  21.231  24.214  1.00  0.00     0.063 C 
BRANCH  19  20
ATOM     20  C   UNL A   1      33.468  19.749  24.553  1.00  0.00     0.100 C 
ATOM     21  N   UNL A   1      33.443  18.520  24.834  1.00  0.00    -0.192 NA
ENDBRANCH  19  20
BRANCH  19  22
ATOM     22  C   UNL A   1      34.660  21.988  24.773  1.00  0.00    -0.007 A 
ATOM     23  C   UNL A   1      34.529  22.741  25.959  1.00  0.00     0.012 A 
ATOM     24  C   UNL A   1      35.892  22.005  24.101  1.00  0.00     0.012 A 
ATOM     25  C   UNL A   1      35.564  23.565  26.402  1.00  0.00     0.040 A 
ATOM     26  C   UNL A   1      36.938  22.809  24.565  1.00  0.00     0.040 A 
ATOM     27  C   UNL A   1      36.758  23.597  25.695  1.00  0.00     0.123 A 
ATOM     28  F   UNL A   1      37.745  24.403  26.106  1.00  0.00    -0.207 F 
ENDBRANCH  19  22
ENDBRANCH  14  18
ENDBRANCH   8  13
ENDBRANCH   4   7
ENDBRANCH   2   3
ENDBRANCH   1   2
BRANCH   1  29
ATOM     29  C   UNL A   1      35.547  31.340  28.260  1.00  0.00     0.118 C 
BRANCH  29  30
ATOM     30  N   UNL A   1      35.495  31.224  29.714  1.00  0.00    -0.352 N 
ATOM     31  C   UNL A   1      36.324  30.587  30.607  1.00  0.00     0.251 C 
ATOM     32  H   UNL A   1      34.731  31.685  30.130  1.00  0.00     0.163 HD
ATOM     33  O   UNL A   1      35.948  30.438  31.766  1.00  0.00    -0.269 OA
BRANCH  31  34
ATOM     34  C   UNL A   1      37.647  30.067  30.188  1.00  0.00     0.039 A 
ATOM     35  C   UNL A   1      37.960  30.024  28.825  1.00  0.00     0.014 A 
ATOM     36  C   UNL A   1      38.565  29.586  31.121  1.00  0.00     0.014 A 
ATOM     37  C   UNL A   1      39.220  29.578  28.413  1.00  0.00     0.010 A 
ATOM     38  C   UNL A   1      39.851  29.242  30.721  1.00  0.00     0.010 A 
ATOM     39  C   UNL A   1      40.194  29.228  29.363  1.00  0.00    -0.014 A 
BRANCH  39  40
ATOM     40  C   UNL A   1      41.574  28.852  28.962  1.00  0.00     0.031 A 
ATOM     41  C   UNL A   1      42.658  29.896  28.901  1.00  0.00     0.074 A 
ATOM     42  C   UNL A   1      41.829  27.587  28.569  1.00  0.00     0.049 A 
ATOM     43  N   UNL A   1      43.893  29.781  28.486  1.00  0.00    -0.248 NA
ATOM     44  C   UNL A   1      42.298  31.258  29.331  1.00  0.00     0.031 C 
ATOM     45  C   UNL A   1      40.846  26.500  28.524  1.00  0.00     0.029 A 
ATOM     46  N   UNL A   1      42.986  27.003  28.118  1.00  0.00    -0.354 N 
ATOM     47  C   UNL A   1      44.448  31.052  28.584  1.00  0.00     0.074 A 
ATOM     48  C   UNL A   1      43.401  31.935  29.048  1.00  0.00     0.031 C 
ATOM     49  C   UNL A   1      41.446  25.381  28.090  1.00  0.00     0.029 A 
ATOM     50  C   UNL A   1      42.842  25.676  27.785  1.00  0.00     0.049 A 
ATOM     51  H   UNL A   1      43.839  27.488  28.039  1.00  0.00     0.167 HD
ATOM     52  C   UNL A   1      45.720  31.442  28.333  1.00  0.00     0.037 A 
ATOM     53  C   UNL A   1      43.730  24.799  27.276  1.00  0.00     0.037 A 
ATOM     54  C   UNL A   1      46.765  30.548  27.905  1.00  0.00     0.049 A 
ATOM     55  C   UNL A   1      45.140  25.254  27.018  1.00  0.00     0.074 A 
ATOM     56  C   UNL A   1      48.104  30.828  27.699  1.00  0.00     0.029 A 
ATOM     57  N   UNL A   1      46.588  29.205  27.611  1.00  0.00    -0.354 N 
ATOM     58  N   UNL A   1      45.667  26.442  27.194  1.00  0.00    -0.248 NA
ATOM     59  C   UNL A   1      46.079  24.250  26.499  1.00  0.00     0.031 C 
ATOM     60  C   UNL A   1      48.726  29.666  27.231  1.00  0.00     0.029 A 
ATOM     61  C   UNL A   1      47.788  28.647  27.199  1.00  0.00     0.049 A 
ATOM     62  H   UNL A   1      45.735  28.717  27.684  1.00  0.00     0.167 HD
ATOM     63  C   UNL A   1      47.004  26.323  26.831  1.00  0.00     0.074 A 
ATOM     64  C   UNL A   1      47.208  24.942  26.442  1.00  0.00     0.031 C 
ATOM     65  C   UNL A   1      47.975  27.270  26.820  1.00  0.00     0.037 A 
BRANCH  52  66
ATOM     66  C   UNL A   1      46.061  32.897  28.519  1.00  0.00     0.058 A 
ATOM     67  C   UNL A   1      45.945  33.825  27.471  1.00  0.00     0.135 A 
ATOM     68  C   UNL A   1      46.462  33.379  29.776  1.00  0.00     0.135 A 
ATOM     69  F   UNL A   1      45.582  33.418  26.245  1.00  0.00    -0.206 F 
ATOM     70  C   UNL A   1      46.236  35.173  27.656  1.00  0.00     0.059 A 
ATOM     71  C   UNL A   1      46.729  34.728  29.991  1.00  0.00     0.059 A 
ATOM     72  F   UNL A   1      46.591  32.537  30.814  1.00  0.00    -0.206 F 
ATOM     73  C   UNL A   1      46.624  35.616  28.922  1.00  0.00     0.060 A 
BRANCH  73  74
ATOM     74  S   UNL A   1      46.979  37.371  29.148  1.00  0.00     0.124 S 
ATOM     75  O   UNL A   1      47.916  37.621  28.058  1.00  0.00    -0.237 OA
ATOM     76  O   UNL A   1      45.659  37.977  29.000  1.00  0.00    -0.237 OA
ATOM     77  O   UNL A   1      47.547  37.434  30.490  1.00  0.00    -0.744 OA
ENDBRANCH  73  74
ENDBRANCH  52  66
BRANCH  53  78
ATOM     78  C   UNL A   1      43.311  23.400  26.989  1.00  0.00     0.058 A 
ATOM     79  C   UNL A   1      43.125  22.474  28.026  1.00  0.00     0.135 A 
ATOM     80  C   UNL A   1      43.079  22.965  25.675  1.00  0.00     0.135 A 
ATOM     81  F   UNL A   1      43.338  22.841  29.299  1.00  0.00    -0.206 F 
ATOM     82  C   UNL A   1      42.743  21.161  27.771  1.00  0.00     0.059 A 
ATOM     83  C   UNL A   1      42.669  21.665  25.396  1.00  0.00     0.059 A 
ATOM     84  F   UNL A   1      43.223  23.816  24.647  1.00  0.00    -0.206 F 
ATOM     85  C   UNL A   1      42.515  20.766  26.452  1.00  0.00     0.060 A 
BRANCH  85  86
ATOM     86  S   UNL A   1      41.976  19.072  26.136  1.00  0.00     0.124 S 
ATOM     87  O   UNL A   1      42.815  18.704  25.003  1.00  0.00    -0.237 OA
ATOM     88  O   UNL A   1      42.285  18.414  27.401  1.00  0.00    -0.237 OA
ATOM     89  O   UNL A   1      40.553  19.223  25.847  1.00  0.00    -0.744 OA
ENDBRANCH  85  86
ENDBRANCH  53  78
BRANCH  65  90
ATOM     90  C   UNL A   1      49.354  26.841  26.402  1.00  0.00     0.058 A 
ATOM     91  C   UNL A   1      50.264  26.287  27.316  1.00  0.00     0.135 A 
ATOM     92  C   UNL A   1      49.751  26.937  25.059  1.00  0.00     0.135 A 
ATOM     93  F   UNL A   1      49.937  26.179  28.614  1.00  0.00    -0.206 F 
ATOM     94  C   UNL A   1      51.528  25.865  26.917  1.00  0.00     0.059 A 
ATOM     95  C   UNL A   1      50.997  26.494  24.632  1.00  0.00     0.059 A 
ATOM     96  F   UNL A   1      48.914  27.450  24.141  1.00  0.00    -0.206 F 
ATOM     97  C   UNL A   1      51.885  25.970  25.571  1.00  0.00     0.060 A 
BRANCH  97  98
ATOM     98  S   UNL A   1      53.515  25.388  25.062  1.00  0.00     0.124 S 
ATOM     99  O   UNL A   1      54.391  26.179  25.920  1.00  0.00    -0.237 OA
ATOM    100  O   UNL A   1      53.447  23.962  25.366  1.00  0.00    -0.237 OA
ATOM    101  O   UNL A   1      53.566  25.718  23.640  1.00  0.00    -0.744 OA
ENDBRANCH  97  98
ENDBRANCH  65  90
ENDBRANCH  39  40
ENDBRANCH  31  34
ENDBRANCH  29  30
ENDBRANCH   1  29
TORSDOF 17
ENDMDL
