MODEL 1
REMARK VINA RESULT:     -13.3      0.000      0.000
REMARK SMILES O=C(NCCCNC(=O)c1cn(-c2ccccc2)c2c1N=C(O)C[C@@H]2c1cccs1)c1ccc(-c2c3nc(c(-c4c(F)cc(S(=O)(=O)[O-])cc4F)c4ccc([nH]4)c(-c4c(F)cc(S(=O)(=O)[O-])cc4F)c4nc(c(-c5c(F)cc(S(=O)(=O)[O-])cc5F)c5ccc2[nH]5)C=C4)C=C3)cc1
REMARK SMILES IDX 4 1 3 2 1 3 2 4 31 6 32 7 96 8 33 9 95 10 34 11 35 12 36 13
REMARK SMILES IDX 89 14 37 15 94 16 88 17 90 18 38 19 93 20 87 21 86 22 39 24
REMARK SMILES IDX 73 25 52 26 72 27 53 28 56 29 71 30 91 31 54 32 55 33 70 35
REMARK SMILES IDX 92 36 57 37 40 38 41 39 50 40 42 41 43 42 49 43 51 44 44 45
REMARK SMILES IDX 45 46 46 47 47 48 48 49 74 50 75 51 84 52 76 53 77 54 83 55
REMARK SMILES IDX 85 56 78 57 79 58 80 59 81 60 82 61 58 62 59 63 68 64 60 65
REMARK SMILES IDX 61 66 67 67 69 68 62 69 63 70 64 71 65 72 66 73 5 74 6 75
REMARK SMILES IDX 7 76 8 77 9 79 10 80 11 81 20 82 12 83 19 84 21 85 25 86
REMARK SMILES IDX 22 87 24 88 13 89 14 90 18 91 15 92 17 93 16 94 26 95 27 96
REMARK SMILES IDX 30 97 28 98 29 99 23 100
REMARK H PARENT 3 5 90 23 56 34 7 78 23 101
REMARK Flexibility Score: inf
ROOT
ATOM      1  C   UNL A   1      33.107  29.808  26.193  1.00  0.00     0.118 C 
ENDROOT
BRANCH   1   2
ATOM      2  N   UNL A   1      33.144  30.954  27.076  1.00  0.00    -0.352 N 
ATOM      3  O   UNL A   1      33.848  32.758  28.135  1.00  0.00    -0.269 OA
ATOM      4  C   UNL A   1      34.145  31.639  27.707  1.00  0.00     0.251 C 
ATOM      5  H   UNL A   1      32.249  31.321  27.264  1.00  0.00     0.163 HD
BRANCH   4   6
ATOM      6  C   UNL A   1      35.505  31.102  27.987  1.00  0.00     0.039 A 
ATOM      7  C   UNL A   1      35.895  29.765  27.903  1.00  0.00     0.014 A 
ATOM      8  C   UNL A   1      36.450  32.052  28.421  1.00  0.00     0.014 A 
ATOM      9  C   UNL A   1      37.163  29.371  28.329  1.00  0.00     0.010 A 
ATOM     10  C   UNL A   1      37.718  31.669  28.839  1.00  0.00     0.010 A 
ATOM     11  C   UNL A   1      38.063  30.321  28.822  1.00  0.00    -0.014 A 
BRANCH  11  12
ATOM     12  C   UNL A   1      39.441  29.910  29.093  1.00  0.00     0.031 A 
ATOM     13  C   UNL A   1      39.775  29.900  30.546  1.00  0.00     0.074 A 
ATOM     14  C   UNL A   1      40.269  29.397  28.158  1.00  0.00     0.049 A 
ATOM     15  N   UNL A   1      40.656  30.610  31.172  1.00  0.00    -0.248 NA
ATOM     16  C   UNL A   1      38.908  29.110  31.440  1.00  0.00     0.031 C 
ATOM     17  C   UNL A   1      39.934  29.089  26.766  1.00  0.00     0.029 A 
ATOM     18  N   UNL A   1      41.547  28.925  28.275  1.00  0.00    -0.354 N 
ATOM     19  C   UNL A   1      40.627  30.161  32.493  1.00  0.00     0.074 A 
ATOM     20  C   UNL A   1      39.403  29.423  32.638  1.00  0.00     0.031 C 
ATOM     21  C   UNL A   1      40.886  28.280  26.246  1.00  0.00     0.029 A 
ATOM     22  C   UNL A   1      41.947  28.097  27.224  1.00  0.00     0.049 A 
ATOM     23  H   UNL A   1      42.134  29.149  29.032  1.00  0.00     0.167 HD
ATOM     24  C   UNL A   1      41.754  30.164  33.260  1.00  0.00     0.037 A 
ATOM     25  C   UNL A   1      43.025  27.267  27.186  1.00  0.00     0.037 A 
ATOM     26  C   UNL A   1      42.736  31.076  32.724  1.00  0.00     0.049 A 
ATOM     27  C   UNL A   1      43.972  27.724  28.233  1.00  0.00     0.074 A 
ATOM     28  C   UNL A   1      42.766  32.421  32.408  1.00  0.00     0.029 A 
ATOM     29  N   UNL A   1      43.831  30.526  32.104  1.00  0.00    -0.354 N 
ATOM     30  N   UNL A   1      44.622  28.853  28.189  1.00  0.00    -0.248 NA
ATOM     31  C   UNL A   1      43.882  27.110  29.549  1.00  0.00     0.031 C 
ATOM     32  C   UNL A   1      43.599  32.516  31.253  1.00  0.00     0.029 A 
ATOM     33  C   UNL A   1      44.078  31.239  30.965  1.00  0.00     0.049 A 
ATOM     34  H   UNL A   1      44.348  29.752  32.426  1.00  0.00     0.167 HD
ATOM     35  C   UNL A   1      44.619  29.310  29.497  1.00  0.00     0.074 A 
ATOM     36  C   UNL A   1      44.253  28.148  30.302  1.00  0.00     0.031 C 
ATOM     37  C   UNL A   1      44.632  30.649  29.768  1.00  0.00     0.037 A 
BRANCH  24  38
ATOM     38  C   UNL A   1      42.151  29.016  34.182  1.00  0.00     0.058 A 
ATOM     39  C   UNL A   1      42.170  27.706  33.652  1.00  0.00     0.135 A 
ATOM     40  C   UNL A   1      42.173  29.090  35.594  1.00  0.00     0.135 A 
ATOM     41  F   UNL A   1      42.186  27.505  32.325  1.00  0.00    -0.206 F 
ATOM     42  C   UNL A   1      42.060  26.570  34.455  1.00  0.00     0.059 A 
ATOM     43  C   UNL A   1      42.118  27.968  36.412  1.00  0.00     0.059 A 
ATOM     44  F   UNL A   1      42.161  30.245  36.265  1.00  0.00    -0.206 F 
ATOM     45  C   UNL A   1      42.003  26.717  35.835  1.00  0.00     0.060 A 
BRANCH  45  46
ATOM     46  S   UNL A   1      41.727  25.272  36.872  1.00  0.00     0.124 S 
ATOM     47  O   UNL A   1      41.614  24.220  35.869  1.00  0.00    -0.237 OA
ATOM     48  O   UNL A   1      42.936  25.255  37.688  1.00  0.00    -0.237 OA
ATOM     49  O   UNL A   1      40.498  25.605  37.586  1.00  0.00    -0.744 OA
ENDBRANCH  45  46
ENDBRANCH  24  38
BRANCH  25  50
ATOM     50  C   UNL A   1      43.157  25.930  26.534  1.00  0.00     0.058 A 
ATOM     51  C   UNL A   1      44.060  25.715  25.473  1.00  0.00     0.135 A 
ATOM     52  C   UNL A   1      42.614  24.768  27.118  1.00  0.00     0.135 A 
ATOM     53  F   UNL A   1      44.645  26.756  24.862  1.00  0.00    -0.206 F 
ATOM     54  C   UNL A   1      44.441  24.431  25.057  1.00  0.00     0.059 A 
ATOM     55  C   UNL A   1      42.966  23.481  26.711  1.00  0.00     0.059 A 
ATOM     56  F   UNL A   1      41.788  24.840  28.172  1.00  0.00    -0.206 F 
ATOM     57  C   UNL A   1      43.902  23.317  25.698  1.00  0.00     0.060 A 
BRANCH  57  58
ATOM     58  S   UNL A   1      44.511  21.662  25.294  1.00  0.00     0.124 S 
ATOM     59  O   UNL A   1      43.528  20.808  25.953  1.00  0.00    -0.237 OA
ATOM     60  O   UNL A   1      44.476  21.665  23.835  1.00  0.00    -0.237 OA
ATOM     61  O   UNL A   1      45.848  21.640  25.881  1.00  0.00    -0.744 OA
ENDBRANCH  57  58
ENDBRANCH  25  50
BRANCH  37  62
ATOM     62  C   UNL A   1      45.057  31.593  28.677  1.00  0.00     0.058 A 
ATOM     63  C   UNL A   1      44.291  31.915  27.543  1.00  0.00     0.135 A 
ATOM     64  C   UNL A   1      46.262  32.290  28.858  1.00  0.00     0.135 A 
ATOM     65  F   UNL A   1      43.078  31.377  27.349  1.00  0.00    -0.206 F 
ATOM     66  C   UNL A   1      44.734  32.849  26.603  1.00  0.00     0.059 A 
ATOM     67  C   UNL A   1      46.704  33.249  27.955  1.00  0.00     0.059 A 
ATOM     68  F   UNL A   1      47.008  32.071  29.953  1.00  0.00    -0.206 F 
ATOM     69  C   UNL A   1      45.943  33.510  26.817  1.00  0.00     0.060 A 
BRANCH  69  70
ATOM     70  S   UNL A   1      46.487  34.757  25.632  1.00  0.00     0.124 S 
ATOM     71  O   UNL A   1      46.260  35.998  26.365  1.00  0.00    -0.237 OA
ATOM     72  O   UNL A   1      47.885  34.398  25.411  1.00  0.00    -0.237 OA
ATOM     73  O   UNL A   1      45.610  34.543  24.483  1.00  0.00    -0.744 OA
ENDBRANCH  69  70
ENDBRANCH  37  62
ENDBRANCH  11  12
ENDBRANCH   4   6
ENDBRANCH   1   2
BRANCH   1  74
ATOM     74  C   UNL A   1      31.717  29.281  25.856  1.00  0.00     0.042 C 
BRANCH  74  75
ATOM     75  C   UNL A   1      31.399  29.197  24.366  1.00  0.00     0.118 C 
BRANCH  75  76
ATOM     76  N   UNL A   1      30.135  28.535  24.084  1.00  0.00    -0.352 N 
ATOM     77  C   UNL A   1      29.871  27.197  23.887  1.00  0.00     0.255 C 
ATOM     78  H   UNL A   1      29.352  29.130  24.028  1.00  0.00     0.163 HD
ATOM     79  O   UNL A   1      28.742  26.869  23.546  1.00  0.00    -0.269 OA
BRANCH  77  80
ATOM     80  C   UNL A   1      30.946  26.227  24.026  1.00  0.00     0.084 A 
ATOM     81  C   UNL A   1      31.284  25.600  25.216  1.00  0.00     0.107 A 
ATOM     82  C   UNL A   1      31.860  25.725  23.077  1.00  0.00     0.101 A 
ATOM     83  N   UNL A   1      32.341  24.733  25.001  1.00  0.00    -0.317 N 
ATOM     84  C   UNL A   1      32.609  24.726  23.642  1.00  0.00     0.058 A 
ATOM     85  N   UNL A   1      31.888  26.075  21.733  1.00  0.00    -0.215 NA
ATOM     86  C   UNL A   1      33.413  23.732  22.868  1.00  0.00     0.088 C 
ATOM     87  C   UNL A   1      32.593  25.297  20.986  1.00  0.00     0.187 C 
ATOM     88  C   UNL A   1      33.470  24.138  21.379  1.00  0.00     0.112 C 
BRANCH  83  89
ATOM     89  C   UNL A   1      32.964  23.961  26.015  1.00  0.00     0.045 A 
ATOM     90  C   UNL A   1      34.358  23.921  26.114  1.00  0.00     0.026 A 
ATOM     91  C   UNL A   1      32.173  23.231  26.911  1.00  0.00     0.026 A 
ATOM     92  C   UNL A   1      34.958  23.136  27.100  1.00  0.00     0.002 A 
ATOM     93  C   UNL A   1      32.782  22.420  27.870  1.00  0.00     0.002 A 
ATOM     94  C   UNL A   1      34.172  22.375  27.966  1.00  0.00     0.000 A 
ENDBRANCH  83  89
BRANCH  86  95
ATOM     95  C   UNL A   1      32.955  22.276  22.966  1.00  0.00     0.014 A 
ATOM     96  C   UNL A   1      33.323  21.368  23.948  1.00  0.00     0.016 A 
ATOM     97  S   UNL A   1      31.950  21.515  21.796  1.00  0.00    -0.148 S 
ATOM     98  C   UNL A   1      32.747  20.080  23.759  1.00  0.00     0.012 A 
ATOM     99  C   UNL A   1      31.937  20.038  22.649  1.00  0.00     0.065 A 
ENDBRANCH  86  95
BRANCH  87 100
ATOM    100  O   UNL A   1      32.589  25.543  19.658  1.00  0.00    -0.496 OA
ATOM    101  H   UNL A   1      32.077  26.248  19.313  1.00  0.00     0.294 HD
ENDBRANCH  87 100
ENDBRANCH  77  80
ENDBRANCH  75  76
ENDBRANCH  74  75
ENDBRANCH   1  74
TORSDOF 16
ENDMDL
MODEL 2
REMARK VINA RESULT:     -12.9      4.794     10.140
REMARK SMILES O=C(NCCCNC(=O)c1cn(-c2ccccc2)c2c1N=C(O)C[C@@H]2c1cccs1)c1ccc(-c2c3nc(c(-c4c(F)cc(S(=O)(=O)[O-])cc4F)c4ccc([nH]4)c(-c4c(F)cc(S(=O)(=O)[O-])cc4F)c4nc(c(-c5c(F)cc(S(=O)(=O)[O-])cc5F)c5ccc2[nH]5)C=C4)C=C3)cc1
REMARK SMILES IDX 4 1 3 2 1 3 2 4 31 6 32 7 96 8 33 9 95 10 34 11 35 12 36 13
REMARK SMILES IDX 89 14 37 15 94 16 88 17 90 18 38 19 93 20 87 21 86 22 39 24
REMARK SMILES IDX 73 25 52 26 72 27 53 28 56 29 71 30 91 31 54 32 55 33 70 35
REMARK SMILES IDX 92 36 57 37 40 38 41 39 50 40 42 41 43 42 49 43 51 44 44 45
REMARK SMILES IDX 45 46 46 47 47 48 48 49 74 50 75 51 84 52 76 53 77 54 83 55
REMARK SMILES IDX 85 56 78 57 79 58 80 59 81 60 82 61 58 62 59 63 68 64 60 65
REMARK SMILES IDX 61 66 67 67 69 68 62 69 63 70 64 71 65 72 66 73 5 74 6 75
REMARK SMILES IDX 7 76 8 77 9 79 10 80 11 81 20 82 12 83 19 84 21 85 25 86
REMARK SMILES IDX 22 87 24 88 13 89 14 90 18 91 15 92 17 93 16 94 26 95 27 96
REMARK SMILES IDX 30 97 28 98 29 99 23 100
REMARK H PARENT 3 5 90 23 56 34 7 78 23 101
REMARK Flexibility Score: inf
ROOT
ATOM      1  C   UNL A   1      46.229  25.952  25.793  1.00  0.00     0.118 C 
ENDROOT
BRANCH   1   2
ATOM      2  N   UNL A   1      46.305  27.222  25.103  1.00  0.00    -0.352 N 
ATOM      3  O   UNL A   1      46.531  29.384  24.717  1.00  0.00    -0.269 OA
ATOM      4  C   UNL A   1      46.065  28.519  25.464  1.00  0.00     0.251 C 
ATOM      5  H   UNL A   1      46.596  27.132  24.166  1.00  0.00     0.163 HD
BRANCH   4   6
ATOM      6  C   UNL A   1      45.219  28.944  26.613  1.00  0.00     0.039 A 
ATOM      7  C   UNL A   1      43.824  28.948  26.653  1.00  0.00     0.014 A 
ATOM      8  C   UNL A   1      45.925  29.426  27.734  1.00  0.00     0.014 A 
ATOM      9  C   UNL A   1      43.151  29.504  27.740  1.00  0.00     0.010 A 
ATOM     10  C   UNL A   1      45.261  29.974  28.823  1.00  0.00     0.010 A 
ATOM     11  C   UNL A   1      43.871  30.041  28.812  1.00  0.00    -0.014 A 
BRANCH  11  12
ATOM     12  C   UNL A   1      43.143  30.454  30.012  1.00  0.00     0.031 A 
ATOM     13  C   UNL A   1      42.947  29.346  30.989  1.00  0.00     0.074 A 
ATOM     14  C   UNL A   1      42.852  31.739  30.308  1.00  0.00     0.049 A 
ATOM     15  N   UNL A   1      41.836  28.829  31.404  1.00  0.00    -0.248 NA
ATOM     16  C   UNL A   1      44.145  28.619  31.445  1.00  0.00     0.031 C 
ATOM     17  C   UNL A   1      43.266  32.927  29.556  1.00  0.00     0.029 A 
ATOM     18  N   UNL A   1      42.234  32.274  31.403  1.00  0.00    -0.354 N 
ATOM     19  C   UNL A   1      42.201  27.888  32.368  1.00  0.00     0.074 A 
ATOM     20  C   UNL A   1      43.605  27.648  32.183  1.00  0.00     0.031 C 
ATOM     21  C   UNL A   1      43.097  34.024  30.327  1.00  0.00     0.029 A 
ATOM     22  C   UNL A   1      42.468  33.638  31.581  1.00  0.00     0.049 A 
ATOM     23  H   UNL A   1      41.673  31.744  32.014  1.00  0.00     0.167 HD
ATOM     24  C   UNL A   1      41.392  27.626  33.433  1.00  0.00     0.037 A 
ATOM     25  C   UNL A   1      42.235  34.382  32.697  1.00  0.00     0.037 A 
ATOM     26  C   UNL A   1      40.036  28.042  33.162  1.00  0.00     0.049 A 
ATOM     27  C   UNL A   1      41.260  33.636  33.530  1.00  0.00     0.074 A 
ATOM     28  C   UNL A   1      39.095  27.766  32.188  1.00  0.00     0.029 A 
ATOM     29  N   UNL A   1      39.583  29.167  33.805  1.00  0.00    -0.354 N 
ATOM     30  N   UNL A   1      40.017  33.433  33.195  1.00  0.00    -0.248 NA
ATOM     31  C   UNL A   1      41.780  32.746  34.556  1.00  0.00     0.031 C 
ATOM     32  C   UNL A   1      38.384  28.988  31.998  1.00  0.00     0.029 A 
ATOM     33  C   UNL A   1      38.886  29.920  32.904  1.00  0.00     0.049 A 
ATOM     34  H   UNL A   1      39.736  29.391  34.752  1.00  0.00     0.167 HD
ATOM     35  C   UNL A   1      39.748  32.139  33.613  1.00  0.00     0.074 A 
ATOM     36  C   UNL A   1      40.827  31.811  34.541  1.00  0.00     0.031 C 
ATOM     37  C   UNL A   1      38.841  31.365  32.947  1.00  0.00     0.037 A 
BRANCH  24  38
ATOM     38  C   UNL A   1      41.902  27.456  34.860  1.00  0.00     0.058 A 
ATOM     39  C   UNL A   1      42.834  28.397  35.356  1.00  0.00     0.135 A 
ATOM     40  C   UNL A   1      41.797  26.265  35.615  1.00  0.00     0.135 A 
ATOM     41  F   UNL A   1      43.000  29.581  34.746  1.00  0.00    -0.206 F 
ATOM     42  C   UNL A   1      43.696  28.113  36.415  1.00  0.00     0.059 A 
ATOM     43  C   UNL A   1      42.611  25.985  36.706  1.00  0.00     0.059 A 
ATOM     44  F   UNL A   1      40.968  25.268  35.294  1.00  0.00    -0.206 F 
ATOM     45  C   UNL A   1      43.595  26.888  37.064  1.00  0.00     0.060 A 
BRANCH  45  46
ATOM     46  S   UNL A   1      44.788  26.458  38.340  1.00  0.00     0.124 S 
ATOM     47  O   UNL A   1      44.628  25.010  38.402  1.00  0.00    -0.237 OA
ATOM     48  O   UNL A   1      46.035  26.942  37.759  1.00  0.00    -0.237 OA
ATOM     49  O   UNL A   1      44.314  27.201  39.503  1.00  0.00    -0.744 OA
ENDBRANCH  45  46
ENDBRANCH  24  38
BRANCH  25  50
ATOM     50  C   UNL A   1      43.023  35.528  33.243  1.00  0.00     0.058 A 
ATOM     51  C   UNL A   1      42.449  36.456  34.135  1.00  0.00     0.135 A 
ATOM     52  C   UNL A   1      44.426  35.578  33.129  1.00  0.00     0.135 A 
ATOM     53  F   UNL A   1      41.121  36.476  34.328  1.00  0.00    -0.206 F 
ATOM     54  C   UNL A   1      43.222  37.337  34.906  1.00  0.00     0.059 A 
ATOM     55  C   UNL A   1      45.214  36.457  33.872  1.00  0.00     0.059 A 
ATOM     56  F   UNL A   1      45.093  34.710  32.355  1.00  0.00    -0.206 F 
ATOM     57  C   UNL A   1      44.610  37.315  34.781  1.00  0.00     0.060 A 
BRANCH  57  58
ATOM     58  S   UNL A   1      45.629  38.318  35.888  1.00  0.00     0.124 S 
ATOM     59  O   UNL A   1      44.639  39.203  36.495  1.00  0.00    -0.237 OA
ATOM     60  O   UNL A   1      46.212  37.313  36.771  1.00  0.00    -0.237 OA
ATOM     61  O   UNL A   1      46.573  38.970  34.984  1.00  0.00    -0.744 OA
ENDBRANCH  57  58
ENDBRANCH  25  50
BRANCH  37  62
ATOM     62  C   UNL A   1      37.859  32.044  32.034  1.00  0.00     0.058 A 
ATOM     63  C   UNL A   1      38.075  32.317  30.672  1.00  0.00     0.135 A 
ATOM     64  C   UNL A   1      36.585  32.328  32.552  1.00  0.00     0.135 A 
ATOM     65  F   UNL A   1      39.224  31.977  30.071  1.00  0.00    -0.206 F 
ATOM     66  C   UNL A   1      37.085  32.899  29.878  1.00  0.00     0.059 A 
ATOM     67  C   UNL A   1      35.573  32.874  31.771  1.00  0.00     0.059 A 
ATOM     68  F   UNL A   1      36.297  32.033  33.831  1.00  0.00    -0.206 F 
ATOM     69  C   UNL A   1      35.837  33.176  30.436  1.00  0.00     0.060 A 
BRANCH  69  70
ATOM     70  S   UNL A   1      34.541  33.876  29.395  1.00  0.00     0.124 S 
ATOM     71  O   UNL A   1      35.257  34.923  28.675  1.00  0.00    -0.237 OA
ATOM     72  O   UNL A   1      34.122  32.730  28.594  1.00  0.00    -0.237 OA
ATOM     73  O   UNL A   1      33.547  34.348  30.356  1.00  0.00    -0.744 OA
ENDBRANCH  69  70
ENDBRANCH  37  62
ENDBRANCH  11  12
ENDBRANCH   4   6
ENDBRANCH   1   2
BRANCH   1  74
ATOM     74  C   UNL A   1      47.045  24.820  25.182  1.00  0.00     0.042 C 
BRANCH  74  75
ATOM     75  C   UNL A   1      46.429  23.430  25.316  1.00  0.00     0.118 C 
BRANCH  75  76
ATOM     76  N   UNL A   1      45.807  22.956  24.089  1.00  0.00    -0.352 N 
ATOM     77  C   UNL A   1      44.479  22.700  23.822  1.00  0.00     0.255 C 
ATOM     78  H   UNL A   1      46.424  22.797  23.339  1.00  0.00     0.163 HD
ATOM     79  O   UNL A   1      44.188  22.193  22.746  1.00  0.00    -0.269 OA
BRANCH  77  80
ATOM     80  C   UNL A   1      43.477  22.979  24.839  1.00  0.00     0.084 A 
ATOM     81  C   UNL A   1      43.101  24.252  25.237  1.00  0.00     0.107 A 
ATOM     82  C   UNL A   1      42.706  22.105  25.631  1.00  0.00     0.101 A 
ATOM     83  N   UNL A   1      42.122  24.165  26.212  1.00  0.00    -0.317 N 
ATOM     84  C   UNL A   1      41.795  22.826  26.360  1.00  0.00     0.058 A 
ATOM     85  N   UNL A   1      42.748  20.718  25.565  1.00  0.00    -0.215 NA
ATOM     86  C   UNL A   1      40.592  22.242  27.026  1.00  0.00     0.088 C 
ATOM     87  C   UNL A   1      41.770  20.118  26.150  1.00  0.00     0.187 C 
ATOM     88  C   UNL A   1      40.655  20.699  26.980  1.00  0.00     0.112 C 
BRANCH  83  89
ATOM     89  C   UNL A   1      41.542  25.280  26.869  1.00  0.00     0.045 A 
ATOM     90  C   UNL A   1      40.940  26.300  26.127  1.00  0.00     0.026 A 
ATOM     91  C   UNL A   1      41.583  25.355  28.267  1.00  0.00     0.026 A 
ATOM     92  C   UNL A   1      40.395  27.404  26.784  1.00  0.00     0.002 A 
ATOM     93  C   UNL A   1      41.068  26.480  28.915  1.00  0.00     0.002 A 
ATOM     94  C   UNL A   1      40.473  27.501  28.174  1.00  0.00     0.000 A 
ENDBRANCH  83  89
BRANCH  86  95
ATOM     95  C   UNL A   1      39.237  22.696  26.483  1.00  0.00     0.014 A 
ATOM     96  C   UNL A   1      38.594  23.889  26.785  1.00  0.00     0.016 A 
ATOM     97  S   UNL A   1      38.254  21.734  25.452  1.00  0.00    -0.148 S 
ATOM     98  C   UNL A   1      37.333  24.021  26.138  1.00  0.00     0.012 A 
ATOM     99  C   UNL A   1      37.049  22.936  25.342  1.00  0.00     0.065 A 
ENDBRANCH  86  95
BRANCH  87 100
ATOM    100  O   UNL A   1      41.718  18.772  26.047  1.00  0.00    -0.496 OA
ATOM    101  H   UNL A   1      42.246  18.330  25.411  1.00  0.00     0.294 HD
ENDBRANCH  87 100
ENDBRANCH  77  80
ENDBRANCH  75  76
ENDBRANCH  74  75
ENDBRANCH   1  74
TORSDOF 16
ENDMDL
MODEL 3
REMARK VINA RESULT:     -12.8      4.586      8.596
REMARK SMILES O=C(NCCCNC(=O)c1cn(-c2ccccc2)c2c1N=C(O)C[C@@H]2c1cccs1)c1ccc(-c2c3nc(c(-c4c(F)cc(S(=O)(=O)[O-])cc4F)c4ccc([nH]4)c(-c4c(F)cc(S(=O)(=O)[O-])cc4F)c4nc(c(-c5c(F)cc(S(=O)(=O)[O-])cc5F)c5ccc2[nH]5)C=C4)C=C3)cc1
REMARK SMILES IDX 4 1 3 2 1 3 2 4 31 6 32 7 96 8 33 9 95 10 34 11 35 12 36 13
REMARK SMILES IDX 89 14 37 15 94 16 88 17 90 18 38 19 93 20 87 21 86 22 39 24
REMARK SMILES IDX 73 25 52 26 72 27 53 28 56 29 71 30 91 31 54 32 55 33 70 35
REMARK SMILES IDX 92 36 57 37 40 38 41 39 50 40 42 41 43 42 49 43 51 44 44 45
REMARK SMILES IDX 45 46 46 47 47 48 48 49 74 50 75 51 84 52 76 53 77 54 83 55
REMARK SMILES IDX 85 56 78 57 79 58 80 59 81 60 82 61 58 62 59 63 68 64 60 65
REMARK SMILES IDX 61 66 67 67 69 68 62 69 63 70 64 71 65 72 66 73 5 74 6 75
REMARK SMILES IDX 7 76 8 77 9 79 10 80 11 81 20 82 12 83 19 84 21 85 25 86
REMARK SMILES IDX 22 87 24 88 13 89 14 90 18 91 15 92 17 93 16 94 26 95 27 96
REMARK SMILES IDX 30 97 28 98 29 99 23 100
REMARK H PARENT 3 5 90 23 56 34 7 78 23 101
REMARK Flexibility Score: inf
ROOT
ATOM      1  C   UNL A   1      34.482  33.807  29.227  1.00  0.00     0.118 C 
ENDROOT
BRANCH   1   2
ATOM      2  N   UNL A   1      34.107  32.668  28.417  1.00  0.00    -0.352 N 
ATOM      3  O   UNL A   1      33.879  30.591  27.705  1.00  0.00    -0.269 OA
ATOM      4  C   UNL A   1      34.629  31.418  28.231  1.00  0.00     0.251 C 
ATOM      5  H   UNL A   1      33.295  32.829  27.883  1.00  0.00     0.163 HD
BRANCH   4   6
ATOM      6  C   UNL A   1      36.035  31.025  28.524  1.00  0.00     0.039 A 
ATOM      7  C   UNL A   1      37.041  31.865  29.005  1.00  0.00     0.014 A 
ATOM      8  C   UNL A   1      36.360  29.685  28.233  1.00  0.00     0.014 A 
ATOM      9  C   UNL A   1      38.354  31.407  29.104  1.00  0.00     0.010 A 
ATOM     10  C   UNL A   1      37.664  29.221  28.337  1.00  0.00     0.010 A 
ATOM     11  C   UNL A   1      38.668  30.093  28.744  1.00  0.00    -0.014 A 
BRANCH  11  12
ATOM     12  C   UNL A   1      40.013  29.589  29.025  1.00  0.00     0.031 A 
ATOM     13  C   UNL A   1      40.302  29.468  30.482  1.00  0.00     0.074 A 
ATOM     14  C   UNL A   1      40.840  29.091  28.081  1.00  0.00     0.049 A 
ATOM     15  N   UNL A   1      41.201  30.086  31.177  1.00  0.00    -0.248 NA
ATOM     16  C   UNL A   1      39.367  28.673  31.299  1.00  0.00     0.031 C 
ATOM     17  C   UNL A   1      40.532  28.891  26.663  1.00  0.00     0.029 A 
ATOM     18  N   UNL A   1      42.086  28.542  28.200  1.00  0.00    -0.354 N 
ATOM     19  C   UNL A   1      41.107  29.556  32.464  1.00  0.00     0.074 A 
ATOM     20  C   UNL A   1      39.841  28.881  32.528  1.00  0.00     0.031 C 
ATOM     21  C   UNL A   1      41.453  28.066  26.117  1.00  0.00     0.029 A 
ATOM     22  C   UNL A   1      42.473  27.762  27.109  1.00  0.00     0.049 A 
ATOM     23  H   UNL A   1      42.662  28.684  28.986  1.00  0.00     0.167 HD
ATOM     24  C   UNL A   1      42.209  29.448  33.259  1.00  0.00     0.037 A 
ATOM     25  C   UNL A   1      43.505  26.877  27.046  1.00  0.00     0.037 A 
ATOM     26  C   UNL A   1      43.255  30.336  32.810  1.00  0.00     0.049 A 
ATOM     27  C   UNL A   1      44.443  27.213  28.146  1.00  0.00     0.074 A 
ATOM     28  C   UNL A   1      43.367  31.694  32.584  1.00  0.00     0.029 A 
ATOM     29  N   UNL A   1      44.336  29.766  32.186  1.00  0.00    -0.354 N 
ATOM     30  N   UNL A   1      45.155  28.304  28.193  1.00  0.00    -0.248 NA
ATOM     31  C   UNL A   1      44.280  26.522  29.415  1.00  0.00     0.031 C 
ATOM     32  C   UNL A   1      44.238  31.816  31.461  1.00  0.00     0.029 A 
ATOM     33  C   UNL A   1      44.656  30.535  31.103  1.00  0.00     0.049 A 
ATOM     34  H   UNL A   1      44.801  28.945  32.470  1.00  0.00     0.167 HD
ATOM     35  C   UNL A   1      45.137  28.677  29.527  1.00  0.00     0.074 A 
ATOM     36  C   UNL A   1      44.684  27.488  30.245  1.00  0.00     0.031 C 
ATOM     37  C   UNL A   1      45.213  29.993  29.885  1.00  0.00     0.037 A 
BRANCH  24  38
ATOM     38  C   UNL A   1      42.515  28.224  34.115  1.00  0.00     0.058 A 
ATOM     39  C   UNL A   1      42.797  28.418  35.487  1.00  0.00     0.135 A 
ATOM     40  C   UNL A   1      42.880  26.956  33.605  1.00  0.00     0.135 A 
ATOM     41  F   UNL A   1      42.466  29.567  36.096  1.00  0.00    -0.206 F 
ATOM     42  C   UNL A   1      43.518  27.493  36.243  1.00  0.00     0.059 A 
ATOM     43  C   UNL A   1      43.553  26.001  34.357  1.00  0.00     0.059 A 
ATOM     44  F   UNL A   1      42.687  26.599  32.332  1.00  0.00    -0.206 F 
ATOM     45  C   UNL A   1      43.918  26.300  35.656  1.00  0.00     0.060 A 
BRANCH  45  46
ATOM     46  S   UNL A   1      44.963  25.162  36.580  1.00  0.00     0.124 S 
ATOM     47  O   UNL A   1      46.256  25.386  35.945  1.00  0.00    -0.237 OA
ATOM     48  O   UNL A   1      44.820  25.664  37.942  1.00  0.00    -0.237 OA
ATOM     49  O   UNL A   1      44.346  23.864  36.326  1.00  0.00    -0.744 OA
ENDBRANCH  45  46
ENDBRANCH  24  38
BRANCH  25  50
ATOM     50  C   UNL A   1      43.584  25.578  26.312  1.00  0.00     0.058 A 
ATOM     51  C   UNL A   1      44.547  25.361  25.306  1.00  0.00     0.135 A 
ATOM     52  C   UNL A   1      42.912  24.429  26.773  1.00  0.00     0.135 A 
ATOM     53  F   UNL A   1      45.254  26.388  24.813  1.00  0.00    -0.206 F 
ATOM     54  C   UNL A   1      44.860  24.080  24.828  1.00  0.00     0.059 A 
ATOM     55  C   UNL A   1      43.195  23.147  26.301  1.00  0.00     0.059 A 
ATOM     56  F   UNL A   1      42.016  24.499  27.767  1.00  0.00    -0.206 F 
ATOM     57  C   UNL A   1      44.190  22.974  25.348  1.00  0.00     0.060 A 
BRANCH  57  58
ATOM     58  S   UNL A   1      44.701  21.305  24.872  1.00  0.00     0.124 S 
ATOM     59  O   UNL A   1      44.789  21.418  23.419  1.00  0.00    -0.237 OA
ATOM     60  O   UNL A   1      45.969  21.154  25.578  1.00  0.00    -0.237 OA
ATOM     61  O   UNL A   1      43.613  20.464  25.365  1.00  0.00    -0.744 OA
ENDBRANCH  57  58
ENDBRANCH  25  50
BRANCH  37  62
ATOM     62  C   UNL A   1      45.721  30.978  28.869  1.00  0.00     0.058 A 
ATOM     63  C   UNL A   1      44.918  31.693  27.964  1.00  0.00     0.135 A 
ATOM     64  C   UNL A   1      47.090  31.292  28.901  1.00  0.00     0.135 A 
ATOM     65  F   UNL A   1      43.587  31.535  27.943  1.00  0.00    -0.206 F 
ATOM     66  C   UNL A   1      45.464  32.637  27.091  1.00  0.00     0.059 A 
ATOM     67  C   UNL A   1      47.648  32.253  28.067  1.00  0.00     0.059 A 
ATOM     68  F   UNL A   1      47.898  30.687  29.787  1.00  0.00    -0.206 F 
ATOM     69  C   UNL A   1      46.831  32.910  27.149  1.00  0.00     0.060 A 
BRANCH  69  70
ATOM     70  S   UNL A   1      47.525  34.170  26.059  1.00  0.00     0.124 S 
ATOM     71  O   UNL A   1      46.467  34.337  25.069  1.00  0.00    -0.237 OA
ATOM     72  O   UNL A   1      47.729  35.296  26.965  1.00  0.00    -0.237 OA
ATOM     73  O   UNL A   1      48.752  33.553  25.561  1.00  0.00    -0.744 OA
ENDBRANCH  69  70
ENDBRANCH  37  62
ENDBRANCH  11  12
ENDBRANCH   4   6
ENDBRANCH   1   2
BRANCH   1  74
ATOM     74  C   UNL A   1      34.344  33.619  30.733  1.00  0.00     0.042 C 
BRANCH  74  75
ATOM     75  C   UNL A   1      35.516  34.137  31.562  1.00  0.00     0.118 C 
BRANCH  75  76
ATOM     76  N   UNL A   1      35.159  34.432  32.941  1.00  0.00    -0.352 N 
ATOM     77  C   UNL A   1      35.923  34.337  34.084  1.00  0.00     0.255 C 
ATOM     78  H   UNL A   1      34.236  34.746  33.078  1.00  0.00     0.163 HD
ATOM     79  O   UNL A   1      35.382  34.527  35.165  1.00  0.00    -0.269 OA
BRANCH  77  80
ATOM     80  C   UNL A   1      37.323  33.956  33.979  1.00  0.00     0.084 A 
ATOM     81  C   UNL A   1      38.280  34.679  33.283  1.00  0.00     0.107 A 
ATOM     82  C   UNL A   1      38.013  32.842  34.497  1.00  0.00     0.101 A 
ATOM     83  N   UNL A   1      39.508  34.050  33.390  1.00  0.00    -0.317 N 
ATOM     84  C   UNL A   1      39.356  32.975  34.252  1.00  0.00     0.058 A 
ATOM     85  N   UNL A   1      37.445  31.842  35.277  1.00  0.00    -0.215 NA
ATOM     86  C   UNL A   1      40.424  32.194  34.945  1.00  0.00     0.088 C 
ATOM     87  C   UNL A   1      38.291  31.085  35.887  1.00  0.00     0.187 C 
ATOM     88  C   UNL A   1      39.793  31.064  35.788  1.00  0.00     0.112 C 
BRANCH  83  89
ATOM     89  C   UNL A   1      40.698  34.500  32.763  1.00  0.00     0.045 A 
ATOM     90  C   UNL A   1      40.946  34.197  31.421  1.00  0.00     0.026 A 
ATOM     91  C   UNL A   1      41.627  35.244  33.500  1.00  0.00     0.026 A 
ATOM     92  C   UNL A   1      42.133  34.624  30.824  1.00  0.00     0.002 A 
ATOM     93  C   UNL A   1      42.828  35.636  32.906  1.00  0.00     0.002 A 
ATOM     94  C   UNL A   1      43.079  35.328  31.569  1.00  0.00     0.000 A 
ENDBRANCH  83  89
BRANCH  86  95
ATOM     95  C   UNL A   1      41.375  32.999  35.833  1.00  0.00     0.014 A 
ATOM     96  C   UNL A   1      42.753  32.849  35.899  1.00  0.00     0.016 A 
ATOM     97  S   UNL A   1      40.849  34.184  36.962  1.00  0.00    -0.148 S 
ATOM     98  C   UNL A   1      43.364  33.731  36.834  1.00  0.00     0.012 A 
ATOM     99  C   UNL A   1      42.443  34.548  37.447  1.00  0.00     0.065 A 
ENDBRANCH  86  95
BRANCH  87 100
ATOM    100  O   UNL A   1      37.793  30.148  36.722  1.00  0.00    -0.496 OA
ATOM    101  H   UNL A   1      36.867  30.015  36.779  1.00  0.00     0.294 HD
ENDBRANCH  87 100
ENDBRANCH  77  80
ENDBRANCH  75  76
ENDBRANCH  74  75
ENDBRANCH   1  74
TORSDOF 16
ENDMDL
