MODEL 1
REMARK VINA RESULT:     -10.0      0.000      0.000
REMARK SMILES CC[C@@H](C)C[C@H](CC)[C@](C)(O)C(=O)NCCCNC(=O)c1ccc(-c2c3nc(c(-c4c(F)cc(S(=O)(=O)[O-])cc4F)c4ccc([nH]4)c(-c4c(F)cc(S(=O)(=O)[O-])cc4F)c4nc(c(-c5c(F)cc(S(=O)(=O)[O-])cc5F)c5ccc2[nH]5)C=C4)C=C3)cc1
REMARK SMILES IDX 15 1 14 2 12 3 13 4 9 6 10 7 6 8 5 9 3 10 4 11 2 12 1 13
REMARK SMILES IDX 7 14 8 15 11 16 16 18 17 19 18 20 19 21 20 23 21 24 22 25
REMARK SMILES IDX 86 26 23 27 85 28 24 29 25 30 26 31 79 32 27 33 84 34 78 35
REMARK SMILES IDX 80 36 28 37 83 38 77 39 76 40 29 42 63 43 42 44 62 45 43 46
REMARK SMILES IDX 46 47 61 48 81 49 44 50 45 51 60 53 82 54 47 55 30 56 31 57
REMARK SMILES IDX 40 58 32 59 33 60 39 61 41 62 34 63 35 64 36 65 37 66 38 67
REMARK SMILES IDX 64 68 65 69 74 70 66 71 67 72 73 73 75 74 68 75 69 76 70 77
REMARK SMILES IDX 71 78 72 79 48 80 49 81 58 82 50 83 51 84 57 85 59 86 52 87
REMARK SMILES IDX 53 88 54 89 55 90 56 91
REMARK H PARENT 14 5 11 17 18 22 80 41 46 52
REMARK Flexibility Score: inf
ROOT
ATOM      1  C   UNL A   1      33.216  28.989  24.848  1.00  0.00     0.117 C 
ENDROOT
BRANCH   1   2
ATOM      2  N   UNL A   1      33.734  28.671  23.533  1.00  0.00    -0.354 N 
ATOM      3  C   UNL A   1      33.235  27.848  22.570  1.00  0.00     0.251 C 
ATOM      4  O   UNL A   1      33.978  27.609  21.611  1.00  0.00    -0.272 OA
ATOM      5  H   UNL A   1      34.578  29.119  23.299  1.00  0.00     0.163 HD
BRANCH   3   6
ATOM      6  C   UNL A   1      31.769  27.315  22.639  1.00  0.00     0.143 C 
ATOM      7  C   UNL A   1      30.886  28.474  23.123  1.00  0.00     0.053 C 
BRANCH   6   8
ATOM      8  C   UNL A   1      31.664  26.006  23.497  1.00  0.00     0.030 C 
BRANCH   8   9
ATOM      9  C   UNL A   1      32.157  24.699  22.794  1.00  0.00     0.010 C 
BRANCH   9  10
ATOM     10  C   UNL A   1      32.867  23.604  23.628  1.00  0.00    -0.014 C 
ATOM     11  C   UNL A   1      34.172  23.197  22.925  1.00  0.00     0.007 C 
BRANCH  10  12
ATOM     12  C   UNL A   1      31.966  22.374  23.838  1.00  0.00    -0.000 C 
ATOM     13  C   UNL A   1      32.707  21.153  24.363  1.00  0.00     0.004 C 
ENDBRANCH  10  12
ENDBRANCH   9  10
ENDBRANCH   8   9
BRANCH   8  14
ATOM     14  C   UNL A   1      30.419  25.841  24.401  1.00  0.00     0.004 C 
ATOM     15  C   UNL A   1      30.514  26.315  25.840  1.00  0.00     0.004 C 
ENDBRANCH   8  14
ENDBRANCH   6   8
BRANCH   6  16
ATOM     16  O   UNL A   1      31.324  26.984  21.307  1.00  0.00    -0.380 OA
ATOM     17  H   UNL A   1      31.676  27.633  20.680  1.00  0.00     0.212 HD
ENDBRANCH   6  16
ENDBRANCH   3   6
ENDBRANCH   1   2
BRANCH   1  18
ATOM     18  C   UNL A   1      33.814  28.085  25.914  1.00  0.00     0.042 C 
BRANCH  18  19
ATOM     19  C   UNL A   1      33.364  28.429  27.327  1.00  0.00     0.118 C 
BRANCH  19  20
ATOM     20  N   UNL A   1      33.373  29.864  27.590  1.00  0.00    -0.352 N 
ATOM     21  C   UNL A   1      34.374  30.650  28.109  1.00  0.00     0.251 C 
ATOM     22  H   UNL A   1      32.542  30.338  27.361  1.00  0.00     0.163 HD
ATOM     23  O   UNL A   1      34.138  31.810  28.434  1.00  0.00    -0.269 OA
BRANCH  21  24
ATOM     24  C   UNL A   1      35.721  30.078  28.299  1.00  0.00     0.039 A 
ATOM     25  C   UNL A   1      36.624  30.092  27.235  1.00  0.00     0.014 A 
ATOM     26  C   UNL A   1      36.100  29.563  29.542  1.00  0.00     0.014 A 
ATOM     27  C   UNL A   1      37.938  29.670  27.444  1.00  0.00     0.010 A 
ATOM     28  C   UNL A   1      37.428  29.229  29.772  1.00  0.00     0.010 A 
ATOM     29  C   UNL A   1      38.362  29.281  28.726  1.00  0.00    -0.014 A 
BRANCH  29  30
ATOM     30  C   UNL A   1      39.777  28.936  29.006  1.00  0.00     0.031 A 
ATOM     31  C   UNL A   1      40.696  29.959  29.614  1.00  0.00     0.074 A 
ATOM     32  C   UNL A   1      40.255  27.731  28.635  1.00  0.00     0.049 A 
ATOM     33  N   UNL A   1      41.979  29.880  29.853  1.00  0.00    -0.248 NA
ATOM     34  C   UNL A   1      40.095  31.254  29.972  1.00  0.00     0.031 C 
ATOM     35  C   UNL A   1      39.473  26.670  27.997  1.00  0.00     0.029 A 
ATOM     36  N   UNL A   1      41.516  27.199  28.734  1.00  0.00    -0.354 N 
ATOM     37  C   UNL A   1      42.342  31.117  30.372  1.00  0.00     0.074 A 
ATOM     38  C   UNL A   1      41.157  31.947  30.356  1.00  0.00     0.031 C 
ATOM     39  C   UNL A   1      40.261  25.603  27.797  1.00  0.00     0.029 A 
ATOM     40  C   UNL A   1      41.613  25.917  28.248  1.00  0.00     0.049 A 
ATOM     41  H   UNL A   1      42.278  27.690  29.116  1.00  0.00     0.167 HD
ATOM     42  C   UNL A   1      43.548  31.518  30.844  1.00  0.00     0.037 A 
ATOM     43  C   UNL A   1      42.673  25.090  28.173  1.00  0.00     0.037 A 
ATOM     44  C   UNL A   1      44.718  30.681  30.871  1.00  0.00     0.049 A 
ATOM     45  C   UNL A   1      44.008  25.564  28.675  1.00  0.00     0.074 A 
ATOM     46  C   UNL A   1      45.973  30.969  31.377  1.00  0.00     0.029 A 
ATOM     47  N   UNL A   1      44.779  29.391  30.361  1.00  0.00    -0.354 N 
ATOM     48  N   UNL A   1      44.323  26.715  29.217  1.00  0.00    -0.248 NA
ATOM     49  C   UNL A   1      45.133  24.628  28.550  1.00  0.00     0.031 C 
ATOM     50  C   UNL A   1      46.805  29.869  31.135  1.00  0.00     0.029 A 
ATOM     51  C   UNL A   1      46.056  28.879  30.518  1.00  0.00     0.049 A 
ATOM     52  H   UNL A   1      44.026  28.911  29.948  1.00  0.00     0.167 HD
ATOM     53  C   UNL A   1      45.678  26.635  29.522  1.00  0.00     0.074 A 
ATOM     54  C   UNL A   1      46.119  25.317  29.109  1.00  0.00     0.031 C 
ATOM     55  C   UNL A   1      46.480  27.565  30.098  1.00  0.00     0.037 A 
BRANCH  42  56
ATOM     56  C   UNL A   1      43.646  32.928  31.358  1.00  0.00     0.058 A 
ATOM     57  C   UNL A   1      44.065  33.986  30.533  1.00  0.00     0.135 A 
ATOM     58  C   UNL A   1      43.346  33.225  32.697  1.00  0.00     0.135 A 
ATOM     59  F   UNL A   1      44.379  33.756  29.247  1.00  0.00    -0.206 F 
ATOM     60  C   UNL A   1      44.238  35.274  31.030  1.00  0.00     0.059 A 
ATOM     61  C   UNL A   1      43.481  34.514  33.208  1.00  0.00     0.059 A 
ATOM     62  F   UNL A   1      42.936  32.256  33.529  1.00  0.00    -0.206 F 
ATOM     63  C   UNL A   1      43.955  35.525  32.373  1.00  0.00     0.060 A 
BRANCH  63  64
ATOM     64  S   UNL A   1      44.231  37.188  33.017  1.00  0.00     0.124 S 
ATOM     65  O   UNL A   1      44.034  37.997  31.819  1.00  0.00    -0.237 OA
ATOM     66  O   UNL A   1      43.194  37.307  34.038  1.00  0.00    -0.237 OA
ATOM     67  O   UNL A   1      45.599  37.133  33.522  1.00  0.00    -0.744 OA
ENDBRANCH  63  64
ENDBRANCH  42  56
BRANCH  43  68
ATOM     68  C   UNL A   1      42.495  23.712  27.646  1.00  0.00     0.058 A 
ATOM     69  C   UNL A   1      42.514  23.472  26.264  1.00  0.00     0.135 A 
ATOM     70  C   UNL A   1      42.351  22.608  28.500  1.00  0.00     0.135 A 
ATOM     71  F   UNL A   1      42.643  24.497  25.407  1.00  0.00    -0.206 F 
ATOM     72  C   UNL A   1      42.398  22.186  25.745  1.00  0.00     0.059 A 
ATOM     73  C   UNL A   1      42.254  21.310  28.006  1.00  0.00     0.059 A 
ATOM     74  F   UNL A   1      42.340  22.784  29.830  1.00  0.00    -0.206 F 
ATOM     75  C   UNL A   1      42.276  21.111  26.626  1.00  0.00     0.060 A 
BRANCH  75  76
ATOM     76  S   UNL A   1      42.205  19.440  25.942  1.00  0.00     0.124 S 
ATOM     77  O   UNL A   1      42.741  18.649  27.043  1.00  0.00    -0.237 OA
ATOM     78  O   UNL A   1      40.780  19.279  25.673  1.00  0.00    -0.237 OA
ATOM     79  O   UNL A   1      43.052  19.527  24.756  1.00  0.00    -0.744 OA
ENDBRANCH  75  76
ENDBRANCH  43  68
BRANCH  55  80
ATOM     80  C   UNL A   1      47.914  27.186  30.338  1.00  0.00     0.058 A 
ATOM     81  C   UNL A   1      48.906  27.410  29.371  1.00  0.00     0.135 A 
ATOM     82  C   UNL A   1      48.310  26.644  31.572  1.00  0.00     0.135 A 
ATOM     83  F   UNL A   1      48.580  27.917  28.172  1.00  0.00    -0.206 F 
ATOM     84  C   UNL A   1      50.241  27.098  29.614  1.00  0.00     0.059 A 
ATOM     85  C   UNL A   1      49.641  26.347  31.845  1.00  0.00     0.059 A 
ATOM     86  F   UNL A   1      47.400  26.416  32.532  1.00  0.00    -0.206 F 
ATOM     87  C   UNL A   1      50.598  26.570  30.856  1.00  0.00     0.060 A 
BRANCH  87  88
ATOM     88  S   UNL A   1      52.339  26.213  31.176  1.00  0.00     0.124 S 
ATOM     89  O   UNL A   1      52.261  24.885  31.778  1.00  0.00    -0.237 OA
ATOM     90  O   UNL A   1      52.921  26.268  29.838  1.00  0.00    -0.237 OA
ATOM     91  O   UNL A   1      52.747  27.288  32.076  1.00  0.00    -0.744 OA
ENDBRANCH  87  88
ENDBRANCH  55  80
ENDBRANCH  29  30
ENDBRANCH  21  24
ENDBRANCH  19  20
ENDBRANCH  18  19
ENDBRANCH   1  18
TORSDOF 19
ENDMDL
MODEL 2
REMARK VINA RESULT:      -9.9      5.083     10.687
REMARK SMILES CC[C@@H](C)C[C@H](CC)[C@](C)(O)C(=O)NCCCNC(=O)c1ccc(-c2c3nc(c(-c4c(F)cc(S(=O)(=O)[O-])cc4F)c4ccc([nH]4)c(-c4c(F)cc(S(=O)(=O)[O-])cc4F)c4nc(c(-c5c(F)cc(S(=O)(=O)[O-])cc5F)c5ccc2[nH]5)C=C4)C=C3)cc1
REMARK SMILES IDX 15 1 14 2 12 3 13 4 9 6 10 7 6 8 5 9 3 10 4 11 2 12 1 13
REMARK SMILES IDX 7 14 8 15 11 16 16 18 17 19 18 20 19 21 20 23 21 24 22 25
REMARK SMILES IDX 86 26 23 27 85 28 24 29 25 30 26 31 79 32 27 33 84 34 78 35
REMARK SMILES IDX 80 36 28 37 83 38 77 39 76 40 29 42 63 43 42 44 62 45 43 46
REMARK SMILES IDX 46 47 61 48 81 49 44 50 45 51 60 53 82 54 47 55 30 56 31 57
REMARK SMILES IDX 40 58 32 59 33 60 39 61 41 62 34 63 35 64 36 65 37 66 38 67
REMARK SMILES IDX 64 68 65 69 74 70 66 71 67 72 73 73 75 74 68 75 69 76 70 77
REMARK SMILES IDX 71 78 72 79 48 80 49 81 58 82 50 83 51 84 57 85 59 86 52 87
REMARK SMILES IDX 53 88 54 89 55 90 56 91
REMARK H PARENT 14 5 11 17 18 22 80 41 46 52
REMARK Flexibility Score: inf
ROOT
ATOM      1  C   UNL A   1      36.085  23.351  25.633  1.00  0.00     0.117 C 
ENDROOT
BRANCH   1   2
ATOM      2  N   UNL A   1      35.359  22.820  26.769  1.00  0.00    -0.354 N 
ATOM      3  C   UNL A   1      34.101  22.307  26.844  1.00  0.00     0.251 C 
ATOM      4  O   UNL A   1      33.658  22.100  27.980  1.00  0.00    -0.272 OA
ATOM      5  H   UNL A   1      35.853  22.832  27.621  1.00  0.00     0.163 HD
BRANCH   3   6
ATOM      6  C   UNL A   1      33.306  21.920  25.558  1.00  0.00     0.143 C 
ATOM      7  C   UNL A   1      34.226  21.040  24.701  1.00  0.00     0.053 C 
BRANCH   6   8
ATOM      8  C   UNL A   1      32.734  23.183  24.823  1.00  0.00     0.030 C 
BRANCH   8   9
ATOM      9  C   UNL A   1      32.249  24.341  25.755  1.00  0.00     0.010 C 
BRANCH   9  10
ATOM     10  C   UNL A   1      32.493  25.813  25.335  1.00  0.00    -0.014 C 
ATOM     11  C   UNL A   1      33.816  26.301  25.947  1.00  0.00     0.007 C 
BRANCH  10  12
ATOM     12  C   UNL A   1      31.334  26.727  25.766  1.00  0.00    -0.000 C 
ATOM     13  C   UNL A   1      31.776  27.944  26.565  1.00  0.00     0.004 C 
ENDBRANCH  10  12
ENDBRANCH   9  10
ENDBRANCH   8   9
BRANCH   8  14
ATOM     14  C   UNL A   1      31.873  22.946  23.559  1.00  0.00     0.004 C 
ATOM     15  C   UNL A   1      30.644  23.816  23.360  1.00  0.00     0.004 C 
ENDBRANCH   8  14
ENDBRANCH   6   8
BRANCH   6  16
ATOM     16  O   UNL A   1      32.178  21.101  25.929  1.00  0.00    -0.380 OA
ATOM     17  H   UNL A   1      32.492  20.227  26.206  1.00  0.00     0.212 HD
ENDBRANCH   6  16
ENDBRANCH   3   6
ENDBRANCH   1   2
BRANCH   1  18
ATOM     18  C   UNL A   1      37.565  23.010  25.711  1.00  0.00     0.042 C 
BRANCH  18  19
ATOM     19  C   UNL A   1      38.424  24.147  26.246  1.00  0.00     0.118 C 
BRANCH  19  20
ATOM     20  N   UNL A   1      39.853  23.873  26.145  1.00  0.00    -0.352 N 
ATOM     21  C   UNL A   1      40.916  24.582  26.651  1.00  0.00     0.251 C 
ATOM     22  H   UNL A   1      40.090  23.059  25.644  1.00  0.00     0.163 HD
ATOM     23  O   UNL A   1      42.061  24.300  26.309  1.00  0.00    -0.269 OA
BRANCH  21  24
ATOM     24  C   UNL A   1      40.665  25.699  27.582  1.00  0.00     0.039 A 
ATOM     25  C   UNL A   1      39.672  25.567  28.554  1.00  0.00     0.014 A 
ATOM     26  C   UNL A   1      41.441  26.860  27.515  1.00  0.00     0.014 A 
ATOM     27  C   UNL A   1      39.516  26.567  29.516  1.00  0.00     0.010 A 
ATOM     28  C   UNL A   1      41.345  27.809  28.524  1.00  0.00     0.010 A 
ATOM     29  C   UNL A   1      40.384  27.671  29.537  1.00  0.00    -0.014 A 
BRANCH  29  30
ATOM     30  C   UNL A   1      40.318  28.692  30.612  1.00  0.00     0.031 A 
ATOM     31  C   UNL A   1      41.236  28.596  31.799  1.00  0.00     0.074 A 
ATOM     32  C   UNL A   1      39.376  29.655  30.560  1.00  0.00     0.049 A 
ATOM     33  N   UNL A   1      41.274  29.335  32.877  1.00  0.00    -0.248 NA
ATOM     34  C   UNL A   1      42.222  27.503  31.782  1.00  0.00     0.031 C 
ATOM     35  C   UNL A   1      38.399  29.826  29.481  1.00  0.00     0.029 A 
ATOM     36  N   UNL A   1      39.080  30.666  31.438  1.00  0.00    -0.354 N 
ATOM     37  C   UNL A   1      42.273  28.788  33.673  1.00  0.00     0.074 A 
ATOM     38  C   UNL A   1      42.774  27.620  32.981  1.00  0.00     0.031 C 
ATOM     39  C   UNL A   1      37.639  30.900  29.745  1.00  0.00     0.029 A 
ATOM     40  C   UNL A   1      38.040  31.466  31.028  1.00  0.00     0.049 A 
ATOM     41  H   UNL A   1      39.565  30.804  32.283  1.00  0.00     0.167 HD
ATOM     42  C   UNL A   1      42.748  29.233  34.862  1.00  0.00     0.037 A 
ATOM     43  C   UNL A   1      37.474  32.534  31.622  1.00  0.00     0.037 A 
ATOM     44  C   UNL A   1      42.255  30.404  35.536  1.00  0.00     0.049 A 
ATOM     45  C   UNL A   1      37.997  32.994  32.954  1.00  0.00     0.074 A 
ATOM     46  C   UNL A   1      42.703  30.973  36.715  1.00  0.00     0.029 A 
ATOM     47  N   UNL A   1      41.195  31.183  35.094  1.00  0.00    -0.354 N 
ATOM     48  N   UNL A   1      38.980  32.502  33.667  1.00  0.00    -0.248 NA
ATOM     49  C   UNL A   1      37.329  34.151  33.564  1.00  0.00     0.031 C 
ATOM     50  C   UNL A   1      41.885  32.071  37.008  1.00  0.00     0.029 A 
ATOM     51  C   UNL A   1      40.957  32.213  35.988  1.00  0.00     0.049 A 
ATOM     52  H   UNL A   1      40.686  31.027  34.266  1.00  0.00     0.167 HD
ATOM     53  C   UNL A   1      39.068  33.304  34.800  1.00  0.00     0.074 A 
ATOM     54  C   UNL A   1      38.039  34.318  34.672  1.00  0.00     0.031 C 
ATOM     55  C   UNL A   1      39.926  33.213  35.846  1.00  0.00     0.037 A 
BRANCH  42  56
ATOM     56  C   UNL A   1      43.853  28.433  35.499  1.00  0.00     0.058 A 
ATOM     57  C   UNL A   1      43.582  27.397  36.409  1.00  0.00     0.135 A 
ATOM     58  C   UNL A   1      45.198  28.721  35.220  1.00  0.00     0.135 A 
ATOM     59  F   UNL A   1      42.313  27.088  36.723  1.00  0.00    -0.206 F 
ATOM     60  C   UNL A   1      44.603  26.715  37.062  1.00  0.00     0.059 A 
ATOM     61  C   UNL A   1      46.237  28.030  35.838  1.00  0.00     0.059 A 
ATOM     62  F   UNL A   1      45.515  29.697  34.355  1.00  0.00    -0.206 F 
ATOM     63  C   UNL A   1      45.928  27.048  36.779  1.00  0.00     0.060 A 
BRANCH  63  64
ATOM     64  S   UNL A   1      47.243  26.191  37.669  1.00  0.00     0.124 S 
ATOM     65  O   UNL A   1      47.589  25.133  36.725  1.00  0.00    -0.237 OA
ATOM     66  O   UNL A   1      48.245  27.240  37.839  1.00  0.00    -0.237 OA
ATOM     67  O   UNL A   1      46.590  25.749  38.897  1.00  0.00    -0.744 OA
ENDBRANCH  63  64
ENDBRANCH  42  56
BRANCH  43  68
ATOM     68  C   UNL A   1      36.382  33.267  30.930  1.00  0.00     0.058 A 
ATOM     69  C   UNL A   1      35.061  33.179  31.395  1.00  0.00     0.135 A 
ATOM     70  C   UNL A   1      36.634  34.100  29.830  1.00  0.00     0.135 A 
ATOM     71  F   UNL A   1      34.770  32.389  32.440  1.00  0.00    -0.206 F 
ATOM     72  C   UNL A   1      34.028  33.892  30.796  1.00  0.00     0.059 A 
ATOM     73  C   UNL A   1      35.621  34.840  29.226  1.00  0.00     0.059 A 
ATOM     74  F   UNL A   1      37.883  34.228  29.356  1.00  0.00    -0.206 F 
ATOM     75  C   UNL A   1      34.320  34.726  29.716  1.00  0.00     0.060 A 
BRANCH  75  76
ATOM     76  S   UNL A   1      32.983  35.706  28.997  1.00  0.00     0.124 S 
ATOM     77  O   UNL A   1      32.379  34.750  28.077  1.00  0.00    -0.237 OA
ATOM     78  O   UNL A   1      32.190  36.050  30.172  1.00  0.00    -0.237 OA
ATOM     79  O   UNL A   1      33.685  36.825  28.375  1.00  0.00    -0.744 OA
ENDBRANCH  75  76
ENDBRANCH  43  68
BRANCH  55  80
ATOM     80  C   UNL A   1      39.807  34.249  36.929  1.00  0.00     0.058 A 
ATOM     81  C   UNL A   1      40.478  35.479  36.847  1.00  0.00     0.135 A 
ATOM     82  C   UNL A   1      38.966  34.032  38.032  1.00  0.00     0.135 A 
ATOM     83  F   UNL A   1      41.302  35.734  35.819  1.00  0.00    -0.206 F 
ATOM     84  C   UNL A   1      40.330  36.453  37.830  1.00  0.00     0.059 A 
ATOM     85  C   UNL A   1      38.784  35.000  39.014  1.00  0.00     0.059 A 
ATOM     86  F   UNL A   1      38.296  32.875  38.153  1.00  0.00    -0.206 F 
ATOM     87  C   UNL A   1      39.478  36.205  38.908  1.00  0.00     0.060 A 
BRANCH  87  88
ATOM     88  S   UNL A   1      39.258  37.494  40.153  1.00  0.00     0.124 S 
ATOM     89  O   UNL A   1      38.952  36.706  41.342  1.00  0.00    -0.237 OA
ATOM     90  O   UNL A   1      40.559  38.157  40.150  1.00  0.00    -0.237 OA
ATOM     91  O   UNL A   1      38.154  38.291  39.626  1.00  0.00    -0.744 OA
ENDBRANCH  87  88
ENDBRANCH  55  80
ENDBRANCH  29  30
ENDBRANCH  21  24
ENDBRANCH  19  20
ENDBRANCH  18  19
ENDBRANCH   1  18
TORSDOF 19
ENDMDL
MODEL 3
REMARK VINA RESULT:      -9.6      3.715      8.250
REMARK SMILES CC[C@@H](C)C[C@H](CC)[C@](C)(O)C(=O)NCCCNC(=O)c1ccc(-c2c3nc(c(-c4c(F)cc(S(=O)(=O)[O-])cc4F)c4ccc([nH]4)c(-c4c(F)cc(S(=O)(=O)[O-])cc4F)c4nc(c(-c5c(F)cc(S(=O)(=O)[O-])cc5F)c5ccc2[nH]5)C=C4)C=C3)cc1
REMARK SMILES IDX 15 1 14 2 12 3 13 4 9 6 10 7 6 8 5 9 3 10 4 11 2 12 1 13
REMARK SMILES IDX 7 14 8 15 11 16 16 18 17 19 18 20 19 21 20 23 21 24 22 25
REMARK SMILES IDX 86 26 23 27 85 28 24 29 25 30 26 31 79 32 27 33 84 34 78 35
REMARK SMILES IDX 80 36 28 37 83 38 77 39 76 40 29 42 63 43 42 44 62 45 43 46
REMARK SMILES IDX 46 47 61 48 81 49 44 50 45 51 60 53 82 54 47 55 30 56 31 57
REMARK SMILES IDX 40 58 32 59 33 60 39 61 41 62 34 63 35 64 36 65 37 66 38 67
REMARK SMILES IDX 64 68 65 69 74 70 66 71 67 72 73 73 75 74 68 75 69 76 70 77
REMARK SMILES IDX 71 78 72 79 48 80 49 81 58 82 50 83 51 84 57 85 59 86 52 87
REMARK SMILES IDX 53 88 54 89 55 90 56 91
REMARK H PARENT 14 5 11 17 18 22 80 41 46 52
REMARK Flexibility Score: inf
ROOT
ATOM      1  C   UNL A   1      36.785  21.372  25.496  1.00  0.00     0.117 C 
ENDROOT
BRANCH   1   2
ATOM      2  N   UNL A   1      35.596  20.565  25.312  1.00  0.00    -0.354 N 
ATOM      3  C   UNL A   1      34.314  20.939  25.048  1.00  0.00     0.251 C 
ATOM      4  O   UNL A   1      33.455  20.053  25.127  1.00  0.00    -0.272 OA
ATOM      5  H   UNL A   1      35.737  19.593  25.389  1.00  0.00     0.163 HD
BRANCH   3   6
ATOM      6  C   UNL A   1      33.972  22.389  24.584  1.00  0.00     0.143 C 
ATOM      7  C   UNL A   1      34.937  22.740  23.442  1.00  0.00     0.053 C 
BRANCH   6   8
ATOM      8  C   UNL A   1      33.976  23.402  25.782  1.00  0.00     0.030 C 
BRANCH   8   9
ATOM      9  C   UNL A   1      34.787  24.718  25.548  1.00  0.00     0.010 C 
BRANCH   9  10
ATOM     10  C   UNL A   1      34.031  26.045  25.281  1.00  0.00    -0.014 C 
ATOM     11  C   UNL A   1      32.717  26.047  26.078  1.00  0.00     0.007 C 
BRANCH  10  12
ATOM     12  C   UNL A   1      33.750  26.248  23.782  1.00  0.00    -0.000 C 
ATOM     13  C   UNL A   1      33.391  27.680  23.414  1.00  0.00     0.004 C 
ENDBRANCH  10  12
ENDBRANCH   9  10
ENDBRANCH   8   9
BRANCH   8  14
ATOM     14  C   UNL A   1      34.063  22.818  27.212  1.00  0.00     0.004 C 
ATOM     15  C   UNL A   1      32.767  22.441  27.909  1.00  0.00     0.004 C 
ENDBRANCH   8  14
ENDBRANCH   6   8
BRANCH   6  16
ATOM     16  O   UNL A   1      32.644  22.404  24.023  1.00  0.00    -0.380 OA
ATOM     17  H   UNL A   1      32.673  22.064  23.116  1.00  0.00     0.212 HD
ENDBRANCH   6  16
ENDBRANCH   3   6
ENDBRANCH   1   2
BRANCH   1  18
ATOM     18  C   UNL A   1      38.034  20.632  25.043  1.00  0.00     0.042 C 
BRANCH  18  19
ATOM     19  C   UNL A   1      39.229  20.836  25.963  1.00  0.00     0.118 C 
BRANCH  19  20
ATOM     20  N   UNL A   1      40.103  19.669  26.023  1.00  0.00    -0.352 N 
ATOM     21  C   UNL A   1      41.472  19.608  26.118  1.00  0.00     0.251 C 
ATOM     22  H   UNL A   1      39.644  18.799  25.992  1.00  0.00     0.163 HD
ATOM     23  O   UNL A   1      42.052  18.536  25.969  1.00  0.00    -0.269 OA
BRANCH  21  24
ATOM     24  C   UNL A   1      42.238  20.845  26.371  1.00  0.00     0.039 A 
ATOM     25  C   UNL A   1      42.678  21.608  25.288  1.00  0.00     0.014 A 
ATOM     26  C   UNL A   1      42.485  21.265  27.680  1.00  0.00     0.014 A 
ATOM     27  C   UNL A   1      43.290  22.840  25.521  1.00  0.00     0.010 A 
ATOM     28  C   UNL A   1      43.012  22.529  27.908  1.00  0.00     0.010 A 
ATOM     29  C   UNL A   1      43.418  23.332  26.831  1.00  0.00    -0.014 A 
BRANCH  29  30
ATOM     30  C   UNL A   1      43.960  24.685  27.104  1.00  0.00     0.031 A 
ATOM     31  C   UNL A   1      43.037  25.796  27.524  1.00  0.00     0.074 A 
ATOM     32  C   UNL A   1      45.268  24.934  26.894  1.00  0.00     0.049 A 
ATOM     33  N   UNL A   1      43.302  27.060  27.723  1.00  0.00    -0.248 NA
ATOM     34  C   UNL A   1      41.621  25.440  27.713  1.00  0.00     0.031 C 
ATOM     35  C   UNL A   1      46.256  23.950  26.445  1.00  0.00     0.029 A 
ATOM     36  N   UNL A   1      45.990  26.093  27.021  1.00  0.00    -0.354 N 
ATOM     37  C   UNL A   1      42.088  27.654  28.044  1.00  0.00     0.074 A 
ATOM     38  C   UNL A   1      41.076  26.623  27.953  1.00  0.00     0.031 C 
ATOM     39  C   UNL A   1      47.460  24.538  26.372  1.00  0.00     0.029 A 
ATOM     40  C   UNL A   1      47.324  25.948  26.722  1.00  0.00     0.049 A 
ATOM     41  H   UNL A   1      45.591  26.949  27.299  1.00  0.00     0.167 HD
ATOM     42  C   UNL A   1      41.840  28.935  28.408  1.00  0.00     0.037 A 
ATOM     43  C   UNL A   1      48.324  26.850  26.727  1.00  0.00     0.037 A 
ATOM     44  C   UNL A   1      42.853  29.951  28.511  1.00  0.00     0.049 A 
ATOM     45  C   UNL A   1      48.023  28.274  27.105  1.00  0.00     0.074 A 
ATOM     46  C   UNL A   1      42.719  31.265  28.923  1.00  0.00     0.029 A 
ATOM     47  N   UNL A   1      44.192  29.767  28.191  1.00  0.00    -0.354 N 
ATOM     48  N   UNL A   1      46.880  28.807  27.463  1.00  0.00    -0.248 NA
ATOM     49  C   UNL A   1      49.146  29.219  27.075  1.00  0.00     0.031 C 
ATOM     50  C   UNL A   1      43.968  31.888  28.811  1.00  0.00     0.029 A 
ATOM     51  C   UNL A   1      44.890  30.950  28.372  1.00  0.00     0.049 A 
ATOM     52  H   UNL A   1      44.587  28.921  27.880  1.00  0.00     0.167 HD
ATOM     53  C   UNL A   1      47.150  30.146  27.725  1.00  0.00     0.074 A 
ATOM     54  C   UNL A   1      48.567  30.338  27.490  1.00  0.00     0.031 C 
ATOM     55  C   UNL A   1      46.302  31.124  28.131  1.00  0.00     0.037 A 
BRANCH  42  56
ATOM     56  C   UNL A   1      40.410  29.297  28.709  1.00  0.00     0.058 A 
ATOM     57  C   UNL A   1      39.472  29.507  27.684  1.00  0.00     0.135 A 
ATOM     58  C   UNL A   1      39.977  29.462  30.033  1.00  0.00     0.135 A 
ATOM     59  F   UNL A   1      39.835  29.376  26.397  1.00  0.00    -0.206 F 
ATOM     60  C   UNL A   1      38.173  29.924  27.959  1.00  0.00     0.059 A 
ATOM     61  C   UNL A   1      38.673  29.848  30.334  1.00  0.00     0.059 A 
ATOM     62  F   UNL A   1      40.829  29.269  31.053  1.00  0.00    -0.206 F 
ATOM     63  C   UNL A   1      37.788  30.104  29.288  1.00  0.00     0.060 A 
BRANCH  63  64
ATOM     64  S   UNL A   1      36.116  30.693  29.630  1.00  0.00     0.124 S 
ATOM     65  O   UNL A   1      35.317  29.775  28.824  1.00  0.00    -0.237 OA
ATOM     66  O   UNL A   1      36.011  30.522  31.076  1.00  0.00    -0.237 OA
ATOM     67  O   UNL A   1      36.142  32.076  29.166  1.00  0.00    -0.744 OA
ENDBRANCH  63  64
ENDBRANCH  42  56
BRANCH  43  68
ATOM     68  C   UNL A   1      49.709  26.416  26.411  1.00  0.00     0.058 A 
ATOM     69  C   UNL A   1      50.525  25.859  27.407  1.00  0.00     0.135 A 
ATOM     70  C   UNL A   1      50.230  26.501  25.111  1.00  0.00     0.135 A 
ATOM     71  F   UNL A   1      50.073  25.763  28.667  1.00  0.00    -0.206 F 
ATOM     72  C   UNL A   1      51.808  25.400  27.127  1.00  0.00     0.059 A 
ATOM     73  C   UNL A   1      51.503  26.030  24.801  1.00  0.00     0.059 A 
ATOM     74  F   UNL A   1      49.484  27.014  24.120  1.00  0.00    -0.206 F 
ATOM     75  C   UNL A   1      52.285  25.484  25.818  1.00  0.00     0.060 A 
BRANCH  75  76
ATOM     76  S   UNL A   1      53.922  24.812  25.452  1.00  0.00     0.124 S 
ATOM     77  O   UNL A   1      53.603  23.432  25.108  1.00  0.00    -0.237 OA
ATOM     78  O   UNL A   1      54.361  25.661  24.350  1.00  0.00    -0.237 OA
ATOM     79  O   UNL A   1      54.648  24.999  26.705  1.00  0.00    -0.744 OA
ENDBRANCH  75  76
ENDBRANCH  43  68
BRANCH  55  80
ATOM     80  C   UNL A   1      46.886  32.488  28.368  1.00  0.00     0.058 A 
ATOM     81  C   UNL A   1      47.458  32.839  29.600  1.00  0.00     0.135 A 
ATOM     82  C   UNL A   1      46.924  33.436  27.332  1.00  0.00     0.135 A 
ATOM     83  F   UNL A   1      47.439  31.975  30.626  1.00  0.00    -0.206 F 
ATOM     84  C   UNL A   1      48.037  34.089  29.802  1.00  0.00     0.059 A 
ATOM     85  C   UNL A   1      47.519  34.682  27.504  1.00  0.00     0.059 A 
ATOM     86  F   UNL A   1      46.397  33.146  26.133  1.00  0.00    -0.206 F 
ATOM     87  C   UNL A   1      48.066  35.002  28.746  1.00  0.00     0.060 A 
BRANCH  87  88
ATOM     88  S   UNL A   1      48.861  36.602  29.006  1.00  0.00     0.124 S 
ATOM     89  O   UNL A   1      50.260  36.282  28.738  1.00  0.00    -0.237 OA
ATOM     90  O   UNL A   1      48.202  37.444  28.012  1.00  0.00    -0.237 OA
ATOM     91  O   UNL A   1      48.543  36.917  30.396  1.00  0.00    -0.744 OA
ENDBRANCH  87  88
ENDBRANCH  55  80
ENDBRANCH  29  30
ENDBRANCH  21  24
ENDBRANCH  19  20
ENDBRANCH  18  19
ENDBRANCH   1  18
TORSDOF 19
ENDMDL
