MODEL 1
REMARK VINA RESULT:     -13.1      0.000      0.000
REMARK SMILES Cn1c(=O)c2c(nc(Nc3cccc(Cl)c3Cl)n2CC(=O)NCCCNC(=O)c2ccc(-c3c4nc(c(-c5c(F)cc(S(=O)(=O)[O-])cc5F)c5ccc([nH]5)c(-c5c(F)cc(S(=O)(=O)[O-])cc5F)c5nc(c(-c6c(F)cc(S(=O)(=O)[O-])cc6F)c6ccc3[nH]6)C=C5)C=C4)cc2)n(C)c1=O
REMARK SMILES IDX 24 1 23 2 22 3 20 4 21 5 19 7 18 8 1 9 2 10 3 11 97 12 4 13
REMARK SMILES IDX 5 14 95 15 98 16 6 17 96 18 7 19 8 20 9 21 10 23 11 24 16 25
REMARK SMILES IDX 12 26 14 27 17 28 13 29 15 30 25 31 26 32 27 33 28 35 29 36
REMARK SMILES IDX 30 37 94 38 31 39 93 40 32 41 33 42 34 43 87 44 35 45 92 46
REMARK SMILES IDX 86 47 88 48 36 49 91 50 85 51 84 52 37 54 71 55 50 56 70 57
REMARK SMILES IDX 51 58 54 59 69 60 89 61 52 62 53 63 68 65 90 66 55 67 38 68
REMARK SMILES IDX 39 69 48 70 40 71 41 72 47 73 49 74 42 75 43 76 44 77 45 78
REMARK SMILES IDX 46 79 72 80 73 81 82 82 74 83 75 84 81 85 83 86 76 87 77 88
REMARK SMILES IDX 78 89 79 90 80 91 56 92 57 93 66 94 58 95 59 96 65 97 67 98
REMARK SMILES IDX 60 99 61 100 62 101 63 102 64 103
REMARK H PARENT 22 6 9 22 26 34 88 53 54 64
REMARK Flexibility Score: inf
ROOT
ATOM      1  C   UNL A   1      38.277  23.023  25.746  1.00  0.00     0.042 C 
ENDROOT
BRANCH   1   2
ATOM      2  C   UNL A   1      37.477  21.758  25.450  1.00  0.00     0.117 C 
BRANCH   2   3
ATOM      3  N   UNL A   1      36.556  21.886  24.344  1.00  0.00    -0.354 N 
ATOM      4  C   UNL A   1      35.308  22.443  24.340  1.00  0.00     0.240 C 
ATOM      5  O   UNL A   1      34.828  22.727  23.242  1.00  0.00    -0.273 OA
ATOM      6  H   UNL A   1      36.868  21.526  23.482  1.00  0.00     0.163 HD
BRANCH   4   7
ATOM      7  C   UNL A   1      34.617  22.837  25.634  1.00  0.00     0.226 C 
BRANCH   7   8
ATOM      8  N   UNL A   1      33.252  23.324  25.510  1.00  0.00    -0.295 N 
ATOM      9  C   UNL A   1      33.733  28.251  24.949  1.00  0.00     0.159 C 
ATOM     10  N   UNL A   1      33.000  27.003  25.064  1.00  0.00    -0.261 N 
ATOM     11  C   UNL A   1      33.736  25.842  25.334  1.00  0.00     0.282 A 
ATOM     12  C   UNL A   1      31.605  27.068  24.897  1.00  0.00     0.332 A 
ATOM     13  O   UNL A   1      34.933  25.825  25.551  1.00  0.00    -0.267 OA
ATOM     14  C   UNL A   1      32.930  24.661  25.360  1.00  0.00     0.154 A 
ATOM     15  N   UNL A   1      30.898  25.868  24.988  1.00  0.00    -0.279 N 
ATOM     16  O   UNL A   1      31.031  28.140  24.686  1.00  0.00    -0.247 OA
ATOM     17  C   UNL A   1      31.583  24.697  25.212  1.00  0.00     0.170 A 
ATOM     18  C   UNL A   1      29.456  25.856  24.836  1.00  0.00     0.157 C 
ATOM     19  N   UNL A   1      31.036  23.462  25.310  1.00  0.00    -0.194 NA
ATOM     20  C   UNL A   1      32.039  22.634  25.542  1.00  0.00     0.210 A 
BRANCH  20  21
ATOM     21  N   UNL A   1      31.804  21.303  25.652  1.00  0.00    -0.324 N 
ATOM     22  H   UNL A   1      31.178  21.079  26.379  1.00  0.00     0.170 HD
BRANCH  21  23
ATOM     23  C   UNL A   1      32.262  20.172  24.952  1.00  0.00     0.061 A 
ATOM     24  C   UNL A   1      32.770  19.111  25.731  1.00  0.00     0.028 A 
ATOM     25  C   UNL A   1      32.207  20.010  23.554  1.00  0.00     0.083 A 
ATOM     26  C   UNL A   1      33.061  17.872  25.166  1.00  0.00     0.004 A 
ATOM     27  C   UNL A   1      32.506  18.760  22.986  1.00  0.00     0.061 A 
ATOM     28  Cl  UNL A   1      31.781  21.361  22.547  1.00  0.00    -0.080 Cl
ATOM     29  C   UNL A   1      32.904  17.691  23.796  1.00  0.00     0.022 A 
ATOM     30  Cl  UNL A   1      32.371  18.455  21.290  1.00  0.00    -0.083 Cl
ENDBRANCH  21  23
ENDBRANCH  20  21
ENDBRANCH   7   8
ENDBRANCH   4   7
ENDBRANCH   2   3
ENDBRANCH   1   2
BRANCH   1  31
ATOM     31  C   UNL A   1      39.277  22.806  26.863  1.00  0.00     0.118 C 
BRANCH  31  32
ATOM     32  N   UNL A   1      40.567  22.310  26.371  1.00  0.00    -0.352 N 
ATOM     33  C   UNL A   1      41.665  23.053  25.979  1.00  0.00     0.251 C 
ATOM     34  H   UNL A   1      40.662  21.332  26.314  1.00  0.00     0.163 HD
ATOM     35  O   UNL A   1      42.538  22.558  25.277  1.00  0.00    -0.269 OA
BRANCH  33  36
ATOM     36  C   UNL A   1      41.745  24.452  26.427  1.00  0.00     0.039 A 
ATOM     37  C   UNL A   1      41.198  25.499  25.681  1.00  0.00     0.014 A 
ATOM     38  C   UNL A   1      42.307  24.680  27.678  1.00  0.00     0.014 A 
ATOM     39  C   UNL A   1      41.144  26.766  26.256  1.00  0.00     0.010 A 
ATOM     40  C   UNL A   1      42.065  25.867  28.313  1.00  0.00     0.010 A 
ATOM     41  C   UNL A   1      41.558  26.936  27.587  1.00  0.00    -0.014 A 
BRANCH  41  42
ATOM     42  C   UNL A   1      41.408  28.213  28.272  1.00  0.00     0.031 A 
ATOM     43  C   UNL A   1      42.483  29.207  28.008  1.00  0.00     0.074 A 
ATOM     44  C   UNL A   1      40.277  28.553  28.927  1.00  0.00     0.049 A 
ATOM     45  N   UNL A   1      43.395  29.619  28.825  1.00  0.00    -0.248 NA
ATOM     46  C   UNL A   1      42.660  29.694  26.630  1.00  0.00     0.031 C 
ATOM     47  C   UNL A   1      39.006  27.820  29.023  1.00  0.00     0.029 A 
ATOM     48  N   UNL A   1      39.995  29.709  29.579  1.00  0.00    -0.354 N 
ATOM     49  C   UNL A   1      44.118  30.593  28.140  1.00  0.00     0.074 A 
ATOM     50  C   UNL A   1      43.755  30.448  26.754  1.00  0.00     0.031 C 
ATOM     51  C   UNL A   1      38.039  28.643  29.480  1.00  0.00     0.029 A 
ATOM     52  C   UNL A   1      38.652  29.890  29.885  1.00  0.00     0.049 A 
ATOM     53  H   UNL A   1      40.688  30.367  29.818  1.00  0.00     0.167 HD
ATOM     54  C   UNL A   1      44.772  31.587  28.806  1.00  0.00     0.037 A 
ATOM     55  C   UNL A   1      38.088  30.999  30.426  1.00  0.00     0.037 A 
ATOM     56  C   UNL A   1      44.901  31.263  30.209  1.00  0.00     0.049 A 
ATOM     57  C   UNL A   1      39.186  31.734  31.111  1.00  0.00     0.074 A 
ATOM     58  C   UNL A   1      45.482  30.227  30.915  1.00  0.00     0.029 A 
ATOM     59  N   UNL A   1      44.037  31.870  31.091  1.00  0.00    -0.354 N 
ATOM     60  N   UNL A   1      39.833  31.265  32.146  1.00  0.00    -0.248 NA
ATOM     61  C   UNL A   1      39.884  32.762  30.355  1.00  0.00     0.031 C 
ATOM     62  C   UNL A   1      44.576  29.958  31.984  1.00  0.00     0.029 A 
ATOM     63  C   UNL A   1      43.539  30.890  31.912  1.00  0.00     0.049 A 
ATOM     64  H   UNL A   1      43.818  32.829  31.126  1.00  0.00     0.167 HD
ATOM     65  C   UNL A   1      41.159  31.620  31.933  1.00  0.00     0.074 A 
ATOM     66  C   UNL A   1      41.114  32.610  30.857  1.00  0.00     0.031 C 
ATOM     67  C   UNL A   1      42.190  30.881  32.442  1.00  0.00     0.037 A 
BRANCH  54  68
ATOM     68  C   UNL A   1      44.975  32.997  28.291  1.00  0.00     0.058 A 
ATOM     69  C   UNL A   1      46.290  33.463  28.070  1.00  0.00     0.135 A 
ATOM     70  C   UNL A   1      43.974  33.995  28.278  1.00  0.00     0.135 A 
ATOM     71  F   UNL A   1      47.325  32.609  28.041  1.00  0.00    -0.206 F 
ATOM     72  C   UNL A   1      46.597  34.820  27.957  1.00  0.00     0.059 A 
ATOM     73  C   UNL A   1      44.253  35.348  28.113  1.00  0.00     0.059 A 
ATOM     74  F   UNL A   1      42.687  33.727  28.521  1.00  0.00    -0.206 F 
ATOM     75  C   UNL A   1      45.570  35.756  28.005  1.00  0.00     0.060 A 
BRANCH  75  76
ATOM     76  S   UNL A   1      45.974  37.511  28.004  1.00  0.00     0.124 S 
ATOM     77  O   UNL A   1      47.329  37.495  28.542  1.00  0.00    -0.237 OA
ATOM     78  O   UNL A   1      45.850  37.848  26.590  1.00  0.00    -0.237 OA
ATOM     79  O   UNL A   1      44.954  38.090  28.873  1.00  0.00    -0.744 OA
ENDBRANCH  75  76
ENDBRANCH  54  68
BRANCH  55  80
ATOM     80  C   UNL A   1      36.781  31.614  30.067  1.00  0.00     0.058 A 
ATOM     81  C   UNL A   1      35.964  32.203  31.048  1.00  0.00     0.135 A 
ATOM     82  C   UNL A   1      36.433  31.890  28.727  1.00  0.00     0.135 A 
ATOM     83  F   UNL A   1      36.226  32.006  32.349  1.00  0.00    -0.206 F 
ATOM     84  C   UNL A   1      34.906  33.061  30.725  1.00  0.00     0.059 A 
ATOM     85  C   UNL A   1      35.377  32.733  28.380  1.00  0.00     0.059 A 
ATOM     86  F   UNL A   1      37.167  31.420  27.708  1.00  0.00    -0.206 F 
ATOM     87  C   UNL A   1      34.637  33.341  29.385  1.00  0.00     0.060 A 
BRANCH  87  88
ATOM     88  S   UNL A   1      33.397  34.590  28.969  1.00  0.00     0.124 S 
ATOM     89  O   UNL A   1      32.806  34.877  30.271  1.00  0.00    -0.237 OA
ATOM     90  O   UNL A   1      34.215  35.653  28.393  1.00  0.00    -0.237 OA
ATOM     91  O   UNL A   1      32.523  33.900  28.024  1.00  0.00    -0.744 OA
ENDBRANCH  87  88
ENDBRANCH  55  80
BRANCH  67  92
ATOM     92  C   UNL A   1      41.881  29.803  33.457  1.00  0.00     0.058 A 
ATOM     93  C   UNL A   1      41.623  28.459  33.130  1.00  0.00     0.135 A 
ATOM     94  C   UNL A   1      42.053  30.101  34.817  1.00  0.00     0.135 A 
ATOM     95  F   UNL A   1      41.540  28.064  31.854  1.00  0.00    -0.206 F 
ATOM     96  C   UNL A   1      41.522  27.465  34.106  1.00  0.00     0.059 A 
ATOM     97  C   UNL A   1      41.986  29.121  35.806  1.00  0.00     0.059 A 
ATOM     98  F   UNL A   1      42.361  31.353  35.196  1.00  0.00    -0.206 F 
ATOM     99  C   UNL A   1      41.715  27.804  35.444  1.00  0.00     0.060 A 
BRANCH  99 100
ATOM    100  S   UNL A   1      41.690  26.498  36.691  1.00  0.00     0.124 S 
ATOM    101  O   UNL A   1      42.907  26.771  37.447  1.00  0.00    -0.237 OA
ATOM    102  O   UNL A   1      40.436  26.755  37.395  1.00  0.00    -0.237 OA
ATOM    103  O   UNL A   1      41.710  25.269  35.901  1.00  0.00    -0.744 OA
ENDBRANCH  99 100
ENDBRANCH  67  92
ENDBRANCH  41  42
ENDBRANCH  33  36
ENDBRANCH  31  32
ENDBRANCH   1  31
TORSDOF 16
ENDMDL
MODEL 2
REMARK VINA RESULT:     -12.8      3.230      9.355
REMARK SMILES Cn1c(=O)c2c(nc(Nc3cccc(Cl)c3Cl)n2CC(=O)NCCCNC(=O)c2ccc(-c3c4nc(c(-c5c(F)cc(S(=O)(=O)[O-])cc5F)c5ccc([nH]5)c(-c5c(F)cc(S(=O)(=O)[O-])cc5F)c5nc(c(-c6c(F)cc(S(=O)(=O)[O-])cc6F)c6ccc3[nH]6)C=C5)C=C4)cc2)n(C)c1=O
REMARK SMILES IDX 24 1 23 2 22 3 20 4 21 5 19 7 18 8 1 9 2 10 3 11 97 12 4 13
REMARK SMILES IDX 5 14 95 15 98 16 6 17 96 18 7 19 8 20 9 21 10 23 11 24 16 25
REMARK SMILES IDX 12 26 14 27 17 28 13 29 15 30 25 31 26 32 27 33 28 35 29 36
REMARK SMILES IDX 30 37 94 38 31 39 93 40 32 41 33 42 34 43 87 44 35 45 92 46
REMARK SMILES IDX 86 47 88 48 36 49 91 50 85 51 84 52 37 54 71 55 50 56 70 57
REMARK SMILES IDX 51 58 54 59 69 60 89 61 52 62 53 63 68 65 90 66 55 67 38 68
REMARK SMILES IDX 39 69 48 70 40 71 41 72 47 73 49 74 42 75 43 76 44 77 45 78
REMARK SMILES IDX 46 79 72 80 73 81 82 82 74 83 75 84 81 85 83 86 76 87 77 88
REMARK SMILES IDX 78 89 79 90 80 91 56 92 57 93 66 94 58 95 59 96 65 97 67 98
REMARK SMILES IDX 60 99 61 100 62 101 63 102 64 103
REMARK H PARENT 22 6 9 22 26 34 88 53 54 64
REMARK Flexibility Score: inf
ROOT
ATOM      1  C   UNL A   1      33.818  30.764  27.329  1.00  0.00     0.042 C 
ENDROOT
BRANCH   1   2
ATOM      2  C   UNL A   1      34.088  29.323  26.907  1.00  0.00     0.117 C 
BRANCH   2   3
ATOM      3  N   UNL A   1      34.375  29.163  25.500  1.00  0.00    -0.354 N 
ATOM      4  C   UNL A   1      33.769  28.332  24.600  1.00  0.00     0.240 C 
ATOM      5  O   UNL A   1      33.951  28.575  23.406  1.00  0.00    -0.273 OA
ATOM      6  H   UNL A   1      35.101  29.724  25.143  1.00  0.00     0.163 HD
BRANCH   4   7
ATOM      7  C   UNL A   1      32.790  27.262  25.051  1.00  0.00     0.226 C 
BRANCH   7   8
ATOM      8  N   UNL A   1      32.580  26.155  24.130  1.00  0.00    -0.295 N 
ATOM      9  C   UNL A   1      34.505  22.202  26.473  1.00  0.00     0.159 C 
ATOM     10  N   UNL A   1      33.847  22.895  25.379  1.00  0.00    -0.261 N 
ATOM     11  C   UNL A   1      33.716  24.286  25.479  1.00  0.00     0.282 A 
ATOM     12  C   UNL A   1      33.397  22.104  24.307  1.00  0.00     0.332 A 
ATOM     13  O   UNL A   1      34.183  24.954  26.382  1.00  0.00    -0.267 OA
ATOM     14  C   UNL A   1      32.995  24.860  24.387  1.00  0.00     0.154 A 
ATOM     15  N   UNL A   1      32.746  22.763  23.263  1.00  0.00    -0.279 N 
ATOM     16  O   UNL A   1      33.575  20.883  24.287  1.00  0.00    -0.247 OA
ATOM     17  C   UNL A   1      32.559  24.123  23.336  1.00  0.00     0.170 A 
ATOM     18  C   UNL A   1      32.261  22.017  22.117  1.00  0.00     0.157 C 
ATOM     19  N   UNL A   1      31.937  24.891  22.410  1.00  0.00    -0.194 NA
ATOM     20  C   UNL A   1      31.993  26.131  22.864  1.00  0.00     0.210 A 
BRANCH  20  21
ATOM     21  N   UNL A   1      31.412  27.134  22.161  1.00  0.00    -0.324 N 
ATOM     22  H   UNL A   1      31.804  27.256  21.265  1.00  0.00     0.170 HD
BRANCH  21  23
ATOM     23  C   UNL A   1      30.372  28.041  22.436  1.00  0.00     0.061 A 
ATOM     24  C   UNL A   1      30.570  29.373  22.019  1.00  0.00     0.028 A 
ATOM     25  C   UNL A   1      29.148  27.704  23.046  1.00  0.00     0.083 A 
ATOM     26  C   UNL A   1      29.536  30.306  22.055  1.00  0.00     0.004 A 
ATOM     27  C   UNL A   1      28.108  28.649  23.086  1.00  0.00     0.061 A 
ATOM     28  Cl  UNL A   1      28.943  26.131  23.755  1.00  0.00    -0.080 Cl
ATOM     29  C   UNL A   1      28.297  29.934  22.565  1.00  0.00     0.022 A 
ATOM     30  Cl  UNL A   1      26.547  28.283  23.732  1.00  0.00    -0.083 Cl
ENDBRANCH  21  23
ENDBRANCH  20  21
ENDBRANCH   7   8
ENDBRANCH   4   7
ENDBRANCH   2   3
ENDBRANCH   1   2
BRANCH   1  31
ATOM     31  C   UNL A   1      35.035  31.398  27.971  1.00  0.00     0.118 C 
BRANCH  31  32
ATOM     32  N   UNL A   1      34.690  32.216  29.139  1.00  0.00    -0.352 N 
ATOM     33  C   UNL A   1      35.121  32.054  30.443  1.00  0.00     0.251 C 
ATOM     34  H   UNL A   1      34.080  32.971  28.974  1.00  0.00     0.163 HD
ATOM     35  O   UNL A   1      34.512  32.568  31.372  1.00  0.00    -0.269 OA
BRANCH  33  36
ATOM     36  C   UNL A   1      36.325  31.240  30.674  1.00  0.00     0.039 A 
ATOM     37  C   UNL A   1      36.251  29.870  30.935  1.00  0.00     0.014 A 
ATOM     38  C   UNL A   1      37.552  31.877  30.525  1.00  0.00     0.014 A 
ATOM     39  C   UNL A   1      37.433  29.134  30.954  1.00  0.00     0.010 A 
ATOM     40  C   UNL A   1      38.677  31.124  30.339  1.00  0.00     0.010 A 
ATOM     41  C   UNL A   1      38.644  29.766  30.628  1.00  0.00    -0.014 A 
BRANCH  41  42
ATOM     42  C   UNL A   1      39.887  29.016  30.515  1.00  0.00     0.031 A 
ATOM     43  C   UNL A   1      40.636  28.831  31.787  1.00  0.00     0.074 A 
ATOM     44  C   UNL A   1      40.232  28.354  29.389  1.00  0.00     0.049 A 
ATOM     45  N   UNL A   1      41.758  29.373  32.127  1.00  0.00    -0.248 NA
ATOM     46  C   UNL A   1      39.995  28.069  32.870  1.00  0.00     0.031 C 
ATOM     47  C   UNL A   1      39.463  28.175  28.148  1.00  0.00     0.029 A 
ATOM     48  N   UNL A   1      41.337  27.601  29.158  1.00  0.00    -0.354 N 
ATOM     49  C   UNL A   1      42.085  28.839  33.372  1.00  0.00     0.074 A 
ATOM     50  C   UNL A   1      40.882  28.213  33.858  1.00  0.00     0.031 C 
ATOM     51  C   UNL A   1      40.014  27.187  27.410  1.00  0.00     0.029 A 
ATOM     52  C   UNL A   1      41.266  26.800  28.026  1.00  0.00     0.049 A 
ATOM     53  H   UNL A   1      42.126  27.622  29.745  1.00  0.00     0.167 HD
ATOM     54  C   UNL A   1      43.381  28.756  33.787  1.00  0.00     0.037 A 
ATOM     55  C   UNL A   1      42.176  25.874  27.632  1.00  0.00     0.037 A 
ATOM     56  C   UNL A   1      44.235  29.589  32.970  1.00  0.00     0.049 A 
ATOM     57  C   UNL A   1      43.459  26.244  28.290  1.00  0.00     0.074 A 
ATOM     58  C   UNL A   1      44.277  30.938  32.676  1.00  0.00     0.029 A 
ATOM     59  N   UNL A   1      44.990  28.976  31.997  1.00  0.00    -0.354 N 
ATOM     60  N   UNL A   1      44.112  27.347  28.031  1.00  0.00    -0.248 NA
ATOM     61  C   UNL A   1      43.760  25.630  29.573  1.00  0.00     0.031 C 
ATOM     62  C   UNL A   1      44.611  31.001  31.291  1.00  0.00     0.029 A 
ATOM     63  C   UNL A   1      44.825  29.696  30.841  1.00  0.00     0.049 A 
ATOM     64  H   UNL A   1      45.544  28.171  32.109  1.00  0.00     0.167 HD
ATOM     65  C   UNL A   1      44.577  27.787  29.263  1.00  0.00     0.074 A 
ATOM     66  C   UNL A   1      44.399  26.646  30.161  1.00  0.00     0.031 C 
ATOM     67  C   UNL A   1      44.797  29.112  29.514  1.00  0.00     0.037 A 
BRANCH  54  68
ATOM     68  C   UNL A   1      43.945  27.667  34.677  1.00  0.00     0.058 A 
ATOM     69  C   UNL A   1      44.648  28.033  35.847  1.00  0.00     0.135 A 
ATOM     70  C   UNL A   1      44.078  26.312  34.295  1.00  0.00     0.135 A 
ATOM     71  F   UNL A   1      44.585  29.287  36.320  1.00  0.00    -0.206 F 
ATOM     72  C   UNL A   1      45.499  27.154  36.517  1.00  0.00     0.059 A 
ATOM     73  C   UNL A   1      44.880  25.406  34.982  1.00  0.00     0.059 A 
ATOM     74  F   UNL A   1      43.519  25.818  33.186  1.00  0.00    -0.206 F 
ATOM     75  C   UNL A   1      45.626  25.848  36.059  1.00  0.00     0.060 A 
BRANCH  75  76
ATOM     76  S   UNL A   1      46.831  24.754  36.832  1.00  0.00     0.124 S 
ATOM     77  O   UNL A   1      47.708  24.450  35.707  1.00  0.00    -0.237 OA
ATOM     78  O   UNL A   1      47.394  25.611  37.870  1.00  0.00    -0.237 OA
ATOM     79  O   UNL A   1      46.015  23.645  37.316  1.00  0.00    -0.744 OA
ENDBRANCH  75  76
ENDBRANCH  54  68
BRANCH  55  80
ATOM     80  C   UNL A   1      41.904  24.532  27.047  1.00  0.00     0.058 A 
ATOM     81  C   UNL A   1      42.810  23.936  26.152  1.00  0.00     0.135 A 
ATOM     82  C   UNL A   1      40.899  23.687  27.563  1.00  0.00     0.135 A 
ATOM     83  F   UNL A   1      43.807  24.660  25.621  1.00  0.00    -0.206 F 
ATOM     84  C   UNL A   1      42.762  22.573  25.836  1.00  0.00     0.059 A 
ATOM     85  C   UNL A   1      40.824  22.329  27.254  1.00  0.00     0.059 A 
ATOM     86  F   UNL A   1      40.007  24.134  28.459  1.00  0.00    -0.206 F 
ATOM     87  C   UNL A   1      41.778  21.770  26.414  1.00  0.00     0.060 A 
BRANCH  87  88
ATOM     88  S   UNL A   1      41.825  19.981  26.157  1.00  0.00     0.124 S 
ATOM     89  O   UNL A   1      42.875  19.845  25.154  1.00  0.00    -0.237 OA
ATOM     90  O   UNL A   1      42.152  19.489  27.492  1.00  0.00    -0.237 OA
ATOM     91  O   UNL A   1      40.475  19.668  25.696  1.00  0.00    -0.744 OA
ENDBRANCH  87  88
ENDBRANCH  55  80
BRANCH  67  92
ATOM     92  C   UNL A   1      44.769  30.087  28.359  1.00  0.00     0.058 A 
ATOM     93  C   UNL A   1      43.598  30.678  27.850  1.00  0.00     0.135 A 
ATOM     94  C   UNL A   1      45.990  30.593  27.886  1.00  0.00     0.135 A 
ATOM     95  F   UNL A   1      42.392  30.327  28.313  1.00  0.00    -0.206 F 
ATOM     96  C   UNL A   1      43.637  31.706  26.904  1.00  0.00     0.059 A 
ATOM     97  C   UNL A   1      46.053  31.637  26.965  1.00  0.00     0.059 A 
ATOM     98  F   UNL A   1      47.147  30.116  28.373  1.00  0.00    -0.206 F 
ATOM     99  C   UNL A   1      44.871  32.187  26.474  1.00  0.00     0.060 A 
BRANCH  99 100
ATOM    100  S   UNL A   1      44.917  33.587  25.334  1.00  0.00     0.124 S 
ATOM    101  O   UNL A   1      46.337  33.921  25.312  1.00  0.00    -0.237 OA
ATOM    102  O   UNL A   1      44.383  33.011  24.102  1.00  0.00    -0.237 OA
ATOM    103  O   UNL A   1      44.054  34.578  25.973  1.00  0.00    -0.744 OA
ENDBRANCH  99 100
ENDBRANCH  67  92
ENDBRANCH  41  42
ENDBRANCH  33  36
ENDBRANCH  31  32
ENDBRANCH   1  31
TORSDOF 16
ENDMDL
MODEL 3
REMARK VINA RESULT:     -12.7      1.761      2.658
REMARK SMILES Cn1c(=O)c2c(nc(Nc3cccc(Cl)c3Cl)n2CC(=O)NCCCNC(=O)c2ccc(-c3c4nc(c(-c5c(F)cc(S(=O)(=O)[O-])cc5F)c5ccc([nH]5)c(-c5c(F)cc(S(=O)(=O)[O-])cc5F)c5nc(c(-c6c(F)cc(S(=O)(=O)[O-])cc6F)c6ccc3[nH]6)C=C5)C=C4)cc2)n(C)c1=O
REMARK SMILES IDX 24 1 23 2 22 3 20 4 21 5 19 7 18 8 1 9 2 10 3 11 97 12 4 13
REMARK SMILES IDX 5 14 95 15 98 16 6 17 96 18 7 19 8 20 9 21 10 23 11 24 16 25
REMARK SMILES IDX 12 26 14 27 17 28 13 29 15 30 25 31 26 32 27 33 28 35 29 36
REMARK SMILES IDX 30 37 94 38 31 39 93 40 32 41 33 42 34 43 87 44 35 45 92 46
REMARK SMILES IDX 86 47 88 48 36 49 91 50 85 51 84 52 37 54 71 55 50 56 70 57
REMARK SMILES IDX 51 58 54 59 69 60 89 61 52 62 53 63 68 65 90 66 55 67 38 68
REMARK SMILES IDX 39 69 48 70 40 71 41 72 47 73 49 74 42 75 43 76 44 77 45 78
REMARK SMILES IDX 46 79 72 80 73 81 82 82 74 83 75 84 81 85 83 86 76 87 77 88
REMARK SMILES IDX 78 89 79 90 80 91 56 92 57 93 66 94 58 95 59 96 65 97 67 98
REMARK SMILES IDX 60 99 61 100 62 101 63 102 64 103
REMARK H PARENT 22 6 9 22 26 34 88 53 54 64
REMARK Flexibility Score: inf
ROOT
ATOM      1  C   UNL A   1      36.980  23.134  24.667  1.00  0.00     0.042 C 
ENDROOT
BRANCH   1   2
ATOM      2  C   UNL A   1      35.797  24.094  24.746  1.00  0.00     0.117 C 
BRANCH   2   3
ATOM      3  N   UNL A   1      34.952  24.087  23.574  1.00  0.00    -0.354 N 
ATOM      4  C   UNL A   1      33.862  24.869  23.309  1.00  0.00     0.240 C 
ATOM      5  O   UNL A   1      33.481  24.918  22.139  1.00  0.00    -0.273 OA
ATOM      6  H   UNL A   1      35.191  23.436  22.876  1.00  0.00     0.163 HD
BRANCH   4   7
ATOM      7  C   UNL A   1      33.252  25.758  24.380  1.00  0.00     0.226 C 
BRANCH   7   8
ATOM      8  N   UNL A   1      31.799  25.784  24.441  1.00  0.00    -0.295 N 
ATOM      9  C   UNL A   1      30.525  29.939  22.004  1.00  0.00     0.159 C 
ATOM     10  N   UNL A   1      30.274  28.721  22.754  1.00  0.00    -0.261 N 
ATOM     11  C   UNL A   1      31.385  28.015  23.234  1.00  0.00     0.282 A 
ATOM     12  C   UNL A   1      28.929  28.356  22.939  1.00  0.00     0.332 A 
ATOM     13  O   UNL A   1      32.535  28.394  23.126  1.00  0.00    -0.267 OA
ATOM     14  C   UNL A   1      31.031  26.799  23.898  1.00  0.00     0.154 A 
ATOM     15  N   UNL A   1      28.683  27.176  23.643  1.00  0.00    -0.279 N 
ATOM     16  O   UNL A   1      28.006  29.051  22.503  1.00  0.00    -0.247 OA
ATOM     17  C   UNL A   1      29.743  26.428  24.098  1.00  0.00     0.170 A 
ATOM     18  C   UNL A   1      27.321  26.737  23.882  1.00  0.00     0.157 C 
ATOM     19  N   UNL A   1      29.658  25.261  24.780  1.00  0.00    -0.194 NA
ATOM     20  C   UNL A   1      30.902  24.894  25.035  1.00  0.00     0.210 A 
BRANCH  20  21
ATOM     21  N   UNL A   1      31.143  23.728  25.682  1.00  0.00    -0.324 N 
ATOM     22  H   UNL A   1      30.325  23.302  26.029  1.00  0.00     0.170 HD
BRANCH  21  23
ATOM     23  C   UNL A   1      32.309  22.995  25.968  1.00  0.00     0.061 A 
ATOM     24  C   UNL A   1      32.984  23.325  27.163  1.00  0.00     0.028 A 
ATOM     25  C   UNL A   1      32.815  21.943  25.181  1.00  0.00     0.083 A 
ATOM     26  C   UNL A   1      34.026  22.538  27.647  1.00  0.00     0.004 A 
ATOM     27  C   UNL A   1      33.870  21.154  25.670  1.00  0.00     0.061 A 
ATOM     28  Cl  UNL A   1      32.138  21.640  23.610  1.00  0.00    -0.080 Cl
ATOM     29  C   UNL A   1      34.451  21.437  26.912  1.00  0.00     0.022 A 
ATOM     30  Cl  UNL A   1      34.484  19.787  24.808  1.00  0.00    -0.083 Cl
ENDBRANCH  21  23
ENDBRANCH  20  21
ENDBRANCH   7   8
ENDBRANCH   4   7
ENDBRANCH   2   3
ENDBRANCH   1   2
BRANCH   1  31
ATOM     31  C   UNL A   1      37.711  23.034  25.990  1.00  0.00     0.118 C 
BRANCH  31  32
ATOM     32  N   UNL A   1      38.953  22.260  25.887  1.00  0.00    -0.352 N 
ATOM     33  C   UNL A   1      40.228  22.656  26.248  1.00  0.00     0.251 C 
ATOM     34  H   UNL A   1      38.869  21.352  25.519  1.00  0.00     0.163 HD
ATOM     35  O   UNL A   1      41.212  22.076  25.807  1.00  0.00    -0.269 OA
BRANCH  33  36
ATOM     36  C   UNL A   1      40.361  23.796  27.169  1.00  0.00     0.039 A 
ATOM     37  C   UNL A   1      41.428  23.903  28.063  1.00  0.00     0.014 A 
ATOM     38  C   UNL A   1      39.426  24.818  27.043  1.00  0.00     0.014 A 
ATOM     39  C   UNL A   1      41.590  25.095  28.764  1.00  0.00     0.010 A 
ATOM     40  C   UNL A   1      39.705  26.048  27.570  1.00  0.00     0.010 A 
ATOM     41  C   UNL A   1      40.736  26.175  28.492  1.00  0.00    -0.014 A 
BRANCH  41  42
ATOM     42  C   UNL A   1      40.939  27.480  29.108  1.00  0.00     0.031 A 
ATOM     43  C   UNL A   1      41.989  28.324  28.479  1.00  0.00     0.074 A 
ATOM     44  C   UNL A   1      40.097  27.976  30.041  1.00  0.00     0.049 A 
ATOM     45  N   UNL A   1      43.142  28.642  28.968  1.00  0.00    -0.248 NA
ATOM     46  C   UNL A   1      41.802  28.746  27.082  1.00  0.00     0.031 C 
ATOM     47  C   UNL A   1      38.839  27.409  30.550  1.00  0.00     0.029 A 
ATOM     48  N   UNL A   1      40.151  29.176  30.673  1.00  0.00    -0.354 N 
ATOM     49  C   UNL A   1      43.732  29.499  28.041  1.00  0.00     0.074 A 
ATOM     50  C   UNL A   1      42.961  29.362  26.833  1.00  0.00     0.031 C 
ATOM     51  C   UNL A   1      38.148  28.359  31.216  1.00  0.00     0.029 A 
ATOM     52  C   UNL A   1      38.989  29.531  31.345  1.00  0.00     0.049 A 
ATOM     53  H   UNL A   1      40.952  29.749  30.657  1.00  0.00     0.167 HD
ATOM     54  C   UNL A   1      44.661  30.422  28.424  1.00  0.00     0.037 A 
ATOM     55  C   UNL A   1      38.737  30.716  31.954  1.00  0.00     0.037 A 
ATOM     56  C   UNL A   1      45.164  30.125  29.746  1.00  0.00     0.049 A 
ATOM     57  C   UNL A   1      40.063  31.327  32.242  1.00  0.00     0.074 A 
ATOM     58  C   UNL A   1      45.810  29.044  30.316  1.00  0.00     0.029 A 
ATOM     59  N   UNL A   1      44.673  30.859  30.800  1.00  0.00    -0.354 N 
ATOM     60  N   UNL A   1      40.932  30.811  33.071  1.00  0.00    -0.248 NA
ATOM     61  C   UNL A   1      40.614  32.239  31.251  1.00  0.00     0.031 C 
ATOM     62  C   UNL A   1      45.238  28.921  31.617  1.00  0.00     0.029 A 
ATOM     63  C   UNL A   1      44.336  29.972  31.792  1.00  0.00     0.049 A 
ATOM     64  H   UNL A   1      44.582  31.838  30.837  1.00  0.00     0.167 HD
ATOM     65  C   UNL A   1      42.165  30.993  32.459  1.00  0.00     0.074 A 
ATOM     66  C   UNL A   1      41.913  31.950  31.382  1.00  0.00     0.031 C 
ATOM     67  C   UNL A   1      43.213  30.146  32.692  1.00  0.00     0.037 A 
BRANCH  54  68
ATOM     68  C   UNL A   1      44.856  31.781  27.783  1.00  0.00     0.058 A 
ATOM     69  C   UNL A   1      46.052  32.041  27.078  1.00  0.00     0.135 A 
ATOM     70  C   UNL A   1      44.067  32.919  28.067  1.00  0.00     0.135 A 
ATOM     71  F   UNL A   1      46.877  31.040  26.735  1.00  0.00    -0.206 F 
ATOM     72  C   UNL A   1      46.481  33.335  26.779  1.00  0.00     0.059 A 
ATOM     73  C   UNL A   1      44.451  34.213  27.728  1.00  0.00     0.059 A 
ATOM     74  F   UNL A   1      42.931  32.851  28.769  1.00  0.00    -0.206 F 
ATOM     75  C   UNL A   1      45.682  34.416  27.132  1.00  0.00     0.060 A 
BRANCH  75  76
ATOM     76  S   UNL A   1      46.297  36.089  26.878  1.00  0.00     0.124 S 
ATOM     77  O   UNL A   1      45.060  36.861  26.921  1.00  0.00    -0.237 OA
ATOM     78  O   UNL A   1      47.196  36.256  28.015  1.00  0.00    -0.237 OA
ATOM     79  O   UNL A   1      46.950  36.012  25.575  1.00  0.00    -0.744 OA
ENDBRANCH  75  76
ENDBRANCH  54  68
BRANCH  55  80
ATOM     80  C   UNL A   1      37.458  31.479  31.953  1.00  0.00     0.058 A 
ATOM     81  C   UNL A   1      36.852  31.876  33.158  1.00  0.00     0.135 A 
ATOM     82  C   UNL A   1      36.952  32.077  30.780  1.00  0.00     0.135 A 
ATOM     83  F   UNL A   1      37.276  31.369  34.326  1.00  0.00    -0.206 F 
ATOM     84  C   UNL A   1      35.848  32.851  33.204  1.00  0.00     0.059 A 
ATOM     85  C   UNL A   1      35.945  33.042  30.800  1.00  0.00     0.059 A 
ATOM     86  F   UNL A   1      37.483  31.810  29.578  1.00  0.00    -0.206 F 
ATOM     87  C   UNL A   1      35.418  33.448  32.019  1.00  0.00     0.060 A 
BRANCH  87  88
ATOM     88  S   UNL A   1      34.260  34.836  32.090  1.00  0.00     0.124 S 
ATOM     89  O   UNL A   1      34.077  35.151  30.678  1.00  0.00    -0.237 OA
ATOM     90  O   UNL A   1      33.110  34.240  32.764  1.00  0.00    -0.237 OA
ATOM     91  O   UNL A   1      34.980  35.841  32.867  1.00  0.00    -0.744 OA
ENDBRANCH  87  88
ENDBRANCH  55  80
BRANCH  67  92
ATOM     92  C   UNL A   1      43.102  29.144  33.818  1.00  0.00     0.058 A 
ATOM     93  C   UNL A   1      43.330  29.447  35.173  1.00  0.00     0.135 A 
ATOM     94  C   UNL A   1      42.549  27.885  33.537  1.00  0.00     0.135 A 
ATOM     95  F   UNL A   1      43.764  30.658  35.544  1.00  0.00    -0.206 F 
ATOM     96  C   UNL A   1      43.041  28.540  36.196  1.00  0.00     0.059 A 
ATOM     97  C   UNL A   1      42.226  26.975  34.542  1.00  0.00     0.059 A 
ATOM     98  F   UNL A   1      42.250  27.551  32.270  1.00  0.00    -0.206 F 
ATOM     99  C   UNL A   1      42.479  27.307  35.871  1.00  0.00     0.060 A 
BRANCH  99 100
ATOM    100  S   UNL A   1      42.008  26.180  37.202  1.00  0.00     0.124 S 
ATOM    101  O   UNL A   1      40.674  26.657  37.551  1.00  0.00    -0.237 OA
ATOM    102  O   UNL A   1      42.063  24.876  36.547  1.00  0.00    -0.237 OA
ATOM    103  O   UNL A   1      43.035  26.402  38.217  1.00  0.00    -0.744 OA
ENDBRANCH  99 100
ENDBRANCH  67  92
ENDBRANCH  41  42
ENDBRANCH  33  36
ENDBRANCH  31  32
ENDBRANCH   1  31
TORSDOF 16
ENDMDL
