MODEL 1
REMARK VINA RESULT:     -12.7      0.000      0.000
REMARK SMILES C=CCN1C[C@]2(C(=O)NCCCNC(=O)c3ccc(-c4c5nc(c(-c6c(F)cc(S(=O)(=O)[O-])cc6F)c6ccc([nH]6)c(-c6c(F)cc(S(=O)(=O)[O-])cc6F)c6nc(c(-c7c(F)cc(S(=O)(=O)[O-])cc7F)c7ccc4[nH]7)C=C6)C=C5)cc3)CN(C(=O)c3cccc(C#N)c3)C[C@H]2C1=O
REMARK SMILES IDX 11 1 10 2 9 3 7 4 8 5 6 7 4 8 5 9 96 10 95 11 97 12 82 13
REMARK SMILES IDX 94 14 83 15 3 16 2 17 1 18 84 19 85 20 86 21 87 22 93 23
REMARK SMILES IDX 88 24 90 25 89 26 91 27 92 28 12 29 13 30 14 31 15 33 16 34
REMARK SMILES IDX 17 35 81 36 18 37 80 38 19 39 20 40 21 41 74 42 22 43 79 44
REMARK SMILES IDX 73 45 75 46 23 47 78 48 72 49 71 50 24 52 58 53 37 54 57 55
REMARK SMILES IDX 38 56 41 57 56 58 76 59 39 60 40 61 55 63 77 64 42 65 25 66
REMARK SMILES IDX 26 67 35 68 27 69 28 70 34 71 36 72 29 73 30 74 31 75 32 76
REMARK SMILES IDX 33 77 59 78 60 79 69 80 61 81 62 82 68 83 70 84 63 85 64 86
REMARK SMILES IDX 65 87 66 88 67 89 43 90 44 91 53 92 45 93 46 94 52 95 54 96
REMARK SMILES IDX 47 97 48 98 49 99 50 100 51 101
REMARK H PARENT 9 6 13 32 75 51 41 62
REMARK Flexibility Score: inf
ROOT
ATOM      1  C   UNL A   1      37.382  23.261  25.130  1.00  0.00     0.042 C 
ENDROOT
BRANCH   1   2
ATOM      2  C   UNL A   1      36.910  21.804  25.178  1.00  0.00     0.117 C 
BRANCH   2   3
ATOM      3  N   UNL A   1      36.017  21.596  26.312  1.00  0.00    -0.355 N 
ATOM      4  C   UNL A   1      34.641  21.663  26.342  1.00  0.00     0.230 C 
ATOM      5  O   UNL A   1      34.079  21.700  27.437  1.00  0.00    -0.274 OA
ATOM      6  H   UNL A   1      36.454  21.382  27.167  1.00  0.00     0.163 HD
BRANCH   4   7
ATOM      7  C   UNL A   1      33.902  21.607  24.971  1.00  0.00     0.097 C 
ATOM      8  N   UNL A   1      32.979  19.423  24.332  1.00  0.00    -0.337 N 
ATOM      9  C   UNL A   1      33.462  20.141  25.489  1.00  0.00     0.139 C 
ATOM     10  C   UNL A   1      32.430  20.317  23.453  1.00  0.00     0.229 C 
ATOM     11  C   UNL A   1      32.537  21.632  24.158  1.00  0.00     0.117 C 
ATOM     12  O   UNL A   1      31.943  20.087  22.363  1.00  0.00    -0.274 OA
ATOM     13  C   UNL A   1      33.698  23.199  25.186  1.00  0.00     0.139 C 
ATOM     14  C   UNL A   1      32.614  22.745  23.148  1.00  0.00     0.134 C 
ATOM     15  N   UNL A   1      33.316  23.752  23.880  1.00  0.00    -0.337 N 
BRANCH   8  16
ATOM     16  C   UNL A   1      33.163  18.018  24.016  1.00  0.00     0.146 C 
BRANCH  16  17
ATOM     17  C   UNL A   1      34.551  17.529  24.275  1.00  0.00    -0.014 C 
ATOM     18  C   UNL A   1      34.857  16.396  24.919  1.00  0.00     0.006 C 
ENDBRANCH  16  17
ENDBRANCH   8  16
BRANCH  15  19
ATOM     19  C   UNL A   1      33.405  25.025  23.339  1.00  0.00     0.253 C 
ATOM     20  O   UNL A   1      33.955  25.246  22.262  1.00  0.00    -0.269 OA
BRANCH  19  21
ATOM     21  C   UNL A   1      32.862  26.185  24.067  1.00  0.00     0.041 A 
ATOM     22  C   UNL A   1      31.478  26.391  24.121  1.00  0.00     0.014 A 
ATOM     23  C   UNL A   1      33.722  27.099  24.659  1.00  0.00     0.033 A 
ATOM     24  C   UNL A   1      30.954  27.508  24.779  1.00  0.00     0.002 A 
ATOM     25  C   UNL A   1      33.176  28.125  25.432  1.00  0.00     0.053 A 
ATOM     26  C   UNL A   1      31.806  28.381  25.442  1.00  0.00     0.019 A 
BRANCH  25  27
ATOM     27  C   UNL A   1      33.962  28.672  26.468  1.00  0.00     0.099 C 
ATOM     28  N   UNL A   1      34.793  28.909  27.247  1.00  0.00    -0.192 NA
ENDBRANCH  25  27
ENDBRANCH  19  21
ENDBRANCH  15  19
ENDBRANCH   4   7
ENDBRANCH   2   3
ENDBRANCH   1   2
BRANCH   1  29
ATOM     29  C   UNL A   1      38.188  23.722  26.356  1.00  0.00     0.118 C 
BRANCH  29  30
ATOM     30  N   UNL A   1      39.625  23.693  26.109  1.00  0.00    -0.352 N 
ATOM     31  C   UNL A   1      40.679  24.481  26.512  1.00  0.00     0.251 C 
ATOM     32  H   UNL A   1      39.900  22.946  25.528  1.00  0.00     0.163 HD
ATOM     33  O   UNL A   1      41.759  24.290  25.949  1.00  0.00    -0.269 OA
BRANCH  31  34
ATOM     34  C   UNL A   1      40.603  25.556  27.543  1.00  0.00     0.039 A 
ATOM     35  C   UNL A   1      39.577  25.482  28.499  1.00  0.00     0.014 A 
ATOM     36  C   UNL A   1      41.423  26.679  27.556  1.00  0.00     0.014 A 
ATOM     37  C   UNL A   1      39.424  26.471  29.493  1.00  0.00     0.010 A 
ATOM     38  C   UNL A   1      41.324  27.619  28.607  1.00  0.00     0.010 A 
ATOM     39  C   UNL A   1      40.325  27.540  29.596  1.00  0.00    -0.014 A 
BRANCH  39  40
ATOM     40  C   UNL A   1      40.207  28.588  30.678  1.00  0.00     0.031 A 
ATOM     41  C   UNL A   1      41.095  28.520  31.908  1.00  0.00     0.074 A 
ATOM     42  C   UNL A   1      39.302  29.594  30.617  1.00  0.00     0.049 A 
ATOM     43  N   UNL A   1      41.080  29.261  32.992  1.00  0.00    -0.248 NA
ATOM     44  C   UNL A   1      42.115  27.460  31.933  1.00  0.00     0.031 C 
ATOM     45  C   UNL A   1      38.346  29.825  29.534  1.00  0.00     0.029 A 
ATOM     46  N   UNL A   1      39.036  30.622  31.502  1.00  0.00    -0.354 N 
ATOM     47  C   UNL A   1      42.056  28.730  33.833  1.00  0.00     0.074 A 
ATOM     48  C   UNL A   1      42.597  27.569  33.161  1.00  0.00     0.031 C 
ATOM     49  C   UNL A   1      37.623  30.927  29.802  1.00  0.00     0.029 A 
ATOM     50  C   UNL A   1      38.027  31.469  31.098  1.00  0.00     0.049 A 
ATOM     51  H   UNL A   1      39.525  30.739  32.349  1.00  0.00     0.167 HD
ATOM     52  C   UNL A   1      42.500  29.174  35.036  1.00  0.00     0.037 A 
ATOM     53  C   UNL A   1      37.477  32.553  31.690  1.00  0.00     0.037 A 
ATOM     54  C   UNL A   1      42.037  30.364  35.700  1.00  0.00     0.049 A 
ATOM     55  C   UNL A   1      37.984  33.036  33.028  1.00  0.00     0.074 A 
ATOM     56  C   UNL A   1      42.489  30.915  36.888  1.00  0.00     0.029 A 
ATOM     57  N   UNL A   1      41.032  31.195  35.235  1.00  0.00    -0.354 N 
ATOM     58  N   UNL A   1      38.938  32.540  33.777  1.00  0.00    -0.248 NA
ATOM     59  C   UNL A   1      37.342  34.233  33.599  1.00  0.00     0.031 C 
ATOM     60  C   UNL A   1      41.735  32.060  37.160  1.00  0.00     0.029 A 
ATOM     61  C   UNL A   1      40.843  32.247  36.118  1.00  0.00     0.049 A 
ATOM     62  H   UNL A   1      40.526  31.059  34.402  1.00  0.00     0.167 HD
ATOM     63  C   UNL A   1      39.037  33.386  34.880  1.00  0.00     0.074 A 
ATOM     64  C   UNL A   1      38.048  34.425  34.705  1.00  0.00     0.031 C 
ATOM     65  C   UNL A   1      39.881  33.305  35.938  1.00  0.00     0.037 A 
BRANCH  52  66
ATOM     66  C   UNL A   1      43.573  28.366  35.717  1.00  0.00     0.058 A 
ATOM     67  C   UNL A   1      43.259  27.327  36.606  1.00  0.00     0.135 A 
ATOM     68  C   UNL A   1      44.929  28.622  35.460  1.00  0.00     0.135 A 
ATOM     69  F   UNL A   1      41.977  27.047  36.895  1.00  0.00    -0.206 F 
ATOM     70  C   UNL A   1      44.251  26.599  37.254  1.00  0.00     0.059 A 
ATOM     71  C   UNL A   1      45.938  27.883  36.071  1.00  0.00     0.059 A 
ATOM     72  F   UNL A   1      45.286  29.597  34.610  1.00  0.00    -0.206 F 
ATOM     73  C   UNL A   1      45.589  26.889  36.984  1.00  0.00     0.060 A 
BRANCH  73  74
ATOM     74  S   UNL A   1      46.866  25.948  37.845  1.00  0.00     0.124 S 
ATOM     75  O   UNL A   1      47.677  27.019  38.417  1.00  0.00    -0.237 OA
ATOM     76  O   UNL A   1      46.088  25.164  38.800  1.00  0.00    -0.237 OA
ATOM     77  O   UNL A   1      47.501  25.181  36.779  1.00  0.00    -0.744 OA
ENDBRANCH  73  74
ENDBRANCH  52  66
BRANCH  53  78
ATOM     78  C   UNL A   1      36.373  33.296  31.015  1.00  0.00     0.058 A 
ATOM     79  C   UNL A   1      36.630  34.128  29.913  1.00  0.00     0.135 A 
ATOM     80  C   UNL A   1      35.051  33.219  31.479  1.00  0.00     0.135 A 
ATOM     81  F   UNL A   1      37.880  34.250  29.443  1.00  0.00    -0.206 F 
ATOM     82  C   UNL A   1      35.621  34.869  29.306  1.00  0.00     0.059 A 
ATOM     83  C   UNL A   1      34.021  33.933  30.875  1.00  0.00     0.059 A 
ATOM     84  F   UNL A   1      34.749  32.432  32.524  1.00  0.00    -0.206 F 
ATOM     85  C   UNL A   1      34.317  34.765  29.795  1.00  0.00     0.060 A 
BRANCH  85  86
ATOM     86  S   UNL A   1      33.007  35.702  28.977  1.00  0.00     0.124 S 
ATOM     87  O   UNL A   1      32.405  34.683  28.124  1.00  0.00    -0.237 OA
ATOM     88  O   UNL A   1      32.199  36.149  30.107  1.00  0.00    -0.237 OA
ATOM     89  O   UNL A   1      33.737  36.757  28.281  1.00  0.00    -0.744 OA
ENDBRANCH  85  86
ENDBRANCH  53  78
BRANCH  65  90
ATOM     90  C   UNL A   1      39.833  34.396  36.976  1.00  0.00     0.058 A 
ATOM     91  C   UNL A   1      40.489  35.623  36.797  1.00  0.00     0.135 A 
ATOM     92  C   UNL A   1      39.052  34.237  38.133  1.00  0.00     0.135 A 
ATOM     93  F   UNL A   1      41.253  35.829  35.713  1.00  0.00    -0.206 F 
ATOM     94  C   UNL A   1      40.385  36.649  37.734  1.00  0.00     0.059 A 
ATOM     95  C   UNL A   1      38.913  35.256  39.071  1.00  0.00     0.059 A 
ATOM     96  F   UNL A   1      38.394  33.086  38.351  1.00  0.00    -0.206 F 
ATOM     97  C   UNL A   1      39.590  36.457  38.866  1.00  0.00     0.060 A 
BRANCH  97  98
ATOM     98  S   UNL A   1      39.420  37.814  40.048  1.00  0.00     0.124 S 
ATOM     99  O   UNL A   1      38.212  38.474  39.567  1.00  0.00    -0.237 OA
ATOM    100  O   UNL A   1      39.293  37.108  41.320  1.00  0.00    -0.237 OA
ATOM    101  O   UNL A   1      40.658  38.568  39.880  1.00  0.00    -0.744 OA
ENDBRANCH  97  98
ENDBRANCH  65  90
ENDBRANCH  39  40
ENDBRANCH  31  34
ENDBRANCH  29  30
ENDBRANCH   1  29
TORSDOF 18
ENDMDL
MODEL 2
REMARK VINA RESULT:     -12.5      4.799     10.744
REMARK SMILES C=CCN1C[C@]2(C(=O)NCCCNC(=O)c3ccc(-c4c5nc(c(-c6c(F)cc(S(=O)(=O)[O-])cc6F)c6ccc([nH]6)c(-c6c(F)cc(S(=O)(=O)[O-])cc6F)c6nc(c(-c7c(F)cc(S(=O)(=O)[O-])cc7F)c7ccc4[nH]7)C=C6)C=C5)cc3)CN(C(=O)c3cccc(C#N)c3)C[C@H]2C1=O
REMARK SMILES IDX 11 1 10 2 9 3 7 4 8 5 6 7 4 8 5 9 96 10 95 11 97 12 82 13
REMARK SMILES IDX 94 14 83 15 3 16 2 17 1 18 84 19 85 20 86 21 87 22 93 23
REMARK SMILES IDX 88 24 90 25 89 26 91 27 92 28 12 29 13 30 14 31 15 33 16 34
REMARK SMILES IDX 17 35 81 36 18 37 80 38 19 39 20 40 21 41 74 42 22 43 79 44
REMARK SMILES IDX 73 45 75 46 23 47 78 48 72 49 71 50 24 52 58 53 37 54 57 55
REMARK SMILES IDX 38 56 41 57 56 58 76 59 39 60 40 61 55 63 77 64 42 65 25 66
REMARK SMILES IDX 26 67 35 68 27 69 28 70 34 71 36 72 29 73 30 74 31 75 32 76
REMARK SMILES IDX 33 77 59 78 60 79 69 80 61 81 62 82 68 83 70 84 63 85 64 86
REMARK SMILES IDX 65 87 66 88 67 89 43 90 44 91 53 92 45 93 46 94 52 95 54 96
REMARK SMILES IDX 47 97 48 98 49 99 50 100 51 101
REMARK H PARENT 9 6 13 32 75 51 41 62
REMARK Flexibility Score: inf
ROOT
ATOM      1  C   UNL A   1      33.683  27.888  26.032  1.00  0.00     0.042 C 
ENDROOT
BRANCH   1   2
ATOM      2  C   UNL A   1      33.516  28.936  24.926  1.00  0.00     0.117 C 
BRANCH   2   3
ATOM      3  N   UNL A   1      33.735  28.332  23.617  1.00  0.00    -0.355 N 
ATOM      4  C   UNL A   1      33.067  27.275  23.039  1.00  0.00     0.230 C 
ATOM      5  O   UNL A   1      33.553  26.752  22.035  1.00  0.00    -0.274 OA
ATOM      6  H   UNL A   1      34.455  28.731  23.076  1.00  0.00     0.163 HD
BRANCH   4   7
ATOM      7  C   UNL A   1      31.698  26.877  23.668  1.00  0.00     0.097 C 
ATOM      8  N   UNL A   1      29.716  27.972  22.717  1.00  0.00    -0.337 N 
ATOM      9  C   UNL A   1      31.103  27.704  22.413  1.00  0.00     0.139 C 
ATOM     10  C   UNL A   1      29.228  26.956  23.494  1.00  0.00     0.229 C 
ATOM     11  C   UNL A   1      30.374  26.001  23.605  1.00  0.00     0.117 C 
ATOM     12  O   UNL A   1      28.112  26.847  23.962  1.00  0.00    -0.274 OA
ATOM     13  C   UNL A   1      32.465  25.522  24.112  1.00  0.00     0.139 C 
ATOM     14  C   UNL A   1      30.265  25.224  24.889  1.00  0.00     0.134 C 
ATOM     15  N   UNL A   1      31.631  24.885  25.138  1.00  0.00    -0.337 N 
BRANCH   8  16
ATOM     16  C   UNL A   1      28.957  29.174  22.421  1.00  0.00     0.146 C 
BRANCH  16  17
ATOM     17  C   UNL A   1      29.157  30.263  23.425  1.00  0.00    -0.014 C 
ATOM     18  C   UNL A   1      28.401  31.363  23.523  1.00  0.00     0.006 C 
ENDBRANCH  16  17
ENDBRANCH   8  16
BRANCH  15  19
ATOM     19  C   UNL A   1      31.916  23.982  26.151  1.00  0.00     0.253 C 
ATOM     20  O   UNL A   1      31.423  24.072  27.273  1.00  0.00    -0.269 OA
BRANCH  19  21
ATOM     21  C   UNL A   1      32.866  22.880  25.920  1.00  0.00     0.041 A 
ATOM     22  C   UNL A   1      34.199  23.007  26.332  1.00  0.00     0.014 A 
ATOM     23  C   UNL A   1      32.454  21.735  25.252  1.00  0.00     0.033 A 
ATOM     24  C   UNL A   1      35.116  21.981  26.085  1.00  0.00     0.002 A 
ATOM     25  C   UNL A   1      33.346  20.667  25.145  1.00  0.00     0.053 A 
ATOM     26  C   UNL A   1      34.690  20.802  25.491  1.00  0.00     0.019 A 
BRANCH  25  27
ATOM     27  C   UNL A   1      32.817  19.365  25.024  1.00  0.00     0.099 C 
ATOM     28  N   UNL A   1      32.213  18.378  25.144  1.00  0.00    -0.192 NA
ENDBRANCH  25  27
ENDBRANCH  19  21
ENDBRANCH  15  19
ENDBRANCH   4   7
ENDBRANCH   2   3
ENDBRANCH   1   2
BRANCH   1  29
ATOM     29  C   UNL A   1      33.197  28.331  27.422  1.00  0.00     0.118 C 
BRANCH  29  30
ATOM     30  N   UNL A   1      33.324  29.771  27.613  1.00  0.00    -0.352 N 
ATOM     31  C   UNL A   1      34.328  30.587  28.081  1.00  0.00     0.251 C 
ATOM     32  H   UNL A   1      32.514  30.267  27.349  1.00  0.00     0.163 HD
ATOM     33  O   UNL A   1      34.028  31.762  28.302  1.00  0.00    -0.269 OA
BRANCH  31  34
ATOM     34  C   UNL A   1      35.726  30.152  28.367  1.00  0.00     0.039 A 
ATOM     35  C   UNL A   1      36.656  30.183  27.314  1.00  0.00     0.014 A 
ATOM     36  C   UNL A   1      36.141  29.624  29.585  1.00  0.00     0.014 A 
ATOM     37  C   UNL A   1      37.990  29.767  27.499  1.00  0.00     0.010 A 
ATOM     38  C   UNL A   1      37.500  29.295  29.790  1.00  0.00     0.010 A 
ATOM     39  C   UNL A   1      38.454  29.356  28.756  1.00  0.00    -0.014 A 
BRANCH  39  40
ATOM     40  C   UNL A   1      39.890  28.947  28.987  1.00  0.00     0.031 A 
ATOM     41  C   UNL A   1      40.877  29.931  29.590  1.00  0.00     0.074 A 
ATOM     42  C   UNL A   1      40.359  27.723  28.646  1.00  0.00     0.049 A 
ATOM     43  N   UNL A   1      42.172  29.809  29.775  1.00  0.00    -0.248 NA
ATOM     44  C   UNL A   1      40.342  31.233  30.014  1.00  0.00     0.031 C 
ATOM     45  C   UNL A   1      39.580  26.643  28.038  1.00  0.00     0.029 A 
ATOM     46  N   UNL A   1      41.624  27.177  28.762  1.00  0.00    -0.354 N 
ATOM     47  C   UNL A   1      42.602  31.027  30.295  1.00  0.00     0.074 A 
ATOM     48  C   UNL A   1      41.443  31.893  30.337  1.00  0.00     0.031 C 
ATOM     49  C   UNL A   1      40.368  25.568  27.859  1.00  0.00     0.029 A 
ATOM     50  C   UNL A   1      41.726  25.883  28.299  1.00  0.00     0.049 A 
ATOM     51  H   UNL A   1      42.386  27.671  29.142  1.00  0.00     0.167 HD
ATOM     52  C   UNL A   1      43.830  31.397  30.738  1.00  0.00     0.037 A 
ATOM     53  C   UNL A   1      42.779  25.039  28.226  1.00  0.00     0.037 A 
ATOM     54  C   UNL A   1      44.986  30.541  30.780  1.00  0.00     0.049 A 
ATOM     55  C   UNL A   1      44.140  25.465  28.725  1.00  0.00     0.074 A 
ATOM     56  C   UNL A   1      46.247  30.826  31.279  1.00  0.00     0.029 A 
ATOM     57  N   UNL A   1      45.026  29.235  30.321  1.00  0.00    -0.354 N 
ATOM     58  N   UNL A   1      44.504  26.608  29.253  1.00  0.00    -0.248 NA
ATOM     59  C   UNL A   1      45.232  24.482  28.623  1.00  0.00     0.031 C 
ATOM     60  C   UNL A   1      47.059  29.703  31.093  1.00  0.00     0.029 A 
ATOM     61  C   UNL A   1      46.293  28.705  30.517  1.00  0.00     0.049 A 
ATOM     62  H   UNL A   1      44.269  28.755  29.916  1.00  0.00     0.167 HD
ATOM     63  C   UNL A   1      45.850  26.464  29.584  1.00  0.00     0.074 A 
ATOM     64  C   UNL A   1      46.240  25.127  29.196  1.00  0.00     0.031 C 
ATOM     65  C   UNL A   1      46.682  27.364  30.163  1.00  0.00     0.037 A 
BRANCH  52  66
ATOM     66  C   UNL A   1      43.986  32.808  31.240  1.00  0.00     0.058 A 
ATOM     67  C   UNL A   1      44.356  33.858  30.384  1.00  0.00     0.135 A 
ATOM     68  C   UNL A   1      43.743  33.117  32.588  1.00  0.00     0.135 A 
ATOM     69  F   UNL A   1      44.610  33.616  29.088  1.00  0.00    -0.206 F 
ATOM     70  C   UNL A   1      44.525  35.155  30.855  1.00  0.00     0.059 A 
ATOM     71  C   UNL A   1      43.874  34.415  33.074  1.00  0.00     0.059 A 
ATOM     72  F   UNL A   1      43.376  32.154  33.448  1.00  0.00    -0.206 F 
ATOM     73  C   UNL A   1      44.287  35.422  32.204  1.00  0.00     0.060 A 
BRANCH  73  74
ATOM     74  S   UNL A   1      44.528  37.107  32.804  1.00  0.00     0.124 S 
ATOM     75  O   UNL A   1      43.239  37.377  33.432  1.00  0.00    -0.237 OA
ATOM     76  O   UNL A   1      45.658  36.958  33.715  1.00  0.00    -0.237 OA
ATOM     77  O   UNL A   1      44.804  37.866  31.588  1.00  0.00    -0.744 OA
ENDBRANCH  73  74
ENDBRANCH  52  66
BRANCH  53  78
ATOM     78  C   UNL A   1      42.603  23.667  27.666  1.00  0.00     0.058 A 
ATOM     79  C   UNL A   1      42.411  22.562  28.511  1.00  0.00     0.135 A 
ATOM     80  C   UNL A   1      42.661  23.430  26.285  1.00  0.00     0.135 A 
ATOM     81  F   UNL A   1      42.368  22.734  29.841  1.00  0.00    -0.206 F 
ATOM     82  C   UNL A   1      42.299  21.269  28.008  1.00  0.00     0.059 A 
ATOM     83  C   UNL A   1      42.529  22.149  25.757  1.00  0.00     0.059 A 
ATOM     84  F   UNL A   1      42.834  24.452  25.432  1.00  0.00    -0.206 F 
ATOM     85  C   UNL A   1      42.359  21.072  26.627  1.00  0.00     0.060 A 
BRANCH  85  86
ATOM     86  S   UNL A   1      42.174  19.395  25.982  1.00  0.00     0.124 S 
ATOM     87  O   UNL A   1      42.977  19.458  24.765  1.00  0.00    -0.237 OA
ATOM     88  O   UNL A   1      42.721  18.588  27.068  1.00  0.00    -0.237 OA
ATOM     89  O   UNL A   1      40.733  19.272  25.783  1.00  0.00    -0.744 OA
ENDBRANCH  85  86
ENDBRANCH  53  78
BRANCH  65  90
ATOM     90  C   UNL A   1      48.091  26.934  30.481  1.00  0.00     0.058 A 
ATOM     91  C   UNL A   1      49.146  27.112  29.574  1.00  0.00     0.135 A 
ATOM     92  C   UNL A   1      48.400  26.407  31.747  1.00  0.00     0.135 A 
ATOM     93  F   UNL A   1      48.909  27.606  28.350  1.00  0.00    -0.206 F 
ATOM     94  C   UNL A   1      50.456  26.770  29.904  1.00  0.00     0.059 A 
ATOM     95  C   UNL A   1      49.704  26.081  32.108  1.00  0.00     0.059 A 
ATOM     96  F   UNL A   1      47.430  26.225  32.659  1.00  0.00    -0.206 F 
ATOM     97  C   UNL A   1      50.726  26.260  31.176  1.00  0.00     0.060 A 
BRANCH  97  98
ATOM     98  S   UNL A   1      52.436  25.870  31.611  1.00  0.00     0.124 S 
ATOM     99  O   UNL A   1      52.324  24.476  32.028  1.00  0.00    -0.237 OA
ATOM    100  O   UNL A   1      53.140  26.101  30.354  1.00  0.00    -0.237 OA
ATOM    101  O   UNL A   1      52.741  26.821  32.676  1.00  0.00    -0.744 OA
ENDBRANCH  97  98
ENDBRANCH  65  90
ENDBRANCH  39  40
ENDBRANCH  31  34
ENDBRANCH  29  30
ENDBRANCH   1  29
TORSDOF 18
ENDMDL
MODEL 3
REMARK VINA RESULT:     -12.3      6.660     12.410
REMARK SMILES C=CCN1C[C@]2(C(=O)NCCCNC(=O)c3ccc(-c4c5nc(c(-c6c(F)cc(S(=O)(=O)[O-])cc6F)c6ccc([nH]6)c(-c6c(F)cc(S(=O)(=O)[O-])cc6F)c6nc(c(-c7c(F)cc(S(=O)(=O)[O-])cc7F)c7ccc4[nH]7)C=C6)C=C5)cc3)CN(C(=O)c3cccc(C#N)c3)C[C@H]2C1=O
REMARK SMILES IDX 11 1 10 2 9 3 7 4 8 5 6 7 4 8 5 9 96 10 95 11 97 12 82 13
REMARK SMILES IDX 94 14 83 15 3 16 2 17 1 18 84 19 85 20 86 21 87 22 93 23
REMARK SMILES IDX 88 24 90 25 89 26 91 27 92 28 12 29 13 30 14 31 15 33 16 34
REMARK SMILES IDX 17 35 81 36 18 37 80 38 19 39 20 40 21 41 74 42 22 43 79 44
REMARK SMILES IDX 73 45 75 46 23 47 78 48 72 49 71 50 24 52 58 53 37 54 57 55
REMARK SMILES IDX 38 56 41 57 56 58 76 59 39 60 40 61 55 63 77 64 42 65 25 66
REMARK SMILES IDX 26 67 35 68 27 69 28 70 34 71 36 72 29 73 30 74 31 75 32 76
REMARK SMILES IDX 33 77 59 78 60 79 69 80 61 81 62 82 68 83 70 84 63 85 64 86
REMARK SMILES IDX 65 87 66 88 67 89 43 90 44 91 53 92 45 93 46 94 52 95 54 96
REMARK SMILES IDX 47 97 48 98 49 99 50 100 51 101
REMARK H PARENT 9 6 13 32 75 51 41 62
REMARK Flexibility Score: inf
ROOT
ATOM      1  C   UNL A   1      33.518  30.832  27.250  1.00  0.00     0.042 C 
ENDROOT
BRANCH   1   2
ATOM      2  C   UNL A   1      32.732  29.860  26.363  1.00  0.00     0.117 C 
BRANCH   2   3
ATOM      3  N   UNL A   1      33.447  29.619  25.115  1.00  0.00    -0.355 N 
ATOM      4  C   UNL A   1      33.174  28.687  24.138  1.00  0.00     0.230 C 
ATOM      5  O   UNL A   1      34.029  28.471  23.279  1.00  0.00    -0.274 OA
ATOM      6  H   UNL A   1      34.227  30.197  24.950  1.00  0.00     0.163 HD
BRANCH   4   7
ATOM      7  C   UNL A   1      31.758  28.036  24.160  1.00  0.00     0.097 C 
ATOM      8  N   UNL A   1      30.073  29.067  22.702  1.00  0.00    -0.337 N 
ATOM      9  C   UNL A   1      31.504  29.010  22.897  1.00  0.00     0.139 C 
ATOM     10  C   UNL A   1      29.524  27.879  23.103  1.00  0.00     0.229 C 
ATOM     11  C   UNL A   1      30.703  27.048  23.499  1.00  0.00     0.117 C 
ATOM     12  O   UNL A   1      28.350  27.566  23.108  1.00  0.00    -0.274 OA
ATOM     13  C   UNL A   1      32.540  26.712  24.671  1.00  0.00     0.139 C 
ATOM     14  C   UNL A   1      30.290  26.042  24.537  1.00  0.00     0.134 C 
ATOM     15  N   UNL A   1      31.522  25.812  25.224  1.00  0.00    -0.337 N 
BRANCH   8  16
ATOM     16  C   UNL A   1      29.274  30.214  22.311  1.00  0.00     0.146 C 
BRANCH  16  17
ATOM     17  C   UNL A   1      28.840  31.056  23.467  1.00  0.00    -0.014 C 
ATOM     18  C   UNL A   1      27.575  31.191  23.885  1.00  0.00     0.006 C 
ENDBRANCH  16  17
ENDBRANCH   8  16
BRANCH  15  19
ATOM     19  C   UNL A   1      31.587  24.774  26.141  1.00  0.00     0.253 C 
ATOM     20  O   UNL A   1      30.882  24.736  27.146  1.00  0.00    -0.269 OA
BRANCH  19  21
ATOM     21  C   UNL A   1      32.548  23.672  25.953  1.00  0.00     0.041 A 
ATOM     22  C   UNL A   1      33.848  23.785  26.459  1.00  0.00     0.014 A 
ATOM     23  C   UNL A   1      32.180  22.544  25.233  1.00  0.00     0.033 A 
ATOM     24  C   UNL A   1      34.778  22.761  26.254  1.00  0.00     0.002 A 
ATOM     25  C   UNL A   1      33.074  21.475  25.165  1.00  0.00     0.053 A 
ATOM     26  C   UNL A   1      34.391  21.596  25.606  1.00  0.00     0.019 A 
BRANCH  25  27
ATOM     27  C   UNL A   1      32.552  20.178  24.980  1.00  0.00     0.099 C 
ATOM     28  N   UNL A   1      32.293  19.046  25.051  1.00  0.00    -0.192 NA
ENDBRANCH  25  27
ENDBRANCH  19  21
ENDBRANCH  15  19
ENDBRANCH   4   7
ENDBRANCH   2   3
ENDBRANCH   1   2
BRANCH   1  29
ATOM     29  C   UNL A   1      34.889  30.318  27.718  1.00  0.00     0.118 C 
BRANCH  29  30
ATOM     30  N   UNL A   1      35.171  30.692  29.099  1.00  0.00    -0.352 N 
ATOM     31  C   UNL A   1      36.273  30.570  29.916  1.00  0.00     0.251 C 
ATOM     32  H   UNL A   1      34.408  31.128  29.543  1.00  0.00     0.163 HD
ATOM     33  O   UNL A   1      36.104  30.816  31.112  1.00  0.00    -0.269 OA
BRANCH  31  34
ATOM     34  C   UNL A   1      37.628  30.134  29.470  1.00  0.00     0.039 A 
ATOM     35  C   UNL A   1      38.586  29.847  30.456  1.00  0.00     0.014 A 
ATOM     36  C   UNL A   1      38.031  30.089  28.139  1.00  0.00     0.014 A 
ATOM     37  C   UNL A   1      39.896  29.450  30.116  1.00  0.00     0.010 A 
ATOM     38  C   UNL A   1      39.315  29.603  27.802  1.00  0.00     0.010 A 
ATOM     39  C   UNL A   1      40.276  29.275  28.778  1.00  0.00    -0.014 A 
BRANCH  39  40
ATOM     40  C   UNL A   1      41.660  28.809  28.391  1.00  0.00     0.031 A 
ATOM     41  C   UNL A   1      42.812  29.797  28.337  1.00  0.00     0.074 A 
ATOM     42  C   UNL A   1      41.924  27.525  28.050  1.00  0.00     0.049 A 
ATOM     43  N   UNL A   1      44.048  29.619  27.932  1.00  0.00    -0.248 NA
ATOM     44  C   UNL A   1      42.526  31.174  28.769  1.00  0.00     0.031 C 
ATOM     45  C   UNL A   1      40.955  26.428  28.019  1.00  0.00     0.029 A 
ATOM     46  N   UNL A   1      43.103  26.920  27.658  1.00  0.00    -0.354 N 
ATOM     47  C   UNL A   1      44.666  30.864  28.025  1.00  0.00     0.074 A 
ATOM     48  C   UNL A   1      43.652  31.799  28.463  1.00  0.00     0.031 C 
ATOM     49  C   UNL A   1      41.577  25.292  27.657  1.00  0.00     0.029 A 
ATOM     50  C   UNL A   1      42.985  25.574  27.386  1.00  0.00     0.049 A 
ATOM     51  H   UNL A   1      43.954  27.409  27.579  1.00  0.00     0.167 HD
ATOM     52  C   UNL A   1      45.960  31.209  27.808  1.00  0.00     0.037 A 
ATOM     53  C   UNL A   1      43.891  24.663  26.965  1.00  0.00     0.037 A 
ATOM     54  C   UNL A   1      47.009  30.294  27.443  1.00  0.00     0.049 A 
ATOM     55  C   UNL A   1      45.329  25.063  26.730  1.00  0.00     0.074 A 
ATOM     56  C   UNL A   1      48.359  30.560  27.273  1.00  0.00     0.029 A 
ATOM     57  N   UNL A   1      46.838  28.941  27.204  1.00  0.00    -0.354 N 
ATOM     58  N   UNL A   1      45.892  26.238  26.869  1.00  0.00    -0.248 NA
ATOM     59  C   UNL A   1      46.256  24.008  26.285  1.00  0.00     0.031 C 
ATOM     60  C   UNL A   1      48.999  29.374  26.900  1.00  0.00     0.029 A 
ATOM     61  C   UNL A   1      48.056  28.362  26.879  1.00  0.00     0.049 A 
ATOM     62  H   UNL A   1      45.981  28.462  27.258  1.00  0.00     0.167 HD
ATOM     63  C   UNL A   1      47.240  26.053  26.573  1.00  0.00     0.074 A 
ATOM     64  C   UNL A   1      47.413  24.656  26.244  1.00  0.00     0.031 C 
ATOM     65  C   UNL A   1      48.244  26.965  26.580  1.00  0.00     0.037 A 
BRANCH  52  66
ATOM     66  C   UNL A   1      46.326  32.660  27.981  1.00  0.00     0.058 A 
ATOM     67  C   UNL A   1      46.871  33.143  29.180  1.00  0.00     0.135 A 
ATOM     68  C   UNL A   1      46.148  33.571  26.927  1.00  0.00     0.135 A 
ATOM     69  F   UNL A   1      47.052  32.316  30.223  1.00  0.00    -0.206 F 
ATOM     70  C   UNL A   1      47.185  34.488  29.347  1.00  0.00     0.059 A 
ATOM     71  C   UNL A   1      46.486  34.914  27.061  1.00  0.00     0.059 A 
ATOM     72  F   UNL A   1      45.640  33.160  25.755  1.00  0.00    -0.206 F 
ATOM     73  C   UNL A   1      46.982  35.367  28.282  1.00  0.00     0.060 A 
BRANCH  73  74
ATOM     74  S   UNL A   1      47.376  37.112  28.519  1.00  0.00     0.124 S 
ATOM     75  O   UNL A   1      47.490  37.188  29.973  1.00  0.00    -0.237 OA
ATOM     76  O   UNL A   1      48.625  37.255  27.778  1.00  0.00    -0.237 OA
ATOM     77  O   UNL A   1      46.227  37.802  27.944  1.00  0.00    -0.744 OA
ENDBRANCH  73  74
ENDBRANCH  52  66
BRANCH  53  78
ATOM     78  C   UNL A   1      43.481  23.245  26.744  1.00  0.00     0.058 A 
ATOM     79  C   UNL A   1      43.234  22.388  27.829  1.00  0.00     0.135 A 
ATOM     80  C   UNL A   1      43.366  22.712  25.452  1.00  0.00     0.135 A 
ATOM     81  F   UNL A   1      43.349  22.846  29.085  1.00  0.00    -0.206 F 
ATOM     82  C   UNL A   1      42.904  21.049  27.642  1.00  0.00     0.059 A 
ATOM     83  C   UNL A   1      43.015  21.381  25.239  1.00  0.00     0.059 A 
ATOM     84  F   UNL A   1      43.583  23.490  24.380  1.00  0.00    -0.206 F 
ATOM     85  C   UNL A   1      42.797  20.555  26.341  1.00  0.00     0.060 A 
BRANCH  85  86
ATOM     86  S   UNL A   1      42.330  18.825  26.107  1.00  0.00     0.124 S 
ATOM     87  O   UNL A   1      40.913  18.944  25.779  1.00  0.00    -0.237 OA
ATOM     88  O   UNL A   1      43.207  18.417  25.015  1.00  0.00    -0.237 OA
ATOM     89  O   UNL A   1      42.630  18.221  27.402  1.00  0.00    -0.744 OA
ENDBRANCH  85  86
ENDBRANCH  53  78
BRANCH  65  90
ATOM     90  C   UNL A   1      49.643  26.491  26.285  1.00  0.00     0.058 A 
ATOM     91  C   UNL A   1      50.231  26.648  25.021  1.00  0.00     0.135 A 
ATOM     92  C   UNL A   1      50.434  25.942  27.309  1.00  0.00     0.135 A 
ATOM     93  F   UNL A   1      49.521  27.162  24.005  1.00  0.00    -0.206 F 
ATOM     94  C   UNL A   1      51.548  26.265  24.777  1.00  0.00     0.059 A 
ATOM     95  C   UNL A   1      51.759  25.575  27.095  1.00  0.00     0.059 A 
ATOM     96  F   UNL A   1      49.926  25.777  28.541  1.00  0.00    -0.206 F 
ATOM     97  C   UNL A   1      52.306  25.734  25.822  1.00  0.00     0.060 A 
BRANCH  97  98
ATOM     98  S   UNL A   1      54.030  25.290  25.508  1.00  0.00     0.124 S 
ATOM     99  O   UNL A   1      54.011  23.850  25.742  1.00  0.00    -0.237 OA
ATOM    100  O   UNL A   1      54.212  25.704  24.120  1.00  0.00    -0.237 OA
ATOM    101  O   UNL A   1      54.768  26.077  26.492  1.00  0.00    -0.744 OA
ENDBRANCH  97  98
ENDBRANCH  65  90
ENDBRANCH  39  40
ENDBRANCH  31  34
ENDBRANCH  29  30
ENDBRANCH   1  29
TORSDOF 18
ENDMDL
