MODEL 1
REMARK VINA RESULT:     -11.9      0.000      0.000
REMARK SMILES O=C(NCCCNC(=O)[C@H]1CC[C@@H](CNC(=O)c2ccc(CO)cc2)O1)c1ccc(-c2c3nc(c(-c4c(F)cc(S(=O)(=O)[O-])cc4F)c4ccc([nH]4)c(-c4c(F)cc(S(=O)(=O)[O-])cc4F)c4nc(c(-c5c(F)cc(S(=O)(=O)[O-])cc5F)c5ccc2[nH]5)C=C4)C=C3)cc1
REMARK SMILES IDX 6 1 5 2 4 3 3 4 1 5 2 6 27 8 28 9 92 10 29 11 91 12 30 13
REMARK SMILES IDX 31 14 32 15 85 16 33 17 90 18 84 19 86 20 34 21 89 22 83 23
REMARK SMILES IDX 82 24 35 26 69 27 48 28 68 29 49 30 52 31 67 32 87 33 50 34
REMARK SMILES IDX 51 35 66 37 88 38 53 39 36 40 37 41 46 42 38 43 39 44 45 45
REMARK SMILES IDX 47 46 40 47 41 48 42 49 43 50 44 51 70 52 71 53 80 54 72 55
REMARK SMILES IDX 73 56 79 57 81 58 74 59 75 60 76 61 77 62 78 63 54 64 55 65
REMARK SMILES IDX 64 66 56 67 57 68 63 69 65 70 58 71 59 72 60 73 61 74 62 75
REMARK SMILES IDX 7 76 8 77 9 79 10 80 11 81 26 82 12 83 13 84 14 85 15 86
REMARK SMILES IDX 16 87 17 89 18 90 19 91 25 92 20 93 24 94 21 95 22 96 23 97
REMARK H PARENT 3 7 86 25 52 36 7 78 15 88 23 98
REMARK Flexibility Score: inf
ROOT
ATOM      1  C   UNL A   1      34.062  29.403  26.996  1.00  0.00     0.117 C 
ENDROOT
BRANCH   1   2
ATOM      2  C   UNL A   1      34.175  30.865  27.397  1.00  0.00     0.042 C 
BRANCH   2   3
ATOM      3  C   UNL A   1      35.470  31.229  28.108  1.00  0.00     0.118 C 
BRANCH   3   4
ATOM      4  N   UNL A   1      35.408  31.041  29.552  1.00  0.00    -0.352 N 
ATOM      5  O   UNL A   1      35.955  30.271  31.590  1.00  0.00    -0.269 OA
ATOM      6  C   UNL A   1      36.296  30.457  30.423  1.00  0.00     0.251 C 
ATOM      7  H   UNL A   1      34.591  31.394  29.974  1.00  0.00     0.163 HD
BRANCH   6   8
ATOM      8  C   UNL A   1      37.635  30.021  29.967  1.00  0.00     0.039 A 
ATOM      9  C   UNL A   1      38.592  29.565  30.873  1.00  0.00     0.014 A 
ATOM     10  C   UNL A   1      37.935  30.044  28.601  1.00  0.00     0.014 A 
ATOM     11  C   UNL A   1      39.892  29.327  30.448  1.00  0.00     0.010 A 
ATOM     12  C   UNL A   1      39.214  29.687  28.158  1.00  0.00     0.010 A 
ATOM     13  C   UNL A   1      40.217  29.364  29.083  1.00  0.00    -0.014 A 
BRANCH  13  14
ATOM     14  C   UNL A   1      41.594  29.000  28.656  1.00  0.00     0.031 A 
ATOM     15  C   UNL A   1      42.714  30.004  28.687  1.00  0.00     0.074 A 
ATOM     16  C   UNL A   1      41.836  27.729  28.274  1.00  0.00     0.049 A 
ATOM     17  N   UNL A   1      43.972  29.843  28.361  1.00  0.00    -0.248 NA
ATOM     18  C   UNL A   1      42.383  31.367  29.131  1.00  0.00     0.031 C 
ATOM     19  C   UNL A   1      40.827  26.669  28.192  1.00  0.00     0.029 A 
ATOM     20  N   UNL A   1      42.999  27.104  27.905  1.00  0.00    -0.354 N 
ATOM     21  C   UNL A   1      44.578  31.082  28.537  1.00  0.00     0.074 A 
ATOM     22  C   UNL A   1      43.543  31.994  28.978  1.00  0.00     0.031 C 
ATOM     23  C   UNL A   1      41.422  25.517  27.853  1.00  0.00     0.029 A 
ATOM     24  C   UNL A   1      42.839  25.769  27.622  1.00  0.00     0.049 A 
ATOM     25  H   UNL A   1      43.866  27.567  27.849  1.00  0.00     0.167 HD
ATOM     26  C   UNL A   1      45.875  31.424  28.352  1.00  0.00     0.037 A 
ATOM     27  C   UNL A   1      43.726  24.847  27.203  1.00  0.00     0.037 A 
ATOM     28  C   UNL A   1      46.903  30.504  27.933  1.00  0.00     0.049 A 
ATOM     29  C   UNL A   1      45.154  25.255  26.995  1.00  0.00     0.074 A 
ATOM     30  C   UNL A   1      48.254  30.746  27.748  1.00  0.00     0.029 A 
ATOM     31  N   UNL A   1      46.694  29.165  27.630  1.00  0.00    -0.354 N 
ATOM     32  N   UNL A   1      45.709  26.428  27.186  1.00  0.00    -0.248 NA
ATOM     33  C   UNL A   1      46.076  24.221  26.510  1.00  0.00     0.031 C 
ATOM     34  C   UNL A   1      48.854  29.566  27.296  1.00  0.00     0.029 A 
ATOM     35  C   UNL A   1      47.887  28.575  27.242  1.00  0.00     0.049 A 
ATOM     36  H   UNL A   1      45.827  28.703  27.683  1.00  0.00     0.167 HD
ATOM     37  C   UNL A   1      47.048  26.271  26.853  1.00  0.00     0.074 A 
ATOM     38  C   UNL A   1      47.223  24.884  26.470  1.00  0.00     0.031 C 
ATOM     39  C   UNL A   1      48.042  27.194  26.861  1.00  0.00     0.037 A 
BRANCH  26  40
ATOM     40  C   UNL A   1      46.262  32.860  28.586  1.00  0.00     0.058 A 
ATOM     41  C   UNL A   1      46.204  33.819  27.562  1.00  0.00     0.135 A 
ATOM     42  C   UNL A   1      46.655  33.292  29.864  1.00  0.00     0.135 A 
ATOM     43  F   UNL A   1      45.849  33.459  26.319  1.00  0.00    -0.206 F 
ATOM     44  C   UNL A   1      46.547  35.148  27.790  1.00  0.00     0.059 A 
ATOM     45  C   UNL A   1      46.980  34.622  30.120  1.00  0.00     0.059 A 
ATOM     46  F   UNL A   1      46.726  32.418  30.880  1.00  0.00    -0.206 F 
ATOM     47  C   UNL A   1      46.936  35.540  29.073  1.00  0.00     0.060 A 
BRANCH  47  48
ATOM     48  S   UNL A   1      47.383  37.268  29.351  1.00  0.00     0.124 S 
ATOM     49  O   UNL A   1      46.119  37.822  29.823  1.00  0.00    -0.237 OA
ATOM     50  O   UNL A   1      48.441  37.161  30.350  1.00  0.00    -0.237 OA
ATOM     51  O   UNL A   1      47.814  37.723  28.032  1.00  0.00    -0.744 OA
ENDBRANCH  47  48
ENDBRANCH  26  40
BRANCH  27  52
ATOM     52  C   UNL A   1      43.273  23.457  26.943  1.00  0.00     0.058 A 
ATOM     53  C   UNL A   1      43.047  23.000  25.637  1.00  0.00     0.135 A 
ATOM     54  C   UNL A   1      43.096  22.544  27.996  1.00  0.00     0.135 A 
ATOM     55  F   UNL A   1      43.200  23.837  24.598  1.00  0.00    -0.206 F 
ATOM     56  C   UNL A   1      42.657  21.690  25.382  1.00  0.00     0.059 A 
ATOM     57  C   UNL A   1      42.734  21.222  27.765  1.00  0.00     0.059 A 
ATOM     58  F   UNL A   1      43.319  22.928  29.263  1.00  0.00    -0.206 F 
ATOM     59  C   UNL A   1      42.507  20.807  26.453  1.00  0.00     0.060 A 
BRANCH  59  60
ATOM     60  S   UNL A   1      42.063  19.090  26.110  1.00  0.00     0.124 S 
ATOM     61  O   UNL A   1      42.930  18.785  24.979  1.00  0.00    -0.237 OA
ATOM     62  O   UNL A   1      42.395  18.429  27.368  1.00  0.00    -0.237 OA
ATOM     63  O   UNL A   1      40.636  19.168  25.811  1.00  0.00    -0.744 OA
ENDBRANCH  59  60
ENDBRANCH  27  52
BRANCH  39  64
ATOM     64  C   UNL A   1      49.412  26.723  26.462  1.00  0.00     0.058 A 
ATOM     65  C   UNL A   1      50.278  26.118  27.385  1.00  0.00     0.135 A 
ATOM     66  C   UNL A   1      49.849  26.849  25.134  1.00  0.00     0.135 A 
ATOM     67  F   UNL A   1      49.912  25.983  28.670  1.00  0.00    -0.206 F 
ATOM     68  C   UNL A   1      51.542  25.673  27.010  1.00  0.00     0.059 A 
ATOM     69  C   UNL A   1      51.098  26.390  24.731  1.00  0.00     0.059 A 
ATOM     70  F   UNL A   1      49.054  27.416  24.212  1.00  0.00    -0.206 F 
ATOM     71  C   UNL A   1      51.942  25.814  25.679  1.00  0.00     0.060 A 
BRANCH  71  72
ATOM     72  S   UNL A   1      53.573  25.208  25.197  1.00  0.00     0.124 S 
ATOM     73  O   UNL A   1      53.675  25.700  23.828  1.00  0.00    -0.237 OA
ATOM     74  O   UNL A   1      54.448  25.855  26.170  1.00  0.00    -0.237 OA
ATOM     75  O   UNL A   1      53.451  23.760  25.338  1.00  0.00    -0.744 OA
ENDBRANCH  71  72
ENDBRANCH  39  64
ENDBRANCH  13  14
ENDBRANCH   6   8
ENDBRANCH   3   4
ENDBRANCH   2   3
ENDBRANCH   1   2
BRANCH   1  76
ATOM     76  N   UNL A   1      34.097  29.194  25.560  1.00  0.00    -0.354 N 
ATOM     77  C   UNL A   1      33.068  29.077  24.672  1.00  0.00     0.249 C 
ATOM     78  H   UNL A   1      34.998  29.126  25.169  1.00  0.00     0.163 HD
ATOM     79  O   UNL A   1      33.349  29.028  23.472  1.00  0.00    -0.272 OA
BRANCH  77  80
ATOM     80  C   UNL A   1      31.617  29.005  25.189  1.00  0.00     0.207 C 
ATOM     81  C   UNL A   1      30.609  29.593  24.215  1.00  0.00     0.045 C 
ATOM     82  O   UNL A   1      31.212  27.638  25.368  1.00  0.00    -0.363 OA
ATOM     83  C   UNL A   1      30.320  28.426  23.306  1.00  0.00     0.037 C 
ATOM     84  C   UNL A   1      30.369  27.248  24.265  1.00  0.00     0.138 C 
BRANCH  84  85
ATOM     85  C   UNL A   1      30.897  25.957  23.622  1.00  0.00     0.148 C 
BRANCH  85  86
ATOM     86  N   UNL A   1      31.867  26.228  22.567  1.00  0.00    -0.349 N 
ATOM     87  C   UNL A   1      33.183  25.872  22.430  1.00  0.00     0.251 C 
ATOM     88  H   UNL A   1      31.515  26.762  21.819  1.00  0.00     0.163 HD
ATOM     89  O   UNL A   1      33.866  26.415  21.564  1.00  0.00    -0.269 OA
BRANCH  87  90
ATOM     90  C   UNL A   1      33.811  24.863  23.310  1.00  0.00     0.039 A 
ATOM     91  C   UNL A   1      34.432  25.307  24.483  1.00  0.00     0.014 A 
ATOM     92  C   UNL A   1      33.908  23.519  22.943  1.00  0.00     0.014 A 
ATOM     93  C   UNL A   1      35.093  24.401  25.315  1.00  0.00     0.007 A 
ATOM     94  C   UNL A   1      34.560  22.610  23.782  1.00  0.00     0.007 A 
ATOM     95  C   UNL A   1      35.144  23.040  24.982  1.00  0.00    -0.023 A 
BRANCH  95  96
ATOM     96  C   UNL A   1      35.865  22.069  25.880  1.00  0.00     0.191 C 
BRANCH  96  97
ATOM     97  O   UNL A   1      35.161  20.836  25.956  1.00  0.00    -0.392 OA
ATOM     98  H   UNL A   1      34.934  20.538  25.061  1.00  0.00     0.211 HD
ENDBRANCH  96  97
ENDBRANCH  95  96
ENDBRANCH  87  90
ENDBRANCH  85  86
ENDBRANCH  84  85
ENDBRANCH  77  80
ENDBRANCH   1  76
TORSDOF 18
ENDMDL
MODEL 2
REMARK VINA RESULT:     -11.9      6.561     12.059
REMARK SMILES O=C(NCCCNC(=O)[C@H]1CC[C@@H](CNC(=O)c2ccc(CO)cc2)O1)c1ccc(-c2c3nc(c(-c4c(F)cc(S(=O)(=O)[O-])cc4F)c4ccc([nH]4)c(-c4c(F)cc(S(=O)(=O)[O-])cc4F)c4nc(c(-c5c(F)cc(S(=O)(=O)[O-])cc5F)c5ccc2[nH]5)C=C4)C=C3)cc1
REMARK SMILES IDX 6 1 5 2 4 3 3 4 1 5 2 6 27 8 28 9 92 10 29 11 91 12 30 13
REMARK SMILES IDX 31 14 32 15 85 16 33 17 90 18 84 19 86 20 34 21 89 22 83 23
REMARK SMILES IDX 82 24 35 26 69 27 48 28 68 29 49 30 52 31 67 32 87 33 50 34
REMARK SMILES IDX 51 35 66 37 88 38 53 39 36 40 37 41 46 42 38 43 39 44 45 45
REMARK SMILES IDX 47 46 40 47 41 48 42 49 43 50 44 51 70 52 71 53 80 54 72 55
REMARK SMILES IDX 73 56 79 57 81 58 74 59 75 60 76 61 77 62 78 63 54 64 55 65
REMARK SMILES IDX 64 66 56 67 57 68 63 69 65 70 58 71 59 72 60 73 61 74 62 75
REMARK SMILES IDX 7 76 8 77 9 79 10 80 11 81 26 82 12 83 13 84 14 85 15 86
REMARK SMILES IDX 16 87 17 89 18 90 19 91 25 92 20 93 24 94 21 95 22 96 23 97
REMARK H PARENT 3 7 86 25 52 36 7 78 15 88 23 98
REMARK Flexibility Score: inf
ROOT
ATOM      1  C   UNL A   1      36.158  23.702  25.442  1.00  0.00     0.117 C 
ENDROOT
BRANCH   1   2
ATOM      2  C   UNL A   1      37.594  23.209  25.505  1.00  0.00     0.042 C 
BRANCH   2   3
ATOM      3  C   UNL A   1      38.480  23.962  26.487  1.00  0.00     0.118 C 
BRANCH   3   4
ATOM      4  N   UNL A   1      39.890  23.949  26.118  1.00  0.00    -0.352 N 
ATOM      5  O   UNL A   1      42.016  24.654  25.943  1.00  0.00    -0.269 OA
ATOM      6  C   UNL A   1      40.931  24.755  26.513  1.00  0.00     0.251 C 
ATOM      7  H   UNL A   1      40.138  23.243  25.478  1.00  0.00     0.163 HD
BRANCH   6   8
ATOM      8  C   UNL A   1      40.753  25.759  27.586  1.00  0.00     0.039 A 
ATOM      9  C   UNL A   1      41.626  26.838  27.716  1.00  0.00     0.014 A 
ATOM     10  C   UNL A   1      39.674  25.635  28.468  1.00  0.00     0.014 A 
ATOM     11  C   UNL A   1      41.544  27.667  28.827  1.00  0.00     0.010 A 
ATOM     12  C   UNL A   1      39.521  26.545  29.521  1.00  0.00     0.010 A 
ATOM     13  C   UNL A   1      40.480  27.545  29.734  1.00  0.00    -0.014 A 
BRANCH  13  14
ATOM     14  C   UNL A   1      40.368  28.519  30.853  1.00  0.00     0.031 A 
ATOM     15  C   UNL A   1      41.277  28.444  32.049  1.00  0.00     0.074 A 
ATOM     16  C   UNL A   1      39.453  29.506  30.759  1.00  0.00     0.049 A 
ATOM     17  N   UNL A   1      41.318  29.222  33.100  1.00  0.00    -0.248 NA
ATOM     18  C   UNL A   1      42.263  27.352  32.077  1.00  0.00     0.031 C 
ATOM     19  C   UNL A   1      38.507  29.674  29.652  1.00  0.00     0.029 A 
ATOM     20  N   UNL A   1      39.179  30.563  31.588  1.00  0.00    -0.354 N 
ATOM     21  C   UNL A   1      42.311  28.706  33.925  1.00  0.00     0.074 A 
ATOM     22  C   UNL A   1      42.835  27.532  33.261  1.00  0.00     0.031 C 
ATOM     23  C   UNL A   1      37.798  30.795  29.842  1.00  0.00     0.029 A 
ATOM     24  C   UNL A   1      38.185  31.387  31.117  1.00  0.00     0.049 A 
ATOM     25  H   UNL A   1      39.651  30.718  32.439  1.00  0.00     0.167 HD
ATOM     26  C   UNL A   1      42.747  29.173  35.120  1.00  0.00     0.037 A 
ATOM     27  C   UNL A   1      37.627  32.488  31.656  1.00  0.00     0.037 A 
ATOM     28  C   UNL A   1      42.232  30.356  35.763  1.00  0.00     0.049 A 
ATOM     29  C   UNL A   1      38.120  32.975  32.986  1.00  0.00     0.074 A 
ATOM     30  C   UNL A   1      42.630  30.928  36.960  1.00  0.00     0.029 A 
ATOM     31  N   UNL A   1      41.206  31.147  35.266  1.00  0.00    -0.354 N 
ATOM     32  N   UNL A   1      39.075  32.482  33.739  1.00  0.00    -0.248 NA
ATOM     33  C   UNL A   1      37.460  34.162  33.543  1.00  0.00     0.031 C 
ATOM     34  C   UNL A   1      41.819  32.041  37.206  1.00  0.00     0.029 A 
ATOM     35  C   UNL A   1      40.945  32.191  36.141  1.00  0.00     0.049 A 
ATOM     36  H   UNL A   1      40.733  30.991  34.417  1.00  0.00     0.167 HD
ATOM     37  C   UNL A   1      39.137  33.305  34.856  1.00  0.00     0.074 A 
ATOM     38  C   UNL A   1      38.138  34.338  34.669  1.00  0.00     0.031 C 
ATOM     39  C   UNL A   1      39.945  33.209  35.940  1.00  0.00     0.037 A 
BRANCH  26  40
ATOM     40  C   UNL A   1      43.826  28.395  35.825  1.00  0.00     0.058 A 
ATOM     41  C   UNL A   1      43.526  27.348  36.710  1.00  0.00     0.135 A 
ATOM     42  C   UNL A   1      45.181  28.673  35.577  1.00  0.00     0.135 A 
ATOM     43  F   UNL A   1      42.249  27.047  36.994  1.00  0.00    -0.206 F 
ATOM     44  C   UNL A   1      44.530  26.621  37.344  1.00  0.00     0.059 A 
ATOM     45  C   UNL A   1      46.201  27.944  36.182  1.00  0.00     0.059 A 
ATOM     46  F   UNL A   1      45.525  29.662  34.737  1.00  0.00    -0.206 F 
ATOM     47  C   UNL A   1      45.865  26.929  37.076  1.00  0.00     0.060 A 
BRANCH  47  48
ATOM     48  S   UNL A   1      47.155  25.981  37.912  1.00  0.00     0.124 S 
ATOM     49  O   UNL A   1      48.329  26.813  37.671  1.00  0.00    -0.237 OA
ATOM     50  O   UNL A   1      46.675  25.946  39.290  1.00  0.00    -0.237 OA
ATOM     51  O   UNL A   1      47.141  24.698  37.213  1.00  0.00    -0.744 OA
ENDBRANCH  47  48
ENDBRANCH  26  40
BRANCH  27  52
ATOM     52  C   UNL A   1      36.532  33.184  30.934  1.00  0.00     0.058 A 
ATOM     53  C   UNL A   1      35.190  32.983  31.285  1.00  0.00     0.135 A 
ATOM     54  C   UNL A   1      36.810  34.097  29.903  1.00  0.00     0.135 A 
ATOM     55  F   UNL A   1      34.875  32.117  32.261  1.00  0.00    -0.206 F 
ATOM     56  C   UNL A   1      34.160  33.658  30.638  1.00  0.00     0.059 A 
ATOM     57  C   UNL A   1      35.801  34.805  29.261  1.00  0.00     0.059 A 
ATOM     58  F   UNL A   1      38.081  34.339  29.544  1.00  0.00    -0.206 F 
ATOM     59  C   UNL A   1      34.477  34.571  29.629  1.00  0.00     0.060 A 
BRANCH  59  60
ATOM     60  S   UNL A   1      33.140  35.491  28.838  1.00  0.00     0.124 S 
ATOM     61  O   UNL A   1      32.465  36.074  29.991  1.00  0.00    -0.237 OA
ATOM     62  O   UNL A   1      33.870  36.422  27.984  1.00  0.00    -0.237 OA
ATOM     63  O   UNL A   1      32.396  34.454  28.127  1.00  0.00    -0.744 OA
ENDBRANCH  59  60
ENDBRANCH  27  52
BRANCH  39  64
ATOM     64  C   UNL A   1      39.795  34.266  36.998  1.00  0.00     0.058 A 
ATOM     65  C   UNL A   1      40.310  35.559  36.823  1.00  0.00     0.135 A 
ATOM     66  C   UNL A   1      39.099  33.989  38.185  1.00  0.00     0.135 A 
ATOM     67  F   UNL A   1      40.993  35.870  35.709  1.00  0.00    -0.206 F 
ATOM     68  C   UNL A   1      40.160  36.538  37.799  1.00  0.00     0.059 A 
ATOM     69  C   UNL A   1      38.915  34.960  39.164  1.00  0.00     0.059 A 
ATOM     70  F   UNL A   1      38.581  32.769  38.397  1.00  0.00    -0.206 F 
ATOM     71  C   UNL A   1      39.459  36.228  38.967  1.00  0.00     0.060 A 
BRANCH  71  72
ATOM     72  S   UNL A   1      39.246  37.514  40.216  1.00  0.00     0.124 S 
ATOM     73  O   UNL A   1      40.596  38.058  40.311  1.00  0.00    -0.237 OA
ATOM     74  O   UNL A   1      38.251  38.387  39.600  1.00  0.00    -0.237 OA
ATOM     75  O   UNL A   1      38.782  36.774  41.387  1.00  0.00    -0.744 OA
ENDBRANCH  71  72
ENDBRANCH  39  64
ENDBRANCH  13  14
ENDBRANCH   6   8
ENDBRANCH   3   4
ENDBRANCH   2   3
ENDBRANCH   1   2
BRANCH   1  76
ATOM     76  N   UNL A   1      35.299  23.109  26.452  1.00  0.00    -0.354 N 
ATOM     77  C   UNL A   1      34.622  21.925  26.433  1.00  0.00     0.249 C 
ATOM     78  H   UNL A   1      35.189  23.642  27.273  1.00  0.00     0.163 HD
ATOM     79  O   UNL A   1      34.052  21.574  27.469  1.00  0.00    -0.272 OA
BRANCH  77  80
ATOM     80  C   UNL A   1      34.589  21.085  25.141  1.00  0.00     0.207 C 
ATOM     81  C   UNL A   1      33.461  20.066  25.123  1.00  0.00     0.045 C 
ATOM     82  O   UNL A   1      34.355  21.925  23.999  1.00  0.00    -0.363 OA
ATOM     83  C   UNL A   1      32.302  20.878  24.600  1.00  0.00     0.037 C 
ATOM     84  C   UNL A   1      32.977  21.794  23.592  1.00  0.00     0.138 C 
BRANCH  84  85
ATOM     85  C   UNL A   1      32.319  23.178  23.488  1.00  0.00     0.148 C 
BRANCH  85  86
ATOM     86  N   UNL A   1      33.083  24.085  22.638  1.00  0.00    -0.349 N 
ATOM     87  C   UNL A   1      33.293  25.436  22.710  1.00  0.00     0.251 C 
ATOM     88  H   UNL A   1      33.527  23.648  21.876  1.00  0.00     0.163 HD
ATOM     89  O   UNL A   1      33.782  26.022  21.745  1.00  0.00    -0.269 OA
BRANCH  87  90
ATOM     90  C   UNL A   1      32.930  26.217  23.912  1.00  0.00     0.039 A 
ATOM     91  C   UNL A   1      31.722  26.922  23.900  1.00  0.00     0.014 A 
ATOM     92  C   UNL A   1      33.806  26.365  24.990  1.00  0.00     0.014 A 
ATOM     93  C   UNL A   1      31.364  27.723  24.987  1.00  0.00     0.007 A 
ATOM     94  C   UNL A   1      33.443  27.158  26.083  1.00  0.00     0.007 A 
ATOM     95  C   UNL A   1      32.213  27.831  26.098  1.00  0.00    -0.023 A 
BRANCH  95  96
ATOM     96  C   UNL A   1      31.825  28.702  27.264  1.00  0.00     0.191 C 
BRANCH  96  97
ATOM     97  O   UNL A   1      31.509  27.910  28.401  1.00  0.00    -0.392 OA
ATOM     98  H   UNL A   1      30.614  28.125  28.706  1.00  0.00     0.211 HD
ENDBRANCH  96  97
ENDBRANCH  95  96
ENDBRANCH  87  90
ENDBRANCH  85  86
ENDBRANCH  84  85
ENDBRANCH  77  80
ENDBRANCH   1  76
TORSDOF 18
ENDMDL
MODEL 3
REMARK VINA RESULT:     -11.9      6.565     12.024
REMARK SMILES O=C(NCCCNC(=O)[C@H]1CC[C@@H](CNC(=O)c2ccc(CO)cc2)O1)c1ccc(-c2c3nc(c(-c4c(F)cc(S(=O)(=O)[O-])cc4F)c4ccc([nH]4)c(-c4c(F)cc(S(=O)(=O)[O-])cc4F)c4nc(c(-c5c(F)cc(S(=O)(=O)[O-])cc5F)c5ccc2[nH]5)C=C4)C=C3)cc1
REMARK SMILES IDX 6 1 5 2 4 3 3 4 1 5 2 6 27 8 28 9 92 10 29 11 91 12 30 13
REMARK SMILES IDX 31 14 32 15 85 16 33 17 90 18 84 19 86 20 34 21 89 22 83 23
REMARK SMILES IDX 82 24 35 26 69 27 48 28 68 29 49 30 52 31 67 32 87 33 50 34
REMARK SMILES IDX 51 35 66 37 88 38 53 39 36 40 37 41 46 42 38 43 39 44 45 45
REMARK SMILES IDX 47 46 40 47 41 48 42 49 43 50 44 51 70 52 71 53 80 54 72 55
REMARK SMILES IDX 73 56 79 57 81 58 74 59 75 60 76 61 77 62 78 63 54 64 55 65
REMARK SMILES IDX 64 66 56 67 57 68 63 69 65 70 58 71 59 72 60 73 61 74 62 75
REMARK SMILES IDX 7 76 8 77 9 79 10 80 11 81 26 82 12 83 13 84 14 85 15 86
REMARK SMILES IDX 16 87 17 89 18 90 19 91 25 92 20 93 24 94 21 95 22 96 23 97
REMARK H PARENT 3 7 86 25 52 36 7 78 15 88 23 98
REMARK Flexibility Score: inf
ROOT
ATOM      1  C   UNL A   1      37.190  22.678  25.650  1.00  0.00     0.117 C 
ENDROOT
BRANCH   1   2
ATOM      2  C   UNL A   1      38.058  23.830  26.128  1.00  0.00     0.042 C 
BRANCH   2   3
ATOM      3  C   UNL A   1      39.323  23.410  26.861  1.00  0.00     0.118 C 
BRANCH   3   4
ATOM      4  N   UNL A   1      40.546  23.797  26.171  1.00  0.00    -0.352 N 
ATOM      5  O   UNL A   1      42.257  25.093  25.506  1.00  0.00    -0.269 OA
ATOM      6  C   UNL A   1      41.353  24.901  26.317  1.00  0.00     0.251 C 
ATOM      7  H   UNL A   1      40.846  23.159  25.483  1.00  0.00     0.163 HD
BRANCH   6   8
ATOM      8  C   UNL A   1      41.125  25.870  27.412  1.00  0.00     0.039 A 
ATOM      9  C   UNL A   1      41.868  27.046  27.499  1.00  0.00     0.014 A 
ATOM     10  C   UNL A   1      40.129  25.612  28.360  1.00  0.00     0.014 A 
ATOM     11  C   UNL A   1      41.759  27.854  28.624  1.00  0.00     0.010 A 
ATOM     12  C   UNL A   1      39.937  26.491  29.432  1.00  0.00     0.010 A 
ATOM     13  C   UNL A   1      40.779  27.600  29.596  1.00  0.00    -0.014 A 
BRANCH  13  14
ATOM     14  C   UNL A   1      40.623  28.547  30.732  1.00  0.00     0.031 A 
ATOM     15  C   UNL A   1      41.521  28.476  31.938  1.00  0.00     0.074 A 
ATOM     16  C   UNL A   1      39.679  29.506  30.646  1.00  0.00     0.049 A 
ATOM     17  N   UNL A   1      41.525  29.235  33.004  1.00  0.00    -0.248 NA
ATOM     18  C   UNL A   1      42.540  27.416  31.957  1.00  0.00     0.031 C 
ATOM     19  C   UNL A   1      38.741  29.667  29.531  1.00  0.00     0.029 A 
ATOM     20  N   UNL A   1      39.363  30.538  31.492  1.00  0.00    -0.354 N 
ATOM     21  C   UNL A   1      42.524  28.733  33.831  1.00  0.00     0.074 A 
ATOM     22  C   UNL A   1      43.093  27.589  33.151  1.00  0.00     0.031 C 
ATOM     23  C   UNL A   1      37.996  30.762  29.735  1.00  0.00     0.029 A 
ATOM     24  C   UNL A   1      38.349  31.340  31.025  1.00  0.00     0.049 A 
ATOM     25  H   UNL A   1      39.819  30.691  32.352  1.00  0.00     0.167 HD
ATOM     26  C   UNL A   1      42.931  29.189  35.040  1.00  0.00     0.037 A 
ATOM     27  C   UNL A   1      37.751  32.412  31.579  1.00  0.00     0.037 A 
ATOM     28  C   UNL A   1      42.372  30.342  35.700  1.00  0.00     0.049 A 
ATOM     29  C   UNL A   1      38.213  32.887  32.924  1.00  0.00     0.074 A 
ATOM     30  C   UNL A   1      42.738  30.903  36.912  1.00  0.00     0.029 A 
ATOM     31  N   UNL A   1      41.327  31.111  35.206  1.00  0.00    -0.354 N 
ATOM     32  N   UNL A   1      39.173  32.410  33.679  1.00  0.00    -0.248 NA
ATOM     33  C   UNL A   1      37.510  34.042  33.496  1.00  0.00     0.031 C 
ATOM     34  C   UNL A   1      41.890  31.985  37.170  1.00  0.00     0.029 A 
ATOM     35  C   UNL A   1      41.024  32.129  36.097  1.00  0.00     0.049 A 
ATOM     36  H   UNL A   1      40.870  30.958  34.348  1.00  0.00     0.167 HD
ATOM     37  C   UNL A   1      39.196  33.211  34.813  1.00  0.00     0.074 A 
ATOM     38  C   UNL A   1      38.168  34.216  34.634  1.00  0.00     0.031 C 
ATOM     39  C   UNL A   1      39.995  33.119  35.904  1.00  0.00     0.037 A 
BRANCH  26  40
ATOM     40  C   UNL A   1      44.026  28.432  35.742  1.00  0.00     0.058 A 
ATOM     41  C   UNL A   1      45.382  28.738  35.548  1.00  0.00     0.135 A 
ATOM     42  C   UNL A   1      43.711  27.412  36.657  1.00  0.00     0.135 A 
ATOM     43  F   UNL A   1      45.740  29.693  34.675  1.00  0.00    -0.206 F 
ATOM     44  C   UNL A   1      46.388  28.045  36.215  1.00  0.00     0.059 A 
ATOM     45  C   UNL A   1      44.701  26.722  37.353  1.00  0.00     0.059 A 
ATOM     46  F   UNL A   1      42.431  27.079  36.884  1.00  0.00    -0.206 F 
ATOM     47  C   UNL A   1      46.037  27.036  37.114  1.00  0.00     0.060 A 
BRANCH  47  48
ATOM     48  S   UNL A   1      47.355  26.142  37.967  1.00  0.00     0.124 S 
ATOM     49  O   UNL A   1      48.339  25.990  36.901  1.00  0.00    -0.237 OA
ATOM     50  O   UNL A   1      47.718  27.066  39.037  1.00  0.00    -0.237 OA
ATOM     51  O   UNL A   1      46.703  24.910  38.401  1.00  0.00    -0.744 OA
ENDBRANCH  47  48
ENDBRANCH  26  40
BRANCH  27  52
ATOM     52  C   UNL A   1      36.643  33.087  30.857  1.00  0.00     0.058 A 
ATOM     53  C   UNL A   1      35.310  32.925  31.259  1.00  0.00     0.135 A 
ATOM     54  C   UNL A   1      36.901  33.944  29.774  1.00  0.00     0.135 A 
ATOM     55  F   UNL A   1      35.014  32.114  32.287  1.00  0.00    -0.206 F 
ATOM     56  C   UNL A   1      34.269  33.583  30.612  1.00  0.00     0.059 A 
ATOM     57  C   UNL A   1      35.881  34.634  29.128  1.00  0.00     0.059 A 
ATOM     58  F   UNL A   1      38.163  34.148  29.363  1.00  0.00    -0.206 F 
ATOM     59  C   UNL A   1      34.566  34.439  29.549  1.00  0.00     0.060 A 
BRANCH  59  60
ATOM     60  S   UNL A   1      33.217  35.339  28.754  1.00  0.00     0.124 S 
ATOM     61  O   UNL A   1      32.496  35.862  29.908  1.00  0.00    -0.237 OA
ATOM     62  O   UNL A   1      33.935  36.322  27.949  1.00  0.00    -0.237 OA
ATOM     63  O   UNL A   1      32.527  34.302  27.993  1.00  0.00    -0.744 OA
ENDBRANCH  59  60
ENDBRANCH  27  52
BRANCH  39  64
ATOM     64  C   UNL A   1      39.800  34.149  36.981  1.00  0.00     0.058 A 
ATOM     65  C   UNL A   1      38.947  33.920  38.071  1.00  0.00     0.135 A 
ATOM     66  C   UNL A   1      40.501  35.365  36.937  1.00  0.00     0.135 A 
ATOM     67  F   UNL A   1      38.246  32.778  38.153  1.00  0.00    -0.206 F 
ATOM     68  C   UNL A   1      38.777  34.871  39.071  1.00  0.00     0.059 A 
ATOM     69  C   UNL A   1      40.366  36.320  37.939  1.00  0.00     0.059 A 
ATOM     70  F   UNL A   1      41.335  35.628  35.918  1.00  0.00    -0.206 F 
ATOM     71  C   UNL A   1      39.492  36.069  38.996  1.00  0.00     0.060 A 
BRANCH  71  72
ATOM     72  S   UNL A   1      39.286  37.285  40.314  1.00  0.00     0.124 S 
ATOM     73  O   UNL A   1      38.523  38.327  39.635  1.00  0.00    -0.237 OA
ATOM     74  O   UNL A   1      38.561  36.528  41.329  1.00  0.00    -0.237 OA
ATOM     75  O   UNL A   1      40.658  37.639  40.666  1.00  0.00    -0.744 OA
ENDBRANCH  71  72
ENDBRANCH  39  64
ENDBRANCH  13  14
ENDBRANCH   6   8
ENDBRANCH   3   4
ENDBRANCH   2   3
ENDBRANCH   1   2
BRANCH   1  76
ATOM     76  N   UNL A   1      36.018  22.456  26.479  1.00  0.00    -0.354 N 
ATOM     77  C   UNL A   1      34.931  21.663  26.255  1.00  0.00     0.249 C 
ATOM     78  H   UNL A   1      36.007  22.952  27.330  1.00  0.00     0.163 HD
ATOM     79  O   UNL A   1      34.113  21.540  27.170  1.00  0.00    -0.272 OA
BRANCH  77  80
ATOM     80  C   UNL A   1      34.761  20.967  24.889  1.00  0.00     0.207 C 
ATOM     81  C   UNL A   1      33.915  19.707  24.966  1.00  0.00     0.045 C 
ATOM     82  O   UNL A   1      34.072  21.827  23.967  1.00  0.00    -0.363 OA
ATOM     83  C   UNL A   1      32.514  20.250  24.839  1.00  0.00     0.037 C 
ATOM     84  C   UNL A   1      32.699  21.397  23.858  1.00  0.00     0.138 C 
BRANCH  84  85
ATOM     85  C   UNL A   1      31.750  22.577  24.112  1.00  0.00     0.148 C 
BRANCH  85  86
ATOM     86  N   UNL A   1      31.381  22.692  25.519  1.00  0.00    -0.349 N 
ATOM     87  C   UNL A   1      31.591  23.689  26.434  1.00  0.00     0.251 C 
ATOM     88  H   UNL A   1      30.895  21.914  25.875  1.00  0.00     0.163 HD
ATOM     89  O   UNL A   1      31.395  23.462  27.627  1.00  0.00    -0.269 OA
BRANCH  87  90
ATOM     90  C   UNL A   1      32.067  25.029  26.029  1.00  0.00     0.039 A 
ATOM     91  C   UNL A   1      33.418  25.176  25.696  1.00  0.00     0.014 A 
ATOM     92  C   UNL A   1      31.244  26.156  26.090  1.00  0.00     0.014 A 
ATOM     93  C   UNL A   1      33.928  26.434  25.366  1.00  0.00     0.007 A 
ATOM     94  C   UNL A   1      31.753  27.413  25.750  1.00  0.00     0.007 A 
ATOM     95  C   UNL A   1      33.094  27.561  25.370  1.00  0.00    -0.023 A 
BRANCH  95  96
ATOM     96  C   UNL A   1      33.652  28.915  25.021  1.00  0.00     0.191 C 
BRANCH  96  97
ATOM     97  O   UNL A   1      34.004  29.633  26.197  1.00  0.00    -0.392 OA
ATOM     98  H   UNL A   1      34.155  30.564  25.974  1.00  0.00     0.211 HD
ENDBRANCH  96  97
ENDBRANCH  95  96
ENDBRANCH  87  90
ENDBRANCH  85  86
ENDBRANCH  84  85
ENDBRANCH  77  80
ENDBRANCH   1  76
TORSDOF 18
ENDMDL
