MODEL 1
REMARK VINA RESULT:     -11.6      0.000      0.000
REMARK SMILES CC(=O)N[C@@H](C)C(=O)N[C@H](C(=O)NCCCNC(=O)c1ccc(-c2c3nc(c(-c4c(F)cc(S(=O)(=O)[O-])cc4F)c4ccc([nH]4)c(-c4c(F)cc(S(=O)(=O)[O-])cc4F)c4nc(c(-c5c(F)cc(S(=O)(=O)[O-])cc5F)c5ccc2[nH]5)C=C4)C=C3)cc1)C(C)C
REMARK SMILES IDX 15 1 14 2 13 3 11 4 12 5 10 7 9 8 7 9 8 10 5 12 6 13 4 14
REMARK SMILES IDX 1 15 2 16 3 17 86 19 87 20 88 21 16 22 17 23 18 24 19 26
REMARK SMILES IDX 20 27 21 28 85 29 22 30 84 31 23 32 24 33 25 34 78 35 26 36
REMARK SMILES IDX 83 37 77 38 79 39 27 40 82 41 76 42 75 43 28 45 62 46 41 47
REMARK SMILES IDX 61 48 42 49 45 50 60 51 80 52 43 53 44 54 59 56 81 57 46 58
REMARK SMILES IDX 29 59 30 60 39 61 31 62 32 63 38 64 40 65 33 66 34 67 35 68
REMARK SMILES IDX 36 69 37 70 63 71 64 72 73 73 65 74 66 75 72 76 74 77 67 78
REMARK SMILES IDX 68 79 69 80 70 81 71 82 47 83 48 84 57 85 49 86 50 87 56 88
REMARK SMILES IDX 58 89 51 90 52 91 53 92 54 93 55 94
REMARK H PARENT 13 6 9 11 4 18 17 25 79 44 45 55
REMARK Flexibility Score: inf
ROOT
ATOM      1  C   UNL A   1      34.007  29.107  27.230  1.00  0.00     0.042 C 
ENDROOT
BRANCH   1   2
ATOM      2  C   UNL A   1      33.004  30.022  26.513  1.00  0.00     0.117 C 
BRANCH   2   3
ATOM      3  N   UNL A   1      33.073  29.854  25.079  1.00  0.00    -0.354 N 
ATOM      4  C   UNL A   1      32.477  29.054  24.173  1.00  0.00     0.242 C 
ATOM      5  O   UNL A   1      33.144  28.955  23.143  1.00  0.00    -0.273 OA
ATOM      6  H   UNL A   1      33.713  30.476  24.663  1.00  0.00     0.163 HD
BRANCH   4   7
ATOM      7  C   UNL A   1      31.062  28.429  24.311  1.00  0.00     0.173 C 
BRANCH   7   8
ATOM      8  N   UNL A   1      30.337  28.412  22.991  1.00  0.00    -0.342 N 
ATOM      9  C   UNL A   1      29.708  29.465  22.358  1.00  0.00     0.242 C 
ATOM     10  O   UNL A   1      30.255  29.924  21.348  1.00  0.00    -0.273 OA
ATOM     11  H   UNL A   1      30.308  27.547  22.524  1.00  0.00     0.164 HD
BRANCH   9  12
ATOM     12  C   UNL A   1      28.382  30.078  22.874  1.00  0.00     0.168 C 
ATOM     13  C   UNL A   1      27.315  29.024  23.157  1.00  0.00     0.041 C 
BRANCH  12  14
ATOM     14  N   UNL A   1      27.957  31.120  21.942  1.00  0.00    -0.345 N 
ATOM     15  C   UNL A   1      28.885  33.068  23.114  1.00  0.00     0.114 C 
ATOM     16  C   UNL A   1      28.140  32.463  21.961  1.00  0.00     0.217 C 
ATOM     17  O   UNL A   1      27.697  33.154  21.044  1.00  0.00    -0.275 OA
ATOM     18  H   UNL A   1      27.449  30.789  21.166  1.00  0.00     0.164 HD
ENDBRANCH  12  14
ENDBRANCH   9  12
ENDBRANCH   7   8
BRANCH   7  19
ATOM     19  C   UNL A   1      30.864  27.052  25.007  1.00  0.00     0.015 C 
ATOM     20  C   UNL A   1      29.606  26.296  24.617  1.00  0.00     0.010 C 
ATOM     21  C   UNL A   1      32.068  26.129  24.721  1.00  0.00     0.010 C 
ENDBRANCH   7  19
ENDBRANCH   4   7
ENDBRANCH   2   3
ENDBRANCH   1   2
BRANCH   1  22
ATOM     22  C   UNL A   1      35.341  29.764  27.594  1.00  0.00     0.118 C 
BRANCH  22  23
ATOM     23  N   UNL A   1      35.290  30.431  28.883  1.00  0.00    -0.352 N 
ATOM     24  C   UNL A   1      36.255  30.472  29.858  1.00  0.00     0.251 C 
ATOM     25  H   UNL A   1      34.458  30.917  29.082  1.00  0.00     0.163 HD
ATOM     26  O   UNL A   1      35.960  30.854  30.994  1.00  0.00    -0.269 OA
BRANCH  24  27
ATOM     27  C   UNL A   1      37.636  30.042  29.555  1.00  0.00     0.039 A 
ATOM     28  C   UNL A   1      38.462  29.607  30.594  1.00  0.00     0.014 A 
ATOM     29  C   UNL A   1      38.125  30.094  28.246  1.00  0.00     0.014 A 
ATOM     30  C   UNL A   1      39.765  29.182  30.314  1.00  0.00     0.010 A 
ATOM     31  C   UNL A   1      39.395  29.600  27.959  1.00  0.00     0.010 A 
ATOM     32  C   UNL A   1      40.236  29.157  28.992  1.00  0.00    -0.014 A 
BRANCH  32  33
ATOM     33  C   UNL A   1      41.622  28.733  28.661  1.00  0.00     0.031 A 
ATOM     34  C   UNL A   1      42.722  29.762  28.627  1.00  0.00     0.074 A 
ATOM     35  C   UNL A   1      41.882  27.455  28.321  1.00  0.00     0.049 A 
ATOM     36  N   UNL A   1      43.959  29.640  28.222  1.00  0.00    -0.248 NA
ATOM     37  C   UNL A   1      42.369  31.119  29.078  1.00  0.00     0.031 C 
ATOM     38  C   UNL A   1      40.902  26.369  28.287  1.00  0.00     0.029 A 
ATOM     39  N   UNL A   1      43.053  26.858  27.920  1.00  0.00    -0.354 N 
ATOM     40  C   UNL A   1      44.521  30.907  28.337  1.00  0.00     0.074 A 
ATOM     41  C   UNL A   1      43.478  31.792  28.808  1.00  0.00     0.031 C 
ATOM     42  C   UNL A   1      41.512  25.237  27.899  1.00  0.00     0.029 A 
ATOM     43  C   UNL A   1      42.916  25.524  27.616  1.00  0.00     0.049 A 
ATOM     44  H   UNL A   1      43.908  27.340  27.854  1.00  0.00     0.167 HD
ATOM     45  C   UNL A   1      45.795  31.296  28.090  1.00  0.00     0.037 A 
ATOM     46  C   UNL A   1      43.816  24.636  27.150  1.00  0.00     0.037 A 
ATOM     47  C   UNL A   1      46.840  30.403  27.668  1.00  0.00     0.049 A 
ATOM     48  C   UNL A   1      45.232  25.083  26.902  1.00  0.00     0.074 A 
ATOM     49  C   UNL A   1      48.176  30.686  27.443  1.00  0.00     0.029 A 
ATOM     50  N   UNL A   1      46.669  29.050  27.417  1.00  0.00    -0.354 N 
ATOM     51  N   UNL A   1      45.754  26.278  27.047  1.00  0.00    -0.248 NA
ATOM     52  C   UNL A   1      46.183  24.065  26.431  1.00  0.00     0.031 C 
ATOM     53  C   UNL A   1      48.807  29.509  27.029  1.00  0.00     0.029 A 
ATOM     54  C   UNL A   1      47.874  28.485  27.034  1.00  0.00     0.049 A 
ATOM     55  H   UNL A   1      45.818  28.562  27.499  1.00  0.00     0.167 HD
ATOM     56  C   UNL A   1      47.099  26.148  26.719  1.00  0.00     0.074 A 
ATOM     57  C   UNL A   1      47.311  24.760  26.366  1.00  0.00     0.031 C 
ATOM     58  C   UNL A   1      48.070  27.093  26.712  1.00  0.00     0.037 A 
BRANCH  45  59
ATOM     59  C   UNL A   1      46.125  32.752  28.276  1.00  0.00     0.058 A 
ATOM     60  C   UNL A   1      45.966  33.683  27.238  1.00  0.00     0.135 A 
ATOM     61  C   UNL A   1      46.591  33.224  29.514  1.00  0.00     0.135 A 
ATOM     62  F   UNL A   1      45.539  33.282  26.030  1.00  0.00    -0.206 F 
ATOM     63  C   UNL A   1      46.293  35.024  27.407  1.00  0.00     0.059 A 
ATOM     64  C   UNL A   1      46.897  34.568  29.714  1.00  0.00     0.059 A 
ATOM     65  F   UNL A   1      46.760  32.378  30.542  1.00  0.00    -0.206 F 
ATOM     66  C   UNL A   1      46.762  35.456  28.648  1.00  0.00     0.060 A 
BRANCH  66  67
ATOM     67  S   UNL A   1      47.192  37.198  28.851  1.00  0.00     0.124 S 
ATOM     68  O   UNL A   1      48.648  37.150  28.752  1.00  0.00    -0.237 OA
ATOM     69  O   UNL A   1      46.502  37.824  27.729  1.00  0.00    -0.237 OA
ATOM     70  O   UNL A   1      46.663  37.527  30.171  1.00  0.00    -0.744 OA
ENDBRANCH  66  67
ENDBRANCH  45  59
BRANCH  46  71
ATOM     71  C   UNL A   1      43.410  23.225  26.911  1.00  0.00     0.058 A 
ATOM     72  C   UNL A   1      43.273  22.727  25.607  1.00  0.00     0.135 A 
ATOM     73  C   UNL A   1      43.174  22.342  27.977  1.00  0.00     0.135 A 
ATOM     74  F   UNL A   1      43.482  23.534  24.557  1.00  0.00    -0.206 F 
ATOM     75  C   UNL A   1      42.907  21.407  25.366  1.00  0.00     0.059 A 
ATOM     76  C   UNL A   1      42.828  21.012  27.760  1.00  0.00     0.059 A 
ATOM     77  F   UNL A   1      43.308  22.765  29.244  1.00  0.00    -0.206 F 
ATOM     78  C   UNL A   1      42.690  20.555  26.450  1.00  0.00     0.060 A 
BRANCH  78  79
ATOM     79  S   UNL A   1      42.275  18.828  26.126  1.00  0.00     0.124 S 
ATOM     80  O   UNL A   1      42.493  18.222  27.434  1.00  0.00    -0.237 OA
ATOM     81  O   UNL A   1      40.885  18.923  25.688  1.00  0.00    -0.237 OA
ATOM     82  O   UNL A   1      43.225  18.446  25.085  1.00  0.00    -0.744 OA
ENDBRANCH  78  79
ENDBRANCH  46  71
BRANCH  58  83
ATOM     83  C   UNL A   1      49.466  26.660  26.365  1.00  0.00     0.058 A 
ATOM     84  C   UNL A   1      49.975  26.785  25.064  1.00  0.00     0.135 A 
ATOM     85  C   UNL A   1      50.331  26.198  27.370  1.00  0.00     0.135 A 
ATOM     86  F   UNL A   1      49.185  27.215  24.068  1.00  0.00    -0.206 F 
ATOM     87  C   UNL A   1      51.295  26.461  24.769  1.00  0.00     0.059 A 
ATOM     88  C   UNL A   1      51.661  25.890  27.101  1.00  0.00     0.059 A 
ATOM     89  F   UNL A   1      49.894  26.070  28.632  1.00  0.00    -0.206 F 
ATOM     90  C   UNL A   1      52.133  26.020  25.797  1.00  0.00     0.060 A 
BRANCH  90  91
ATOM     91  S   UNL A   1      53.861  25.668  25.414  1.00  0.00     0.124 S 
ATOM     92  O   UNL A   1      53.823  25.553  23.961  1.00  0.00    -0.237 OA
ATOM     93  O   UNL A   1      54.546  26.845  25.940  1.00  0.00    -0.237 OA
ATOM     94  O   UNL A   1      54.122  24.426  26.136  1.00  0.00    -0.744 OA
ENDBRANCH  90  91
ENDBRANCH  58  83
ENDBRANCH  32  33
ENDBRANCH  24  27
ENDBRANCH  22  23
ENDBRANCH   1  22
TORSDOF 17
ENDMDL
MODEL 2
REMARK VINA RESULT:     -11.4      3.441      5.233
REMARK SMILES CC(=O)N[C@@H](C)C(=O)N[C@H](C(=O)NCCCNC(=O)c1ccc(-c2c3nc(c(-c4c(F)cc(S(=O)(=O)[O-])cc4F)c4ccc([nH]4)c(-c4c(F)cc(S(=O)(=O)[O-])cc4F)c4nc(c(-c5c(F)cc(S(=O)(=O)[O-])cc5F)c5ccc2[nH]5)C=C4)C=C3)cc1)C(C)C
REMARK SMILES IDX 15 1 14 2 13 3 11 4 12 5 10 7 9 8 7 9 8 10 5 12 6 13 4 14
REMARK SMILES IDX 1 15 2 16 3 17 86 19 87 20 88 21 16 22 17 23 18 24 19 26
REMARK SMILES IDX 20 27 21 28 85 29 22 30 84 31 23 32 24 33 25 34 78 35 26 36
REMARK SMILES IDX 83 37 77 38 79 39 27 40 82 41 76 42 75 43 28 45 62 46 41 47
REMARK SMILES IDX 61 48 42 49 45 50 60 51 80 52 43 53 44 54 59 56 81 57 46 58
REMARK SMILES IDX 29 59 30 60 39 61 31 62 32 63 38 64 40 65 33 66 34 67 35 68
REMARK SMILES IDX 36 69 37 70 63 71 64 72 73 73 65 74 66 75 72 76 74 77 67 78
REMARK SMILES IDX 68 79 69 80 70 81 71 82 47 83 48 84 57 85 49 86 50 87 56 88
REMARK SMILES IDX 58 89 51 90 52 91 53 92 54 93 55 94
REMARK H PARENT 13 6 9 11 4 18 17 25 79 44 45 55
REMARK Flexibility Score: inf
ROOT
ATOM      1  C   UNL A   1      33.974  27.860  25.348  1.00  0.00     0.042 C 
ENDROOT
BRANCH   1   2
ATOM      2  C   UNL A   1      33.180  26.634  24.878  1.00  0.00     0.117 C 
BRANCH   2   3
ATOM      3  N   UNL A   1      32.702  25.857  26.000  1.00  0.00    -0.354 N 
ATOM      4  C   UNL A   1      32.136  24.644  26.160  1.00  0.00     0.242 C 
ATOM      5  O   UNL A   1      31.502  24.571  27.212  1.00  0.00    -0.273 OA
ATOM      6  H   UNL A   1      32.817  26.329  26.855  1.00  0.00     0.163 HD
BRANCH   4   7
ATOM      7  C   UNL A   1      32.347  23.418  25.230  1.00  0.00     0.173 C 
BRANCH   7   8
ATOM      8  N   UNL A   1      32.578  22.158  26.024  1.00  0.00    -0.342 N 
ATOM      9  C   UNL A   1      33.763  21.473  26.200  1.00  0.00     0.242 C 
ATOM     10  O   UNL A   1      34.291  21.537  27.315  1.00  0.00    -0.273 OA
ATOM     11  H   UNL A   1      31.788  21.779  26.472  1.00  0.00     0.164 HD
BRANCH   9  12
ATOM     12  C   UNL A   1      34.436  20.665  25.062  1.00  0.00     0.168 C 
ATOM     13  C   UNL A   1      33.802  19.291  24.860  1.00  0.00     0.041 C 
BRANCH  12  14
ATOM     14  N   UNL A   1      35.876  20.626  25.308  1.00  0.00    -0.345 N 
ATOM     15  C   UNL A   1      36.561  22.427  23.787  1.00  0.00     0.114 C 
ATOM     16  C   UNL A   1      36.888  21.369  24.798  1.00  0.00     0.217 C 
ATOM     17  O   UNL A   1      38.043  21.165  25.169  1.00  0.00    -0.275 OA
ATOM     18  H   UNL A   1      36.159  19.940  25.956  1.00  0.00     0.164 HD
ENDBRANCH  12  14
ENDBRANCH   9  12
ENDBRANCH   7   8
BRANCH   7  19
ATOM     19  C   UNL A   1      31.346  23.108  24.081  1.00  0.00     0.015 C 
ATOM     20  C   UNL A   1      30.591  24.305  23.530  1.00  0.00     0.010 C 
ATOM     21  C   UNL A   1      32.079  22.437  22.899  1.00  0.00     0.010 C 
ENDBRANCH   7  19
ENDBRANCH   4   7
ENDBRANCH   2   3
ENDBRANCH   1   2
BRANCH   1  22
ATOM     22  C   UNL A   1      33.977  28.091  26.862  1.00  0.00     0.118 C 
BRANCH  22  23
ATOM     23  N   UNL A   1      33.738  29.482  27.204  1.00  0.00    -0.352 N 
ATOM     24  C   UNL A   1      34.539  30.331  27.926  1.00  0.00     0.251 C 
ATOM     25  H   UNL A   1      32.893  29.866  26.875  1.00  0.00     0.163 HD
ATOM     26  O   UNL A   1      34.077  31.393  28.352  1.00  0.00    -0.269 OA
BRANCH  24  27
ATOM     27  C   UNL A   1      35.943  29.966  28.209  1.00  0.00     0.039 A 
ATOM     28  C   UNL A   1      36.281  29.469  29.469  1.00  0.00     0.014 A 
ATOM     29  C   UNL A   1      36.931  30.139  27.235  1.00  0.00     0.014 A 
ATOM     30  C   UNL A   1      37.604  29.105  29.741  1.00  0.00     0.010 A 
ATOM     31  C   UNL A   1      38.232  29.705  27.482  1.00  0.00     0.010 A 
ATOM     32  C   UNL A   1      38.587  29.202  28.743  1.00  0.00    -0.014 A 
BRANCH  32  33
ATOM     33  C   UNL A   1      40.007  28.846  29.003  1.00  0.00     0.031 A 
ATOM     34  C   UNL A   1      40.942  29.889  29.558  1.00  0.00     0.074 A 
ATOM     35  C   UNL A   1      40.475  27.624  28.677  1.00  0.00     0.049 A 
ATOM     36  N   UNL A   1      42.238  29.839  29.719  1.00  0.00    -0.248 NA
ATOM     37  C   UNL A   1      40.337  31.172  29.952  1.00  0.00     0.031 C 
ATOM     38  C   UNL A   1      39.680  26.535  28.107  1.00  0.00     0.029 A 
ATOM     39  N   UNL A   1      41.742  27.101  28.762  1.00  0.00    -0.354 N 
ATOM     40  C   UNL A   1      42.608  31.090  30.199  1.00  0.00     0.074 A 
ATOM     41  C   UNL A   1      41.406  31.892  30.262  1.00  0.00     0.031 C 
ATOM     42  C   UNL A   1      40.474  25.471  27.904  1.00  0.00     0.029 A 
ATOM     43  C   UNL A   1      41.841  25.813  28.290  1.00  0.00     0.049 A 
ATOM     44  H   UNL A   1      42.508  27.602  29.125  1.00  0.00     0.167 HD
ATOM     45  C   UNL A   1      43.835  31.528  30.571  1.00  0.00     0.037 A 
ATOM     46  C   UNL A   1      42.913  25.005  28.169  1.00  0.00     0.037 A 
ATOM     47  C   UNL A   1      45.019  30.712  30.552  1.00  0.00     0.049 A 
ATOM     48  C   UNL A   1      44.263  25.504  28.609  1.00  0.00     0.074 A 
ATOM     49  C   UNL A   1      46.299  31.042  30.960  1.00  0.00     0.029 A 
ATOM     50  N   UNL A   1      45.065  29.398  30.111  1.00  0.00    -0.354 N 
ATOM     51  N   UNL A   1      44.590  26.679  29.091  1.00  0.00    -0.248 NA
ATOM     52  C   UNL A   1      45.392  24.568  28.492  1.00  0.00     0.031 C 
ATOM     53  C   UNL A   1      47.126  29.937  30.739  1.00  0.00     0.029 A 
ATOM     54  C   UNL A   1      46.354  28.905  30.231  1.00  0.00     0.049 A 
ATOM     55  H   UNL A   1      44.296  28.890  29.764  1.00  0.00     0.167 HD
ATOM     56  C   UNL A   1      45.951  26.613  29.366  1.00  0.00     0.074 A 
ATOM     57  C   UNL A   1      46.389  25.283  28.996  1.00  0.00     0.031 C 
ATOM     58  C   UNL A   1      46.764  27.568  29.881  1.00  0.00     0.037 A 
BRANCH  45  59
ATOM     59  C   UNL A   1      43.953  32.954  31.035  1.00  0.00     0.058 A 
ATOM     60  C   UNL A   1      43.657  33.326  32.356  1.00  0.00     0.135 A 
ATOM     61  C   UNL A   1      44.384  33.958  30.153  1.00  0.00     0.135 A 
ATOM     62  F   UNL A   1      43.225  32.409  33.237  1.00  0.00    -0.206 F 
ATOM     63  C   UNL A   1      43.746  34.649  32.776  1.00  0.00     0.059 A 
ATOM     64  C   UNL A   1      44.508  35.283  30.560  1.00  0.00     0.059 A 
ATOM     65  F   UNL A   1      44.682  33.656  28.879  1.00  0.00    -0.206 F 
ATOM     66  C   UNL A   1      44.169  35.622  31.869  1.00  0.00     0.060 A 
BRANCH  66  67
ATOM     67  S   UNL A   1      44.271  37.336  32.425  1.00  0.00     0.124 S 
ATOM     68  O   UNL A   1      45.706  37.479  32.656  1.00  0.00    -0.237 OA
ATOM     69  O   UNL A   1      43.738  38.069  31.282  1.00  0.00    -0.237 OA
ATOM     70  O   UNL A   1      43.438  37.355  33.623  1.00  0.00    -0.744 OA
ENDBRANCH  66  67
ENDBRANCH  45  59
BRANCH  46  71
ATOM     71  C   UNL A   1      42.746  23.629  27.631  1.00  0.00     0.058 A 
ATOM     72  C   UNL A   1      42.468  22.552  28.485  1.00  0.00     0.135 A 
ATOM     73  C   UNL A   1      42.841  23.366  26.255  1.00  0.00     0.135 A 
ATOM     74  F   UNL A   1      42.375  22.752  29.807  1.00  0.00    -0.206 F 
ATOM     75  C   UNL A   1      42.297  21.260  27.996  1.00  0.00     0.059 A 
ATOM     76  C   UNL A   1      42.652  22.087  25.741  1.00  0.00     0.059 A 
ATOM     77  F   UNL A   1      43.090  24.366  25.395  1.00  0.00    -0.206 F 
ATOM     78  C   UNL A   1      42.387  21.039  26.621  1.00  0.00     0.060 A 
BRANCH  78  79
ATOM     79  S   UNL A   1      42.103  19.370  25.992  1.00  0.00     0.124 S 
ATOM     80  O   UNL A   1      40.661  19.379  25.775  1.00  0.00    -0.237 OA
ATOM     81  O   UNL A   1      42.931  19.350  24.789  1.00  0.00    -0.237 OA
ATOM     82  O   UNL A   1      42.573  18.518  27.080  1.00  0.00    -0.744 OA
ENDBRANCH  78  79
ENDBRANCH  46  71
BRANCH  58  83
ATOM     83  C   UNL A   1      48.200  27.204  30.130  1.00  0.00     0.058 A 
ATOM     84  C   UNL A   1      49.199  27.451  29.177  1.00  0.00     0.135 A 
ATOM     85  C   UNL A   1      48.590  26.684  31.375  1.00  0.00     0.135 A 
ATOM     86  F   UNL A   1      48.875  27.941  27.970  1.00  0.00    -0.206 F 
ATOM     87  C   UNL A   1      50.538  27.190  29.448  1.00  0.00     0.059 A 
ATOM     88  C   UNL A   1      49.926  26.437  31.674  1.00  0.00     0.059 A 
ATOM     89  F   UNL A   1      47.673  26.439  32.323  1.00  0.00    -0.206 F 
ATOM     90  C   UNL A   1      50.893  26.689  30.703  1.00  0.00     0.060 A 
BRANCH  90  91
ATOM     91  S   UNL A   1      52.640  26.417  31.066  1.00  0.00     0.124 S 
ATOM     92  O   UNL A   1      53.208  26.324  29.725  1.00  0.00    -0.237 OA
ATOM     93  O   UNL A   1      52.993  27.614  31.822  1.00  0.00    -0.237 OA
ATOM     94  O   UNL A   1      52.638  25.176  31.835  1.00  0.00    -0.744 OA
ENDBRANCH  90  91
ENDBRANCH  58  83
ENDBRANCH  32  33
ENDBRANCH  24  27
ENDBRANCH  22  23
ENDBRANCH   1  22
TORSDOF 17
ENDMDL
MODEL 3
REMARK VINA RESULT:     -11.0      2.949      4.484
REMARK SMILES CC(=O)N[C@@H](C)C(=O)N[C@H](C(=O)NCCCNC(=O)c1ccc(-c2c3nc(c(-c4c(F)cc(S(=O)(=O)[O-])cc4F)c4ccc([nH]4)c(-c4c(F)cc(S(=O)(=O)[O-])cc4F)c4nc(c(-c5c(F)cc(S(=O)(=O)[O-])cc5F)c5ccc2[nH]5)C=C4)C=C3)cc1)C(C)C
REMARK SMILES IDX 15 1 14 2 13 3 11 4 12 5 10 7 9 8 7 9 8 10 5 12 6 13 4 14
REMARK SMILES IDX 1 15 2 16 3 17 86 19 87 20 88 21 16 22 17 23 18 24 19 26
REMARK SMILES IDX 20 27 21 28 85 29 22 30 84 31 23 32 24 33 25 34 78 35 26 36
REMARK SMILES IDX 83 37 77 38 79 39 27 40 82 41 76 42 75 43 28 45 62 46 41 47
REMARK SMILES IDX 61 48 42 49 45 50 60 51 80 52 43 53 44 54 59 56 81 57 46 58
REMARK SMILES IDX 29 59 30 60 39 61 31 62 32 63 38 64 40 65 33 66 34 67 35 68
REMARK SMILES IDX 36 69 37 70 63 71 64 72 73 73 65 74 66 75 72 76 74 77 67 78
REMARK SMILES IDX 68 79 69 80 70 81 71 82 47 83 48 84 57 85 49 86 50 87 56 88
REMARK SMILES IDX 58 89 51 90 52 91 53 92 54 93 55 94
REMARK H PARENT 13 6 9 11 4 18 17 25 79 44 45 55
REMARK Flexibility Score: inf
ROOT
ATOM      1  C   UNL A   1      34.028  28.312  25.338  1.00  0.00     0.042 C 
ENDROOT
BRANCH   1   2
ATOM      2  C   UNL A   1      32.828  28.903  24.585  1.00  0.00     0.117 C 
BRANCH   2   3
ATOM      3  N   UNL A   1      32.582  28.193  23.350  1.00  0.00    -0.354 N 
ATOM      4  C   UNL A   1      32.305  26.919  23.010  1.00  0.00     0.242 C 
ATOM      5  O   UNL A   1      32.603  26.683  21.839  1.00  0.00    -0.273 OA
ATOM      6  H   UNL A   1      32.630  28.785  22.566  1.00  0.00     0.163 HD
BRANCH   4   7
ATOM      7  C   UNL A   1      31.572  25.884  23.906  1.00  0.00     0.173 C 
BRANCH   7   8
ATOM      8  N   UNL A   1      32.540  25.118  24.769  1.00  0.00    -0.342 N 
ATOM      9  C   UNL A   1      33.670  24.432  24.371  1.00  0.00     0.242 C 
ATOM     10  O   UNL A   1      34.763  24.930  24.660  1.00  0.00    -0.273 OA
ATOM     11  H   UNL A   1      32.345  25.107  25.733  1.00  0.00     0.164 HD
BRANCH   9  12
ATOM     12  C   UNL A   1      33.602  23.102  23.580  1.00  0.00     0.168 C 
ATOM     13  C   UNL A   1      33.366  23.314  22.087  1.00  0.00     0.041 C 
BRANCH  12  14
ATOM     14  N   UNL A   1      32.621  22.229  24.220  1.00  0.00    -0.345 N 
ATOM     15  C   UNL A   1      34.110  20.370  24.818  1.00  0.00     0.114 C 
ATOM     16  C   UNL A   1      32.754  21.012  24.801  1.00  0.00     0.217 C 
ATOM     17  O   UNL A   1      31.773  20.460  25.298  1.00  0.00    -0.275 OA
ATOM     18  H   UNL A   1      31.703  22.588  24.231  1.00  0.00     0.164 HD
ENDBRANCH  12  14
ENDBRANCH   9  12
ENDBRANCH   7   8
BRANCH   7  19
ATOM     19  C   UNL A   1      30.353  26.304  24.775  1.00  0.00     0.015 C 
ATOM     20  C   UNL A   1      29.034  26.437  24.033  1.00  0.00     0.010 C 
ATOM     21  C   UNL A   1      30.139  25.295  25.923  1.00  0.00     0.010 C 
ENDBRANCH   7  19
ENDBRANCH   4   7
ENDBRANCH   2   3
ENDBRANCH   1   2
BRANCH   1  22
ATOM     22  C   UNL A   1      33.937  28.386  26.865  1.00  0.00     0.118 C 
BRANCH  22  23
ATOM     23  N   UNL A   1      33.693  29.738  27.335  1.00  0.00    -0.352 N 
ATOM     24  C   UNL A   1      34.492  30.518  28.132  1.00  0.00     0.251 C 
ATOM     25  H   UNL A   1      32.847  30.147  27.043  1.00  0.00     0.163 HD
ATOM     26  O   UNL A   1      34.026  31.535  28.656  1.00  0.00    -0.269 OA
BRANCH  24  27
ATOM     27  C   UNL A   1      35.897  30.134  28.380  1.00  0.00     0.039 A 
ATOM     28  C   UNL A   1      36.266  29.663  29.642  1.00  0.00     0.014 A 
ATOM     29  C   UNL A   1      36.857  30.263  27.371  1.00  0.00     0.014 A 
ATOM     30  C   UNL A   1      37.590  29.279  29.880  1.00  0.00     0.010 A 
ATOM     31  C   UNL A   1      38.156  29.811  27.588  1.00  0.00     0.010 A 
ATOM     32  C   UNL A   1      38.543  29.332  28.850  1.00  0.00    -0.014 A 
BRANCH  32  33
ATOM     33  C   UNL A   1      39.963  28.955  29.074  1.00  0.00     0.031 A 
ATOM     34  C   UNL A   1      40.928  29.987  29.597  1.00  0.00     0.074 A 
ATOM     35  C   UNL A   1      40.403  27.725  28.744  1.00  0.00     0.049 A 
ATOM     36  N   UNL A   1      42.228  29.918  29.723  1.00  0.00    -0.248 NA
ATOM     37  C   UNL A   1      40.355  31.283  29.997  1.00  0.00     0.031 C 
ATOM     38  C   UNL A   1      39.576  26.645  28.203  1.00  0.00     0.029 A 
ATOM     39  N   UNL A   1      41.663  27.183  28.798  1.00  0.00    -0.354 N 
ATOM     40  C   UNL A   1      42.630  31.167  30.184  1.00  0.00     0.074 A 
ATOM     41  C   UNL A   1      41.443  31.987  30.274  1.00  0.00     0.031 C 
ATOM     42  C   UNL A   1      40.348  25.566  27.987  1.00  0.00     0.029 A 
ATOM     43  C   UNL A   1      41.729  25.890  28.333  1.00  0.00     0.049 A 
ATOM     44  H   UNL A   1      42.446  27.673  29.137  1.00  0.00     0.167 HD
ATOM     45  C   UNL A   1      43.873  31.587  30.520  1.00  0.00     0.037 A 
ATOM     46  C   UNL A   1      42.785  25.064  28.189  1.00  0.00     0.037 A 
ATOM     47  C   UNL A   1      45.043  30.752  30.475  1.00  0.00     0.049 A 
ATOM     48  C   UNL A   1      44.154  25.544  28.589  1.00  0.00     0.074 A 
ATOM     49  C   UNL A   1      46.339  31.065  30.845  1.00  0.00     0.029 A 
ATOM     50  N   UNL A   1      45.057  29.435  30.042  1.00  0.00    -0.354 N 
ATOM     51  N   UNL A   1      44.512  26.718  29.053  1.00  0.00    -0.248 NA
ATOM     52  C   UNL A   1      45.265  24.590  28.448  1.00  0.00     0.031 C 
ATOM     53  C   UNL A   1      47.142  29.945  30.610  1.00  0.00     0.029 A 
ATOM     54  C   UNL A   1      46.341  28.922  30.130  1.00  0.00     0.049 A 
ATOM     55  H   UNL A   1      44.272  28.937  29.719  1.00  0.00     0.167 HD
ATOM     56  C   UNL A   1      45.879  26.632  29.292  1.00  0.00     0.074 A 
ATOM     57  C   UNL A   1      46.285  25.293  28.920  1.00  0.00     0.031 C 
ATOM     58  C   UNL A   1      46.721  27.577  29.778  1.00  0.00     0.037 A 
BRANCH  45  59
ATOM     59  C   UNL A   1      44.026  33.014  30.970  1.00  0.00     0.058 A 
ATOM     60  C   UNL A   1      44.041  33.360  32.331  1.00  0.00     0.135 A 
ATOM     61  C   UNL A   1      44.177  34.046  30.031  1.00  0.00     0.135 A 
ATOM     62  F   UNL A   1      43.884  32.414  33.271  1.00  0.00    -0.206 F 
ATOM     63  C   UNL A   1      44.161  34.683  32.744  1.00  0.00     0.059 A 
ATOM     64  C   UNL A   1      44.327  35.374  30.422  1.00  0.00     0.059 A 
ATOM     65  F   UNL A   1      44.172  33.771  28.717  1.00  0.00    -0.206 F 
ATOM     66  C   UNL A   1      44.299  35.684  31.782  1.00  0.00     0.060 A 
BRANCH  66  67
ATOM     67  S   UNL A   1      44.444  37.397  32.331  1.00  0.00     0.124 S 
ATOM     68  O   UNL A   1      44.258  38.120  31.076  1.00  0.00    -0.237 OA
ATOM     69  O   UNL A   1      43.355  37.511  33.294  1.00  0.00    -0.237 OA
ATOM     70  O   UNL A   1      45.788  37.459  32.898  1.00  0.00    -0.744 OA
ENDBRANCH  66  67
ENDBRANCH  45  59
BRANCH  46  71
ATOM     71  C   UNL A   1      42.582  23.687  27.665  1.00  0.00     0.058 A 
ATOM     72  C   UNL A   1      42.534  23.444  26.285  1.00  0.00     0.135 A 
ATOM     73  C   UNL A   1      42.455  22.588  28.529  1.00  0.00     0.135 A 
ATOM     74  F   UNL A   1      42.644  24.463  25.420  1.00  0.00    -0.206 F 
ATOM     75  C   UNL A   1      42.359  22.160  25.777  1.00  0.00     0.059 A 
ATOM     76  C   UNL A   1      42.301  21.293  28.045  1.00  0.00     0.059 A 
ATOM     77  F   UNL A   1      42.511  22.767  29.858  1.00  0.00    -0.206 F 
ATOM     78  C   UNL A   1      42.246  21.090  26.666  1.00  0.00     0.060 A 
BRANCH  78  79
ATOM     79  S   UNL A   1      42.080  19.421  25.996  1.00  0.00     0.124 S 
ATOM     80  O   UNL A   1      42.946  19.486  24.825  1.00  0.00    -0.237 OA
ATOM     81  O   UNL A   1      42.560  18.597  27.102  1.00  0.00    -0.237 OA
ATOM     82  O   UNL A   1      40.650  19.312  25.721  1.00  0.00    -0.744 OA
ENDBRANCH  78  79
ENDBRANCH  46  71
BRANCH  58  83
ATOM     83  C   UNL A   1      48.157  27.191  29.991  1.00  0.00     0.058 A 
ATOM     84  C   UNL A   1      49.153  27.517  29.059  1.00  0.00     0.135 A 
ATOM     85  C   UNL A   1      48.550  26.568  31.186  1.00  0.00     0.135 A 
ATOM     86  F   UNL A   1      48.826  28.108  27.899  1.00  0.00    -0.206 F 
ATOM     87  C   UNL A   1      50.493  27.233  29.302  1.00  0.00     0.059 A 
ATOM     88  C   UNL A   1      49.887  26.295  31.460  1.00  0.00     0.059 A 
ATOM     89  F   UNL A   1      47.635  26.245  32.113  1.00  0.00    -0.206 F 
ATOM     90  C   UNL A   1      50.851  26.628  30.510  1.00  0.00     0.060 A 
BRANCH  90  91
ATOM     91  S   UNL A   1      52.599  26.325  30.843  1.00  0.00     0.124 S 
ATOM     92  O   UNL A   1      52.532  25.186  31.751  1.00  0.00    -0.237 OA
ATOM     93  O   UNL A   1      53.128  26.045  29.512  1.00  0.00    -0.237 OA
ATOM     94  O   UNL A   1      53.052  27.578  31.440  1.00  0.00    -0.744 OA
ENDBRANCH  90  91
ENDBRANCH  58  83
ENDBRANCH  32  33
ENDBRANCH  24  27
ENDBRANCH  22  23
ENDBRANCH   1  22
TORSDOF 17
ENDMDL
