MODEL 1
REMARK VINA RESULT:     -13.6      0.000      0.000
REMARK SMILES Cc1cc(F)cc(-n2nc(C(=O)NCCCNC(=O)c3ccc(-c4c5nc(c(-c6c(F)cc(S(=O)(=O)[O-])cc6F)c6ccc([nH]6)c(-c6c(F)cc(S(=O)(=O)[O-])cc6F)c6nc(c(-c7c(F)cc(S(=O)(=O)[O-])cc7F)c7ccc4[nH]7)C=C6)C=C5)cc3)c3c2CC[C@H](C)C3)c1
REMARK SMILES IDX 16 1 15 2 14 3 13 4 11 5 12 6 10 8 8 9 9 10 87 11 86 12
REMARK SMILES IDX 88 13 92 14 89 15 90 16 91 17 7 18 1 19 2 20 3 21 93 22 4 23
REMARK SMILES IDX 5 24 6 25 17 26 18 27 19 29 20 30 21 31 85 32 22 33 84 34
REMARK SMILES IDX 23 35 24 36 25 37 78 38 26 39 83 40 77 41 79 42 27 43 82 44
REMARK SMILES IDX 76 45 75 46 28 48 62 49 41 50 61 51 42 52 45 53 60 54 80 55
REMARK SMILES IDX 43 56 44 57 59 59 81 60 46 61 29 62 30 63 39 64 31 65 32 66
REMARK SMILES IDX 38 67 40 68 33 69 34 70 35 71 36 72 37 73 63 74 64 75 73 76
REMARK SMILES IDX 65 77 66 78 72 79 74 80 67 81 68 82 69 83 70 84 71 85 47 86
REMARK SMILES IDX 48 87 57 88 49 89 50 90 56 91 58 92 51 93 52 94 53 95 54 96
REMARK SMILES IDX 55 97
REMARK H PARENT 13 7 17 28 79 47 45 58
REMARK Flexibility Score: inf
ROOT
ATOM      1  C   UNL A   1      33.843  28.598  27.190  1.00  0.00     0.118 C 
ENDROOT
BRANCH   1   2
ATOM      2  C   UNL A   1      33.380  28.062  25.858  1.00  0.00     0.042 C 
BRANCH   2   3
ATOM      3  C   UNL A   1      33.508  26.544  25.678  1.00  0.00     0.118 C 
BRANCH   3   4
ATOM      4  N   UNL A   1      33.651  26.157  24.285  1.00  0.00    -0.351 N 
ATOM      5  C   UNL A   1      34.160  25.073  23.602  1.00  0.00     0.272 C 
ATOM      6  O   UNL A   1      33.924  25.111  22.388  1.00  0.00    -0.267 OA
ATOM      7  H   UNL A   1      33.293  26.841  23.674  1.00  0.00     0.163 HD
BRANCH   5   8
ATOM      8  C   UNL A   1      34.903  23.922  24.198  1.00  0.00     0.154 A 
ATOM      9  N   UNL A   1      36.601  23.020  25.213  1.00  0.00    -0.237 N 
ATOM     10  N   UNL A   1      36.071  24.196  24.826  1.00  0.00    -0.162 NA
ATOM     11  C   UNL A   1      35.766  21.971  24.924  1.00  0.00     0.048 A 
ATOM     12  C   UNL A   1      34.640  22.527  24.353  1.00  0.00     0.007 A 
ATOM     13  C   UNL A   1      35.896  20.548  25.359  1.00  0.00     0.057 C 
ATOM     14  C   UNL A   1      33.449  21.704  24.093  1.00  0.00     0.043 C 
ATOM     15  C   UNL A   1      34.858  19.672  24.630  1.00  0.00     0.010 C 
ATOM     16  C   UNL A   1      33.457  20.294  24.696  1.00  0.00    -0.009 C 
ATOM     17  C   UNL A   1      32.410  19.449  23.963  1.00  0.00     0.008 C 
BRANCH   9  18
ATOM     18  C   UNL A   1      37.839  22.984  25.895  1.00  0.00     0.068 A 
ATOM     19  C   UNL A   1      39.887  25.230  28.199  1.00  0.00     0.044 C 
ATOM     20  C   UNL A   1      39.452  24.068  27.355  1.00  0.00    -0.046 A 
ATOM     21  C   UNL A   1      40.223  22.898  27.335  1.00  0.00     0.042 A 
ATOM     22  C   UNL A   1      38.274  24.121  26.595  1.00  0.00     0.032 A 
ATOM     23  C   UNL A   1      39.804  21.799  26.592  1.00  0.00     0.125 A 
ATOM     24  F   UNL A   1      40.561  20.695  26.563  1.00  0.00    -0.207 F 
ATOM     25  C   UNL A   1      38.611  21.823  25.883  1.00  0.00     0.067 A 
ENDBRANCH   9  18
ENDBRANCH   5   8
ENDBRANCH   3   4
ENDBRANCH   2   3
ENDBRANCH   1   2
BRANCH   1  26
ATOM     26  N   UNL A   1      33.533  30.021  27.338  1.00  0.00    -0.352 N 
ATOM     27  C   UNL A   1      34.351  31.011  27.853  1.00  0.00     0.251 C 
ATOM     28  H   UNL A   1      32.641  30.306  27.036  1.00  0.00     0.163 HD
ATOM     29  O   UNL A   1      33.874  32.035  28.307  1.00  0.00    -0.269 OA
BRANCH  27  30
ATOM     30  C   UNL A   1      35.807  30.769  27.859  1.00  0.00     0.039 A 
ATOM     31  C   UNL A   1      36.695  31.741  28.316  1.00  0.00     0.014 A 
ATOM     32  C   UNL A   1      36.259  29.504  27.490  1.00  0.00     0.014 A 
ATOM     33  C   UNL A   1      38.026  31.380  28.509  1.00  0.00     0.010 A 
ATOM     34  C   UNL A   1      37.519  29.101  27.856  1.00  0.00     0.010 A 
ATOM     35  C   UNL A   1      38.423  30.039  28.331  1.00  0.00    -0.014 A 
BRANCH  35  36
ATOM     36  C   UNL A   1      39.718  29.578  28.836  1.00  0.00     0.031 A 
ATOM     37  C   UNL A   1      39.793  29.630  30.321  1.00  0.00     0.074 A 
ATOM     38  C   UNL A   1      40.677  28.984  28.085  1.00  0.00     0.049 A 
ATOM     39  N   UNL A   1      40.357  30.548  31.033  1.00  0.00    -0.248 NA
ATOM     40  C   UNL A   1      38.949  28.717  31.114  1.00  0.00     0.031 C 
ATOM     41  C   UNL A   1      40.589  28.591  26.673  1.00  0.00     0.029 A 
ATOM     42  N   UNL A   1      41.914  28.519  28.439  1.00  0.00    -0.354 N 
ATOM     43  C   UNL A   1      40.227  30.124  32.352  1.00  0.00     0.074 A 
ATOM     44  C   UNL A   1      39.140  29.187  32.351  1.00  0.00     0.031 C 
ATOM     45  C   UNL A   1      41.607  27.759  26.360  1.00  0.00     0.029 A 
ATOM     46  C   UNL A   1      42.526  27.704  27.480  1.00  0.00     0.049 A 
ATOM     47  H   UNL A   1      42.340  28.742  29.299  1.00  0.00     0.167 HD
ATOM     48  C   UNL A   1      41.264  30.301  33.219  1.00  0.00     0.037 A 
ATOM     49  C   UNL A   1      43.717  27.058  27.579  1.00  0.00     0.037 A 
ATOM     50  C   UNL A   1      42.238  31.193  32.634  1.00  0.00     0.049 A 
ATOM     51  C   UNL A   1      44.501  27.763  28.618  1.00  0.00     0.074 A 
ATOM     52  C   UNL A   1      42.323  32.535  32.333  1.00  0.00     0.029 A 
ATOM     53  N   UNL A   1      43.180  30.543  31.878  1.00  0.00    -0.354 N 
ATOM     54  N   UNL A   1      44.961  28.972  28.463  1.00  0.00    -0.248 NA
ATOM     55  C   UNL A   1      44.481  27.270  29.990  1.00  0.00     0.031 C 
ATOM     56  C   UNL A   1      43.247  32.642  31.251  1.00  0.00     0.029 A 
ATOM     57  C   UNL A   1      43.753  31.377  30.962  1.00  0.00     0.049 A 
ATOM     58  H   UNL A   1      43.413  29.592  31.984  1.00  0.00     0.167 HD
ATOM     59  C   UNL A   1      44.852  29.536  29.716  1.00  0.00     0.074 A 
ATOM     60  C   UNL A   1      44.735  28.411  30.636  1.00  0.00     0.031 C 
ATOM     61  C   UNL A   1      44.514  30.850  29.851  1.00  0.00     0.037 A 
BRANCH  48  62
ATOM     62  C   UNL A   1      41.696  29.317  34.299  1.00  0.00     0.058 A 
ATOM     63  C   UNL A   1      41.999  27.988  33.914  1.00  0.00     0.135 A 
ATOM     64  C   UNL A   1      41.539  29.512  35.688  1.00  0.00     0.135 A 
ATOM     65  F   UNL A   1      42.181  27.673  32.623  1.00  0.00    -0.206 F 
ATOM     66  C   UNL A   1      42.052  26.931  34.827  1.00  0.00     0.059 A 
ATOM     67  C   UNL A   1      41.632  28.480  36.617  1.00  0.00     0.059 A 
ATOM     68  F   UNL A   1      41.206  30.691  36.221  1.00  0.00    -0.206 F 
ATOM     69  C   UNL A   1      41.854  27.187  36.177  1.00  0.00     0.060 A 
BRANCH  69  70
ATOM     70  S   UNL A   1      41.871  25.825  37.353  1.00  0.00     0.124 S 
ATOM     71  O   UNL A   1      42.863  26.284  38.318  1.00  0.00    -0.237 OA
ATOM     72  O   UNL A   1      40.486  25.808  37.811  1.00  0.00    -0.237 OA
ATOM     73  O   UNL A   1      42.267  24.682  36.535  1.00  0.00    -0.744 OA
ENDBRANCH  69  70
ENDBRANCH  48  62
BRANCH  49  74
ATOM     74  C   UNL A   1      44.220  25.801  26.965  1.00  0.00     0.058 A 
ATOM     75  C   UNL A   1      44.006  24.551  27.583  1.00  0.00     0.135 A 
ATOM     76  C   UNL A   1      44.618  25.763  25.617  1.00  0.00     0.135 A 
ATOM     77  F   UNL A   1      43.628  24.488  28.870  1.00  0.00    -0.206 F 
ATOM     78  C   UNL A   1      44.092  23.344  26.884  1.00  0.00     0.059 A 
ATOM     79  C   UNL A   1      44.715  24.568  24.898  1.00  0.00     0.059 A 
ATOM     80  F   UNL A   1      44.824  26.900  24.934  1.00  0.00    -0.206 F 
ATOM     81  C   UNL A   1      44.415  23.364  25.529  1.00  0.00     0.060 A 
BRANCH  81  82
ATOM     82  S   UNL A   1      44.302  21.831  24.571  1.00  0.00     0.124 S 
ATOM     83  O   UNL A   1      44.344  22.327  23.200  1.00  0.00    -0.237 OA
ATOM     84  O   UNL A   1      45.482  21.098  25.018  1.00  0.00    -0.237 OA
ATOM     85  O   UNL A   1      43.024  21.263  24.991  1.00  0.00    -0.744 OA
ENDBRANCH  81  82
ENDBRANCH  49  74
BRANCH  61  86
ATOM     86  C   UNL A   1      44.877  31.773  28.728  1.00  0.00     0.058 A 
ATOM     87  C   UNL A   1      44.180  31.906  27.515  1.00  0.00     0.135 A 
ATOM     88  C   UNL A   1      45.987  32.606  28.931  1.00  0.00     0.135 A 
ATOM     89  F   UNL A   1      43.061  31.205  27.279  1.00  0.00    -0.206 F 
ATOM     90  C   UNL A   1      44.606  32.798  26.528  1.00  0.00     0.059 A 
ATOM     91  C   UNL A   1      46.407  33.523  27.979  1.00  0.00     0.059 A 
ATOM     92  F   UNL A   1      46.665  32.552  30.090  1.00  0.00    -0.206 F 
ATOM     93  C   UNL A   1      45.724  33.599  26.768  1.00  0.00     0.060 A 
BRANCH  93  94
ATOM     94  S   UNL A   1      46.266  34.772  25.509  1.00  0.00     0.124 S 
ATOM     95  O   UNL A   1      45.980  36.055  26.142  1.00  0.00    -0.237 OA
ATOM     96  O   UNL A   1      47.679  34.440  25.356  1.00  0.00    -0.237 OA
ATOM     97  O   UNL A   1      45.430  34.445  24.356  1.00  0.00    -0.744 OA
ENDBRANCH  93  94
ENDBRANCH  61  86
ENDBRANCH  35  36
ENDBRANCH  27  30
ENDBRANCH   1  26
TORSDOF 14
ENDMDL
MODEL 2
REMARK VINA RESULT:     -13.6      3.432      9.987
REMARK SMILES Cc1cc(F)cc(-n2nc(C(=O)NCCCNC(=O)c3ccc(-c4c5nc(c(-c6c(F)cc(S(=O)(=O)[O-])cc6F)c6ccc([nH]6)c(-c6c(F)cc(S(=O)(=O)[O-])cc6F)c6nc(c(-c7c(F)cc(S(=O)(=O)[O-])cc7F)c7ccc4[nH]7)C=C6)C=C5)cc3)c3c2CC[C@H](C)C3)c1
REMARK SMILES IDX 16 1 15 2 14 3 13 4 11 5 12 6 10 8 8 9 9 10 87 11 86 12
REMARK SMILES IDX 88 13 92 14 89 15 90 16 91 17 7 18 1 19 2 20 3 21 93 22 4 23
REMARK SMILES IDX 5 24 6 25 17 26 18 27 19 29 20 30 21 31 85 32 22 33 84 34
REMARK SMILES IDX 23 35 24 36 25 37 78 38 26 39 83 40 77 41 79 42 27 43 82 44
REMARK SMILES IDX 76 45 75 46 28 48 62 49 41 50 61 51 42 52 45 53 60 54 80 55
REMARK SMILES IDX 43 56 44 57 59 59 81 60 46 61 29 62 30 63 39 64 31 65 32 66
REMARK SMILES IDX 38 67 40 68 33 69 34 70 35 71 36 72 37 73 63 74 64 75 73 76
REMARK SMILES IDX 65 77 66 78 72 79 74 80 67 81 68 82 69 83 70 84 71 85 47 86
REMARK SMILES IDX 48 87 57 88 49 89 50 90 56 91 58 92 51 93 52 94 53 95 54 96
REMARK SMILES IDX 55 97
REMARK H PARENT 13 7 17 28 79 47 45 58
REMARK Flexibility Score: inf
ROOT
ATOM      1  C   UNL A   1      37.196  23.874  26.134  1.00  0.00     0.118 C 
ENDROOT
BRANCH   1   2
ATOM      2  C   UNL A   1      35.818  23.408  25.737  1.00  0.00     0.042 C 
BRANCH   2   3
ATOM      3  C   UNL A   1      34.798  24.523  25.468  1.00  0.00     0.118 C 
BRANCH   3   4
ATOM      4  N   UNL A   1      34.534  24.708  24.052  1.00  0.00    -0.351 N 
ATOM      5  C   UNL A   1      33.876  25.639  23.277  1.00  0.00     0.272 C 
ATOM      6  O   UNL A   1      34.044  25.465  22.063  1.00  0.00    -0.267 OA
ATOM      7  H   UNL A   1      34.925  23.986  23.507  1.00  0.00     0.163 HD
BRANCH   5   8
ATOM      8  C   UNL A   1      33.055  26.782  23.775  1.00  0.00     0.154 A 
ATOM      9  N   UNL A   1      31.299  28.065  23.764  1.00  0.00    -0.237 N 
ATOM     10  N   UNL A   1      31.824  26.945  23.233  1.00  0.00    -0.162 NA
ATOM     11  C   UNL A   1      32.125  28.609  24.714  1.00  0.00     0.048 A 
ATOM     12  C   UNL A   1      33.213  27.765  24.800  1.00  0.00     0.007 A 
ATOM     13  C   UNL A   1      31.827  29.726  25.661  1.00  0.00     0.057 C 
ATOM     14  C   UNL A   1      34.215  27.941  25.863  1.00  0.00     0.043 C 
ATOM     15  C   UNL A   1      33.110  30.153  26.401  1.00  0.00     0.010 C 
ATOM     16  C   UNL A   1      33.857  28.939  26.970  1.00  0.00    -0.009 C 
ATOM     17  C   UNL A   1      35.145  29.338  27.697  1.00  0.00     0.008 C 
BRANCH   9  18
ATOM     18  C   UNL A   1      30.011  28.502  23.380  1.00  0.00     0.068 A 
ATOM     19  C   UNL A   1      28.460  31.152  21.117  1.00  0.00     0.044 C 
ATOM     20  C   UNL A   1      28.619  30.018  22.086  1.00  0.00    -0.046 A 
ATOM     21  C   UNL A   1      27.487  29.316  22.523  1.00  0.00     0.042 A 
ATOM     22  C   UNL A   1      29.883  29.630  22.553  1.00  0.00     0.032 A 
ATOM     23  C   UNL A   1      27.628  28.234  23.386  1.00  0.00     0.125 A 
ATOM     24  F   UNL A   1      26.536  27.586  23.815  1.00  0.00    -0.207 F 
ATOM     25  C   UNL A   1      28.879  27.808  23.807  1.00  0.00     0.067 A 
ENDBRANCH   9  18
ENDBRANCH   5   8
ENDBRANCH   3   4
ENDBRANCH   2   3
ENDBRANCH   1   2
BRANCH   1  26
ATOM     26  N   UNL A   1      38.108  22.748  26.345  1.00  0.00    -0.352 N 
ATOM     27  C   UNL A   1      39.484  22.794  26.481  1.00  0.00     0.251 C 
ATOM     28  H   UNL A   1      37.694  21.857  26.396  1.00  0.00     0.163 HD
ATOM     29  O   UNL A   1      40.164  21.813  26.239  1.00  0.00    -0.269 OA
BRANCH  27  30
ATOM     30  C   UNL A   1      40.094  24.071  26.898  1.00  0.00     0.039 A 
ATOM     31  C   UNL A   1      40.006  25.206  26.094  1.00  0.00     0.014 A 
ATOM     32  C   UNL A   1      40.670  24.136  28.165  1.00  0.00     0.014 A 
ATOM     33  C   UNL A   1      40.399  26.428  26.632  1.00  0.00     0.010 A 
ATOM     34  C   UNL A   1      40.879  25.358  28.754  1.00  0.00     0.010 A 
ATOM     35  C   UNL A   1      40.783  26.509  27.986  1.00  0.00    -0.014 A 
BRANCH  35  36
ATOM     36  C   UNL A   1      40.882  27.811  28.651  1.00  0.00     0.031 A 
ATOM     37  C   UNL A   1      42.022  28.617  28.139  1.00  0.00     0.074 A 
ATOM     38  C   UNL A   1      39.950  28.326  29.488  1.00  0.00     0.049 A 
ATOM     39  N   UNL A   1      43.178  28.758  28.696  1.00  0.00    -0.248 NA
ATOM     40  C   UNL A   1      41.979  29.120  26.753  1.00  0.00     0.031 C 
ATOM     41  C   UNL A   1      38.635  27.762  29.819  1.00  0.00     0.029 A 
ATOM     42  N   UNL A   1      39.932  29.516  30.165  1.00  0.00    -0.354 N 
ATOM     43  C   UNL A   1      43.872  29.652  27.886  1.00  0.00     0.074 A 
ATOM     44  C   UNL A   1      43.218  29.603  26.609  1.00  0.00     0.031 C 
ATOM     45  C   UNL A   1      37.871  28.693  30.430  1.00  0.00     0.029 A 
ATOM     46  C   UNL A   1      38.690  29.857  30.710  1.00  0.00     0.049 A 
ATOM     47  H   UNL A   1      40.731  30.084  30.261  1.00  0.00     0.167 HD
ATOM     48  C   UNL A   1      44.660  30.605  28.459  1.00  0.00     0.037 A 
ATOM     49  C   UNL A   1      38.360  30.995  31.375  1.00  0.00     0.037 A 
ATOM     50  C   UNL A   1      44.845  30.301  29.859  1.00  0.00     0.049 A 
ATOM     51  C   UNL A   1      39.622  31.568  31.893  1.00  0.00     0.074 A 
ATOM     52  C   UNL A   1      45.521  29.362  30.606  1.00  0.00     0.029 A 
ATOM     53  N   UNL A   1      43.872  30.840  30.661  1.00  0.00    -0.354 N 
ATOM     54  N   UNL A   1      40.328  31.004  32.832  1.00  0.00    -0.248 NA
ATOM     55  C   UNL A   1      40.312  32.597  31.122  1.00  0.00     0.031 C 
ATOM     56  C   UNL A   1      44.811  29.248  31.839  1.00  0.00     0.029 A 
ATOM     57  C   UNL A   1      43.763  30.164  31.843  1.00  0.00     0.049 A 
ATOM     58  H   UNL A   1      43.321  31.618  30.415  1.00  0.00     0.167 HD
ATOM     59  C   UNL A   1      41.633  31.266  32.476  1.00  0.00     0.074 A 
ATOM     60  C   UNL A   1      41.562  32.386  31.545  1.00  0.00     0.031 C 
ATOM     61  C   UNL A   1      42.603  30.332  32.690  1.00  0.00     0.037 A 
BRANCH  48  62
ATOM     62  C   UNL A   1      44.815  32.040  27.971  1.00  0.00     0.058 A 
ATOM     63  C   UNL A   1      46.073  32.444  27.463  1.00  0.00     0.135 A 
ATOM     64  C   UNL A   1      43.918  33.094  28.246  1.00  0.00     0.135 A 
ATOM     65  F   UNL A   1      47.011  31.536  27.152  1.00  0.00    -0.206 F 
ATOM     66  C   UNL A   1      46.437  33.786  27.327  1.00  0.00     0.059 A 
ATOM     67  C   UNL A   1      44.246  34.436  28.075  1.00  0.00     0.059 A 
ATOM     68  F   UNL A   1      42.706  32.897  28.772  1.00  0.00    -0.206 F 
ATOM     69  C   UNL A   1      45.518  34.776  27.648  1.00  0.00     0.060 A 
BRANCH  69  70
ATOM     70  S   UNL A   1      45.995  36.507  27.524  1.00  0.00     0.124 S 
ATOM     71  O   UNL A   1      47.117  36.437  26.596  1.00  0.00    -0.237 OA
ATOM     72  O   UNL A   1      44.772  37.118  27.011  1.00  0.00    -0.237 OA
ATOM     73  O   UNL A   1      46.333  36.860  28.900  1.00  0.00    -0.744 OA
ENDBRANCH  69  70
ENDBRANCH  48  62
BRANCH  49  74
ATOM     74  C   UNL A   1      37.076  31.731  31.510  1.00  0.00     0.058 A 
ATOM     75  C   UNL A   1      36.546  32.045  32.779  1.00  0.00     0.135 A 
ATOM     76  C   UNL A   1      36.522  32.425  30.420  1.00  0.00     0.135 A 
ATOM     77  F   UNL A   1      37.010  31.430  33.878  1.00  0.00    -0.206 F 
ATOM     78  C   UNL A   1      35.592  33.050  32.966  1.00  0.00     0.059 A 
ATOM     79  C   UNL A   1      35.564  33.430  30.582  1.00  0.00     0.059 A 
ATOM     80  F   UNL A   1      36.975  32.213  29.175  1.00  0.00    -0.206 F 
ATOM     81  C   UNL A   1      35.129  33.762  31.862  1.00  0.00     0.060 A 
BRANCH  81  82
ATOM     82  S   UNL A   1      34.072  35.209  32.123  1.00  0.00     0.124 S 
ATOM     83  O   UNL A   1      34.914  36.052  32.965  1.00  0.00    -0.237 OA
ATOM     84  O   UNL A   1      33.855  35.685  30.761  1.00  0.00    -0.237 OA
ATOM     85  O   UNL A   1      32.892  34.652  32.779  1.00  0.00    -0.744 OA
ENDBRANCH  81  82
ENDBRANCH  49  74
BRANCH  61  86
ATOM     86  C   UNL A   1      42.396  29.370  33.819  1.00  0.00     0.058 A 
ATOM     87  C   UNL A   1      42.568  29.654  35.184  1.00  0.00     0.135 A 
ATOM     88  C   UNL A   1      41.951  28.085  33.477  1.00  0.00     0.135 A 
ATOM     89  F   UNL A   1      42.911  30.883  35.598  1.00  0.00    -0.206 F 
ATOM     90  C   UNL A   1      42.351  28.680  36.162  1.00  0.00     0.059 A 
ATOM     91  C   UNL A   1      41.696  27.112  34.433  1.00  0.00     0.059 A 
ATOM     92  F   UNL A   1      41.728  27.769  32.190  1.00  0.00    -0.206 F 
ATOM     93  C   UNL A   1      41.919  27.409  35.775  1.00  0.00     0.060 A 
BRANCH  93  94
ATOM     94  S   UNL A   1      41.612  26.153  37.032  1.00  0.00     0.124 S 
ATOM     95  O   UNL A   1      41.496  24.939  36.230  1.00  0.00    -0.237 OA
ATOM     96  O   UNL A   1      42.803  26.249  37.871  1.00  0.00    -0.237 OA
ATOM     97  O   UNL A   1      40.376  26.601  37.668  1.00  0.00    -0.744 OA
ENDBRANCH  93  94
ENDBRANCH  61  86
ENDBRANCH  35  36
ENDBRANCH  27  30
ENDBRANCH   1  26
TORSDOF 14
ENDMDL
MODEL 3
REMARK VINA RESULT:     -13.4      2.837      9.378
REMARK SMILES Cc1cc(F)cc(-n2nc(C(=O)NCCCNC(=O)c3ccc(-c4c5nc(c(-c6c(F)cc(S(=O)(=O)[O-])cc6F)c6ccc([nH]6)c(-c6c(F)cc(S(=O)(=O)[O-])cc6F)c6nc(c(-c7c(F)cc(S(=O)(=O)[O-])cc7F)c7ccc4[nH]7)C=C6)C=C5)cc3)c3c2CC[C@H](C)C3)c1
REMARK SMILES IDX 16 1 15 2 14 3 13 4 11 5 12 6 10 8 8 9 9 10 87 11 86 12
REMARK SMILES IDX 88 13 92 14 89 15 90 16 91 17 7 18 1 19 2 20 3 21 93 22 4 23
REMARK SMILES IDX 5 24 6 25 17 26 18 27 19 29 20 30 21 31 85 32 22 33 84 34
REMARK SMILES IDX 23 35 24 36 25 37 78 38 26 39 83 40 77 41 79 42 27 43 82 44
REMARK SMILES IDX 76 45 75 46 28 48 62 49 41 50 61 51 42 52 45 53 60 54 80 55
REMARK SMILES IDX 43 56 44 57 59 59 81 60 46 61 29 62 30 63 39 64 31 65 32 66
REMARK SMILES IDX 38 67 40 68 33 69 34 70 35 71 36 72 37 73 63 74 64 75 73 76
REMARK SMILES IDX 65 77 66 78 72 79 74 80 67 81 68 82 69 83 70 84 71 85 47 86
REMARK SMILES IDX 48 87 57 88 49 89 50 90 56 91 58 92 51 93 52 94 53 95 54 96
REMARK SMILES IDX 55 97
REMARK H PARENT 13 7 17 28 79 47 45 58
REMARK Flexibility Score: inf
ROOT
ATOM      1  C   UNL A   1      40.307  21.025  26.566  1.00  0.00     0.118 C 
ENDROOT
BRANCH   1   2
ATOM      2  C   UNL A   1      39.400  20.132  25.757  1.00  0.00     0.042 C 
BRANCH   2   3
ATOM      3  C   UNL A   1      38.213  20.834  25.085  1.00  0.00     0.118 C 
BRANCH   3   4
ATOM      4  N   UNL A   1      38.053  22.208  25.527  1.00  0.00    -0.351 N 
ATOM      5  C   UNL A   1      37.028  23.130  25.554  1.00  0.00     0.272 C 
ATOM      6  O   UNL A   1      37.318  24.157  26.181  1.00  0.00    -0.267 OA
ATOM      7  H   UNL A   1      38.886  22.573  25.904  1.00  0.00     0.163 HD
BRANCH   5   8
ATOM      8  C   UNL A   1      35.675  22.967  24.943  1.00  0.00     0.154 A 
ATOM      9  N   UNL A   1      33.893  23.707  23.940  1.00  0.00    -0.237 N 
ATOM     10  N   UNL A   1      35.129  24.054  24.348  1.00  0.00    -0.162 NA
ATOM     11  C   UNL A   1      33.637  22.382  24.181  1.00  0.00     0.048 A 
ATOM     12  C   UNL A   1      34.786  21.867  24.743  1.00  0.00     0.007 A 
ATOM     13  C   UNL A   1      32.473  21.571  23.709  1.00  0.00     0.057 C 
ATOM     14  C   UNL A   1      34.933  20.419  24.955  1.00  0.00     0.043 C 
ATOM     15  C   UNL A   1      32.477  20.189  24.392  1.00  0.00     0.010 C 
ATOM     16  C   UNL A   1      33.861  19.531  24.314  1.00  0.00    -0.009 C 
ATOM     17  C   UNL A   1      33.893  18.161  25.000  1.00  0.00     0.008 C 
BRANCH   9  18
ATOM     18  C   UNL A   1      33.067  24.647  23.284  1.00  0.00     0.068 A 
ATOM     19  C   UNL A   1      30.742  27.528  24.204  1.00  0.00     0.044 C 
ATOM     20  C   UNL A   1      31.519  26.517  23.412  1.00  0.00    -0.046 A 
ATOM     21  C   UNL A   1      31.513  26.579  22.012  1.00  0.00     0.042 A 
ATOM     22  C   UNL A   1      32.270  25.517  24.046  1.00  0.00     0.032 A 
ATOM     23  C   UNL A   1      32.266  25.675  21.270  1.00  0.00     0.125 A 
ATOM     24  F   UNL A   1      32.233  25.731  19.932  1.00  0.00    -0.207 F 
ATOM     25  C   UNL A   1      33.057  24.719  21.891  1.00  0.00     0.067 A 
ENDBRANCH   9  18
ENDBRANCH   5   8
ENDBRANCH   3   4
ENDBRANCH   2   3
ENDBRANCH   1   2
BRANCH   1  26
ATOM     26  N   UNL A   1      41.556  21.312  25.859  1.00  0.00    -0.352 N 
ATOM     27  C   UNL A   1      42.169  22.542  25.699  1.00  0.00     0.251 C 
ATOM     28  H   UNL A   1      42.013  20.541  25.453  1.00  0.00     0.163 HD
ATOM     29  O   UNL A   1      42.943  22.734  24.778  1.00  0.00    -0.269 OA
BRANCH  27  30
ATOM     30  C   UNL A   1      41.829  23.612  26.656  1.00  0.00     0.039 A 
ATOM     31  C   UNL A   1      42.539  23.764  27.846  1.00  0.00     0.014 A 
ATOM     32  C   UNL A   1      40.846  24.529  26.288  1.00  0.00     0.014 A 
ATOM     33  C   UNL A   1      42.326  24.916  28.599  1.00  0.00     0.010 A 
ATOM     34  C   UNL A   1      40.775  25.741  26.928  1.00  0.00     0.010 A 
ATOM     35  C   UNL A   1      41.482  25.932  28.105  1.00  0.00    -0.014 A 
BRANCH  35  36
ATOM     36  C   UNL A   1      41.500  27.266  28.709  1.00  0.00     0.031 A 
ATOM     37  C   UNL A   1      42.622  28.099  28.198  1.00  0.00     0.074 A 
ATOM     38  C   UNL A   1      40.518  27.778  29.488  1.00  0.00     0.049 A 
ATOM     39  N   UNL A   1      43.750  28.317  28.786  1.00  0.00    -0.248 NA
ATOM     40  C   UNL A   1      42.608  28.533  26.788  1.00  0.00     0.031 C 
ATOM     41  C   UNL A   1      39.218  27.170  29.801  1.00  0.00     0.029 A 
ATOM     42  N   UNL A   1      40.424  28.996  30.105  1.00  0.00    -0.354 N 
ATOM     43  C   UNL A   1      44.433  29.203  27.957  1.00  0.00     0.074 A 
ATOM     44  C   UNL A   1      43.828  29.065  26.663  1.00  0.00     0.031 C 
ATOM     45  C   UNL A   1      38.392  28.094  30.341  1.00  0.00     0.029 A 
ATOM     46  C   UNL A   1      39.149  29.305  30.591  1.00  0.00     0.049 A 
ATOM     47  H   UNL A   1      41.193  29.604  30.201  1.00  0.00     0.167 HD
ATOM     48  C   UNL A   1      45.158  30.217  28.510  1.00  0.00     0.037 A 
ATOM     49  C   UNL A   1      38.746  30.458  31.189  1.00  0.00     0.037 A 
ATOM     50  C   UNL A   1      45.306  29.988  29.929  1.00  0.00     0.049 A 
ATOM     51  C   UNL A   1      39.963  31.111  31.720  1.00  0.00     0.074 A 
ATOM     52  C   UNL A   1      45.994  29.116  30.743  1.00  0.00     0.029 A 
ATOM     53  N   UNL A   1      44.282  30.519  30.671  1.00  0.00    -0.354 N 
ATOM     54  N   UNL A   1      40.657  30.625  32.709  1.00  0.00    -0.248 NA
ATOM     55  C   UNL A   1      40.634  32.132  30.925  1.00  0.00     0.031 C 
ATOM     56  C   UNL A   1      45.246  29.028  31.955  1.00  0.00     0.029 A 
ATOM     57  C   UNL A   1      44.160  29.896  31.879  1.00  0.00     0.049 A 
ATOM     58  H   UNL A   1      43.706  31.259  30.368  1.00  0.00     0.167 HD
ATOM     59  C   UNL A   1      41.962  30.928  32.385  1.00  0.00     0.074 A 
ATOM     60  C   UNL A   1      41.875  31.999  31.399  1.00  0.00     0.031 C 
ATOM     61  C   UNL A   1      42.964  30.050  32.678  1.00  0.00     0.037 A 
BRANCH  48  62
ATOM     62  C   UNL A   1      45.267  31.632  27.958  1.00  0.00     0.058 A 
ATOM     63  C   UNL A   1      46.551  32.122  27.616  1.00  0.00     0.135 A 
ATOM     64  C   UNL A   1      44.257  32.614  28.030  1.00  0.00     0.135 A 
ATOM     65  F   UNL A   1      47.596  31.287  27.505  1.00  0.00    -0.206 F 
ATOM     66  C   UNL A   1      46.821  33.482  27.448  1.00  0.00     0.059 A 
ATOM     67  C   UNL A   1      44.496  33.970  27.823  1.00  0.00     0.059 A 
ATOM     68  F   UNL A   1      42.999  32.337  28.385  1.00  0.00    -0.206 F 
ATOM     69  C   UNL A   1      45.786  34.401  27.567  1.00  0.00     0.060 A 
BRANCH  69  70
ATOM     70  S   UNL A   1      46.133  36.159  27.402  1.00  0.00     0.124 S 
ATOM     71  O   UNL A   1      46.981  36.401  28.562  1.00  0.00    -0.237 OA
ATOM     72  O   UNL A   1      46.791  36.214  26.101  1.00  0.00    -0.237 OA
ATOM     73  O   UNL A   1      44.806  36.767  27.451  1.00  0.00    -0.744 OA
ENDBRANCH  69  70
ENDBRANCH  48  62
BRANCH  49  74
ATOM     74  C   UNL A   1      37.427  31.140  31.244  1.00  0.00     0.058 A 
ATOM     75  C   UNL A   1      36.689  31.205  32.445  1.00  0.00     0.135 A 
ATOM     76  C   UNL A   1      37.024  32.020  30.224  1.00  0.00     0.135 A 
ATOM     77  F   UNL A   1      36.999  30.401  33.474  1.00  0.00    -0.206 F 
ATOM     78  C   UNL A   1      35.677  32.146  32.654  1.00  0.00     0.059 A 
ATOM     79  C   UNL A   1      36.011  32.966  30.407  1.00  0.00     0.059 A 
ATOM     80  F   UNL A   1      37.677  32.050  29.052  1.00  0.00    -0.206 F 
ATOM     81  C   UNL A   1      35.365  33.047  31.638  1.00  0.00     0.060 A 
BRANCH  81  82
ATOM     82  S   UNL A   1      34.221  34.407  31.983  1.00  0.00     0.124 S 
ATOM     83  O   UNL A   1      33.622  34.640  30.674  1.00  0.00    -0.237 OA
ATOM     84  O   UNL A   1      33.341  33.825  32.991  1.00  0.00    -0.237 OA
ATOM     85  O   UNL A   1      35.096  35.471  32.468  1.00  0.00    -0.744 OA
ENDBRANCH  81  82
ENDBRANCH  49  74
BRANCH  61  86
ATOM     86  C   UNL A   1      42.758  29.133  33.844  1.00  0.00     0.058 A 
ATOM     87  C   UNL A   1      42.933  29.472  35.197  1.00  0.00     0.135 A 
ATOM     88  C   UNL A   1      42.311  27.836  33.555  1.00  0.00     0.135 A 
ATOM     89  F   UNL A   1      43.277  30.716  35.560  1.00  0.00    -0.206 F 
ATOM     90  C   UNL A   1      42.717  28.537  36.213  1.00  0.00     0.059 A 
ATOM     91  C   UNL A   1      42.057  26.902  34.549  1.00  0.00     0.059 A 
ATOM     92  F   UNL A   1      42.086  27.470  32.281  1.00  0.00    -0.206 F 
ATOM     93  C   UNL A   1      42.284  27.253  35.877  1.00  0.00     0.060 A 
BRANCH  93  94
ATOM     94  S   UNL A   1      41.979  26.047  37.184  1.00  0.00     0.124 S 
ATOM     95  O   UNL A   1      40.576  26.289  37.503  1.00  0.00    -0.237 OA
ATOM     96  O   UNL A   1      42.270  24.781  36.518  1.00  0.00    -0.237 OA
ATOM     97  O   UNL A   1      42.930  26.426  38.226  1.00  0.00    -0.744 OA
ENDBRANCH  93  94
ENDBRANCH  61  86
ENDBRANCH  35  36
ENDBRANCH  27  30
ENDBRANCH   1  26
TORSDOF 14
ENDMDL
