MODEL 1
REMARK VINA RESULT:     -11.9      0.000      0.000
REMARK SMILES CC(C)(C)c1csc(C[NH+]2CC(C(=O)NCCCNC(=O)c3ccc(-c4c5nc(c(-c6c(F)cc(S(=O)(=O)[O-])cc6F)c6ccc([nH]6)c(-c6c(F)cc(S(=O)(=O)[O-])cc6F)c6nc(c(-c7c(F)cc(S(=O)(=O)[O-])cc7F)c7ccc4[nH]7)C=C6)C=C5)cc3)C2)n1
REMARK SMILES IDX 17 1 16 2 15 3 13 4 14 5 12 7 10 8 11 9 88 10 9 12 8 13 5 14
REMARK SMILES IDX 6 15 89 16 7 17 2 18 1 19 3 20 4 21 18 22 19 23 20 24 21 26
REMARK SMILES IDX 22 27 23 28 87 29 24 30 86 31 25 32 26 33 27 34 80 35 28 36
REMARK SMILES IDX 85 37 79 38 81 39 29 40 84 41 78 42 77 43 30 45 64 46 43 47
REMARK SMILES IDX 63 48 44 49 47 50 62 51 82 52 45 53 46 54 61 56 83 57 48 58
REMARK SMILES IDX 31 59 32 60 41 61 33 62 34 63 40 64 42 65 35 66 36 67 37 68
REMARK SMILES IDX 38 69 39 70 65 71 66 72 75 73 67 74 68 75 74 76 76 77 69 78
REMARK SMILES IDX 70 79 71 80 72 81 73 82 49 83 50 84 59 85 51 86 52 87 58 88
REMARK SMILES IDX 60 89 53 90 54 91 55 92 56 93 57 94
REMARK H PARENT 15 6 10 11 19 25 81 44 47 55
REMARK Flexibility Score: inf
ROOT
ATOM      1  C   UNL A   1      37.282  23.157  25.391  1.00  0.00     0.042 C 
ENDROOT
BRANCH   1   2
ATOM      2  C   UNL A   1      35.926  22.867  26.018  1.00  0.00     0.117 C 
BRANCH   2   3
ATOM      3  N   UNL A   1      35.008  22.265  25.073  1.00  0.00    -0.355 N 
ATOM      4  C   UNL A   1      34.107  22.831  24.204  1.00  0.00     0.234 C 
ATOM      5  O   UNL A   1      33.461  22.021  23.519  1.00  0.00    -0.274 OA
ATOM      6  H   UNL A   1      35.034  21.281  25.048  1.00  0.00     0.163 HD
BRANCH   4   7
ATOM      7  C   UNL A   1      33.900  24.339  24.060  1.00  0.00     0.188 C 
ATOM      8  N   UNL A   1      32.835  26.008  23.398  1.00  0.00    -0.327 N 
ATOM      9  C   UNL A   1      32.590  25.042  24.487  1.00  0.00     0.282 C 
ATOM     10  C   UNL A   1      33.668  25.014  22.691  1.00  0.00     0.282 C 
ATOM     11  H   UNL A   1      33.213  26.931  23.610  1.00  0.00     0.348 HD
BRANCH   8  12
ATOM     12  C   UNL A   1      31.639  26.461  22.672  1.00  0.00     0.331 C 
BRANCH  12  13
ATOM     13  C   UNL A   1      31.002  27.797  22.984  1.00  0.00     0.147 A 
ATOM     14  C   UNL A   1      29.476  29.428  23.050  1.00  0.00     0.057 A 
ATOM     15  C   UNL A   1      30.378  29.917  23.980  1.00  0.00     0.091 A 
ATOM     16  N   UNL A   1      29.877  28.236  22.451  1.00  0.00    -0.240 NA
ATOM     17  S   UNL A   1      31.659  28.807  24.216  1.00  0.00    -0.121 S 
BRANCH  14  18
ATOM     18  C   UNL A   1      28.108  30.020  22.728  1.00  0.00     0.005 C 
ATOM     19  C   UNL A   1      28.010  30.464  21.255  1.00  0.00     0.017 C 
ATOM     20  C   UNL A   1      27.802  31.244  23.614  1.00  0.00     0.017 C 
ATOM     21  C   UNL A   1      27.030  28.942  22.976  1.00  0.00     0.017 C 
ENDBRANCH  14  18
ENDBRANCH  12  13
ENDBRANCH   8  12
ENDBRANCH   4   7
ENDBRANCH   2   3
ENDBRANCH   1   2
BRANCH   1  22
ATOM     22  C   UNL A   1      38.143  24.093  26.228  1.00  0.00     0.118 C 
BRANCH  22  23
ATOM     23  N   UNL A   1      39.565  23.778  26.115  1.00  0.00    -0.352 N 
ATOM     24  C   UNL A   1      40.672  24.467  26.550  1.00  0.00     0.251 C 
ATOM     25  H   UNL A   1      39.763  22.932  25.652  1.00  0.00     0.163 HD
ATOM     26  O   UNL A   1      41.783  24.147  26.131  1.00  0.00    -0.269 OA
BRANCH  24  27
ATOM     27  C   UNL A   1      40.536  25.599  27.493  1.00  0.00     0.039 A 
ATOM     28  C   UNL A   1      39.610  25.513  28.540  1.00  0.00     0.014 A 
ATOM     29  C   UNL A   1      41.303  26.755  27.341  1.00  0.00     0.014 A 
ATOM     30  C   UNL A   1      39.525  26.543  29.482  1.00  0.00     0.010 A 
ATOM     31  C   UNL A   1      41.288  27.731  28.331  1.00  0.00     0.010 A 
ATOM     32  C   UNL A   1      40.400  27.637  29.414  1.00  0.00    -0.014 A 
BRANCH  32  33
ATOM     33  C   UNL A   1      40.426  28.711  30.443  1.00  0.00     0.031 A 
ATOM     34  C   UNL A   1      41.350  28.582  31.626  1.00  0.00     0.074 A 
ATOM     35  C   UNL A   1      39.538  29.723  30.385  1.00  0.00     0.049 A 
ATOM     36  N   UNL A   1      41.367  29.265  32.741  1.00  0.00    -0.248 NA
ATOM     37  C   UNL A   1      42.359  27.512  31.560  1.00  0.00     0.031 C 
ATOM     38  C   UNL A   1      38.568  29.943  29.310  1.00  0.00     0.029 A 
ATOM     39  N   UNL A   1      39.284  30.743  31.270  1.00  0.00    -0.354 N 
ATOM     40  C   UNL A   1      42.357  28.682  33.524  1.00  0.00     0.074 A 
ATOM     41  C   UNL A   1      42.890  27.568  32.772  1.00  0.00     0.031 C 
ATOM     42  C   UNL A   1      37.831  31.029  29.594  1.00  0.00     0.029 A 
ATOM     43  C   UNL A   1      38.236  31.551  30.896  1.00  0.00     0.049 A 
ATOM     44  H   UNL A   1      39.804  30.882  32.094  1.00  0.00     0.167 HD
ATOM     45  C   UNL A   1      42.790  29.053  34.752  1.00  0.00     0.037 A 
ATOM     46  C   UNL A   1      37.648  32.579  31.539  1.00  0.00     0.037 A 
ATOM     47  C   UNL A   1      42.288  30.195  35.470  1.00  0.00     0.049 A 
ATOM     48  C   UNL A   1      38.155  32.983  32.897  1.00  0.00     0.074 A 
ATOM     49  C   UNL A   1      42.706  30.693  36.691  1.00  0.00     0.029 A 
ATOM     50  N   UNL A   1      41.265  31.019  35.027  1.00  0.00    -0.354 N 
ATOM     51  N   UNL A   1      39.116  32.444  33.608  1.00  0.00    -0.248 NA
ATOM     52  C   UNL A   1      37.500  34.130  33.541  1.00  0.00     0.031 C 
ATOM     53  C   UNL A   1      41.912  31.801  37.003  1.00  0.00     0.029 A 
ATOM     54  C   UNL A   1      41.030  32.018  35.956  1.00  0.00     0.049 A 
ATOM     55  H   UNL A   1      40.777  30.910  34.178  1.00  0.00     0.167 HD
ATOM     56  C   UNL A   1      39.204  33.206  34.769  1.00  0.00     0.074 A 
ATOM     57  C   UNL A   1      38.198  34.242  34.665  1.00  0.00     0.031 C 
ATOM     58  C   UNL A   1      40.043  33.061  35.821  1.00  0.00     0.037 A 
BRANCH  45  59
ATOM     59  C   UNL A   1      43.865  28.220  35.395  1.00  0.00     0.058 A 
ATOM     60  C   UNL A   1      43.556  27.113  36.202  1.00  0.00     0.135 A 
ATOM     61  C   UNL A   1      45.221  28.511  35.174  1.00  0.00     0.135 A 
ATOM     62  F   UNL A   1      42.277  26.799  36.457  1.00  0.00    -0.206 F 
ATOM     63  C   UNL A   1      44.552  26.347  36.797  1.00  0.00     0.059 A 
ATOM     64  C   UNL A   1      46.235  27.740  35.736  1.00  0.00     0.059 A 
ATOM     65  F   UNL A   1      45.573  29.556  34.409  1.00  0.00    -0.206 F 
ATOM     66  C   UNL A   1      45.889  26.669  36.559  1.00  0.00     0.060 A 
BRANCH  66  67
ATOM     67  S   UNL A   1      47.170  25.665  37.340  1.00  0.00     0.124 S 
ATOM     68  O   UNL A   1      46.376  24.820  38.225  1.00  0.00    -0.237 OA
ATOM     69  O   UNL A   1      47.779  24.991  36.198  1.00  0.00    -0.237 OA
ATOM     70  O   UNL A   1      48.016  26.651  38.005  1.00  0.00    -0.744 OA
ENDBRANCH  66  67
ENDBRANCH  45  59
BRANCH  46  71
ATOM     71  C   UNL A   1      36.518  33.306  30.900  1.00  0.00     0.058 A 
ATOM     72  C   UNL A   1      35.213  33.183  31.398  1.00  0.00     0.135 A 
ATOM     73  C   UNL A   1      36.720  34.150  29.797  1.00  0.00     0.135 A 
ATOM     74  F   UNL A   1      34.970  32.383  32.448  1.00  0.00    -0.206 F 
ATOM     75  C   UNL A   1      34.145  33.861  30.820  1.00  0.00     0.059 A 
ATOM     76  C   UNL A   1      35.672  34.857  29.215  1.00  0.00     0.059 A 
ATOM     77  F   UNL A   1      37.953  34.316  29.294  1.00  0.00    -0.206 F 
ATOM     78  C   UNL A   1      34.385  34.698  29.729  1.00  0.00     0.060 A 
BRANCH  78  79
ATOM     79  S   UNL A   1      32.999  35.614  29.020  1.00  0.00     0.124 S 
ATOM     80  O   UNL A   1      32.362  34.591  28.198  1.00  0.00    -0.237 OA
ATOM     81  O   UNL A   1      32.263  36.028  30.210  1.00  0.00    -0.237 OA
ATOM     82  O   UNL A   1      33.654  36.696  28.289  1.00  0.00    -0.744 OA
ENDBRANCH  78  79
ENDBRANCH  46  71
BRANCH  58  83
ATOM     83  C   UNL A   1      39.961  34.071  36.929  1.00  0.00     0.058 A 
ATOM     84  C   UNL A   1      40.616  35.308  36.849  1.00  0.00     0.135 A 
ATOM     85  C   UNL A   1      39.126  33.837  38.034  1.00  0.00     0.135 A 
ATOM     86  F   UNL A   1      41.432  35.575  35.816  1.00  0.00    -0.206 F 
ATOM     87  C   UNL A   1      40.443  36.283  37.826  1.00  0.00     0.059 A 
ATOM     88  C   UNL A   1      38.922  34.805  39.011  1.00  0.00     0.059 A 
ATOM     89  F   UNL A   1      38.472  32.671  38.152  1.00  0.00    -0.206 F 
ATOM     90  C   UNL A   1      39.585  36.026  38.898  1.00  0.00     0.060 A 
BRANCH  90  91
ATOM     91  S   UNL A   1      39.303  37.331  40.113  1.00  0.00     0.124 S 
ATOM     92  O   UNL A   1      40.662  37.801  40.361  1.00  0.00    -0.237 OA
ATOM     93  O   UNL A   1      38.436  38.254  39.386  1.00  0.00    -0.237 OA
ATOM     94  O   UNL A   1      38.668  36.630  41.225  1.00  0.00    -0.744 OA
ENDBRANCH  90  91
ENDBRANCH  58  83
ENDBRANCH  32  33
ENDBRANCH  24  27
ENDBRANCH  22  23
ENDBRANCH   1  22
TORSDOF 16
ENDMDL
MODEL 2
REMARK VINA RESULT:     -11.8      5.336     12.276
REMARK SMILES CC(C)(C)c1csc(C[NH+]2CC(C(=O)NCCCNC(=O)c3ccc(-c4c5nc(c(-c6c(F)cc(S(=O)(=O)[O-])cc6F)c6ccc([nH]6)c(-c6c(F)cc(S(=O)(=O)[O-])cc6F)c6nc(c(-c7c(F)cc(S(=O)(=O)[O-])cc7F)c7ccc4[nH]7)C=C6)C=C5)cc3)C2)n1
REMARK SMILES IDX 17 1 16 2 15 3 13 4 14 5 12 7 10 8 11 9 88 10 9 12 8 13 5 14
REMARK SMILES IDX 6 15 89 16 7 17 2 18 1 19 3 20 4 21 18 22 19 23 20 24 21 26
REMARK SMILES IDX 22 27 23 28 87 29 24 30 86 31 25 32 26 33 27 34 80 35 28 36
REMARK SMILES IDX 85 37 79 38 81 39 29 40 84 41 78 42 77 43 30 45 64 46 43 47
REMARK SMILES IDX 63 48 44 49 47 50 62 51 82 52 45 53 46 54 61 56 83 57 48 58
REMARK SMILES IDX 31 59 32 60 41 61 33 62 34 63 40 64 42 65 35 66 36 67 37 68
REMARK SMILES IDX 38 69 39 70 65 71 66 72 75 73 67 74 68 75 74 76 76 77 69 78
REMARK SMILES IDX 70 79 71 80 72 81 73 82 49 83 50 84 59 85 51 86 52 87 58 88
REMARK SMILES IDX 60 89 53 90 54 91 55 92 56 93 57 94
REMARK H PARENT 15 6 10 11 19 25 81 44 47 55
REMARK Flexibility Score: inf
ROOT
ATOM      1  C   UNL A   1      34.030  33.529  27.925  1.00  0.00     0.042 C 
ENDROOT
BRANCH   1   2
ATOM      2  C   UNL A   1      34.946  34.691  28.284  1.00  0.00     0.117 C 
BRANCH   2   3
ATOM      3  N   UNL A   1      34.279  35.970  28.149  1.00  0.00    -0.355 N 
ATOM      4  C   UNL A   1      33.463  36.659  29.012  1.00  0.00     0.234 C 
ATOM      5  O   UNL A   1      33.048  37.748  28.583  1.00  0.00    -0.274 OA
ATOM      6  H   UNL A   1      34.438  36.424  27.289  1.00  0.00     0.163 HD
BRANCH   4   7
ATOM      7  C   UNL A   1      33.086  36.156  30.406  1.00  0.00     0.188 C 
ATOM      8  N   UNL A   1      33.525  35.717  32.399  1.00  0.00    -0.327 N 
ATOM      9  C   UNL A   1      33.326  36.994  31.684  1.00  0.00     0.282 C 
ATOM     10  C   UNL A   1      33.886  35.052  31.130  1.00  0.00     0.282 C 
ATOM     11  H   UNL A   1      32.780  35.336  32.980  1.00  0.00     0.348 HD
BRANCH   8  12
ATOM     12  C   UNL A   1      34.575  35.726  33.429  1.00  0.00     0.331 C 
BRANCH  12  13
ATOM     13  C   UNL A   1      35.701  34.717  33.398  1.00  0.00     0.147 A 
ATOM     14  C   UNL A   1      37.768  33.879  33.520  1.00  0.00     0.057 A 
ATOM     15  C   UNL A   1      37.041  32.701  33.512  1.00  0.00     0.091 A 
ATOM     16  N   UNL A   1      36.985  35.024  33.401  1.00  0.00    -0.240 NA
ATOM     17  S   UNL A   1      35.362  33.031  33.508  1.00  0.00    -0.121 S 
BRANCH  14  18
ATOM     18  C   UNL A   1      39.273  34.004  33.737  1.00  0.00     0.005 C 
ATOM     19  C   UNL A   1      40.002  34.434  32.448  1.00  0.00     0.017 C 
ATOM     20  C   UNL A   1      39.887  32.670  34.206  1.00  0.00     0.017 C 
ATOM     21  C   UNL A   1      39.532  35.079  34.814  1.00  0.00     0.017 C 
ENDBRANCH  14  18
ENDBRANCH  12  13
ENDBRANCH   8  12
ENDBRANCH   4   7
ENDBRANCH   2   3
ENDBRANCH   1   2
BRANCH   1  22
ATOM     22  C   UNL A   1      34.205  32.322  28.836  1.00  0.00     0.118 C 
BRANCH  22  23
ATOM     23  N   UNL A   1      33.739  31.088  28.209  1.00  0.00    -0.352 N 
ATOM     24  C   UNL A   1      34.435  29.984  27.779  1.00  0.00     0.251 C 
ATOM     25  H   UNL A   1      32.765  31.040  28.071  1.00  0.00     0.163 HD
ATOM     26  O   UNL A   1      33.875  29.165  27.053  1.00  0.00    -0.269 OA
BRANCH  24  27
ATOM     27  C   UNL A   1      35.851  29.785  28.162  1.00  0.00     0.039 A 
ATOM     28  C   UNL A   1      36.156  29.343  29.454  1.00  0.00     0.014 A 
ATOM     29  C   UNL A   1      36.881  30.052  27.260  1.00  0.00     0.014 A 
ATOM     30  C   UNL A   1      37.484  29.080  29.805  1.00  0.00     0.010 A 
ATOM     31  C   UNL A   1      38.187  29.697  27.576  1.00  0.00     0.010 A 
ATOM     32  C   UNL A   1      38.506  29.205  28.851  1.00  0.00    -0.014 A 
BRANCH  32  33
ATOM     33  C   UNL A   1      39.920  28.842  29.135  1.00  0.00     0.031 A 
ATOM     34  C   UNL A   1      40.870  29.897  29.637  1.00  0.00     0.074 A 
ATOM     35  C   UNL A   1      40.377  27.613  28.823  1.00  0.00     0.049 A 
ATOM     36  N   UNL A   1      42.174  29.864  29.722  1.00  0.00    -0.248 NA
ATOM     37  C   UNL A   1      40.272  31.176  30.056  1.00  0.00     0.031 C 
ATOM     38  C   UNL A   1      39.566  26.511  28.300  1.00  0.00     0.029 A 
ATOM     39  N   UNL A   1      41.648  27.093  28.870  1.00  0.00    -0.354 N 
ATOM     40  C   UNL A   1      42.555  31.126  30.164  1.00  0.00     0.074 A 
ATOM     41  C   UNL A   1      41.348  31.913  30.291  1.00  0.00     0.031 C 
ATOM     42  C   UNL A   1      40.356  25.447  28.079  1.00  0.00     0.029 A 
ATOM     43  C   UNL A   1      41.735  25.805  28.392  1.00  0.00     0.049 A 
ATOM     44  H   UNL A   1      42.422  27.594  29.212  1.00  0.00     0.167 HD
ATOM     45  C   UNL A   1      43.797  31.582  30.450  1.00  0.00     0.037 A 
ATOM     46  C   UNL A   1      42.808  25.012  28.201  1.00  0.00     0.037 A 
ATOM     47  C   UNL A   1      44.987  30.776  30.369  1.00  0.00     0.049 A 
ATOM     48  C   UNL A   1      44.178  25.534  28.539  1.00  0.00     0.074 A 
ATOM     49  C   UNL A   1      46.284  31.125  30.699  1.00  0.00     0.029 A 
ATOM     50  N   UNL A   1      45.021  29.460  29.935  1.00  0.00    -0.354 N 
ATOM     51  N   UNL A   1      44.517  26.718  28.989  1.00  0.00    -0.248 NA
ATOM     52  C   UNL A   1      45.310  24.618  28.343  1.00  0.00     0.031 C 
ATOM     53  C   UNL A   1      47.110  30.027  30.433  1.00  0.00     0.029 A 
ATOM     54  C   UNL A   1      46.319  28.984  29.979  1.00  0.00     0.049 A 
ATOM     55  H   UNL A   1      44.238  28.941  29.638  1.00  0.00     0.167 HD
ATOM     56  C   UNL A   1      45.897  26.679  29.161  1.00  0.00     0.074 A 
ATOM     57  C   UNL A   1      46.329  25.355  28.766  1.00  0.00     0.031 C 
ATOM     58  C   UNL A   1      46.728  27.650  29.609  1.00  0.00     0.037 A 
BRANCH  45  59
ATOM     59  C   UNL A   1      43.933  33.016  30.882  1.00  0.00     0.058 A 
ATOM     60  C   UNL A   1      44.234  34.037  29.968  1.00  0.00     0.135 A 
ATOM     61  C   UNL A   1      43.726  33.379  32.223  1.00  0.00     0.135 A 
ATOM     62  F   UNL A   1      44.456  33.745  28.676  1.00  0.00    -0.206 F 
ATOM     63  C   UNL A   1      44.362  35.362  30.372  1.00  0.00     0.059 A 
ATOM     64  C   UNL A   1      43.820  34.702  32.645  1.00  0.00     0.059 A 
ATOM     65  F   UNL A   1      43.434  32.443  33.140  1.00  0.00    -0.206 F 
ATOM     66  C   UNL A   1      44.155  35.684  31.714  1.00  0.00     0.060 A 
BRANCH  66  67
ATOM     67  S   UNL A   1      44.325  37.407  32.223  1.00  0.00     0.124 S 
ATOM     68  O   UNL A   1      43.413  37.464  33.362  1.00  0.00    -0.237 OA
ATOM     69  O   UNL A   1      45.745  37.501  32.544  1.00  0.00    -0.237 OA
ATOM     70  O   UNL A   1      43.902  38.154  31.042  1.00  0.00    -0.744 OA
ENDBRANCH  66  67
ENDBRANCH  45  59
BRANCH  46  71
ATOM     71  C   UNL A   1      42.626  23.633  27.672  1.00  0.00     0.058 A 
ATOM     72  C   UNL A   1      42.566  23.398  26.291  1.00  0.00     0.135 A 
ATOM     73  C   UNL A   1      42.531  22.526  28.529  1.00  0.00     0.135 A 
ATOM     74  F   UNL A   1      42.646  24.426  25.432  1.00  0.00    -0.206 F 
ATOM     75  C   UNL A   1      42.404  22.115  25.776  1.00  0.00     0.059 A 
ATOM     76  C   UNL A   1      42.393  21.231  28.039  1.00  0.00     0.059 A 
ATOM     77  F   UNL A   1      42.603  22.696  29.859  1.00  0.00    -0.206 F 
ATOM     78  C   UNL A   1      42.322  21.037  26.659  1.00  0.00     0.060 A 
BRANCH  78  79
ATOM     79  S   UNL A   1      42.166  19.372  25.978  1.00  0.00     0.124 S 
ATOM     80  O   UNL A   1      42.644  18.555  27.088  1.00  0.00    -0.237 OA
ATOM     81  O   UNL A   1      40.737  19.289  25.692  1.00  0.00    -0.237 OA
ATOM     82  O   UNL A   1      43.031  19.410  24.802  1.00  0.00    -0.744 OA
ENDBRANCH  78  79
ENDBRANCH  46  71
BRANCH  58  83
ATOM     83  C   UNL A   1      48.185  27.317  29.755  1.00  0.00     0.058 A 
ATOM     84  C   UNL A   1      49.119  27.644  28.762  1.00  0.00     0.135 A 
ATOM     85  C   UNL A   1      48.662  26.761  30.954  1.00  0.00     0.135 A 
ATOM     86  F   UNL A   1      48.709  28.169  27.596  1.00  0.00    -0.206 F 
ATOM     87  C   UNL A   1      50.481  27.435  28.954  1.00  0.00     0.059 A 
ATOM     88  C   UNL A   1      50.021  26.564  31.175  1.00  0.00     0.059 A 
ATOM     89  F   UNL A   1      47.807  26.438  31.936  1.00  0.00    -0.206 F 
ATOM     90  C   UNL A   1      50.923  26.904  30.168  1.00  0.00     0.060 A 
BRANCH  90  91
ATOM     91  S   UNL A   1      52.699  26.719  30.435  1.00  0.00     0.124 S 
ATOM     92  O   UNL A   1      53.075  28.062  30.862  1.00  0.00    -0.237 OA
ATOM     93  O   UNL A   1      52.753  25.686  31.466  1.00  0.00    -0.237 OA
ATOM     94  O   UNL A   1      53.199  26.313  29.125  1.00  0.00    -0.744 OA
ENDBRANCH  90  91
ENDBRANCH  58  83
ENDBRANCH  32  33
ENDBRANCH  24  27
ENDBRANCH  22  23
ENDBRANCH   1  22
TORSDOF 16
ENDMDL
MODEL 3
REMARK VINA RESULT:     -11.8      5.218     10.981
REMARK SMILES CC(C)(C)c1csc(C[NH+]2CC(C(=O)NCCCNC(=O)c3ccc(-c4c5nc(c(-c6c(F)cc(S(=O)(=O)[O-])cc6F)c6ccc([nH]6)c(-c6c(F)cc(S(=O)(=O)[O-])cc6F)c6nc(c(-c7c(F)cc(S(=O)(=O)[O-])cc7F)c7ccc4[nH]7)C=C6)C=C5)cc3)C2)n1
REMARK SMILES IDX 17 1 16 2 15 3 13 4 14 5 12 7 10 8 11 9 88 10 9 12 8 13 5 14
REMARK SMILES IDX 6 15 89 16 7 17 2 18 1 19 3 20 4 21 18 22 19 23 20 24 21 26
REMARK SMILES IDX 22 27 23 28 87 29 24 30 86 31 25 32 26 33 27 34 80 35 28 36
REMARK SMILES IDX 85 37 79 38 81 39 29 40 84 41 78 42 77 43 30 45 64 46 43 47
REMARK SMILES IDX 63 48 44 49 47 50 62 51 82 52 45 53 46 54 61 56 83 57 48 58
REMARK SMILES IDX 31 59 32 60 41 61 33 62 34 63 40 64 42 65 35 66 36 67 37 68
REMARK SMILES IDX 38 69 39 70 65 71 66 72 75 73 67 74 68 75 74 76 76 77 69 78
REMARK SMILES IDX 70 79 71 80 72 81 73 82 49 83 50 84 59 85 51 86 52 87 58 88
REMARK SMILES IDX 60 89 53 90 54 91 55 92 56 93 57 94
REMARK H PARENT 15 6 10 11 19 25 81 44 47 55
REMARK Flexibility Score: inf
ROOT
ATOM      1  C   UNL A   1      33.147  28.163  25.761  1.00  0.00     0.042 C 
ENDROOT
BRANCH   1   2
ATOM      2  C   UNL A   1      31.752  27.596  25.536  1.00  0.00     0.117 C 
BRANCH   2   3
ATOM      3  N   UNL A   1      31.211  27.981  24.249  1.00  0.00    -0.355 N 
ATOM      4  C   UNL A   1      31.040  27.264  23.090  1.00  0.00     0.234 C 
ATOM      5  O   UNL A   1      30.538  27.901  22.149  1.00  0.00    -0.274 OA
ATOM      6  H   UNL A   1      30.913  28.918  24.195  1.00  0.00     0.163 HD
BRANCH   4   7
ATOM      7  C   UNL A   1      31.419  25.791  22.941  1.00  0.00     0.188 C 
ATOM      8  N   UNL A   1      31.891  23.911  23.718  1.00  0.00    -0.327 N 
ATOM      9  C   UNL A   1      30.619  24.655  23.622  1.00  0.00     0.282 C 
ATOM     10  C   UNL A   1      32.648  25.178  23.647  1.00  0.00     0.282 C 
ATOM     11  H   UNL A   1      32.094  23.159  23.060  1.00  0.00     0.348 HD
BRANCH   8  12
ATOM     12  C   UNL A   1      32.077  23.132  24.951  1.00  0.00     0.331 C 
BRANCH  12  13
ATOM     13  C   UNL A   1      32.963  21.906  24.967  1.00  0.00     0.147 A 
ATOM     14  C   UNL A   1      33.597  19.775  24.743  1.00  0.00     0.057 A 
ATOM     15  C   UNL A   1      34.838  20.372  24.895  1.00  0.00     0.091 A 
ATOM     16  N   UNL A   1      32.530  20.664  24.840  1.00  0.00    -0.240 NA
ATOM     17  S   UNL A   1      34.677  22.071  25.007  1.00  0.00    -0.121 S 
BRANCH  14  18
ATOM     18  C   UNL A   1      33.340  18.312  24.399  1.00  0.00     0.005 C 
ATOM     19  C   UNL A   1      32.486  18.166  23.123  1.00  0.00     0.017 C 
ATOM     20  C   UNL A   1      32.607  17.585  25.545  1.00  0.00     0.017 C 
ATOM     21  C   UNL A   1      34.695  17.614  24.150  1.00  0.00     0.017 C 
ENDBRANCH  14  18
ENDBRANCH  12  13
ENDBRANCH   8  12
ENDBRANCH   4   7
ENDBRANCH   2   3
ENDBRANCH   1   2
BRANCH   1  22
ATOM     22  C   UNL A   1      33.462  28.421  27.228  1.00  0.00     0.118 C 
BRANCH  22  23
ATOM     23  N   UNL A   1      33.482  29.848  27.542  1.00  0.00    -0.352 N 
ATOM     24  C   UNL A   1      34.444  30.617  28.151  1.00  0.00     0.251 C 
ATOM     25  H   UNL A   1      32.672  30.339  27.272  1.00  0.00     0.163 HD
ATOM     26  O   UNL A   1      34.153  31.746  28.542  1.00  0.00    -0.269 OA
BRANCH  24  27
ATOM     27  C   UNL A   1      35.811  30.092  28.361  1.00  0.00     0.039 A 
ATOM     28  C   UNL A   1      36.716  30.086  27.294  1.00  0.00     0.014 A 
ATOM     29  C   UNL A   1      36.202  29.586  29.602  1.00  0.00     0.014 A 
ATOM     30  C   UNL A   1      38.033  29.663  27.498  1.00  0.00     0.010 A 
ATOM     31  C   UNL A   1      37.534  29.260  29.828  1.00  0.00     0.010 A 
ATOM     32  C   UNL A   1      38.467  29.296  28.780  1.00  0.00    -0.014 A 
BRANCH  32  33
ATOM     33  C   UNL A   1      39.879  28.935  29.079  1.00  0.00     0.031 A 
ATOM     34  C   UNL A   1      40.821  29.992  29.590  1.00  0.00     0.074 A 
ATOM     35  C   UNL A   1      40.341  27.707  28.771  1.00  0.00     0.049 A 
ATOM     36  N   UNL A   1      42.125  29.962  29.689  1.00  0.00    -0.248 NA
ATOM     37  C   UNL A   1      40.217  31.270  30.002  1.00  0.00     0.031 C 
ATOM     38  C   UNL A   1      39.538  26.604  28.240  1.00  0.00     0.029 A 
ATOM     39  N   UNL A   1      41.613  27.189  28.831  1.00  0.00    -0.354 N 
ATOM     40  C   UNL A   1      42.499  31.225  30.134  1.00  0.00     0.074 A 
ATOM     41  C   UNL A   1      41.289  32.009  30.248  1.00  0.00     0.031 C 
ATOM     42  C   UNL A   1      40.331  25.541  28.028  1.00  0.00     0.029 A 
ATOM     43  C   UNL A   1      41.707  25.901  28.355  1.00  0.00     0.049 A 
ATOM     44  H   UNL A   1      42.382  27.692  29.181  1.00  0.00     0.167 HD
ATOM     45  C   UNL A   1      43.738  31.682  30.432  1.00  0.00     0.037 A 
ATOM     46  C   UNL A   1      42.783  25.110  28.175  1.00  0.00     0.037 A 
ATOM     47  C   UNL A   1      44.929  30.879  30.364  1.00  0.00     0.049 A 
ATOM     48  C   UNL A   1      44.149  25.635  28.527  1.00  0.00     0.074 A 
ATOM     49  C   UNL A   1      46.222  31.229  30.707  1.00  0.00     0.029 A 
ATOM     50  N   UNL A   1      44.970  29.562  29.931  1.00  0.00    -0.354 N 
ATOM     51  N   UNL A   1      44.481  26.819  28.981  1.00  0.00    -0.248 NA
ATOM     52  C   UNL A   1      45.284  24.720  28.343  1.00  0.00     0.031 C 
ATOM     53  C   UNL A   1      47.053  30.133  30.451  1.00  0.00     0.029 A 
ATOM     54  C   UNL A   1      46.269  29.088  29.988  1.00  0.00     0.049 A 
ATOM     55  H   UNL A   1      44.192  29.042  29.626  1.00  0.00     0.167 HD
ATOM     56  C   UNL A   1      45.859  26.783  29.167  1.00  0.00     0.074 A 
ATOM     57  C   UNL A   1      46.298  25.459  28.777  1.00  0.00     0.031 C 
ATOM     58  C   UNL A   1      46.683  27.755  29.623  1.00  0.00     0.037 A 
BRANCH  45  59
ATOM     59  C   UNL A   1      43.866  33.117  30.866  1.00  0.00     0.058 A 
ATOM     60  C   UNL A   1      43.789  33.489  32.217  1.00  0.00     0.135 A 
ATOM     61  C   UNL A   1      44.102  34.129  29.921  1.00  0.00     0.135 A 
ATOM     62  F   UNL A   1      43.550  32.564  33.161  1.00  0.00    -0.206 F 
ATOM     63  C   UNL A   1      43.905  34.816  32.614  1.00  0.00     0.059 A 
ATOM     64  C   UNL A   1      44.251  35.461  30.299  1.00  0.00     0.059 A 
ATOM     65  F   UNL A   1      44.187  33.829  28.616  1.00  0.00    -0.206 F 
ATOM     66  C   UNL A   1      44.134  35.796  31.647  1.00  0.00     0.060 A 
BRANCH  66  67
ATOM     67  S   UNL A   1      44.281  37.515  32.178  1.00  0.00     0.124 S 
ATOM     68  O   UNL A   1      45.700  37.594  32.511  1.00  0.00    -0.237 OA
ATOM     69  O   UNL A   1      43.869  38.248  30.985  1.00  0.00    -0.237 OA
ATOM     70  O   UNL A   1      43.365  37.600  33.310  1.00  0.00    -0.744 OA
ENDBRANCH  66  67
ENDBRANCH  45  59
BRANCH  46  71
ATOM     71  C   UNL A   1      42.609  23.731  27.645  1.00  0.00     0.058 A 
ATOM     72  C   UNL A   1      42.506  22.636  28.515  1.00  0.00     0.135 A 
ATOM     73  C   UNL A   1      42.522  23.481  26.267  1.00  0.00     0.135 A 
ATOM     74  F   UNL A   1      42.590  22.824  29.841  1.00  0.00    -0.206 F 
ATOM     75  C   UNL A   1      42.336  21.340  28.040  1.00  0.00     0.059 A 
ATOM     76  C   UNL A   1      42.329  22.197  25.767  1.00  0.00     0.059 A 
ATOM     77  F   UNL A   1      42.596  24.498  25.393  1.00  0.00    -0.206 F 
ATOM     78  C   UNL A   1      42.246  21.131  26.662  1.00  0.00     0.060 A 
BRANCH  78  79
ATOM     79  S   UNL A   1      41.971  19.451  26.059  1.00  0.00     0.124 S 
ATOM     80  O   UNL A   1      42.836  19.415  24.886  1.00  0.00    -0.237 OA
ATOM     81  O   UNL A   1      42.401  18.642  27.195  1.00  0.00    -0.237 OA
ATOM     82  O   UNL A   1      40.536  19.424  25.788  1.00  0.00    -0.744 OA
ENDBRANCH  78  79
ENDBRANCH  46  71
BRANCH  58  83
ATOM     83  C   UNL A   1      48.139  27.424  29.784  1.00  0.00     0.058 A 
ATOM     84  C   UNL A   1      49.075  27.705  28.778  1.00  0.00     0.135 A 
ATOM     85  C   UNL A   1      48.615  26.920  31.007  1.00  0.00     0.135 A 
ATOM     86  F   UNL A   1      48.667  28.180  27.591  1.00  0.00    -0.206 F 
ATOM     87  C   UNL A   1      50.436  27.501  28.980  1.00  0.00     0.059 A 
ATOM     88  C   UNL A   1      49.973  26.729  31.236  1.00  0.00     0.059 A 
ATOM     89  F   UNL A   1      47.758  26.643  32.002  1.00  0.00    -0.206 F 
ATOM     90  C   UNL A   1      50.877  27.023  30.216  1.00  0.00     0.060 A 
BRANCH  90  91
ATOM     91  S   UNL A   1      52.651  26.844  30.492  1.00  0.00     0.124 S 
ATOM     92  O   UNL A   1      52.686  25.823  31.534  1.00  0.00    -0.237 OA
ATOM     93  O   UNL A   1      53.132  26.427  29.178  1.00  0.00    -0.237 OA
ATOM     94  O   UNL A   1      53.067  28.180  30.909  1.00  0.00    -0.744 OA
ENDBRANCH  90  91
ENDBRANCH  58  83
ENDBRANCH  32  33
ENDBRANCH  24  27
ENDBRANCH  22  23
ENDBRANCH   1  22
TORSDOF 16
ENDMDL
