MODEL 1
REMARK VINA RESULT:     -10.0      0.000      0.000
REMARK SMILES CC[C@@](C)(NC(=O)c1cccc2ccccc12)C(=O)NCCCNC(=O)c1ccc(-c2c3nc(c(-c4c(F)cc(S(=O)(=O)[O-])cc4F)c4ccc([nH]4)c(-c4c(F)cc(S(=O)(=O)[O-])cc4F)c4nc(c(-c5c(F)cc(S(=O)(=O)[O-])cc5F)c5ccc2[nH]5)C=C4)C=C3)cc1
REMARK SMILES IDX 22 1 21 2 20 3 18 4 19 5 3 7 4 8 2 9 1 10 5 11 6 12 7 14
REMARK SMILES IDX 8 15 9 16 17 17 10 18 12 19 16 20 11 21 13 22 15 23 14 24
REMARK SMILES IDX 23 25 24 26 25 27 26 29 27 30 28 31 92 32 29 33 91 34 30 35
REMARK SMILES IDX 31 36 32 37 85 38 33 39 90 40 84 41 86 42 34 43 89 44 83 45
REMARK SMILES IDX 82 46 35 48 69 49 48 50 68 51 49 52 52 53 67 54 87 55 50 56
REMARK SMILES IDX 51 57 66 59 88 60 53 61 36 62 37 63 46 64 38 65 39 66 45 67
REMARK SMILES IDX 47 68 40 69 41 70 42 71 43 72 44 73 70 74 71 75 80 76 72 77
REMARK SMILES IDX 73 78 79 79 81 80 74 81 75 82 76 83 77 84 78 85 54 86 55 87
REMARK SMILES IDX 64 88 56 89 57 90 63 91 65 92 58 93 59 94 60 95 61 96 62 97
REMARK H PARENT 20 6 5 13 24 28 86 47 52 58
REMARK Flexibility Score: inf
ROOT
ATOM      1  C   UNL A   1      34.925  33.220  28.134  1.00  0.00     0.042 C 
ENDROOT
BRANCH   1   2
ATOM      2  C   UNL A   1      35.615  34.274  29.000  1.00  0.00     0.117 C 
BRANCH   2   3
ATOM      3  N   UNL A   1      35.012  34.633  30.275  1.00  0.00    -0.354 N 
ATOM      4  C   UNL A   1      35.297  34.334  31.581  1.00  0.00     0.245 C 
ATOM      5  O   UNL A   1      34.763  35.080  32.411  1.00  0.00    -0.272 OA
ATOM      6  H   UNL A   1      34.229  35.220  30.178  1.00  0.00     0.163 HD
BRANCH   4   7
ATOM      7  C   UNL A   1      36.277  33.200  32.020  1.00  0.00     0.116 C 
ATOM      8  C   UNL A   1      35.539  31.882  31.663  1.00  0.00     0.045 C 
BRANCH   7   9
ATOM      9  C   UNL A   1      37.638  33.200  31.260  1.00  0.00     0.035 C 
ATOM     10  C   UNL A   1      38.498  34.458  31.324  1.00  0.00     0.007 C 
ENDBRANCH   7   9
BRANCH   7  11
ATOM     11  N   UNL A   1      36.597  33.162  33.478  1.00  0.00    -0.338 N 
ATOM     12  C   UNL A   1      37.447  32.452  34.308  1.00  0.00     0.252 C 
ATOM     13  H   UNL A   1      36.061  33.816  33.983  1.00  0.00     0.164 HD
ATOM     14  O   UNL A   1      37.076  32.443  35.486  1.00  0.00    -0.269 OA
BRANCH  12  15
ATOM     15  C   UNL A   1      38.769  31.814  33.936  1.00  0.00     0.047 A 
ATOM     16  C   UNL A   1      39.961  32.464  34.259  1.00  0.00     0.014 A 
ATOM     17  C   UNL A   1      38.870  30.467  33.437  1.00  0.00    -0.006 A 
ATOM     18  C   UNL A   1      41.217  31.888  34.118  1.00  0.00     0.001 A 
ATOM     19  C   UNL A   1      40.169  29.879  33.323  1.00  0.00    -0.018 A 
ATOM     20  C   UNL A   1      37.787  29.630  33.061  1.00  0.00     0.009 A 
ATOM     21  C   UNL A   1      41.318  30.596  33.656  1.00  0.00     0.009 A 
ATOM     22  C   UNL A   1      40.339  28.553  32.902  1.00  0.00     0.009 A 
ATOM     23  C   UNL A   1      37.970  28.303  32.646  1.00  0.00     0.001 A 
ATOM     24  C   UNL A   1      39.245  27.764  32.574  1.00  0.00     0.001 A 
ENDBRANCH  12  15
ENDBRANCH   7  11
ENDBRANCH   4   7
ENDBRANCH   2   3
ENDBRANCH   1   2
BRANCH   1  25
ATOM     25  C   UNL A   1      34.044  32.175  28.815  1.00  0.00     0.118 C 
BRANCH  25  26
ATOM     26  N   UNL A   1      33.711  31.040  27.979  1.00  0.00    -0.352 N 
ATOM     27  C   UNL A   1      34.461  29.961  27.581  1.00  0.00     0.251 C 
ATOM     28  H   UNL A   1      32.787  31.043  27.636  1.00  0.00     0.163 HD
ATOM     29  O   UNL A   1      33.940  29.147  26.821  1.00  0.00    -0.269 OA
BRANCH  27  30
ATOM     30  C   UNL A   1      35.871  29.761  28.005  1.00  0.00     0.039 A 
ATOM     31  C   UNL A   1      36.864  29.936  27.034  1.00  0.00     0.014 A 
ATOM     32  C   UNL A   1      36.238  29.318  29.280  1.00  0.00     0.014 A 
ATOM     33  C   UNL A   1      38.207  29.692  27.337  1.00  0.00     0.010 A 
ATOM     34  C   UNL A   1      37.591  29.123  29.600  1.00  0.00     0.010 A 
ATOM     35  C   UNL A   1      38.591  29.291  28.627  1.00  0.00    -0.014 A 
BRANCH  35  36
ATOM     36  C   UNL A   1      40.028  29.023  28.923  1.00  0.00     0.031 A 
ATOM     37  C   UNL A   1      40.648  27.690  28.590  1.00  0.00     0.074 A 
ATOM     38  C   UNL A   1      40.793  29.990  29.469  1.00  0.00     0.049 A 
ATOM     39  N   UNL A   1      41.897  27.309  28.699  1.00  0.00    -0.248 NA
ATOM     40  C   UNL A   1      39.748  26.645  28.079  1.00  0.00     0.031 C 
ATOM     41  C   UNL A   1      40.314  31.312  29.878  1.00  0.00     0.029 A 
ATOM     42  N   UNL A   1      42.134  30.017  29.765  1.00  0.00    -0.354 N 
ATOM     43  C   UNL A   1      41.933  25.985  28.272  1.00  0.00     0.074 A 
ATOM     44  C   UNL A   1      40.572  25.614  27.951  1.00  0.00     0.031 C 
ATOM     45  C   UNL A   1      41.350  32.029  30.344  1.00  0.00     0.029 A 
ATOM     46  C   UNL A   1      42.563  31.216  30.286  1.00  0.00     0.049 A 
ATOM     47  H   UNL A   1      42.733  29.250  29.618  1.00  0.00     0.167 HD
ATOM     48  C   UNL A   1      43.002  25.160  28.137  1.00  0.00     0.037 A 
ATOM     49  C   UNL A   1      43.791  31.622  30.665  1.00  0.00     0.037 A 
ATOM     50  C   UNL A   1      44.361  25.531  28.443  1.00  0.00     0.049 A 
ATOM     51  C   UNL A   1      44.965  30.695  30.491  1.00  0.00     0.074 A 
ATOM     52  C   UNL A   1      45.514  24.777  28.300  1.00  0.00     0.029 A 
ATOM     53  N   UNL A   1      44.753  26.760  28.954  1.00  0.00    -0.354 N 
ATOM     54  N   UNL A   1      44.987  29.470  30.023  1.00  0.00    -0.248 NA
ATOM     55  C   UNL A   1      46.285  31.214  30.878  1.00  0.00     0.031 C 
ATOM     56  C   UNL A   1      46.597  25.534  28.761  1.00  0.00     0.029 A 
ATOM     57  C   UNL A   1      46.126  26.780  29.143  1.00  0.00     0.049 A 
ATOM     58  H   UNL A   1      44.145  27.508  29.153  1.00  0.00     0.167 HD
ATOM     59  C   UNL A   1      46.324  29.085  30.026  1.00  0.00     0.074 A 
ATOM     60  C   UNL A   1      47.081  30.210  30.535  1.00  0.00     0.031 C 
ATOM     61  C   UNL A   1      46.875  27.907  29.639  1.00  0.00     0.037 A 
BRANCH  48  62
ATOM     62  C   UNL A   1      42.745  23.767  27.628  1.00  0.00     0.058 A 
ATOM     63  C   UNL A   1      42.763  23.469  26.255  1.00  0.00     0.135 A 
ATOM     64  C   UNL A   1      42.514  22.708  28.522  1.00  0.00     0.135 A 
ATOM     65  F   UNL A   1      42.967  24.444  25.355  1.00  0.00    -0.206 F 
ATOM     66  C   UNL A   1      42.527  22.181  25.785  1.00  0.00     0.059 A 
ATOM     67  C   UNL A   1      42.304  21.407  28.075  1.00  0.00     0.059 A 
ATOM     68  F   UNL A   1      42.492  22.933  29.845  1.00  0.00    -0.206 F 
ATOM     69  C   UNL A   1      42.295  21.156  26.705  1.00  0.00     0.060 A 
BRANCH  69  70
ATOM     70  S   UNL A   1      41.985  19.491  26.079  1.00  0.00     0.124 S 
ATOM     71  O   UNL A   1      42.400  18.672  27.213  1.00  0.00    -0.237 OA
ATOM     72  O   UNL A   1      40.553  19.518  25.808  1.00  0.00    -0.237 OA
ATOM     73  O   UNL A   1      42.842  19.406  24.899  1.00  0.00    -0.744 OA
ENDBRANCH  69  70
ENDBRANCH  48  62
BRANCH  49  74
ATOM     74  C   UNL A   1      43.984  32.993  31.210  1.00  0.00     0.058 A 
ATOM     75  C   UNL A   1      43.953  34.118  30.372  1.00  0.00     0.135 A 
ATOM     76  C   UNL A   1      44.199  33.205  32.580  1.00  0.00     0.135 A 
ATOM     77  F   UNL A   1      43.759  33.966  29.054  1.00  0.00    -0.206 F 
ATOM     78  C   UNL A   1      44.148  35.403  30.869  1.00  0.00     0.059 A 
ATOM     79  C   UNL A   1      44.371  34.483  33.104  1.00  0.00     0.059 A 
ATOM     80  F   UNL A   1      44.223  32.163  33.426  1.00  0.00    -0.206 F 
ATOM     81  C   UNL A   1      44.355  35.574  32.238  1.00  0.00     0.060 A 
BRANCH  81  82
ATOM     82  S   UNL A   1      44.560  37.251  32.881  1.00  0.00     0.124 S 
ATOM     83  O   UNL A   1      43.470  37.331  33.846  1.00  0.00    -0.237 OA
ATOM     84  O   UNL A   1      45.908  37.201  33.442  1.00  0.00    -0.237 OA
ATOM     85  O   UNL A   1      44.416  38.085  31.692  1.00  0.00    -0.744 OA
ENDBRANCH  81  82
ENDBRANCH  49  74
BRANCH  61  86
ATOM     86  C   UNL A   1      48.374  27.790  29.700  1.00  0.00     0.058 A 
ATOM     87  C   UNL A   1      49.037  27.309  30.839  1.00  0.00     0.135 A 
ATOM     88  C   UNL A   1      49.157  28.142  28.587  1.00  0.00     0.135 A 
ATOM     89  F   UNL A   1      48.338  26.961  31.931  1.00  0.00    -0.206 F 
ATOM     90  C   UNL A   1      50.426  27.217  30.888  1.00  0.00     0.059 A 
ATOM     91  C   UNL A   1      50.545  28.031  28.604  1.00  0.00     0.059 A 
ATOM     92  F   UNL A   1      48.575  28.595  27.466  1.00  0.00    -0.206 F 
ATOM     93  C   UNL A   1      51.171  27.584  29.767  1.00  0.00     0.060 A 
BRANCH  93  94
ATOM     94  S   UNL A   1      52.971  27.454  29.837  1.00  0.00     0.124 S 
ATOM     95  O   UNL A   1      53.349  28.816  30.201  1.00  0.00    -0.237 OA
ATOM     96  O   UNL A   1      53.173  26.443  30.871  1.00  0.00    -0.237 OA
ATOM     97  O   UNL A   1      53.334  27.041  28.486  1.00  0.00    -0.744 OA
ENDBRANCH  93  94
ENDBRANCH  61  86
ENDBRANCH  35  36
ENDBRANCH  27  30
ENDBRANCH  25  26
ENDBRANCH   1  25
TORSDOF 16
ENDMDL
MODEL 2
REMARK VINA RESULT:      -9.9      5.259     11.285
REMARK SMILES CC[C@@](C)(NC(=O)c1cccc2ccccc12)C(=O)NCCCNC(=O)c1ccc(-c2c3nc(c(-c4c(F)cc(S(=O)(=O)[O-])cc4F)c4ccc([nH]4)c(-c4c(F)cc(S(=O)(=O)[O-])cc4F)c4nc(c(-c5c(F)cc(S(=O)(=O)[O-])cc5F)c5ccc2[nH]5)C=C4)C=C3)cc1
REMARK SMILES IDX 22 1 21 2 20 3 18 4 19 5 3 7 4 8 2 9 1 10 5 11 6 12 7 14
REMARK SMILES IDX 8 15 9 16 17 17 10 18 12 19 16 20 11 21 13 22 15 23 14 24
REMARK SMILES IDX 23 25 24 26 25 27 26 29 27 30 28 31 92 32 29 33 91 34 30 35
REMARK SMILES IDX 31 36 32 37 85 38 33 39 90 40 84 41 86 42 34 43 89 44 83 45
REMARK SMILES IDX 82 46 35 48 69 49 48 50 68 51 49 52 52 53 67 54 87 55 50 56
REMARK SMILES IDX 51 57 66 59 88 60 53 61 36 62 37 63 46 64 38 65 39 66 45 67
REMARK SMILES IDX 47 68 40 69 41 70 42 71 43 72 44 73 70 74 71 75 80 76 72 77
REMARK SMILES IDX 73 78 79 79 81 80 74 81 75 82 76 83 77 84 78 85 54 86 55 87
REMARK SMILES IDX 64 88 56 89 57 90 63 91 65 92 58 93 59 94 60 95 61 96 62 97
REMARK H PARENT 20 6 5 13 24 28 86 47 52 58
REMARK Flexibility Score: inf
ROOT
ATOM      1  C   UNL A   1      37.823  23.787  25.859  1.00  0.00     0.042 C 
ENDROOT
BRANCH   1   2
ATOM      2  C   UNL A   1      36.792  22.700  25.557  1.00  0.00     0.117 C 
BRANCH   2   3
ATOM      3  N   UNL A   1      35.792  22.387  26.566  1.00  0.00    -0.354 N 
ATOM      4  C   UNL A   1      34.438  22.572  26.655  1.00  0.00     0.245 C 
ATOM      5  O   UNL A   1      33.878  21.888  27.519  1.00  0.00    -0.272 OA
ATOM      6  H   UNL A   1      36.172  21.945  27.359  1.00  0.00     0.163 HD
BRANCH   4   7
ATOM      7  C   UNL A   1      33.623  23.504  25.702  1.00  0.00     0.116 C 
ATOM      8  C   UNL A   1      34.310  24.890  25.824  1.00  0.00     0.045 C 
BRANCH   7   9
ATOM      9  C   UNL A   1      33.670  23.083  24.201  1.00  0.00     0.035 C 
ATOM     10  C   UNL A   1      33.988  24.155  23.163  1.00  0.00     0.007 C 
ENDBRANCH   7   9
BRANCH   7  11
ATOM     11  N   UNL A   1      32.183  23.677  26.057  1.00  0.00    -0.338 N 
ATOM     12  C   UNL A   1      31.256  24.706  26.046  1.00  0.00     0.252 C 
ATOM     13  H   UNL A   1      31.789  22.837  26.387  1.00  0.00     0.164 HD
ATOM     14  O   UNL A   1      30.314  24.514  26.820  1.00  0.00    -0.269 OA
BRANCH  12  15
ATOM     15  C   UNL A   1      31.245  25.919  25.140  1.00  0.00     0.047 A 
ATOM     16  C   UNL A   1      30.774  25.797  23.833  1.00  0.00     0.014 A 
ATOM     17  C   UNL A   1      31.514  27.249  25.620  1.00  0.00    -0.006 A 
ATOM     18  C   UNL A   1      30.562  26.876  22.984  1.00  0.00     0.001 A 
ATOM     19  C   UNL A   1      31.266  28.353  24.743  1.00  0.00    -0.018 A 
ATOM     20  C   UNL A   1      31.988  27.595  26.913  1.00  0.00     0.009 A 
ATOM     21  C   UNL A   1      30.803  28.152  23.443  1.00  0.00     0.009 A 
ATOM     22  C   UNL A   1      31.449  29.677  25.162  1.00  0.00     0.009 A 
ATOM     23  C   UNL A   1      32.162  28.925  27.321  1.00  0.00     0.001 A 
ATOM     24  C   UNL A   1      31.885  29.964  26.448  1.00  0.00     0.001 A 
ENDBRANCH  12  15
ENDBRANCH   7  11
ENDBRANCH   4   7
ENDBRANCH   2   3
ENDBRANCH   1   2
BRANCH   1  25
ATOM     25  C   UNL A   1      39.072  23.412  26.654  1.00  0.00     0.118 C 
BRANCH  25  26
ATOM     26  N   UNL A   1      40.313  23.881  26.073  1.00  0.00    -0.352 N 
ATOM     27  C   UNL A   1      41.110  24.952  26.392  1.00  0.00     0.251 C 
ATOM     28  H   UNL A   1      40.640  23.339  25.318  1.00  0.00     0.163 HD
ATOM     29  O   UNL A   1      42.106  25.155  25.699  1.00  0.00    -0.269 OA
BRANCH  27  30
ATOM     30  C   UNL A   1      40.801  25.881  27.510  1.00  0.00     0.039 A 
ATOM     31  C   UNL A   1      41.688  26.944  27.724  1.00  0.00     0.014 A 
ATOM     32  C   UNL A   1      39.741  25.691  28.401  1.00  0.00     0.014 A 
ATOM     33  C   UNL A   1      41.506  27.816  28.802  1.00  0.00     0.010 A 
ATOM     34  C   UNL A   1      39.528  26.597  29.453  1.00  0.00     0.010 A 
ATOM     35  C   UNL A   1      40.418  27.661  29.676  1.00  0.00    -0.014 A 
BRANCH  35  36
ATOM     36  C   UNL A   1      40.253  28.595  30.827  1.00  0.00     0.031 A 
ATOM     37  C   UNL A   1      41.127  28.475  32.049  1.00  0.00     0.074 A 
ATOM     38  C   UNL A   1      39.331  29.577  30.768  1.00  0.00     0.049 A 
ATOM     39  N   UNL A   1      41.182  29.249  33.105  1.00  0.00    -0.248 NA
ATOM     40  C   UNL A   1      42.054  27.334  32.097  1.00  0.00     0.031 C 
ATOM     41  C   UNL A   1      38.391  29.784  29.665  1.00  0.00     0.029 A 
ATOM     42  N   UNL A   1      39.037  30.591  31.647  1.00  0.00    -0.354 N 
ATOM     43  C   UNL A   1      42.144  28.689  33.941  1.00  0.00     0.074 A 
ATOM     44  C   UNL A   1      42.611  27.484  33.291  1.00  0.00     0.031 C 
ATOM     45  C   UNL A   1      37.646  30.873  29.920  1.00  0.00     0.029 A 
ATOM     46  C   UNL A   1      38.040  31.432  31.211  1.00  0.00     0.049 A 
ATOM     47  H   UNL A   1      39.498  30.705  32.510  1.00  0.00     0.167 HD
ATOM     48  C   UNL A   1      42.614  29.147  35.128  1.00  0.00     0.037 A 
ATOM     49  C   UNL A   1      37.508  32.534  31.777  1.00  0.00     0.037 A 
ATOM     50  C   UNL A   1      42.161  30.356  35.773  1.00  0.00     0.049 A 
ATOM     51  C   UNL A   1      38.056  33.032  33.088  1.00  0.00     0.074 A 
ATOM     52  C   UNL A   1      42.606  30.920  36.956  1.00  0.00     0.029 A 
ATOM     53  N   UNL A   1      41.160  31.186  35.289  1.00  0.00    -0.354 N 
ATOM     54  N   UNL A   1      39.012  32.525  33.829  1.00  0.00    -0.248 NA
ATOM     55  C   UNL A   1      37.466  34.266  33.629  1.00  0.00     0.031 C 
ATOM     56  C   UNL A   1      41.848  32.070  37.209  1.00  0.00     0.029 A 
ATOM     57  C   UNL A   1      40.966  32.249  36.156  1.00  0.00     0.049 A 
ATOM     58  H   UNL A   1      40.661  31.040  34.454  1.00  0.00     0.167 HD
ATOM     59  C   UNL A   1      39.162  33.396  34.904  1.00  0.00     0.074 A 
ATOM     60  C   UNL A   1      38.204  34.465  34.712  1.00  0.00     0.031 C 
ATOM     61  C   UNL A   1      40.019  33.317  35.953  1.00  0.00     0.037 A 
BRANCH  48  62
ATOM     62  C   UNL A   1      43.683  28.338  35.812  1.00  0.00     0.058 A 
ATOM     63  C   UNL A   1      45.049  28.587  35.594  1.00  0.00     0.135 A 
ATOM     64  C   UNL A   1      43.343  27.325  36.724  1.00  0.00     0.135 A 
ATOM     65  F   UNL A   1      45.432  29.537  34.724  1.00  0.00    -0.206 F 
ATOM     66  C   UNL A   1      46.036  27.840  36.228  1.00  0.00     0.059 A 
ATOM     67  C   UNL A   1      44.315  26.584  37.390  1.00  0.00     0.059 A 
ATOM     68  F   UNL A   1      42.054  27.047  36.975  1.00  0.00    -0.206 F 
ATOM     69  C   UNL A   1      45.659  26.837  37.122  1.00  0.00     0.060 A 
BRANCH  69  70
ATOM     70  S   UNL A   1      46.952  25.872  37.932  1.00  0.00     0.124 S 
ATOM     71  O   UNL A   1      48.075  26.804  37.897  1.00  0.00    -0.237 OA
ATOM     72  O   UNL A   1      46.379  25.620  39.248  1.00  0.00    -0.237 OA
ATOM     73  O   UNL A   1      47.087  24.697  37.074  1.00  0.00    -0.744 OA
ENDBRANCH  69  70
ENDBRANCH  48  62
BRANCH  49  74
ATOM     74  C   UNL A   1      36.417  33.270  31.084  1.00  0.00     0.058 A 
ATOM     75  C   UNL A   1      35.094  33.213  31.550  1.00  0.00     0.135 A 
ATOM     76  C   UNL A   1      36.674  34.049  29.946  1.00  0.00     0.135 A 
ATOM     77  F   UNL A   1      34.795  32.476  32.630  1.00  0.00    -0.206 F 
ATOM     78  C   UNL A   1      34.063  33.885  30.902  1.00  0.00     0.059 A 
ATOM     79  C   UNL A   1      35.664  34.751  29.296  1.00  0.00     0.059 A 
ATOM     80  F   UNL A   1      37.926  34.149  29.470  1.00  0.00    -0.206 F 
ATOM     81  C   UNL A   1      34.359  34.653  29.775  1.00  0.00     0.060 A 
BRANCH  81  82
ATOM     82  S   UNL A   1      33.022  35.561  28.966  1.00  0.00     0.124 S 
ATOM     83  O   UNL A   1      33.763  36.557  28.202  1.00  0.00    -0.237 OA
ATOM     84  O   UNL A   1      32.368  34.513  28.187  1.00  0.00    -0.237 OA
ATOM     85  O   UNL A   1      32.241  36.075  30.088  1.00  0.00    -0.744 OA
ENDBRANCH  81  82
ENDBRANCH  49  74
BRANCH  61  86
ATOM     86  C   UNL A   1      39.998  34.445  36.950  1.00  0.00     0.058 A 
ATOM     87  C   UNL A   1      40.770  35.604  36.779  1.00  0.00     0.135 A 
ATOM     88  C   UNL A   1      39.172  34.371  38.084  1.00  0.00     0.135 A 
ATOM     89  F   UNL A   1      41.580  35.726  35.715  1.00  0.00    -0.206 F 
ATOM     90  C   UNL A   1      40.752  36.635  37.715  1.00  0.00     0.059 A 
ATOM     91  C   UNL A   1      39.117  35.403  39.018  1.00  0.00     0.059 A 
ATOM     92  F   UNL A   1      38.402  33.291  38.292  1.00  0.00    -0.206 F 
ATOM     93  C   UNL A   1      39.925  36.523  38.834  1.00  0.00     0.060 A 
BRANCH  93  94
ATOM     94  S   UNL A   1      39.904  37.868  40.038  1.00  0.00     0.124 S 
ATOM     95  O   UNL A   1      39.746  37.137  41.292  1.00  0.00    -0.237 OA
ATOM     96  O   UNL A   1      41.205  38.497  39.830  1.00  0.00    -0.237 OA
ATOM     97  O   UNL A   1      38.755  38.670  39.630  1.00  0.00    -0.744 OA
ENDBRANCH  93  94
ENDBRANCH  61  86
ENDBRANCH  35  36
ENDBRANCH  27  30
ENDBRANCH  25  26
ENDBRANCH   1  25
TORSDOF 16
ENDMDL
MODEL 3
REMARK VINA RESULT:      -9.9      3.699     10.150
REMARK SMILES CC[C@@](C)(NC(=O)c1cccc2ccccc12)C(=O)NCCCNC(=O)c1ccc(-c2c3nc(c(-c4c(F)cc(S(=O)(=O)[O-])cc4F)c4ccc([nH]4)c(-c4c(F)cc(S(=O)(=O)[O-])cc4F)c4nc(c(-c5c(F)cc(S(=O)(=O)[O-])cc5F)c5ccc2[nH]5)C=C4)C=C3)cc1
REMARK SMILES IDX 22 1 21 2 20 3 18 4 19 5 3 7 4 8 2 9 1 10 5 11 6 12 7 14
REMARK SMILES IDX 8 15 9 16 17 17 10 18 12 19 16 20 11 21 13 22 15 23 14 24
REMARK SMILES IDX 23 25 24 26 25 27 26 29 27 30 28 31 92 32 29 33 91 34 30 35
REMARK SMILES IDX 31 36 32 37 85 38 33 39 90 40 84 41 86 42 34 43 89 44 83 45
REMARK SMILES IDX 82 46 35 48 69 49 48 50 68 51 49 52 52 53 67 54 87 55 50 56
REMARK SMILES IDX 51 57 66 59 88 60 53 61 36 62 37 63 46 64 38 65 39 66 45 67
REMARK SMILES IDX 47 68 40 69 41 70 42 71 43 72 44 73 70 74 71 75 80 76 72 77
REMARK SMILES IDX 73 78 79 79 81 80 74 81 75 82 76 83 77 84 78 85 54 86 55 87
REMARK SMILES IDX 64 88 56 89 57 90 63 91 65 92 58 93 59 94 60 95 61 96 62 97
REMARK H PARENT 20 6 5 13 24 28 86 47 52 58
REMARK Flexibility Score: inf
ROOT
ATOM      1  C   UNL A   1      34.528  30.843  27.266  1.00  0.00     0.042 C 
ENDROOT
BRANCH   1   2
ATOM      2  C   UNL A   1      34.063  29.389  27.324  1.00  0.00     0.117 C 
BRANCH   2   3
ATOM      3  N   UNL A   1      32.666  29.114  27.626  1.00  0.00    -0.354 N 
ATOM      4  C   UNL A   1      31.836  28.048  27.404  1.00  0.00     0.245 C 
ATOM      5  O   UNL A   1      30.804  28.044  28.086  1.00  0.00    -0.272 OA
ATOM      6  H   UNL A   1      32.220  29.857  28.093  1.00  0.00     0.163 HD
BRANCH   4   7
ATOM      7  C   UNL A   1      32.171  26.872  26.433  1.00  0.00     0.116 C 
ATOM      8  C   UNL A   1      31.130  26.997  25.289  1.00  0.00     0.045 C 
BRANCH   7   9
ATOM      9  C   UNL A   1      33.590  26.955  25.792  1.00  0.00     0.035 C 
ATOM     10  C   UNL A   1      33.690  27.066  24.274  1.00  0.00     0.007 C 
ENDBRANCH   7   9
BRANCH   7  11
ATOM     11  N   UNL A   1      32.041  25.504  27.019  1.00  0.00    -0.338 N 
ATOM     12  C   UNL A   1      31.981  24.204  26.546  1.00  0.00     0.252 C 
ATOM     13  H   UNL A   1      31.984  25.536  28.001  1.00  0.00     0.164 HD
ATOM     14  O   UNL A   1      31.445  23.427  27.341  1.00  0.00    -0.269 OA
BRANCH  12  15
ATOM     15  C   UNL A   1      32.576  23.667  25.261  1.00  0.00     0.047 A 
ATOM     16  C   UNL A   1      31.760  23.502  24.142  1.00  0.00     0.014 A 
ATOM     17  C   UNL A   1      33.993  23.502  25.071  1.00  0.00    -0.006 A 
ATOM     18  C   UNL A   1      32.238  23.184  22.877  1.00  0.00     0.001 A 
ATOM     19  C   UNL A   1      34.473  23.201  23.757  1.00  0.00    -0.018 A 
ATOM     20  C   UNL A   1      34.994  23.635  26.069  1.00  0.00     0.009 A 
ATOM     21  C   UNL A   1      33.594  23.039  22.687  1.00  0.00     0.009 A 
ATOM     22  C   UNL A   1      35.843  23.085  23.486  1.00  0.00     0.009 A 
ATOM     23  C   UNL A   1      36.362  23.522  25.783  1.00  0.00     0.001 A 
ATOM     24  C   UNL A   1      36.786  23.254  24.491  1.00  0.00     0.001 A 
ENDBRANCH  12  15
ENDBRANCH   7  11
ENDBRANCH   4   7
ENDBRANCH   2   3
ENDBRANCH   1   2
BRANCH   1  25
ATOM     25  C   UNL A   1      35.666  31.286  28.182  1.00  0.00     0.118 C 
BRANCH  25  26
ATOM     26  N   UNL A   1      35.560  30.802  29.542  1.00  0.00    -0.352 N 
ATOM     27  C   UNL A   1      36.480  30.186  30.355  1.00  0.00     0.251 C 
ATOM     28  H   UNL A   1      34.676  30.936  29.956  1.00  0.00     0.163 HD
ATOM     29  O   UNL A   1      36.114  29.831  31.474  1.00  0.00    -0.269 OA
BRANCH  27  30
ATOM     30  C   UNL A   1      37.876  29.910  29.926  1.00  0.00     0.039 A 
ATOM     31  C   UNL A   1      38.097  29.696  28.560  1.00  0.00     0.014 A 
ATOM     32  C   UNL A   1      38.943  29.761  30.818  1.00  0.00     0.014 A 
ATOM     33  C   UNL A   1      39.369  29.357  28.089  1.00  0.00     0.010 A 
ATOM     34  C   UNL A   1      40.231  29.472  30.340  1.00  0.00     0.010 A 
ATOM     35  C   UNL A   1      40.456  29.250  28.971  1.00  0.00    -0.014 A 
BRANCH  35  36
ATOM     36  C   UNL A   1      41.801  28.872  28.448  1.00  0.00     0.031 A 
ATOM     37  C   UNL A   1      42.909  29.891  28.362  1.00  0.00     0.074 A 
ATOM     38  C   UNL A   1      42.042  27.600  28.073  1.00  0.00     0.049 A 
ATOM     39  N   UNL A   1      44.161  29.724  28.013  1.00  0.00    -0.248 NA
ATOM     40  C   UNL A   1      42.565  31.280  28.700  1.00  0.00     0.031 C 
ATOM     41  C   UNL A   1      41.053  26.521  28.067  1.00  0.00     0.029 A 
ATOM     42  N   UNL A   1      43.195  26.993  27.635  1.00  0.00    -0.354 N 
ATOM     43  C   UNL A   1      44.752  30.980  28.088  1.00  0.00     0.074 A 
ATOM     44  C   UNL A   1      43.709  31.909  28.468  1.00  0.00     0.031 C 
ATOM     45  C   UNL A   1      41.646  25.382  27.674  1.00  0.00     0.029 A 
ATOM     46  C   UNL A   1      43.053  25.649  27.382  1.00  0.00     0.049 A 
ATOM     47  H   UNL A   1      44.044  27.476  27.513  1.00  0.00     0.167 HD
ATOM     48  C   UNL A   1      46.047  31.329  27.886  1.00  0.00     0.037 A 
ATOM     49  C   UNL A   1      43.951  24.731  26.972  1.00  0.00     0.037 A 
ATOM     50  C   UNL A   1      47.092  30.404  27.521  1.00  0.00     0.049 A 
ATOM     51  C   UNL A   1      45.386  25.137  26.767  1.00  0.00     0.074 A 
ATOM     52  C   UNL A   1      48.440  30.658  27.332  1.00  0.00     0.029 A 
ATOM     53  N   UNL A   1      46.907  29.049  27.289  1.00  0.00    -0.354 N 
ATOM     54  N   UNL A   1      45.938  26.318  26.909  1.00  0.00    -0.248 NA
ATOM     55  C   UNL A   1      46.326  24.079  26.367  1.00  0.00     0.031 C 
ATOM     56  C   UNL A   1      49.064  29.465  26.948  1.00  0.00     0.029 A 
ATOM     57  C   UNL A   1      48.113  28.457  26.948  1.00  0.00     0.049 A 
ATOM     58  H   UNL A   1      46.046  28.577  27.356  1.00  0.00     0.167 HD
ATOM     59  C   UNL A   1      47.293  26.139  26.650  1.00  0.00     0.074 A 
ATOM     60  C   UNL A   1      47.478  24.734  26.351  1.00  0.00     0.031 C 
ATOM     61  C   UNL A   1      48.293  27.055  26.663  1.00  0.00     0.037 A 
BRANCH  48  62
ATOM     62  C   UNL A   1      46.413  32.779  28.058  1.00  0.00     0.058 A 
ATOM     63  C   UNL A   1      46.256  33.707  27.016  1.00  0.00     0.135 A 
ATOM     64  C   UNL A   1      46.893  33.256  29.290  1.00  0.00     0.135 A 
ATOM     65  F   UNL A   1      45.811  33.305  25.814  1.00  0.00    -0.206 F 
ATOM     66  C   UNL A   1      46.592  35.048  27.176  1.00  0.00     0.059 A 
ATOM     67  C   UNL A   1      47.209  34.598  29.481  1.00  0.00     0.059 A 
ATOM     68  F   UNL A   1      47.057  32.415  30.322  1.00  0.00    -0.206 F 
ATOM     69  C   UNL A   1      47.072  35.483  28.413  1.00  0.00     0.060 A 
BRANCH  69  70
ATOM     70  S   UNL A   1      47.511  37.224  28.603  1.00  0.00     0.124 S 
ATOM     71  O   UNL A   1      46.195  37.842  28.733  1.00  0.00    -0.237 OA
ATOM     72  O   UNL A   1      48.327  37.213  29.811  1.00  0.00    -0.237 OA
ATOM     73  O   UNL A   1      48.227  37.531  27.368  1.00  0.00    -0.744 OA
ENDBRANCH  69  70
ENDBRANCH  48  62
BRANCH  49  74
ATOM     74  C   UNL A   1      43.527  23.319  26.766  1.00  0.00     0.058 A 
ATOM     75  C   UNL A   1      43.252  22.478  27.856  1.00  0.00     0.135 A 
ATOM     76  C   UNL A   1      43.386  22.784  25.477  1.00  0.00     0.135 A 
ATOM     77  F   UNL A   1      43.381  22.941  29.108  1.00  0.00    -0.206 F 
ATOM     78  C   UNL A   1      42.871  21.153  27.675  1.00  0.00     0.059 A 
ATOM     79  C   UNL A   1      42.981  21.469  25.271  1.00  0.00     0.059 A 
ATOM     80  F   UNL A   1      43.622  23.552  24.401  1.00  0.00    -0.206 F 
ATOM     81  C   UNL A   1      42.736  20.658  26.377  1.00  0.00     0.060 A 
BRANCH  81  82
ATOM     82  S   UNL A   1      42.195  18.948  26.152  1.00  0.00     0.124 S 
ATOM     83  O   UNL A   1      43.093  18.493  25.097  1.00  0.00    -0.237 OA
ATOM     84  O   UNL A   1      42.423  18.377  27.476  1.00  0.00    -0.237 OA
ATOM     85  O   UNL A   1      40.792  19.089  25.772  1.00  0.00    -0.744 OA
ENDBRANCH  81  82
ENDBRANCH  49  74
BRANCH  61  86
ATOM     86  C   UNL A   1      49.690  26.561  26.396  1.00  0.00     0.058 A 
ATOM     87  C   UNL A   1      50.469  25.956  27.394  1.00  0.00     0.135 A 
ATOM     88  C   UNL A   1      50.246  26.673  25.111  1.00  0.00     0.135 A 
ATOM     89  F   UNL A   1      49.987  25.826  28.641  1.00  0.00    -0.206 F 
ATOM     90  C   UNL A   1      51.764  25.514  27.138  1.00  0.00     0.059 A 
ATOM     91  C   UNL A   1      51.528  26.211  24.825  1.00  0.00     0.059 A 
ATOM     92  F   UNL A   1      49.540  27.230  24.114  1.00  0.00    -0.206 F 
ATOM     93  C   UNL A   1      52.287  25.650  25.851  1.00  0.00     0.060 A 
BRANCH  93  94
ATOM     94  S   UNL A   1      53.965  25.067  25.527  1.00  0.00     0.124 S 
ATOM     95  O   UNL A   1      53.779  23.619  25.535  1.00  0.00    -0.237 OA
ATOM     96  O   UNL A   1      54.258  25.661  24.226  1.00  0.00    -0.237 OA
ATOM     97  O   UNL A   1      54.733  25.608  26.643  1.00  0.00    -0.744 OA
ENDBRANCH  93  94
ENDBRANCH  61  86
ENDBRANCH  35  36
ENDBRANCH  27  30
ENDBRANCH  25  26
ENDBRANCH   1  25
TORSDOF 16
ENDMDL
