MODEL 1
REMARK VINA RESULT:     -12.3      0.000      0.000
REMARK SMILES CC1=C[C@@H]([C@@H]2N=N[C@H](S)N2/N=C/c2ccc(C(=O)NCCCNC(=O)c3ccc(-c4c5nc(c(-c6c(F)cc(S(=O)(=O)[O-])cc6F)c6ccc([nH]6)c(-c6c(F)cc(S(=O)(=O)[O-])cc6F)c6nc(c(-c7c(F)cc(S(=O)(=O)[O-])cc7F)c7ccc4[nH]7)C=C6)C=C5)cc3)cc2)N=N1
REMARK SMILES IDX 21 1 20 2 19 3 17 4 18 5 16 7 13 8 14 9 93 10 15 11 92 12
REMARK SMILES IDX 12 13 11 14 10 15 5 16 6 17 7 18 8 19 4 20 1 21 2 22 3 23
REMARK SMILES IDX 95 24 94 25 9 26 22 28 23 29 24 30 25 32 26 33 27 34 91 35
REMARK SMILES IDX 28 36 90 37 29 38 30 39 31 40 84 41 32 42 89 43 83 44 85 45
REMARK SMILES IDX 33 46 88 47 82 48 81 49 34 51 68 52 47 53 67 54 48 55 51 56
REMARK SMILES IDX 66 57 86 58 49 59 50 60 65 62 87 63 52 64 35 65 36 66 45 67
REMARK SMILES IDX 37 68 38 69 44 70 46 71 39 72 40 73 41 74 42 75 43 76 69 77
REMARK SMILES IDX 70 78 79 79 71 80 72 81 78 82 80 83 73 84 74 85 75 86 76 87
REMARK SMILES IDX 77 88 53 89 54 90 63 91 55 92 56 93 62 94 64 95 57 96 58 97
REMARK SMILES IDX 59 98 60 99 61 100
REMARK H PARENT 19 6 9 27 23 31 85 50 51 61
REMARK Flexibility Score: inf
ROOT
ATOM      1  C   UNL A   1      39.349  21.471  26.093  1.00  0.00     0.042 C 
ENDROOT
BRANCH   1   2
ATOM      2  C   UNL A   1      38.078  21.992  25.403  1.00  0.00     0.118 C 
BRANCH   2   3
ATOM      3  N   UNL A   1      37.022  20.992  25.357  1.00  0.00    -0.352 N 
ATOM      4  C   UNL A   1      35.692  21.080  25.021  1.00  0.00     0.251 C 
ATOM      5  O   UNL A   1      35.046  20.038  24.928  1.00  0.00    -0.269 OA
ATOM      6  H   UNL A   1      37.314  20.087  25.611  1.00  0.00     0.163 HD
BRANCH   4   7
ATOM      7  C   UNL A   1      35.016  22.372  24.717  1.00  0.00     0.039 A 
ATOM      8  C   UNL A   1      33.669  24.781  24.284  1.00  0.00    -0.005 A 
ATOM      9  C   UNL A   1      34.080  24.449  25.575  1.00  0.00     0.010 A 
ATOM     10  C   UNL A   1      33.967  23.958  23.206  1.00  0.00     0.010 A 
ATOM     11  C   UNL A   1      34.741  23.237  25.790  1.00  0.00     0.014 A 
ATOM     12  C   UNL A   1      34.672  22.782  23.427  1.00  0.00     0.014 A 
BRANCH   8  13
ATOM     13  C   UNL A   1      32.944  26.033  24.044  1.00  0.00     0.141 C 
ATOM     14  N   UNL A   1      31.664  26.108  24.230  1.00  0.00    -0.180 NA
BRANCH  14  15
ATOM     15  N   UNL A   1      31.048  27.281  23.963  1.00  0.00    -0.233 NA
ATOM     16  C   UNL A   1      31.778  28.552  24.051  1.00  0.00     0.274 C 
ATOM     17  N   UNL A   1      31.205  29.458  23.014  1.00  0.00    -0.161 NA
ATOM     18  N   UNL A   1      30.185  28.947  22.495  1.00  0.00    -0.153 NA
ATOM     19  C   UNL A   1      30.011  27.562  22.971  1.00  0.00     0.298 C 
BRANCH  16  20
ATOM     20  C   UNL A   1      31.679  29.231  25.460  1.00  0.00     0.201 C 
ATOM     21  C   UNL A   1      34.939  29.020  27.125  1.00  0.00     0.068 C 
ATOM     22  C   UNL A   1      33.507  29.046  26.736  1.00  0.00     0.058 C 
ATOM     23  C   UNL A   1      32.951  29.891  25.871  1.00  0.00     0.031 C 
ATOM     24  N   UNL A   1      32.638  28.063  27.139  1.00  0.00    -0.160 NA
ATOM     25  N   UNL A   1      31.541  28.175  26.513  1.00  0.00    -0.177 NA
ENDBRANCH  16  20
BRANCH  19  26
ATOM     26  S   UNL A   1      28.374  27.164  23.677  1.00  0.00    -0.128 SA
ATOM     27  H   UNL A   1      27.425  27.277  22.710  1.00  0.00     0.106 HD
ENDBRANCH  19  26
ENDBRANCH  14  15
ENDBRANCH   8  13
ENDBRANCH   4   7
ENDBRANCH   2   3
ENDBRANCH   1   2
BRANCH   1  28
ATOM     28  C   UNL A   1      40.304  22.581  26.474  1.00  0.00     0.118 C 
BRANCH  28  29
ATOM     29  N   UNL A   1      41.603  22.452  25.802  1.00  0.00    -0.352 N 
ATOM     30  C   UNL A   1      42.506  23.441  25.438  1.00  0.00     0.251 C 
ATOM     31  H   UNL A   1      41.873  21.532  25.578  1.00  0.00     0.163 HD
ATOM     32  O   UNL A   1      43.351  23.226  24.588  1.00  0.00    -0.269 OA
BRANCH  30  33
ATOM     33  C   UNL A   1      42.415  24.752  26.106  1.00  0.00     0.039 A 
ATOM     34  C   UNL A   1      41.608  25.792  25.632  1.00  0.00     0.014 A 
ATOM     35  C   UNL A   1      43.139  24.900  27.277  1.00  0.00     0.014 A 
ATOM     36  C   UNL A   1      41.504  26.953  26.397  1.00  0.00     0.010 A 
ATOM     37  C   UNL A   1      42.798  25.884  28.149  1.00  0.00     0.010 A 
ATOM     38  C   UNL A   1      42.103  26.979  27.661  1.00  0.00    -0.014 A 
BRANCH  38  39
ATOM     39  C   UNL A   1      42.018  28.107  28.571  1.00  0.00     0.031 A 
ATOM     40  C   UNL A   1      43.118  29.090  28.434  1.00  0.00     0.074 A 
ATOM     41  C   UNL A   1      40.865  28.371  29.228  1.00  0.00     0.049 A 
ATOM     42  N   UNL A   1      44.063  29.329  29.279  1.00  0.00    -0.248 NA
ATOM     43  C   UNL A   1      43.301  29.756  27.133  1.00  0.00     0.031 C 
ATOM     44  C   UNL A   1      39.592  27.636  29.169  1.00  0.00     0.029 A 
ATOM     45  N   UNL A   1      40.539  29.451  29.982  1.00  0.00    -0.354 N 
ATOM     46  C   UNL A   1      44.801  30.369  28.725  1.00  0.00     0.074 A 
ATOM     47  C   UNL A   1      44.455  30.399  27.329  1.00  0.00     0.031 C 
ATOM     48  C   UNL A   1      38.595  28.411  29.645  1.00  0.00     0.029 A 
ATOM     49  C   UNL A   1      39.171  29.625  30.187  1.00  0.00     0.049 A 
ATOM     50  H   UNL A   1      41.214  30.062  30.356  1.00  0.00     0.167 HD
ATOM     51  C   UNL A   1      45.414  31.296  29.514  1.00  0.00     0.037 A 
ATOM     52  C   UNL A   1      38.572  30.720  30.721  1.00  0.00     0.037 A 
ATOM     53  C   UNL A   1      45.417  30.870  30.896  1.00  0.00     0.049 A 
ATOM     54  C   UNL A   1      39.631  31.445  31.483  1.00  0.00     0.074 A 
ATOM     55  C   UNL A   1      45.890  29.754  31.559  1.00  0.00     0.029 A 
ATOM     56  N   UNL A   1      44.496  31.448  31.740  1.00  0.00    -0.354 N 
ATOM     57  N   UNL A   1      40.211  30.954  32.549  1.00  0.00    -0.248 NA
ATOM     58  C   UNL A   1      40.396  32.465  30.780  1.00  0.00     0.031 C 
ATOM     59  C   UNL A   1      44.885  29.446  32.522  1.00  0.00     0.029 A 
ATOM     60  C   UNL A   1      43.904  30.439  32.460  1.00  0.00     0.049 A 
ATOM     61  H   UNL A   1      44.297  32.409  31.815  1.00  0.00     0.167 HD
ATOM     62  C   UNL A   1      41.556  31.271  32.405  1.00  0.00     0.074 A 
ATOM     63  C   UNL A   1      41.596  32.273  31.341  1.00  0.00     0.031 C 
ATOM     64  C   UNL A   1      42.535  30.473  32.934  1.00  0.00     0.037 A 
BRANCH  51  65
ATOM     65  C   UNL A   1      45.672  32.733  29.124  1.00  0.00     0.058 A 
ATOM     66  C   UNL A   1      44.580  33.540  28.739  1.00  0.00     0.135 A 
ATOM     67  C   UNL A   1      46.949  33.274  28.855  1.00  0.00     0.135 A 
ATOM     68  F   UNL A   1      43.319  33.130  28.948  1.00  0.00    -0.206 F 
ATOM     69  C   UNL A   1      44.745  34.748  28.061  1.00  0.00     0.059 A 
ATOM     70  C   UNL A   1      47.136  34.503  28.235  1.00  0.00     0.059 A 
ATOM     71  F   UNL A   1      48.081  32.600  29.084  1.00  0.00    -0.206 F 
ATOM     72  C   UNL A   1      46.030  35.210  27.799  1.00  0.00     0.060 A 
BRANCH  72  73
ATOM     73  S   UNL A   1      46.249  36.707  26.822  1.00  0.00     0.124 S 
ATOM     74  O   UNL A   1      47.185  37.457  27.650  1.00  0.00    -0.237 OA
ATOM     75  O   UNL A   1      46.781  36.175  25.571  1.00  0.00    -0.237 OA
ATOM     76  O   UNL A   1      44.898  37.253  26.739  1.00  0.00    -0.744 OA
ENDBRANCH  72  73
ENDBRANCH  51  65
BRANCH  52  77
ATOM     77  C   UNL A   1      37.266  31.329  30.333  1.00  0.00     0.058 A 
ATOM     78  C   UNL A   1      36.413  31.906  31.292  1.00  0.00     0.135 A 
ATOM     79  C   UNL A   1      36.940  31.599  28.986  1.00  0.00     0.135 A 
ATOM     80  F   UNL A   1      36.646  31.718  32.601  1.00  0.00    -0.206 F 
ATOM     81  C   UNL A   1      35.345  32.744  30.942  1.00  0.00     0.059 A 
ATOM     82  C   UNL A   1      35.874  32.418  28.612  1.00  0.00     0.059 A 
ATOM     83  F   UNL A   1      37.705  31.151  27.981  1.00  0.00    -0.206 F 
ATOM     84  C   UNL A   1      35.099  33.014  29.597  1.00  0.00     0.060 A 
BRANCH  84  85
ATOM     85  S   UNL A   1      33.862  34.254  29.139  1.00  0.00     0.124 S 
ATOM     86  O   UNL A   1      34.689  35.313  28.570  1.00  0.00    -0.237 OA
ATOM     87  O   UNL A   1      33.026  33.521  28.194  1.00  0.00    -0.237 OA
ATOM     88  O   UNL A   1      33.218  34.579  30.409  1.00  0.00    -0.744 OA
ENDBRANCH  84  85
ENDBRANCH  52  77
BRANCH  64  89
ATOM     89  C   UNL A   1      42.135  29.385  33.903  1.00  0.00     0.058 A 
ATOM     90  C   UNL A   1      41.861  28.055  33.538  1.00  0.00     0.135 A 
ATOM     91  C   UNL A   1      42.212  29.659  35.277  1.00  0.00     0.135 A 
ATOM     92  F   UNL A   1      41.879  27.672  32.256  1.00  0.00    -0.206 F 
ATOM     93  C   UNL A   1      41.630  27.056  34.487  1.00  0.00     0.059 A 
ATOM     94  C   UNL A   1      42.020  28.673  36.243  1.00  0.00     0.059 A 
ATOM     95  F   UNL A   1      42.538  30.893  35.698  1.00  0.00    -0.206 F 
ATOM     96  C   UNL A   1      41.714  27.375  35.839  1.00  0.00     0.060 A 
BRANCH  96  97
ATOM     97  S   UNL A   1      41.489  26.070  37.066  1.00  0.00     0.124 S 
ATOM     98  O   UNL A   1      40.207  26.429  37.664  1.00  0.00    -0.237 OA
ATOM     99  O   UNL A   1      41.490  24.859  36.248  1.00  0.00    -0.237 OA
ATOM    100  O   UNL A   1      42.649  26.220  37.940  1.00  0.00    -0.744 OA
ENDBRANCH  96  97
ENDBRANCH  64  89
ENDBRANCH  38  39
ENDBRANCH  30  33
ENDBRANCH  28  29
ENDBRANCH   1  28
TORSDOF 17
ENDMDL
MODEL 2
REMARK VINA RESULT:     -12.3      3.315      5.312
REMARK SMILES CC1=C[C@@H]([C@@H]2N=N[C@H](S)N2/N=C/c2ccc(C(=O)NCCCNC(=O)c3ccc(-c4c5nc(c(-c6c(F)cc(S(=O)(=O)[O-])cc6F)c6ccc([nH]6)c(-c6c(F)cc(S(=O)(=O)[O-])cc6F)c6nc(c(-c7c(F)cc(S(=O)(=O)[O-])cc7F)c7ccc4[nH]7)C=C6)C=C5)cc3)cc2)N=N1
REMARK SMILES IDX 21 1 20 2 19 3 17 4 18 5 16 7 13 8 14 9 93 10 15 11 92 12
REMARK SMILES IDX 12 13 11 14 10 15 5 16 6 17 7 18 8 19 4 20 1 21 2 22 3 23
REMARK SMILES IDX 95 24 94 25 9 26 22 28 23 29 24 30 25 32 26 33 27 34 91 35
REMARK SMILES IDX 28 36 90 37 29 38 30 39 31 40 84 41 32 42 89 43 83 44 85 45
REMARK SMILES IDX 33 46 88 47 82 48 81 49 34 51 68 52 47 53 67 54 48 55 51 56
REMARK SMILES IDX 66 57 86 58 49 59 50 60 65 62 87 63 52 64 35 65 36 66 45 67
REMARK SMILES IDX 37 68 38 69 44 70 46 71 39 72 40 73 41 74 42 75 43 76 69 77
REMARK SMILES IDX 70 78 79 79 71 80 72 81 78 82 80 83 73 84 74 85 75 86 76 87
REMARK SMILES IDX 77 88 53 89 54 90 63 91 55 92 56 93 62 94 64 95 57 96 58 97
REMARK SMILES IDX 59 98 60 99 61 100
REMARK H PARENT 19 6 9 27 23 31 85 50 51 61
REMARK Flexibility Score: inf
ROOT
ATOM      1  C   UNL A   1      43.956  18.749  25.164  1.00  0.00     0.042 C 
ENDROOT
BRANCH   1   2
ATOM      2  C   UNL A   1      42.817  18.992  26.167  1.00  0.00     0.118 C 
BRANCH   2   3
ATOM      3  N   UNL A   1      42.911  20.295  26.808  1.00  0.00    -0.352 N 
ATOM      4  C   UNL A   1      41.972  21.272  27.035  1.00  0.00     0.251 C 
ATOM      5  O   UNL A   1      42.290  22.232  27.735  1.00  0.00    -0.269 OA
ATOM      6  H   UNL A   1      43.810  20.516  27.139  1.00  0.00     0.163 HD
BRANCH   4   7
ATOM      7  C   UNL A   1      40.577  21.195  26.517  1.00  0.00     0.039 A 
ATOM      8  C   UNL A   1      38.013  20.948  25.437  1.00  0.00    -0.005 A 
ATOM      9  C   UNL A   1      38.836  19.825  25.508  1.00  0.00     0.010 A 
ATOM     10  C   UNL A   1      38.429  22.172  25.943  1.00  0.00     0.010 A 
ATOM     11  C   UNL A   1      40.124  19.956  26.037  1.00  0.00     0.014 A 
ATOM     12  C   UNL A   1      39.691  22.275  26.514  1.00  0.00     0.014 A 
BRANCH   8  13
ATOM     13  C   UNL A   1      36.672  20.839  24.855  1.00  0.00     0.141 C 
ATOM     14  N   UNL A   1      35.613  20.934  25.595  1.00  0.00    -0.180 NA
BRANCH  14  15
ATOM     15  N   UNL A   1      34.406  20.794  25.004  1.00  0.00    -0.233 NA
ATOM     16  C   UNL A   1      33.616  19.570  25.185  1.00  0.00     0.274 C 
ATOM     17  N   UNL A   1      32.179  19.968  25.161  1.00  0.00    -0.161 NA
ATOM     18  N   UNL A   1      32.060  21.173  24.836  1.00  0.00    -0.153 NA
ATOM     19  C   UNL A   1      33.387  21.813  24.759  1.00  0.00     0.298 C 
BRANCH  16  20
ATOM     20  C   UNL A   1      33.883  18.488  24.082  1.00  0.00     0.201 C 
ATOM     21  C   UNL A   1      32.652  15.242  25.264  1.00  0.00     0.068 C 
ATOM     22  C   UNL A   1      33.386  16.387  24.671  1.00  0.00     0.058 C 
ATOM     23  C   UNL A   1      32.834  17.428  24.051  1.00  0.00     0.031 C 
ATOM     24  N   UNL A   1      34.737  16.544  24.856  1.00  0.00    -0.160 NA
ATOM     25  N   UNL A   1      35.096  17.691  24.450  1.00  0.00    -0.177 NA
ENDBRANCH  16  20
BRANCH  19  26
ATOM     26  S   UNL A   1      33.760  22.679  23.195  1.00  0.00    -0.128 SA
ATOM     27  H   UNL A   1      32.707  22.550  22.344  1.00  0.00     0.106 HD
ENDBRANCH  19  26
ENDBRANCH  14  15
ENDBRANCH   8  13
ENDBRANCH   4   7
ENDBRANCH   2   3
ENDBRANCH   1   2
BRANCH   1  28
ATOM     28  C   UNL A   1      44.950  19.889  25.121  1.00  0.00     0.118 C 
BRANCH  28  29
ATOM     29  N   UNL A   1      44.935  20.591  23.832  1.00  0.00    -0.352 N 
ATOM     30  C   UNL A   1      44.522  21.883  23.540  1.00  0.00     0.251 C 
ATOM     31  H   UNL A   1      45.266  20.071  23.064  1.00  0.00     0.163 HD
ATOM     32  O   UNL A   1      44.234  22.199  22.399  1.00  0.00    -0.269 OA
BRANCH  30  33
ATOM     33  C   UNL A   1      44.440  22.858  24.643  1.00  0.00     0.039 A 
ATOM     34  C   UNL A   1      45.424  22.970  25.632  1.00  0.00     0.014 A 
ATOM     35  C   UNL A   1      43.350  23.712  24.633  1.00  0.00     0.014 A 
ATOM     36  C   UNL A   1      45.310  23.997  26.567  1.00  0.00     0.010 A 
ATOM     37  C   UNL A   1      43.408  24.871  25.339  1.00  0.00     0.010 A 
ATOM     38  C   UNL A   1      44.295  24.946  26.401  1.00  0.00    -0.014 A 
BRANCH  38  39
ATOM     39  C   UNL A   1      44.110  26.091  27.275  1.00  0.00     0.031 A 
ATOM     40  C   UNL A   1      45.075  27.192  27.057  1.00  0.00     0.074 A 
ATOM     41  C   UNL A   1      42.960  26.240  27.973  1.00  0.00     0.049 A 
ATOM     42  N   UNL A   1      46.017  27.575  27.851  1.00  0.00    -0.248 NA
ATOM     43  C   UNL A   1      45.125  27.825  25.728  1.00  0.00     0.031 C 
ATOM     44  C   UNL A   1      41.784  25.355  27.995  1.00  0.00     0.029 A 
ATOM     45  N   UNL A   1      42.535  27.301  28.704  1.00  0.00    -0.354 N 
ATOM     46  C   UNL A   1      46.601  28.673  27.231  1.00  0.00     0.074 A 
ATOM     47  C   UNL A   1      46.199  28.608  25.851  1.00  0.00     0.031 C 
ATOM     48  C   UNL A   1      40.720  26.024  28.488  1.00  0.00     0.029 A 
ATOM     49  C   UNL A   1      41.165  27.318  28.963  1.00  0.00     0.049 A 
ATOM     50  H   UNL A   1      43.145  28.003  29.027  1.00  0.00     0.167 HD
ATOM     51  C   UNL A   1      47.128  29.697  27.961  1.00  0.00     0.037 A 
ATOM     52  C   UNL A   1      40.460  28.353  29.485  1.00  0.00     0.037 A 
ATOM     53  C   UNL A   1      47.238  29.328  29.354  1.00  0.00     0.049 A 
ATOM     54  C   UNL A   1      41.452  29.228  30.176  1.00  0.00     0.074 A 
ATOM     55  C   UNL A   1      47.868  28.303  30.033  1.00  0.00     0.029 A 
ATOM     56  N   UNL A   1      46.287  29.823  30.219  1.00  0.00    -0.354 N 
ATOM     57  N   UNL A   1      42.129  28.851  31.231  1.00  0.00    -0.248 NA
ATOM     58  C   UNL A   1      42.060  30.304  29.406  1.00  0.00     0.031 C 
ATOM     59  C   UNL A   1      46.947  27.915  31.050  1.00  0.00     0.029 A 
ATOM     60  C   UNL A   1      45.851  28.779  30.997  1.00  0.00     0.049 A 
ATOM     61  H   UNL A   1      45.977  30.756  30.270  1.00  0.00     0.167 HD
ATOM     62  C   UNL A   1      43.419  29.321  31.017  1.00  0.00     0.074 A 
ATOM     63  C   UNL A   1      43.295  30.280  29.919  1.00  0.00     0.031 C 
ATOM     64  C   UNL A   1      44.507  28.668  31.529  1.00  0.00     0.037 A 
BRANCH  51  65
ATOM     65  C   UNL A   1      47.195  31.139  27.512  1.00  0.00     0.058 A 
ATOM     66  C   UNL A   1      48.425  31.823  27.601  1.00  0.00     0.135 A 
ATOM     67  C   UNL A   1      46.068  31.951  27.254  1.00  0.00     0.135 A 
ATOM     68  F   UNL A   1      49.564  31.153  27.840  1.00  0.00    -0.206 F 
ATOM     69  C   UNL A   1      48.516  33.213  27.528  1.00  0.00     0.059 A 
ATOM     70  C   UNL A   1      46.144  33.331  27.117  1.00  0.00     0.059 A 
ATOM     71  F   UNL A   1      44.821  31.467  27.222  1.00  0.00    -0.206 F 
ATOM     72  C   UNL A   1      47.364  33.958  27.303  1.00  0.00     0.060 A 
BRANCH  72  73
ATOM     73  S   UNL A   1      47.455  35.756  27.324  1.00  0.00     0.124 S 
ATOM     74  O   UNL A   1      48.313  36.015  26.176  1.00  0.00    -0.237 OA
ATOM     75  O   UNL A   1      46.052  36.131  27.177  1.00  0.00    -0.237 OA
ATOM     76  O   UNL A   1      48.040  36.046  28.631  1.00  0.00    -0.744 OA
ENDBRANCH  72  73
ENDBRANCH  51  65
BRANCH  52  77
ATOM     77  C   UNL A   1      39.076  28.786  29.135  1.00  0.00     0.058 A 
ATOM     78  C   UNL A   1      38.084  28.941  30.122  1.00  0.00     0.135 A 
ATOM     79  C   UNL A   1      38.758  29.313  27.864  1.00  0.00     0.135 A 
ATOM     80  F   UNL A   1      38.296  28.484  31.367  1.00  0.00    -0.206 F 
ATOM     81  C   UNL A   1      36.885  29.627  29.883  1.00  0.00     0.059 A 
ATOM     82  C   UNL A   1      37.565  29.986  27.598  1.00  0.00     0.059 A 
ATOM     83  F   UNL A   1      39.639  29.276  26.855  1.00  0.00    -0.206 F 
ATOM     84  C   UNL A   1      36.646  30.169  28.621  1.00  0.00     0.060 A 
BRANCH  84  85
ATOM     85  S   UNL A   1      35.205  31.232  28.356  1.00  0.00     0.124 S 
ATOM     86  O   UNL A   1      34.283  30.330  27.675  1.00  0.00    -0.237 OA
ATOM     87  O   UNL A   1      34.842  31.605  29.719  1.00  0.00    -0.237 OA
ATOM     88  O   UNL A   1      35.732  32.322  27.537  1.00  0.00    -0.744 OA
ENDBRANCH  84  85
ENDBRANCH  52  77
BRANCH  64  89
ATOM     89  C   UNL A   1      44.282  27.578  32.551  1.00  0.00     0.058 A 
ATOM     90  C   UNL A   1      43.983  27.809  33.907  1.00  0.00     0.135 A 
ATOM     91  C   UNL A   1      44.185  26.254  32.101  1.00  0.00     0.135 A 
ATOM     92  F   UNL A   1      43.937  29.051  34.403  1.00  0.00    -0.206 F 
ATOM     93  C   UNL A   1      43.649  26.772  34.781  1.00  0.00     0.059 A 
ATOM     94  C   UNL A   1      43.820  25.207  32.944  1.00  0.00     0.059 A 
ATOM     95  F   UNL A   1      44.389  25.970  30.803  1.00  0.00    -0.206 F 
ATOM     96  C   UNL A   1      43.568  25.472  34.288  1.00  0.00     0.060 A 
BRANCH  96  97
ATOM     97  S   UNL A   1      43.063  24.141  35.400  1.00  0.00     0.124 S 
ATOM     98  O   UNL A   1      41.622  24.354  35.496  1.00  0.00    -0.237 OA
ATOM     99  O   UNL A   1      43.479  22.944  34.674  1.00  0.00    -0.237 OA
ATOM    100  O   UNL A   1      43.817  24.412  36.621  1.00  0.00    -0.744 OA
ENDBRANCH  96  97
ENDBRANCH  64  89
ENDBRANCH  38  39
ENDBRANCH  30  33
ENDBRANCH  28  29
ENDBRANCH   1  28
TORSDOF 17
ENDMDL
MODEL 3
REMARK VINA RESULT:     -12.0      2.727      9.321
REMARK SMILES CC1=C[C@@H]([C@@H]2N=N[C@H](S)N2/N=C/c2ccc(C(=O)NCCCNC(=O)c3ccc(-c4c5nc(c(-c6c(F)cc(S(=O)(=O)[O-])cc6F)c6ccc([nH]6)c(-c6c(F)cc(S(=O)(=O)[O-])cc6F)c6nc(c(-c7c(F)cc(S(=O)(=O)[O-])cc7F)c7ccc4[nH]7)C=C6)C=C5)cc3)cc2)N=N1
REMARK SMILES IDX 21 1 20 2 19 3 17 4 18 5 16 7 13 8 14 9 93 10 15 11 92 12
REMARK SMILES IDX 12 13 11 14 10 15 5 16 6 17 7 18 8 19 4 20 1 21 2 22 3 23
REMARK SMILES IDX 95 24 94 25 9 26 22 28 23 29 24 30 25 32 26 33 27 34 91 35
REMARK SMILES IDX 28 36 90 37 29 38 30 39 31 40 84 41 32 42 89 43 83 44 85 45
REMARK SMILES IDX 33 46 88 47 82 48 81 49 34 51 68 52 47 53 67 54 48 55 51 56
REMARK SMILES IDX 66 57 86 58 49 59 50 60 65 62 87 63 52 64 35 65 36 66 45 67
REMARK SMILES IDX 37 68 38 69 44 70 46 71 39 72 40 73 41 74 42 75 43 76 69 77
REMARK SMILES IDX 70 78 79 79 71 80 72 81 78 82 80 83 73 84 74 85 75 86 76 87
REMARK SMILES IDX 77 88 53 89 54 90 63 91 55 92 56 93 62 94 64 95 57 96 58 97
REMARK SMILES IDX 59 98 60 99 61 100
REMARK H PARENT 19 6 9 27 23 31 85 50 51 61
REMARK Flexibility Score: inf
ROOT
ATOM      1  C   UNL A   1      33.458  34.962  29.049  1.00  0.00     0.042 C 
ENDROOT
BRANCH   1   2
ATOM      2  C   UNL A   1      34.029  34.242  27.817  1.00  0.00     0.118 C 
BRANCH   2   3
ATOM      3  N   UNL A   1      35.361  33.707  28.055  1.00  0.00    -0.352 N 
ATOM      4  C   UNL A   1      35.864  32.431  27.965  1.00  0.00     0.251 C 
ATOM      5  O   UNL A   1      37.078  32.276  28.086  1.00  0.00    -0.269 OA
ATOM      6  H   UNL A   1      36.022  34.382  28.330  1.00  0.00     0.163 HD
BRANCH   4   7
ATOM      7  C   UNL A   1      35.015  31.242  27.678  1.00  0.00     0.039 A 
ATOM      8  C   UNL A   1      33.308  29.077  27.226  1.00  0.00    -0.005 A 
ATOM      9  C   UNL A   1      32.780  30.367  27.271  1.00  0.00     0.010 A 
ATOM     10  C   UNL A   1      34.673  28.859  27.350  1.00  0.00     0.010 A 
ATOM     11  C   UNL A   1      33.635  31.446  27.511  1.00  0.00     0.014 A 
ATOM     12  C   UNL A   1      35.518  29.947  27.534  1.00  0.00     0.014 A 
BRANCH   8  13
ATOM     13  C   UNL A   1      32.422  27.929  27.010  1.00  0.00     0.141 C 
ATOM     14  N   UNL A   1      32.801  26.919  26.292  1.00  0.00    -0.180 NA
BRANCH  14  15
ATOM     15  N   UNL A   1      31.928  25.905  26.104  1.00  0.00    -0.233 NA
ATOM     16  C   UNL A   1      32.216  24.560  26.616  1.00  0.00     0.274 C 
ATOM     17  N   UNL A   1      30.909  23.945  26.992  1.00  0.00    -0.161 NA
ATOM     18  N   UNL A   1      29.957  24.669  26.618  1.00  0.00    -0.153 NA
ATOM     19  C   UNL A   1      30.466  25.950  26.092  1.00  0.00     0.298 C 
BRANCH  16  20
ATOM     20  C   UNL A   1      32.952  23.643  25.579  1.00  0.00     0.201 C 
ATOM     21  C   UNL A   1      36.574  24.069  25.960  1.00  0.00     0.068 C 
ATOM     22  C   UNL A   1      35.174  23.889  25.501  1.00  0.00     0.058 C 
ATOM     23  C   UNL A   1      34.255  23.128  26.090  1.00  0.00     0.031 C 
ATOM     24  N   UNL A   1      34.654  24.643  24.479  1.00  0.00    -0.160 NA
ATOM     25  N   UNL A   1      33.399  24.470  24.414  1.00  0.00    -0.177 NA
ENDBRANCH  16  20
BRANCH  19  26
ATOM     26  S   UNL A   1      29.888  26.408  24.421  1.00  0.00    -0.128 SA
ATOM     27  H   UNL A   1      28.600  26.836  24.490  1.00  0.00     0.106 HD
ENDBRANCH  19  26
ENDBRANCH  14  15
ENDBRANCH   8  13
ENDBRANCH   4   7
ENDBRANCH   2   3
ENDBRANCH   1   2
BRANCH   1  28
ATOM     28  C   UNL A   1      34.450  35.045  30.189  1.00  0.00     0.118 C 
BRANCH  28  29
ATOM     29  N   UNL A   1      33.948  34.404  31.411  1.00  0.00    -0.352 N 
ATOM     30  C   UNL A   1      34.390  33.250  32.043  1.00  0.00     0.251 C 
ATOM     31  H   UNL A   1      33.189  34.858  31.844  1.00  0.00     0.163 HD
ATOM     32  O   UNL A   1      33.668  32.656  32.823  1.00  0.00    -0.269 OA
BRANCH  30  33
ATOM     33  C   UNL A   1      35.751  32.768  31.746  1.00  0.00     0.039 A 
ATOM     34  C   UNL A   1      36.872  33.605  31.751  1.00  0.00     0.014 A 
ATOM     35  C   UNL A   1      35.886  31.411  31.505  1.00  0.00     0.014 A 
ATOM     36  C   UNL A   1      38.130  33.031  31.568  1.00  0.00     0.010 A 
ATOM     37  C   UNL A   1      37.108  30.832  31.635  1.00  0.00     0.010 A 
ATOM     38  C   UNL A   1      38.229  31.636  31.517  1.00  0.00    -0.014 A 
BRANCH  38  39
ATOM     39  C   UNL A   1      39.486  30.922  31.386  1.00  0.00     0.031 A 
ATOM     40  C   UNL A   1      40.172  30.646  32.669  1.00  0.00     0.074 A 
ATOM     41  C   UNL A   1      39.801  30.297  30.228  1.00  0.00     0.049 A 
ATOM     42  N   UNL A   1      41.273  31.164  33.095  1.00  0.00    -0.248 NA
ATOM     43  C   UNL A   1      39.464  29.841  33.680  1.00  0.00     0.031 C 
ATOM     44  C   UNL A   1      39.016  30.229  28.985  1.00  0.00     0.029 A 
ATOM     45  N   UNL A   1      40.832  29.456  29.963  1.00  0.00    -0.354 N 
ATOM     46  C   UNL A   1      41.530  30.544  34.312  1.00  0.00     0.074 A 
ATOM     47  C   UNL A   1      40.283  29.961  34.729  1.00  0.00     0.031 C 
ATOM     48  C   UNL A   1      39.468  29.217  28.215  1.00  0.00     0.029 A 
ATOM     49  C   UNL A   1      40.664  28.671  28.823  1.00  0.00     0.049 A 
ATOM     50  H   UNL A   1      41.635  29.405  30.529  1.00  0.00     0.167 HD
ATOM     51  C   UNL A   1      42.807  30.317  34.732  1.00  0.00     0.037 A 
ATOM     52  C   UNL A   1      41.437  27.617  28.453  1.00  0.00     0.037 A 
ATOM     53  C   UNL A   1      43.751  31.043  33.913  1.00  0.00     0.049 A 
ATOM     54  C   UNL A   1      42.733  27.777  29.175  1.00  0.00     0.074 A 
ATOM     55  C   UNL A   1      43.921  32.376  33.588  1.00  0.00     0.029 A 
ATOM     56  N   UNL A   1      44.439  30.332  32.955  1.00  0.00    -0.354 N 
ATOM     57  N   UNL A   1      43.562  28.765  28.951  1.00  0.00    -0.248 NA
ATOM     58  C   UNL A   1      42.865  27.145  30.480  1.00  0.00     0.031 C 
ATOM     59  C   UNL A   1      44.265  32.376  32.205  1.00  0.00     0.029 A 
ATOM     60  C   UNL A   1      44.379  31.048  31.785  1.00  0.00     0.049 A 
ATOM     61  H   UNL A   1      44.892  29.468  33.086  1.00  0.00     0.167 HD
ATOM     62  C   UNL A   1      44.004  29.155  30.210  1.00  0.00     0.074 A 
ATOM     63  C   UNL A   1      43.607  28.068  31.104  1.00  0.00     0.031 C 
ATOM     64  C   UNL A   1      44.367  30.449  30.465  1.00  0.00     0.037 A 
BRANCH  51  65
ATOM     65  C   UNL A   1      43.239  29.171  35.619  1.00  0.00     0.058 A 
ATOM     66  C   UNL A   1      44.035  29.449  36.750  1.00  0.00     0.135 A 
ATOM     67  C   UNL A   1      43.137  27.806  35.271  1.00  0.00     0.135 A 
ATOM     68  F   UNL A   1      44.201  30.712  37.175  1.00  0.00    -0.206 F 
ATOM     69  C   UNL A   1      44.744  28.458  37.427  1.00  0.00     0.059 A 
ATOM     70  C   UNL A   1      43.786  26.796  35.969  1.00  0.00     0.059 A 
ATOM     71  F   UNL A   1      42.488  27.386  34.179  1.00  0.00    -0.206 F 
ATOM     72  C   UNL A   1      44.625  27.135  37.015  1.00  0.00     0.060 A 
BRANCH  72  73
ATOM     73  S   UNL A   1      45.627  25.868  37.809  1.00  0.00     0.124 S 
ATOM     74  O   UNL A   1      44.657  24.793  37.972  1.00  0.00    -0.237 OA
ATOM     75  O   UNL A   1      46.674  25.645  36.817  1.00  0.00    -0.237 OA
ATOM     76  O   UNL A   1      46.069  26.514  39.042  1.00  0.00    -0.744 OA
ENDBRANCH  72  73
ENDBRANCH  51  65
BRANCH  52  77
ATOM     77  C   UNL A   1      41.001  26.348  27.801  1.00  0.00     0.058 A 
ATOM     78  C   UNL A   1      41.764  25.748  26.782  1.00  0.00     0.135 A 
ATOM     79  C   UNL A   1      39.968  25.550  28.339  1.00  0.00     0.135 A 
ATOM     80  F   UNL A   1      42.778  26.421  26.215  1.00  0.00    -0.206 F 
ATOM     81  C   UNL A   1      41.557  24.425  26.367  1.00  0.00     0.059 A 
ATOM     82  C   UNL A   1      39.733  24.237  27.931  1.00  0.00     0.059 A 
ATOM     83  F   UNL A   1      39.205  25.987  29.350  1.00  0.00    -0.206 F 
ATOM     84  C   UNL A   1      40.552  23.668  26.967  1.00  0.00     0.060 A 
BRANCH  84  85
ATOM     85  S   UNL A   1      40.409  21.903  26.592  1.00  0.00     0.124 S 
ATOM     86  O   UNL A   1      39.053  21.813  26.063  1.00  0.00    -0.237 OA
ATOM     87  O   UNL A   1      41.485  21.705  25.626  1.00  0.00    -0.237 OA
ATOM     88  O   UNL A   1      40.618  21.261  27.888  1.00  0.00    -0.744 OA
ENDBRANCH  84  85
ENDBRANCH  52  77
BRANCH  64  89
ATOM     89  C   UNL A   1      44.537  31.397  29.300  1.00  0.00     0.058 A 
ATOM     90  C   UNL A   1      45.671  31.440  28.468  1.00  0.00     0.135 A 
ATOM     91  C   UNL A   1      43.432  32.162  28.901  1.00  0.00     0.135 A 
ATOM     92  F   UNL A   1      46.731  30.659  28.704  1.00  0.00    -0.206 F 
ATOM     93  C   UNL A   1      45.722  32.238  27.323  1.00  0.00     0.059 A 
ATOM     94  C   UNL A   1      43.446  32.940  27.744  1.00  0.00     0.059 A 
ATOM     95  F   UNL A   1      42.291  32.115  29.610  1.00  0.00    -0.206 F 
ATOM     96  C   UNL A   1      44.601  32.984  26.968  1.00  0.00     0.060 A 
BRANCH  96  97
ATOM     97  S   UNL A   1      44.640  33.958  25.447  1.00  0.00     0.124 S 
ATOM     98  O   UNL A   1      46.052  34.315  25.349  1.00  0.00    -0.237 OA
ATOM     99  O   UNL A   1      44.156  33.008  24.448  1.00  0.00    -0.237 OA
ATOM    100  O   UNL A   1      43.733  35.068  25.730  1.00  0.00    -0.744 OA
ENDBRANCH  96  97
ENDBRANCH  64  89
ENDBRANCH  38  39
ENDBRANCH  30  33
ENDBRANCH  28  29
ENDBRANCH   1  28
TORSDOF 17
ENDMDL
