MODEL 1
REMARK VINA RESULT:     -13.7      0.000      0.000
REMARK SMILES Cc1cc2c(=O)cc(-c3ccc(F)cc3)oc2c(C(=O)NCCCNC(=O)c2ccc(-c3c4nc(c(-c5c(F)cc(S(=O)(=O)[O-])cc5F)c5ccc([nH]5)c(-c5c(F)cc(S(=O)(=O)[O-])cc5F)c5nc(c(-c6c(F)cc(S(=O)(=O)[O-])cc6F)c6ccc3[nH]6)C=C5)C=C4)cc2)c1C
REMARK SMILES IDX 24 1 23 2 22 3 21 4 19 5 20 6 18 8 1 9 2 10 3 11 94 12 4 13
REMARK SMILES IDX 95 14 5 15 17 16 6 17 7 18 16 19 8 20 9 21 10 22 15 23 11 24
REMARK SMILES IDX 14 25 12 26 13 27 25 28 26 29 27 31 28 32 29 33 93 34 30 35
REMARK SMILES IDX 92 36 31 37 32 38 33 39 86 40 34 41 91 42 85 43 87 44 35 45
REMARK SMILES IDX 90 46 84 47 83 48 36 50 70 51 49 52 69 53 50 54 53 55 68 56
REMARK SMILES IDX 88 57 51 58 52 59 67 61 89 62 54 63 37 64 38 65 47 66 39 67
REMARK SMILES IDX 40 68 46 69 48 70 41 71 42 72 43 73 44 74 45 75 71 76 72 77
REMARK SMILES IDX 81 78 73 79 74 80 80 81 82 82 75 83 76 84 77 85 78 86 79 87
REMARK SMILES IDX 55 88 56 89 65 90 57 91 58 92 64 93 66 94 59 95 60 96 61 97
REMARK SMILES IDX 62 98 63 99
REMARK H PARENT 21 7 25 30 87 49 53 60
REMARK Flexibility Score: inf
ROOT
ATOM      1  C   UNL A   1      34.985  29.640  27.682  1.00  0.00     0.118 C 
ENDROOT
BRANCH   1   2
ATOM      2  C   UNL A   1      33.526  29.472  27.286  1.00  0.00     0.042 C 
BRANCH   2   3
ATOM      3  C   UNL A   1      33.268  28.454  26.169  1.00  0.00     0.118 C 
BRANCH   3   4
ATOM      4  N   UNL A   1      32.620  27.270  26.704  1.00  0.00    -0.352 N 
ATOM      5  C   UNL A   1      32.371  25.973  26.334  1.00  0.00     0.255 C 
ATOM      6  O   UNL A   1      31.567  25.420  27.099  1.00  0.00    -0.269 OA
ATOM      7  H   UNL A   1      32.249  27.451  27.597  1.00  0.00     0.163 HD
BRANCH   5   8
ATOM      8  C   UNL A   1      32.923  25.154  25.181  1.00  0.00     0.086 A 
ATOM      9  C   UNL A   1      35.591  22.588  23.989  1.00  0.00     0.044 C 
ATOM     10  C   UNL A   1      34.506  23.640  24.015  1.00  0.00    -0.046 A 
ATOM     11  C   UNL A   1      34.080  24.133  22.783  1.00  0.00     0.019 A 
ATOM     12  C   UNL A   1      33.946  24.154  25.226  1.00  0.00    -0.032 A 
ATOM     13  C   UNL A   1      33.085  25.096  22.724  1.00  0.00     0.066 A 
ATOM     14  C   UNL A   1      34.516  23.608  26.499  1.00  0.00     0.045 C 
ATOM     15  C   UNL A   1      32.698  25.619  21.406  1.00  0.00     0.193 A 
ATOM     16  C   UNL A   1      32.486  25.589  23.888  1.00  0.00     0.151 A 
ATOM     17  O   UNL A   1      33.191  25.213  20.360  1.00  0.00    -0.289 OA
ATOM     18  C   UNL A   1      31.684  26.667  21.389  1.00  0.00     0.100 A 
ATOM     19  O   UNL A   1      31.450  26.506  23.786  1.00  0.00    -0.455 OA
ATOM     20  C   UNL A   1      31.119  27.028  22.546  1.00  0.00     0.138 A 
BRANCH  20  21
ATOM     21  C   UNL A   1      30.084  28.075  22.549  1.00  0.00     0.018 A 
ATOM     22  C   UNL A   1      28.828  27.835  23.125  1.00  0.00     0.015 A 
ATOM     23  C   UNL A   1      30.358  29.349  22.020  1.00  0.00     0.015 A 
ATOM     24  C   UNL A   1      27.880  28.859  23.202  1.00  0.00     0.040 A 
ATOM     25  C   UNL A   1      29.408  30.369  22.091  1.00  0.00     0.040 A 
ATOM     26  C   UNL A   1      28.180  30.115  22.689  1.00  0.00     0.123 A 
ATOM     27  F   UNL A   1      27.276  31.100  22.774  1.00  0.00    -0.207 F 
ENDBRANCH  20  21
ENDBRANCH   5   8
ENDBRANCH   3   4
ENDBRANCH   2   3
ENDBRANCH   1   2
BRANCH   1  28
ATOM     28  N   UNL A   1      35.145  30.403  28.911  1.00  0.00    -0.352 N 
ATOM     29  C   UNL A   1      36.238  30.521  29.744  1.00  0.00     0.251 C 
ATOM     30  H   UNL A   1      34.350  30.914  29.190  1.00  0.00     0.163 HD
ATOM     31  O   UNL A   1      36.106  31.065  30.830  1.00  0.00    -0.269 OA
BRANCH  29  32
ATOM     32  C   UNL A   1      37.556  29.965  29.345  1.00  0.00     0.039 A 
ATOM     33  C   UNL A   1      38.443  29.453  30.292  1.00  0.00     0.014 A 
ATOM     34  C   UNL A   1      37.908  29.947  27.990  1.00  0.00     0.014 A 
ATOM     35  C   UNL A   1      39.736  29.105  29.917  1.00  0.00     0.010 A 
ATOM     36  C   UNL A   1      39.177  29.498  27.602  1.00  0.00     0.010 A 
ATOM     37  C   UNL A   1      40.122  29.121  28.568  1.00  0.00    -0.014 A 
BRANCH  37  38
ATOM     38  C   UNL A   1      41.511  28.730  28.200  1.00  0.00     0.031 A 
ATOM     39  C   UNL A   1      42.641  29.723  28.277  1.00  0.00     0.074 A 
ATOM     40  C   UNL A   1      41.762  27.452  27.850  1.00  0.00     0.049 A 
ATOM     41  N   UNL A   1      43.912  29.547  28.013  1.00  0.00    -0.248 NA
ATOM     42  C   UNL A   1      42.304  31.092  28.694  1.00  0.00     0.031 C 
ATOM     43  C   UNL A   1      40.751  26.399  27.741  1.00  0.00     0.029 A 
ATOM     44  N   UNL A   1      42.939  26.814  27.551  1.00  0.00    -0.354 N 
ATOM     45  C   UNL A   1      44.518  30.784  28.204  1.00  0.00     0.074 A 
ATOM     46  C   UNL A   1      43.472  31.709  28.583  1.00  0.00     0.031 C 
ATOM     47  C   UNL A   1      41.357  25.235  27.467  1.00  0.00     0.029 A 
ATOM     48  C   UNL A   1      42.787  25.470  27.307  1.00  0.00     0.049 A 
ATOM     49  H   UNL A   1      43.808  27.275  27.516  1.00  0.00     0.167 HD
ATOM     50  C   UNL A   1      45.827  31.114  28.084  1.00  0.00     0.037 A 
ATOM     51  C   UNL A   1      43.692  24.528  26.976  1.00  0.00     0.037 A 
ATOM     52  C   UNL A   1      46.868  30.180  27.735  1.00  0.00     0.049 A 
ATOM     53  C   UNL A   1      45.132  24.919  26.831  1.00  0.00     0.074 A 
ATOM     54  C   UNL A   1      48.228  30.409  27.624  1.00  0.00     0.029 A 
ATOM     55  N   UNL A   1      46.664  28.838  27.442  1.00  0.00    -0.354 N 
ATOM     56  N   UNL A   1      45.687  26.094  27.019  1.00  0.00    -0.248 NA
ATOM     57  C   UNL A   1      46.069  23.868  26.415  1.00  0.00     0.031 C 
ATOM     58  C   UNL A   1      48.841  29.217  27.220  1.00  0.00     0.029 A 
ATOM     59  C   UNL A   1      47.870  28.234  27.124  1.00  0.00     0.049 A 
ATOM     60  H   UNL A   1      45.790  28.384  27.458  1.00  0.00     0.167 HD
ATOM     61  C   UNL A   1      47.037  25.925  26.740  1.00  0.00     0.074 A 
ATOM     62  C   UNL A   1      47.219  24.528  26.395  1.00  0.00     0.031 C 
ATOM     63  C   UNL A   1      48.032  26.846  26.763  1.00  0.00     0.037 A 
BRANCH  50  64
ATOM     64  C   UNL A   1      46.207  32.554  28.308  1.00  0.00     0.058 A 
ATOM     65  C   UNL A   1      46.169  33.501  27.273  1.00  0.00     0.135 A 
ATOM     66  C   UNL A   1      46.598  32.996  29.583  1.00  0.00     0.135 A 
ATOM     67  F   UNL A   1      45.816  33.132  26.031  1.00  0.00    -0.206 F 
ATOM     68  C   UNL A   1      46.539  34.826  27.485  1.00  0.00     0.059 A 
ATOM     69  C   UNL A   1      46.949  34.321  29.823  1.00  0.00     0.059 A 
ATOM     70  F   UNL A   1      46.651  32.134  30.610  1.00  0.00    -0.206 F 
ATOM     71  C   UNL A   1      46.934  35.225  28.762  1.00  0.00     0.060 A 
BRANCH  71  72
ATOM     72  S   UNL A   1      47.438  36.941  29.013  1.00  0.00     0.124 S 
ATOM     73  O   UNL A   1      46.287  37.479  29.732  1.00  0.00    -0.237 OA
ATOM     74  O   UNL A   1      48.661  36.797  29.795  1.00  0.00    -0.237 OA
ATOM     75  O   UNL A   1      47.620  37.446  27.655  1.00  0.00    -0.744 OA
ENDBRANCH  71  72
ENDBRANCH  50  64
BRANCH  51  76
ATOM     76  C   UNL A   1      43.234  23.130  26.766  1.00  0.00     0.058 A 
ATOM     77  C   UNL A   1      43.181  22.575  25.481  1.00  0.00     0.135 A 
ATOM     78  C   UNL A   1      42.940  22.294  27.855  1.00  0.00     0.135 A 
ATOM     79  F   UNL A   1      43.445  23.337  24.409  1.00  0.00    -0.206 F 
ATOM     80  C   UNL A   1      42.875  21.232  25.281  1.00  0.00     0.059 A 
ATOM     81  C   UNL A   1      42.654  20.944  27.684  1.00  0.00     0.059 A 
ATOM     82  F   UNL A   1      42.992  22.778  29.107  1.00  0.00    -0.206 F 
ATOM     83  C   UNL A   1      42.630  20.421  26.391  1.00  0.00     0.060 A 
BRANCH  83  84
ATOM     84  S   UNL A   1      42.356  18.656  26.130  1.00  0.00     0.124 S 
ATOM     85  O   UNL A   1      40.948  18.628  25.751  1.00  0.00    -0.237 OA
ATOM     86  O   UNL A   1      43.309  18.353  25.067  1.00  0.00    -0.237 OA
ATOM     87  O   UNL A   1      42.673  18.070  27.429  1.00  0.00    -0.744 OA
ENDBRANCH  83  84
ENDBRANCH  51  76
BRANCH  63  88
ATOM     88  C   UNL A   1      49.410  26.378  26.395  1.00  0.00     0.058 A 
ATOM     89  C   UNL A   1      49.908  26.529  25.091  1.00  0.00     0.135 A 
ATOM     90  C   UNL A   1      50.265  25.832  27.366  1.00  0.00     0.135 A 
ATOM     91  F   UNL A   1      49.127  27.036  24.125  1.00  0.00    -0.206 F 
ATOM     92  C   UNL A   1      51.202  26.143  24.760  1.00  0.00     0.059 A 
ATOM     93  C   UNL A   1      51.571  25.461  27.062  1.00  0.00     0.059 A 
ATOM     94  F   UNL A   1      49.839  25.675  28.630  1.00  0.00    -0.206 F 
ATOM     95  C   UNL A   1      52.028  25.614  25.754  1.00  0.00     0.060 A 
BRANCH  95  96
ATOM     96  S   UNL A   1      53.720  25.159  25.318  1.00  0.00     0.124 S 
ATOM     97  O   UNL A   1      53.656  23.702  25.372  1.00  0.00    -0.237 OA
ATOM     98  O   UNL A   1      53.865  25.739  23.986  1.00  0.00    -0.237 OA
ATOM     99  O   UNL A   1      54.522  25.792  26.361  1.00  0.00    -0.744 OA
ENDBRANCH  95  96
ENDBRANCH  63  88
ENDBRANCH  37  38
ENDBRANCH  29  32
ENDBRANCH   1  28
TORSDOF 14
ENDMDL
MODEL 2
REMARK VINA RESULT:     -13.5      4.713      5.905
REMARK SMILES Cc1cc2c(=O)cc(-c3ccc(F)cc3)oc2c(C(=O)NCCCNC(=O)c2ccc(-c3c4nc(c(-c5c(F)cc(S(=O)(=O)[O-])cc5F)c5ccc([nH]5)c(-c5c(F)cc(S(=O)(=O)[O-])cc5F)c5nc(c(-c6c(F)cc(S(=O)(=O)[O-])cc6F)c6ccc3[nH]6)C=C5)C=C4)cc2)c1C
REMARK SMILES IDX 24 1 23 2 22 3 21 4 19 5 20 6 18 8 1 9 2 10 3 11 94 12 4 13
REMARK SMILES IDX 95 14 5 15 17 16 6 17 7 18 16 19 8 20 9 21 10 22 15 23 11 24
REMARK SMILES IDX 14 25 12 26 13 27 25 28 26 29 27 31 28 32 29 33 93 34 30 35
REMARK SMILES IDX 92 36 31 37 32 38 33 39 86 40 34 41 91 42 85 43 87 44 35 45
REMARK SMILES IDX 90 46 84 47 83 48 36 50 70 51 49 52 69 53 50 54 53 55 68 56
REMARK SMILES IDX 88 57 51 58 52 59 67 61 89 62 54 63 37 64 38 65 47 66 39 67
REMARK SMILES IDX 40 68 46 69 48 70 41 71 42 72 43 73 44 74 45 75 71 76 72 77
REMARK SMILES IDX 81 78 73 79 74 80 80 81 82 82 75 83 76 84 77 85 78 86 79 87
REMARK SMILES IDX 55 88 56 89 65 90 57 91 58 92 64 93 66 94 59 95 60 96 61 97
REMARK SMILES IDX 62 98 63 99
REMARK H PARENT 21 7 25 30 87 49 53 60
REMARK Flexibility Score: inf
ROOT
ATOM      1  C   UNL A   1      33.969  28.659  25.826  1.00  0.00     0.118 C 
ENDROOT
BRANCH   1   2
ATOM      2  C   UNL A   1      33.253  27.541  26.569  1.00  0.00     0.042 C 
BRANCH   2   3
ATOM      3  C   UNL A   1      31.728  27.683  26.645  1.00  0.00     0.118 C 
BRANCH   3   4
ATOM      4  N   UNL A   1      31.114  26.395  26.919  1.00  0.00    -0.352 N 
ATOM      5  C   UNL A   1      31.046  25.145  26.361  1.00  0.00     0.255 C 
ATOM      6  O   UNL A   1      30.186  24.440  26.909  1.00  0.00    -0.269 OA
ATOM      7  H   UNL A   1      30.594  26.430  27.753  1.00  0.00     0.163 HD
BRANCH   5   8
ATOM      8  C   UNL A   1      31.843  24.527  25.227  1.00  0.00     0.086 A 
ATOM      9  C   UNL A   1      34.658  22.050  24.192  1.00  0.00     0.044 C 
ATOM     10  C   UNL A   1      33.626  23.154  24.179  1.00  0.00    -0.046 A 
ATOM     11  C   UNL A   1      33.529  23.908  23.010  1.00  0.00     0.019 A 
ATOM     12  C   UNL A   1      32.799  23.463  25.303  1.00  0.00    -0.032 A 
ATOM     13  C   UNL A   1      32.603  24.936  22.920  1.00  0.00     0.066 A 
ATOM     14  C   UNL A   1      33.025  22.640  26.533  1.00  0.00     0.045 C 
ATOM     15  C   UNL A   1      32.566  25.733  21.684  1.00  0.00     0.193 A 
ATOM     16  C   UNL A   1      31.749  25.236  23.986  1.00  0.00     0.151 A 
ATOM     17  O   UNL A   1      33.290  25.502  20.724  1.00  0.00    -0.289 OA
ATOM     18  C   UNL A   1      31.612  26.837  21.646  1.00  0.00     0.100 A 
ATOM     19  O   UNL A   1      30.793  26.230  23.834  1.00  0.00    -0.455 OA
ATOM     20  C   UNL A   1      30.790  27.006  22.687  1.00  0.00     0.138 A 
BRANCH  20  21
ATOM     21  C   UNL A   1      29.812  28.107  22.662  1.00  0.00     0.018 A 
ATOM     22  C   UNL A   1      28.516  27.921  23.163  1.00  0.00     0.015 A 
ATOM     23  C   UNL A   1      30.181  29.377  22.183  1.00  0.00     0.015 A 
ATOM     24  C   UNL A   1      27.619  28.992  23.216  1.00  0.00     0.040 A 
ATOM     25  C   UNL A   1      29.283  30.445  22.231  1.00  0.00     0.040 A 
ATOM     26  C   UNL A   1      28.013  30.243  22.755  1.00  0.00     0.123 A 
ATOM     27  F   UNL A   1      27.158  31.272  22.818  1.00  0.00    -0.207 F 
ENDBRANCH  20  21
ENDBRANCH   5   8
ENDBRANCH   3   4
ENDBRANCH   2   3
ENDBRANCH   1   2
BRANCH   1  28
ATOM     28  N   UNL A   1      33.659  29.974  26.365  1.00  0.00    -0.352 N 
ATOM     29  C   UNL A   1      34.279  30.688  27.370  1.00  0.00     0.251 C 
ATOM     30  H   UNL A   1      32.888  30.425  25.949  1.00  0.00     0.163 HD
ATOM     31  O   UNL A   1      33.747  31.701  27.801  1.00  0.00    -0.269 OA
BRANCH  29  32
ATOM     32  C   UNL A   1      35.564  30.218  27.949  1.00  0.00     0.039 A 
ATOM     33  C   UNL A   1      35.606  29.556  29.176  1.00  0.00     0.014 A 
ATOM     34  C   UNL A   1      36.752  30.437  27.242  1.00  0.00     0.014 A 
ATOM     35  C   UNL A   1      36.830  29.287  29.779  1.00  0.00     0.010 A 
ATOM     36  C   UNL A   1      37.981  30.070  27.806  1.00  0.00     0.010 A 
ATOM     37  C   UNL A   1      38.035  29.537  29.103  1.00  0.00    -0.014 A 
BRANCH  37  38
ATOM     38  C   UNL A   1      39.327  29.225  29.773  1.00  0.00     0.031 A 
ATOM     39  C   UNL A   1      39.726  29.919  31.049  1.00  0.00     0.074 A 
ATOM     40  C   UNL A   1      40.119  28.264  29.255  1.00  0.00     0.049 A 
ATOM     41  N   UNL A   1      40.804  29.755  31.774  1.00  0.00    -0.248 NA
ATOM     42  C   UNL A   1      38.803  30.936  31.576  1.00  0.00     0.031 C 
ATOM     43  C   UNL A   1      39.839  27.520  28.026  1.00  0.00     0.029 A 
ATOM     44  N   UNL A   1      41.298  27.728  29.707  1.00  0.00    -0.354 N 
ATOM     45  C   UNL A   1      40.703  30.663  32.823  1.00  0.00     0.074 A 
ATOM     46  C   UNL A   1      39.470  31.393  32.627  1.00  0.00     0.031 C 
ATOM     47  C   UNL A   1      40.781  26.580  27.857  1.00  0.00     0.029 A 
ATOM     48  C   UNL A   1      41.770  26.703  28.922  1.00  0.00     0.049 A 
ATOM     49  H   UNL A   1      41.761  28.047  30.515  1.00  0.00     0.167 HD
ATOM     50  C   UNL A   1      41.555  30.861  33.858  1.00  0.00     0.037 A 
ATOM     51  C   UNL A   1      42.882  25.950  29.033  1.00  0.00     0.037 A 
ATOM     52  C   UNL A   1      42.768  30.108  34.062  1.00  0.00     0.049 A 
ATOM     53  C   UNL A   1      43.820  26.199  30.175  1.00  0.00     0.074 A 
ATOM     54  C   UNL A   1      43.679  30.210  35.099  1.00  0.00     0.029 A 
ATOM     55  N   UNL A   1      43.238  29.116  33.214  1.00  0.00    -0.354 N 
ATOM     56  N   UNL A   1      43.706  27.060  31.159  1.00  0.00    -0.248 NA
ATOM     57  C   UNL A   1      45.044  25.390  30.220  1.00  0.00     0.031 C 
ATOM     58  C   UNL A   1      44.722  29.309  34.854  1.00  0.00     0.029 A 
ATOM     59  C   UNL A   1      44.438  28.614  33.689  1.00  0.00     0.049 A 
ATOM     60  H   UNL A   1      42.783  28.813  32.394  1.00  0.00     0.167 HD
ATOM     61  C   UNL A   1      44.845  26.900  31.938  1.00  0.00     0.074 A 
ATOM     62  C   UNL A   1      45.623  25.842  31.324  1.00  0.00     0.031 C 
ATOM     63  C   UNL A   1      45.212  27.573  33.056  1.00  0.00     0.037 A 
BRANCH  50  64
ATOM     64  C   UNL A   1      41.220  31.954  34.838  1.00  0.00     0.058 A 
ATOM     65  C   UNL A   1      40.371  31.734  35.934  1.00  0.00     0.135 A 
ATOM     66  C   UNL A   1      41.772  33.237  34.688  1.00  0.00     0.135 A 
ATOM     67  F   UNL A   1      39.803  30.531  36.118  1.00  0.00    -0.206 F 
ATOM     68  C   UNL A   1      40.051  32.755  36.824  1.00  0.00     0.059 A 
ATOM     69  C   UNL A   1      41.486  34.266  35.581  1.00  0.00     0.059 A 
ATOM     70  F   UNL A   1      42.592  33.504  33.660  1.00  0.00    -0.206 F 
ATOM     71  C   UNL A   1      40.610  34.020  36.636  1.00  0.00     0.060 A 
BRANCH  71  72
ATOM     72  S   UNL A   1      40.163  35.339  37.785  1.00  0.00     0.124 S 
ATOM     73  O   UNL A   1      39.888  36.441  36.867  1.00  0.00    -0.237 OA
ATOM     74  O   UNL A   1      39.001  34.780  38.467  1.00  0.00    -0.237 OA
ATOM     75  O   UNL A   1      41.358  35.494  38.609  1.00  0.00    -0.744 OA
ENDBRANCH  71  72
ENDBRANCH  50  64
BRANCH  51  76
ATOM     76  C   UNL A   1      43.143  24.896  28.019  1.00  0.00     0.058 A 
ATOM     77  C   UNL A   1      43.793  25.198  26.815  1.00  0.00     0.135 A 
ATOM     78  C   UNL A   1      42.838  23.550  28.280  1.00  0.00     0.135 A 
ATOM     79  F   UNL A   1      44.096  26.471  26.518  1.00  0.00    -0.206 F 
ATOM     80  C   UNL A   1      44.155  24.202  25.914  1.00  0.00     0.059 A 
ATOM     81  C   UNL A   1      43.210  22.534  27.406  1.00  0.00     0.059 A 
ATOM     82  F   UNL A   1      42.228  23.209  29.426  1.00  0.00    -0.206 F 
ATOM     83  C   UNL A   1      43.874  22.871  26.227  1.00  0.00     0.060 A 
BRANCH  83  84
ATOM     84  S   UNL A   1      44.458  21.577  25.110  1.00  0.00     0.124 S 
ATOM     85  O   UNL A   1      45.806  21.340  25.612  1.00  0.00    -0.237 OA
ATOM     86  O   UNL A   1      43.491  20.510  25.348  1.00  0.00    -0.237 OA
ATOM     87  O   UNL A   1      44.373  22.206  23.795  1.00  0.00    -0.744 OA
ENDBRANCH  83  84
ENDBRANCH  51  76
BRANCH  63  88
ATOM     88  C   UNL A   1      46.521  27.196  33.687  1.00  0.00     0.058 A 
ATOM     89  C   UNL A   1      46.603  26.163  34.634  1.00  0.00     0.135 A 
ATOM     90  C   UNL A   1      47.713  27.827  33.297  1.00  0.00     0.135 A 
ATOM     91  F   UNL A   1      45.491  25.535  35.047  1.00  0.00    -0.206 F 
ATOM     92  C   UNL A   1      47.822  25.777  35.182  1.00  0.00     0.059 A 
ATOM     93  C   UNL A   1      48.945  27.441  33.815  1.00  0.00     0.059 A 
ATOM     94  F   UNL A   1      47.688  28.815  32.388  1.00  0.00    -0.206 F 
ATOM     95  C   UNL A   1      48.988  26.419  34.762  1.00  0.00     0.060 A 
BRANCH  95  96
ATOM     96  S   UNL A   1      50.567  25.876  35.451  1.00  0.00     0.124 S 
ATOM     97  O   UNL A   1      51.513  26.427  34.485  1.00  0.00    -0.237 OA
ATOM     98  O   UNL A   1      50.565  26.506  36.767  1.00  0.00    -0.237 OA
ATOM     99  O   UNL A   1      50.452  24.421  35.458  1.00  0.00    -0.744 OA
ENDBRANCH  95  96
ENDBRANCH  63  88
ENDBRANCH  37  38
ENDBRANCH  29  32
ENDBRANCH   1  28
TORSDOF 14
ENDMDL
MODEL 3
REMARK VINA RESULT:     -13.5      3.253      4.919
REMARK SMILES Cc1cc2c(=O)cc(-c3ccc(F)cc3)oc2c(C(=O)NCCCNC(=O)c2ccc(-c3c4nc(c(-c5c(F)cc(S(=O)(=O)[O-])cc5F)c5ccc([nH]5)c(-c5c(F)cc(S(=O)(=O)[O-])cc5F)c5nc(c(-c6c(F)cc(S(=O)(=O)[O-])cc6F)c6ccc3[nH]6)C=C5)C=C4)cc2)c1C
REMARK SMILES IDX 24 1 23 2 22 3 21 4 19 5 20 6 18 8 1 9 2 10 3 11 94 12 4 13
REMARK SMILES IDX 95 14 5 15 17 16 6 17 7 18 16 19 8 20 9 21 10 22 15 23 11 24
REMARK SMILES IDX 14 25 12 26 13 27 25 28 26 29 27 31 28 32 29 33 93 34 30 35
REMARK SMILES IDX 92 36 31 37 32 38 33 39 86 40 34 41 91 42 85 43 87 44 35 45
REMARK SMILES IDX 90 46 84 47 83 48 36 50 70 51 49 52 69 53 50 54 53 55 68 56
REMARK SMILES IDX 88 57 51 58 52 59 67 61 89 62 54 63 37 64 38 65 47 66 39 67
REMARK SMILES IDX 40 68 46 69 48 70 41 71 42 72 43 73 44 74 45 75 71 76 72 77
REMARK SMILES IDX 81 78 73 79 74 80 80 81 82 82 75 83 76 84 77 85 78 86 79 87
REMARK SMILES IDX 55 88 56 89 65 90 57 91 58 92 64 93 66 94 59 95 60 96 61 97
REMARK SMILES IDX 62 98 63 99
REMARK H PARENT 21 7 25 30 87 49 53 60
REMARK Flexibility Score: inf
ROOT
ATOM      1  C   UNL A   1      33.430  28.288  27.306  1.00  0.00     0.118 C 
ENDROOT
BRANCH   1   2
ATOM      2  C   UNL A   1      34.113  27.915  25.999  1.00  0.00     0.042 C 
BRANCH   2   3
ATOM      3  C   UNL A   1      33.965  28.943  24.871  1.00  0.00     0.118 C 
BRANCH   3   4
ATOM      4  N   UNL A   1      33.949  28.277  23.580  1.00  0.00    -0.352 N 
ATOM      5  C   UNL A   1      33.266  27.271  22.946  1.00  0.00     0.255 C 
ATOM      6  O   UNL A   1      33.806  26.948  21.878  1.00  0.00    -0.269 OA
ATOM      7  H   UNL A   1      34.630  28.662  22.983  1.00  0.00     0.163 HD
BRANCH   5   8
ATOM      8  C   UNL A   1      31.997  26.540  23.343  1.00  0.00     0.086 A 
ATOM      9  C   UNL A   1      28.143  26.727  23.830  1.00  0.00     0.044 C 
ATOM     10  C   UNL A   1      29.587  26.285  23.880  1.00  0.00    -0.046 A 
ATOM     11  C   UNL A   1      29.865  25.130  24.609  1.00  0.00     0.019 A 
ATOM     12  C   UNL A   1      30.648  27.010  23.253  1.00  0.00    -0.032 A 
ATOM     13  C   UNL A   1      31.165  24.659  24.699  1.00  0.00     0.066 A 
ATOM     14  C   UNL A   1      30.256  28.273  22.549  1.00  0.00     0.045 C 
ATOM     15  C   UNL A   1      31.418  23.462  25.514  1.00  0.00     0.193 A 
ATOM     16  C   UNL A   1      32.220  25.321  24.061  1.00  0.00     0.151 A 
ATOM     17  O   UNL A   1      30.525  22.847  26.085  1.00  0.00    -0.289 OA
ATOM     18  C   UNL A   1      32.806  23.026  25.625  1.00  0.00     0.100 A 
ATOM     19  O   UNL A   1      33.497  24.783  24.121  1.00  0.00    -0.455 OA
ATOM     20  C   UNL A   1      33.739  23.681  24.926  1.00  0.00     0.138 A 
BRANCH  20  21
ATOM     21  C   UNL A   1      35.144  23.249  25.014  1.00  0.00     0.018 A 
ATOM     22  C   UNL A   1      36.098  24.054  25.651  1.00  0.00     0.015 A 
ATOM     23  C   UNL A   1      35.538  21.998  24.505  1.00  0.00     0.015 A 
ATOM     24  C   UNL A   1      37.411  23.602  25.808  1.00  0.00     0.040 A 
ATOM     25  C   UNL A   1      36.851  21.550  24.657  1.00  0.00     0.040 A 
ATOM     26  C   UNL A   1      37.773  22.353  25.313  1.00  0.00     0.123 A 
ATOM     27  F   UNL A   1      39.028  21.914  25.475  1.00  0.00    -0.207 F 
ENDBRANCH  20  21
ENDBRANCH   5   8
ENDBRANCH   3   4
ENDBRANCH   2   3
ENDBRANCH   1   2
BRANCH   1  28
ATOM     28  N   UNL A   1      33.402  29.725  27.530  1.00  0.00    -0.352 N 
ATOM     29  C   UNL A   1      34.381  30.564  28.021  1.00  0.00     0.251 C 
ATOM     30  H   UNL A   1      32.553  30.167  27.296  1.00  0.00     0.163 HD
ATOM     31  O   UNL A   1      34.092  31.717  28.308  1.00  0.00    -0.269 OA
BRANCH  29  32
ATOM     32  C   UNL A   1      35.765  30.069  28.231  1.00  0.00     0.039 A 
ATOM     33  C   UNL A   1      36.159  29.515  29.450  1.00  0.00     0.014 A 
ATOM     34  C   UNL A   1      36.687  30.152  27.181  1.00  0.00     0.014 A 
ATOM     35  C   UNL A   1      37.499  29.226  29.680  1.00  0.00     0.010 A 
ATOM     36  C   UNL A   1      38.017  29.761  27.384  1.00  0.00     0.010 A 
ATOM     37  C   UNL A   1      38.447  29.342  28.652  1.00  0.00    -0.014 A 
BRANCH  37  38
ATOM     38  C   UNL A   1      39.872  29.011  28.930  1.00  0.00     0.031 A 
ATOM     39  C   UNL A   1      40.760  29.972  29.676  1.00  0.00     0.074 A 
ATOM     40  C   UNL A   1      40.351  27.807  28.556  1.00  0.00     0.049 A 
ATOM     41  N   UNL A   1      42.016  29.836  30.020  1.00  0.00    -0.248 NA
ATOM     42  C   UNL A   1      40.167  31.256  30.081  1.00  0.00     0.031 C 
ATOM     43  C   UNL A   1      39.588  26.790  27.829  1.00  0.00     0.029 A 
ATOM     44  N   UNL A   1      41.574  27.221  28.758  1.00  0.00    -0.354 N 
ATOM     45  C   UNL A   1      42.370  31.022  30.655  1.00  0.00     0.074 A 
ATOM     46  C   UNL A   1      41.203  31.877  30.627  1.00  0.00     0.031 C 
ATOM     47  C   UNL A   1      40.336  25.684  27.706  1.00  0.00     0.029 A 
ATOM     48  C   UNL A   1      41.654  25.936  28.277  1.00  0.00     0.049 A 
ATOM     49  H   UNL A   1      42.323  27.678  29.205  1.00  0.00     0.167 HD
ATOM     50  C   UNL A   1      43.556  31.362  31.217  1.00  0.00     0.037 A 
ATOM     51  C   UNL A   1      42.675  25.058  28.277  1.00  0.00     0.037 A 
ATOM     52  C   UNL A   1      44.705  30.493  31.267  1.00  0.00     0.049 A 
ATOM     53  C   UNL A   1      43.984  25.461  28.888  1.00  0.00     0.074 A 
ATOM     54  C   UNL A   1      45.939  30.731  31.846  1.00  0.00     0.029 A 
ATOM     55  N   UNL A   1      44.761  29.219  30.719  1.00  0.00    -0.354 N 
ATOM     56  N   UNL A   1      44.298  26.586  29.486  1.00  0.00    -0.248 NA
ATOM     57  C   UNL A   1      45.081  24.488  28.814  1.00  0.00     0.031 C 
ATOM     58  C   UNL A   1      46.756  29.619  31.609  1.00  0.00     0.029 A 
ATOM     59  C   UNL A   1      46.016  28.669  30.922  1.00  0.00     0.049 A 
ATOM     60  H   UNL A   1      44.017  28.772  30.253  1.00  0.00     0.167 HD
ATOM     61  C   UNL A   1      45.632  26.459  29.856  1.00  0.00     0.074 A 
ATOM     62  C   UNL A   1      46.056  25.137  29.436  1.00  0.00     0.031 C 
ATOM     63  C   UNL A   1      46.430  27.359  30.481  1.00  0.00     0.037 A 
BRANCH  50  64
ATOM     64  C   UNL A   1      43.680  32.743  31.802  1.00  0.00     0.058 A 
ATOM     65  C   UNL A   1      44.128  33.835  31.042  1.00  0.00     0.135 A 
ATOM     66  C   UNL A   1      43.329  32.982  33.142  1.00  0.00     0.135 A 
ATOM     67  F   UNL A   1      44.491  33.662  29.761  1.00  0.00    -0.206 F 
ATOM     68  C   UNL A   1      44.257  35.105  31.597  1.00  0.00     0.059 A 
ATOM     69  C   UNL A   1      43.427  34.249  33.711  1.00  0.00     0.059 A 
ATOM     70  F   UNL A   1      42.893  31.976  33.915  1.00  0.00    -0.206 F 
ATOM     71  C   UNL A   1      43.910  35.301  32.934  1.00  0.00     0.060 A 
BRANCH  71  72
ATOM     72  S   UNL A   1      44.110  36.948  33.644  1.00  0.00     0.124 S 
ATOM     73  O   UNL A   1      42.770  37.205  34.164  1.00  0.00    -0.237 OA
ATOM     74  O   UNL A   1      45.147  36.732  34.648  1.00  0.00    -0.237 OA
ATOM     75  O   UNL A   1      44.507  37.767  32.503  1.00  0.00    -0.744 OA
ENDBRANCH  71  72
ENDBRANCH  50  64
BRANCH  51  76
ATOM     76  C   UNL A   1      42.473  23.715  27.673  1.00  0.00     0.058 A 
ATOM     77  C   UNL A   1      42.572  23.526  26.288  1.00  0.00     0.135 A 
ATOM     78  C   UNL A   1      42.278  22.582  28.478  1.00  0.00     0.135 A 
ATOM     79  F   UNL A   1      42.749  24.580  25.477  1.00  0.00    -0.206 F 
ATOM     80  C   UNL A   1      42.508  22.257  25.722  1.00  0.00     0.059 A 
ATOM     81  C   UNL A   1      42.235  21.301  27.938  1.00  0.00     0.059 A 
ATOM     82  F   UNL A   1      42.191  22.711  29.812  1.00  0.00    -0.206 F 
ATOM     83  C   UNL A   1      42.357  21.149  26.558  1.00  0.00     0.060 A 
BRANCH  83  84
ATOM     84  S   UNL A   1      42.400  19.499  25.825  1.00  0.00     0.124 S 
ATOM     85  O   UNL A   1      41.020  19.334  25.385  1.00  0.00    -0.237 OA
ATOM     86  O   UNL A   1      43.393  19.662  24.767  1.00  0.00    -0.237 OA
ATOM     87  O   UNL A   1      42.816  18.648  26.936  1.00  0.00    -0.744 OA
ENDBRANCH  83  84
ENDBRANCH  51  76
BRANCH  63  88
ATOM     88  C   UNL A   1      47.851  26.952  30.743  1.00  0.00     0.058 A 
ATOM     89  C   UNL A   1      48.875  27.250  29.830  1.00  0.00     0.135 A 
ATOM     90  C   UNL A   1      48.205  26.315  31.943  1.00  0.00     0.135 A 
ATOM     91  F   UNL A   1      48.587  27.849  28.664  1.00  0.00    -0.206 F 
ATOM     92  C   UNL A   1      50.200  26.919  30.093  1.00  0.00     0.059 A 
ATOM     93  C   UNL A   1      49.527  25.996  32.237  1.00  0.00     0.059 A 
ATOM     94  F   UNL A   1      47.263  26.016  32.852  1.00  0.00    -0.206 F 
ATOM     95  C   UNL A   1      50.517  26.296  31.302  1.00  0.00     0.060 A 
BRANCH  95  96
ATOM     96  S   UNL A   1      52.247  25.914  31.648  1.00  0.00     0.124 S 
ATOM     97  O   UNL A   1      52.863  26.134  30.343  1.00  0.00    -0.237 OA
ATOM     98  O   UNL A   1      52.582  26.889  32.680  1.00  0.00    -0.237 OA
ATOM     99  O   UNL A   1      52.205  24.525  32.096  1.00  0.00    -0.744 OA
ENDBRANCH  95  96
ENDBRANCH  63  88
ENDBRANCH  37  38
ENDBRANCH  29  32
ENDBRANCH   1  28
TORSDOF 14
ENDMDL
