MODEL 1
REMARK VINA RESULT:     -11.2      0.000      0.000
REMARK SMILES CCC(CC)(NC(=O)Nc1cc(Cl)cc(Cl)c1)C(=O)NCCCNC(=O)c1ccc(-c2c3nc(c(-c4c(F)cc(S(=O)(=O)[O-])cc4F)c4ccc([nH]4)c(-c4c(F)cc(S(=O)(=O)[O-])cc4F)c4nc(c(-c5c(F)cc(S(=O)(=O)[O-])cc5F)c5ccc2[nH]5)C=C4)C=C3)cc1
REMARK SMILES IDX 22 1 21 2 20 3 18 4 19 5 3 7 2 8 1 9 4 10 5 11 6 12 7 13
REMARK SMILES IDX 8 15 9 16 10 18 11 19 17 20 12 21 15 22 13 23 14 24 16 25
REMARK SMILES IDX 23 26 24 27 25 28 26 30 27 31 28 32 92 33 29 34 91 35 30 36
REMARK SMILES IDX 31 37 32 38 85 39 33 40 90 41 84 42 86 43 34 44 89 45 83 46
REMARK SMILES IDX 82 47 35 49 69 50 48 51 68 52 49 53 52 54 67 55 87 56 50 57
REMARK SMILES IDX 51 58 66 60 88 61 53 62 36 63 37 64 46 65 38 66 39 67 45 68
REMARK SMILES IDX 47 69 40 70 41 71 42 72 43 73 44 74 70 75 71 76 80 77 72 78
REMARK SMILES IDX 73 79 79 80 81 81 74 82 75 83 76 84 77 85 78 86 54 87 55 88
REMARK SMILES IDX 64 89 56 90 57 91 63 92 65 93 58 94 59 95 60 96 61 97 62 98
REMARK H PARENT 20 6 6 14 9 17 24 29 86 48 52 59
REMARK Flexibility Score: inf
ROOT
ATOM      1  C   UNL A   1      31.931  27.771  27.196  1.00  0.00     0.042 C 
ENDROOT
BRANCH   1   2
ATOM      2  C   UNL A   1      31.811  26.635  26.163  1.00  0.00     0.117 C 
BRANCH   2   3
ATOM      3  N   UNL A   1      30.872  26.973  25.102  1.00  0.00    -0.354 N 
ATOM      4  C   UNL A   1      30.905  26.693  23.737  1.00  0.00     0.245 C 
ATOM      5  O   UNL A   1      30.177  25.851  23.223  1.00  0.00    -0.272 OA
ATOM      6  H   UNL A   1      30.085  27.485  25.397  1.00  0.00     0.163 HD
BRANCH   4   7
ATOM      7  C   UNL A   1      32.015  27.453  22.963  1.00  0.00     0.120 C 
BRANCH   7   8
ATOM      8  C   UNL A   1      33.457  27.617  23.485  1.00  0.00     0.035 C 
ATOM      9  C   UNL A   1      33.932  28.995  23.889  1.00  0.00     0.007 C 
ENDBRANCH   7   8
BRANCH   7  10
ATOM     10  C   UNL A   1      31.276  28.853  22.921  1.00  0.00     0.035 C 
ATOM     11  C   UNL A   1      30.009  29.099  22.132  1.00  0.00     0.007 C 
ENDBRANCH   7  10
BRANCH   7  12
ATOM     12  N   UNL A   1      32.137  26.716  21.674  1.00  0.00    -0.323 N 
ATOM     13  C   UNL A   1      32.787  25.596  21.291  1.00  0.00     0.320 C 
ATOM     14  H   UNL A   1      31.634  27.138  20.940  1.00  0.00     0.166 HD
ATOM     15  O   UNL A   1      32.883  25.427  20.070  1.00  0.00    -0.248 OA
ATOM     16  N   UNL A   1      33.365  24.643  22.060  1.00  0.00    -0.308 N 
ATOM     17  H   UNL A   1      33.856  24.029  21.467  1.00  0.00     0.171 HD
BRANCH  16  18
ATOM     18  C   UNL A   1      33.534  24.189  23.398  1.00  0.00     0.045 A 
ATOM     19  C   UNL A   1      32.608  23.540  24.218  1.00  0.00     0.046 A 
ATOM     20  C   UNL A   1      34.843  24.229  23.895  1.00  0.00     0.046 A 
ATOM     21  C   UNL A   1      32.872  23.243  25.563  1.00  0.00     0.044 A 
ATOM     22  C   UNL A   1      35.131  23.871  25.223  1.00  0.00     0.044 A 
ATOM     23  Cl  UNL A   1      31.626  22.593  26.561  1.00  0.00    -0.084 Cl
ATOM     24  C   UNL A   1      34.133  23.443  26.085  1.00  0.00     0.041 A 
ATOM     25  Cl  UNL A   1      36.750  23.965  25.796  1.00  0.00    -0.084 Cl
ENDBRANCH  16  18
ENDBRANCH   7  12
ENDBRANCH   4   7
ENDBRANCH   2   3
ENDBRANCH   1   2
BRANCH   1  26
ATOM     26  C   UNL A   1      33.319  28.382  27.395  1.00  0.00     0.118 C 
BRANCH  26  27
ATOM     27  N   UNL A   1      33.291  29.819  27.568  1.00  0.00    -0.352 N 
ATOM     28  C   UNL A   1      34.274  30.667  28.026  1.00  0.00     0.251 C 
ATOM     29  H   UNL A   1      32.444  30.254  27.320  1.00  0.00     0.163 HD
ATOM     30  O   UNL A   1      34.014  31.839  28.245  1.00  0.00    -0.269 OA
BRANCH  28  31
ATOM     31  C   UNL A   1      35.636  30.146  28.297  1.00  0.00     0.039 A 
ATOM     32  C   UNL A   1      36.556  30.125  27.247  1.00  0.00     0.014 A 
ATOM     33  C   UNL A   1      36.006  29.679  29.561  1.00  0.00     0.014 A 
ATOM     34  C   UNL A   1      37.869  29.709  27.483  1.00  0.00     0.010 A 
ATOM     35  C   UNL A   1      37.333  29.318  29.809  1.00  0.00     0.010 A 
ATOM     36  C   UNL A   1      38.283  29.344  28.776  1.00  0.00    -0.014 A 
BRANCH  36  37
ATOM     37  C   UNL A   1      39.715  29.053  29.064  1.00  0.00     0.031 A 
ATOM     38  C   UNL A   1      40.622  30.110  29.632  1.00  0.00     0.074 A 
ATOM     39  C   UNL A   1      40.214  27.837  28.760  1.00  0.00     0.049 A 
ATOM     40  N   UNL A   1      41.904  30.045  29.892  1.00  0.00    -0.248 NA
ATOM     41  C   UNL A   1      40.016  31.415  29.933  1.00  0.00     0.031 C 
ATOM     42  C   UNL A   1      39.449  26.735  28.172  1.00  0.00     0.029 A 
ATOM     43  N   UNL A   1      41.482  27.325  28.890  1.00  0.00    -0.354 N 
ATOM     44  C   UNL A   1      42.261  31.296  30.381  1.00  0.00     0.074 A 
ATOM     45  C   UNL A   1      41.066  32.115  30.339  1.00  0.00     0.031 C 
ATOM     46  C   UNL A   1      40.257  25.674  28.009  1.00  0.00     0.029 A 
ATOM     47  C   UNL A   1      41.606  26.032  28.435  1.00  0.00     0.049 A 
ATOM     48  H   UNL A   1      42.232  27.835  29.273  1.00  0.00     0.167 HD
ATOM     49  C   UNL A   1      43.465  31.718  30.838  1.00  0.00     0.037 A 
ATOM     50  C   UNL A   1      42.685  25.227  28.350  1.00  0.00     0.037 A 
ATOM     51  C   UNL A   1      44.649  30.895  30.883  1.00  0.00     0.049 A 
ATOM     52  C   UNL A   1      44.019  25.731  28.828  1.00  0.00     0.074 A 
ATOM     53  C   UNL A   1      45.901  31.218  31.378  1.00  0.00     0.029 A 
ATOM     54  N   UNL A   1      44.736  29.595  30.406  1.00  0.00    -0.354 N 
ATOM     55  N   UNL A   1      44.321  26.897  29.350  1.00  0.00    -0.248 NA
ATOM     56  C   UNL A   1      45.159  24.814  28.708  1.00  0.00     0.031 C 
ATOM     57  C   UNL A   1      46.759  30.138  31.148  1.00  0.00     0.029 A 
ATOM     58  C   UNL A   1      46.027  29.116  30.564  1.00  0.00     0.049 A 
ATOM     59  H   UNL A   1      43.989  29.087  30.014  1.00  0.00     0.167 HD
ATOM     60  C   UNL A   1      45.680  26.844  29.639  1.00  0.00     0.074 A 
ATOM     61  C   UNL A   1      46.137  25.524  29.253  1.00  0.00     0.031 C 
ATOM     62  C   UNL A   1      46.477  27.802  30.174  1.00  0.00     0.037 A 
BRANCH  49  63
ATOM     63  C   UNL A   1      43.574  33.140  31.323  1.00  0.00     0.058 A 
ATOM     64  C   UNL A   1      43.371  33.480  32.670  1.00  0.00     0.135 A 
ATOM     65  C   UNL A   1      43.937  34.170  30.439  1.00  0.00     0.135 A 
ATOM     66  F   UNL A   1      43.013  32.539  33.558  1.00  0.00    -0.206 F 
ATOM     67  C   UNL A   1      43.495  34.791  33.117  1.00  0.00     0.059 A 
ATOM     68  C   UNL A   1      44.097  35.484  30.870  1.00  0.00     0.059 A 
ATOM     69  F   UNL A   1      44.147  33.904  29.140  1.00  0.00    -0.206 F 
ATOM     70  C   UNL A   1      43.859  35.787  32.210  1.00  0.00     0.060 A 
BRANCH  70  71
ATOM     71  S   UNL A   1      44.020  37.482  32.810  1.00  0.00     0.124 S 
ATOM     72  O   UNL A   1      45.372  37.469  33.360  1.00  0.00    -0.237 OA
ATOM     73  O   UNL A   1      43.839  38.263  31.591  1.00  0.00    -0.237 OA
ATOM     74  O   UNL A   1      42.946  37.600  33.792  1.00  0.00    -0.744 OA
ENDBRANCH  70  71
ENDBRANCH  49  63
BRANCH  50  75
ATOM     75  C   UNL A   1      42.547  23.857  27.786  1.00  0.00     0.058 A 
ATOM     76  C   UNL A   1      42.550  23.640  26.400  1.00  0.00     0.135 A 
ATOM     77  C   UNL A   1      42.416  22.736  28.621  1.00  0.00     0.135 A 
ATOM     78  F   UNL A   1      42.661  24.679  25.559  1.00  0.00    -0.206 F 
ATOM     79  C   UNL A   1      42.415  22.364  25.860  1.00  0.00     0.059 A 
ATOM     80  C   UNL A   1      42.310  21.447  28.106  1.00  0.00     0.059 A 
ATOM     81  F   UNL A   1      42.420  22.885  29.955  1.00  0.00    -0.206 F 
ATOM     82  C   UNL A   1      42.300  21.273  26.723  1.00  0.00     0.060 A 
BRANCH  82  83
ATOM     83  S   UNL A   1      42.178  19.617  26.013  1.00  0.00     0.124 S 
ATOM     84  O   UNL A   1      40.759  19.540  25.688  1.00  0.00    -0.237 OA
ATOM     85  O   UNL A   1      43.091  19.705  24.877  1.00  0.00    -0.237 OA
ATOM     86  O   UNL A   1      42.627  18.752  27.100  1.00  0.00    -0.744 OA
ENDBRANCH  82  83
ENDBRANCH  50  75
BRANCH  62  87
ATOM     87  C   UNL A   1      47.927  27.456  30.395  1.00  0.00     0.058 A 
ATOM     88  C   UNL A   1      48.363  26.816  31.567  1.00  0.00     0.135 A 
ATOM     89  C   UNL A   1      48.884  27.724  29.403  1.00  0.00     0.135 A 
ATOM     90  F   UNL A   1      47.491  26.543  32.552  1.00  0.00    -0.206 F 
ATOM     91  C   UNL A   1      49.698  26.478  31.757  1.00  0.00     0.059 A 
ATOM     92  C   UNL A   1      50.220  27.365  29.560  1.00  0.00     0.059 A 
ATOM     93  F   UNL A   1      48.523  28.325  28.258  1.00  0.00    -0.206 F 
ATOM     94  C   UNL A   1      50.619  26.753  30.746  1.00  0.00     0.060 A 
BRANCH  94  95
ATOM     95  S   UNL A   1      52.343  26.276  30.993  1.00  0.00     0.124 S 
ATOM     96  O   UNL A   1      52.854  27.406  31.764  1.00  0.00    -0.237 OA
ATOM     97  O   UNL A   1      52.217  25.017  31.722  1.00  0.00    -0.237 OA
ATOM     98  O   UNL A   1      52.863  26.157  29.635  1.00  0.00    -0.744 OA
ENDBRANCH  94  95
ENDBRANCH  62  87
ENDBRANCH  36  37
ENDBRANCH  28  31
ENDBRANCH  26  27
ENDBRANCH   1  26
TORSDOF 17
ENDMDL
MODEL 2
REMARK VINA RESULT:     -11.1      2.776      3.705
REMARK SMILES CCC(CC)(NC(=O)Nc1cc(Cl)cc(Cl)c1)C(=O)NCCCNC(=O)c1ccc(-c2c3nc(c(-c4c(F)cc(S(=O)(=O)[O-])cc4F)c4ccc([nH]4)c(-c4c(F)cc(S(=O)(=O)[O-])cc4F)c4nc(c(-c5c(F)cc(S(=O)(=O)[O-])cc5F)c5ccc2[nH]5)C=C4)C=C3)cc1
REMARK SMILES IDX 22 1 21 2 20 3 18 4 19 5 3 7 2 8 1 9 4 10 5 11 6 12 7 13
REMARK SMILES IDX 8 15 9 16 10 18 11 19 17 20 12 21 15 22 13 23 14 24 16 25
REMARK SMILES IDX 23 26 24 27 25 28 26 30 27 31 28 32 92 33 29 34 91 35 30 36
REMARK SMILES IDX 31 37 32 38 85 39 33 40 90 41 84 42 86 43 34 44 89 45 83 46
REMARK SMILES IDX 82 47 35 49 69 50 48 51 68 52 49 53 52 54 67 55 87 56 50 57
REMARK SMILES IDX 51 58 66 60 88 61 53 62 36 63 37 64 46 65 38 66 39 67 45 68
REMARK SMILES IDX 47 69 40 70 41 71 42 72 43 73 44 74 70 75 71 76 80 77 72 78
REMARK SMILES IDX 73 79 79 80 81 81 74 82 75 83 76 84 77 85 78 86 54 87 55 88
REMARK SMILES IDX 64 89 56 90 57 91 63 92 65 93 58 94 59 95 60 96 61 97 62 98
REMARK H PARENT 20 6 6 14 9 17 24 29 86 48 52 59
REMARK Flexibility Score: inf
ROOT
ATOM      1  C   UNL A   1      34.266  29.096  27.328  1.00  0.00     0.042 C 
ENDROOT
BRANCH   1   2
ATOM      2  C   UNL A   1      33.401  29.252  26.063  1.00  0.00     0.117 C 
BRANCH   2   3
ATOM      3  N   UNL A   1      34.114  28.815  24.871  1.00  0.00    -0.354 N 
ATOM      4  C   UNL A   1      33.637  28.390  23.632  1.00  0.00     0.245 C 
ATOM      5  O   UNL A   1      33.710  29.088  22.627  1.00  0.00    -0.272 OA
ATOM      6  H   UNL A   1      35.095  28.819  24.953  1.00  0.00     0.163 HD
BRANCH   4   7
ATOM      7  C   UNL A   1      32.913  27.017  23.671  1.00  0.00     0.120 C 
BRANCH   7   8
ATOM      8  C   UNL A   1      31.526  26.806  24.312  1.00  0.00     0.035 C 
ATOM      9  C   UNL A   1      30.319  27.446  23.664  1.00  0.00     0.007 C 
ENDBRANCH   7   8
BRANCH   7  10
ATOM     10  C   UNL A   1      34.028  26.251  24.494  1.00  0.00     0.035 C 
ATOM     11  C   UNL A   1      33.757  25.557  25.811  1.00  0.00     0.007 C 
ENDBRANCH   7  10
BRANCH   7  12
ATOM     12  N   UNL A   1      32.754  26.643  22.238  1.00  0.00    -0.323 N 
ATOM     13  C   UNL A   1      32.819  25.477  21.560  1.00  0.00     0.320 C 
ATOM     14  H   UNL A   1      32.559  27.414  21.657  1.00  0.00     0.166 HD
ATOM     15  O   UNL A   1      32.902  25.580  20.331  1.00  0.00    -0.248 OA
ATOM     16  N   UNL A   1      32.827  24.211  22.043  1.00  0.00    -0.308 N 
ATOM     17  H   UNL A   1      33.005  23.600  21.291  1.00  0.00     0.171 HD
BRANCH  16  18
ATOM     18  C   UNL A   1      32.674  23.427  23.220  1.00  0.00     0.045 A 
ATOM     19  C   UNL A   1      31.547  23.292  24.034  1.00  0.00     0.046 A 
ATOM     20  C   UNL A   1      33.719  22.537  23.499  1.00  0.00     0.046 A 
ATOM     21  C   UNL A   1      31.568  22.567  25.234  1.00  0.00     0.044 A 
ATOM     22  C   UNL A   1      33.720  21.756  24.667  1.00  0.00     0.044 A 
ATOM     23  Cl  UNL A   1      30.191  22.580  26.271  1.00  0.00    -0.084 Cl
ATOM     24  C   UNL A   1      32.675  21.819  25.577  1.00  0.00     0.041 A 
ATOM     25  Cl  UNL A   1      35.040  20.698  24.981  1.00  0.00    -0.084 Cl
ENDBRANCH  16  18
ENDBRANCH   7  12
ENDBRANCH   4   7
ENDBRANCH   2   3
ENDBRANCH   1   2
BRANCH   1  26
ATOM     26  C   UNL A   1      35.286  30.199  27.611  1.00  0.00     0.118 C 
BRANCH  26  27
ATOM     27  N   UNL A   1      35.291  30.632  28.992  1.00  0.00    -0.352 N 
ATOM     28  C   UNL A   1      36.261  30.478  29.956  1.00  0.00     0.251 C 
ATOM     29  H   UNL A   1      34.481  31.109  29.285  1.00  0.00     0.163 HD
ATOM     30  O   UNL A   1      36.023  30.780  31.114  1.00  0.00    -0.269 OA
BRANCH  28  31
ATOM     31  C   UNL A   1      37.579  29.900  29.598  1.00  0.00     0.039 A 
ATOM     32  C   UNL A   1      37.964  29.917  28.256  1.00  0.00     0.014 A 
ATOM     33  C   UNL A   1      38.424  29.344  30.562  1.00  0.00     0.014 A 
ATOM     34  C   UNL A   1      39.228  29.447  27.890  1.00  0.00     0.010 A 
ATOM     35  C   UNL A   1      39.709  28.929  30.204  1.00  0.00     0.010 A 
ATOM     36  C   UNL A   1      40.132  28.990  28.866  1.00  0.00    -0.014 A 
BRANCH  36  37
ATOM     37  C   UNL A   1      41.533  28.638  28.503  1.00  0.00     0.031 A 
ATOM     38  C   UNL A   1      42.602  29.693  28.429  1.00  0.00     0.074 A 
ATOM     39  C   UNL A   1      41.830  27.361  28.186  1.00  0.00     0.049 A 
ATOM     40  N   UNL A   1      43.858  29.572  28.076  1.00  0.00    -0.248 NA
ATOM     41  C   UNL A   1      42.209  31.066  28.779  1.00  0.00     0.031 C 
ATOM     42  C   UNL A   1      40.876  26.249  28.185  1.00  0.00     0.029 A 
ATOM     43  N   UNL A   1      43.011  26.782  27.792  1.00  0.00    -0.354 N 
ATOM     44  C   UNL A   1      44.404  30.847  28.157  1.00  0.00     0.074 A 
ATOM     45  C   UNL A   1      43.329  31.736  28.548  1.00  0.00     0.031 C 
ATOM     46  C   UNL A   1      41.513  25.122  27.827  1.00  0.00     0.029 A 
ATOM     47  C   UNL A   1      42.907  25.435  27.527  1.00  0.00     0.049 A 
ATOM     48  H   UNL A   1      43.855  27.283  27.708  1.00  0.00     0.167 HD
ATOM     49  C   UNL A   1      45.684  31.239  27.941  1.00  0.00     0.037 A 
ATOM     50  C   UNL A   1      43.819  24.553  27.074  1.00  0.00     0.037 A 
ATOM     51  C   UNL A   1      46.751  30.348  27.557  1.00  0.00     0.049 A 
ATOM     52  C   UNL A   1      45.225  25.019  26.806  1.00  0.00     0.074 A 
ATOM     53  C   UNL A   1      48.090  30.643  27.368  1.00  0.00     0.029 A 
ATOM     54  N   UNL A   1      46.603  28.994  27.291  1.00  0.00    -0.354 N 
ATOM     55  N   UNL A   1      45.738  26.218  26.953  1.00  0.00    -0.248 NA
ATOM     56  C   UNL A   1      46.176  24.015  26.311  1.00  0.00     0.031 C 
ATOM     57  C   UNL A   1      48.740  29.484  26.930  1.00  0.00     0.029 A 
ATOM     58  C   UNL A   1      47.818  28.449  26.906  1.00  0.00     0.049 A 
ATOM     59  H   UNL A   1      45.758  28.493  27.365  1.00  0.00     0.167 HD
ATOM     60  C   UNL A   1      47.075  26.107  26.589  1.00  0.00     0.074 A 
ATOM     61  C   UNL A   1      47.296  24.720  26.234  1.00  0.00     0.031 C 
ATOM     62  C   UNL A   1      48.032  27.067  26.550  1.00  0.00     0.037 A 
BRANCH  49  63
ATOM     63  C   UNL A   1      46.009  32.700  28.107  1.00  0.00     0.058 A 
ATOM     64  C   UNL A   1      45.893  33.609  27.043  1.00  0.00     0.135 A 
ATOM     65  C   UNL A   1      46.390  33.210  29.360  1.00  0.00     0.135 A 
ATOM     66  F   UNL A   1      45.543  33.178  25.820  1.00  0.00    -0.206 F 
ATOM     67  C   UNL A   1      46.172  34.962  27.206  1.00  0.00     0.059 A 
ATOM     68  C   UNL A   1      46.644  34.564  29.554  1.00  0.00     0.059 A 
ATOM     69  F   UNL A   1      46.513  32.388  30.415  1.00  0.00    -0.206 F 
ATOM     70  C   UNL A   1      46.547  35.431  28.467  1.00  0.00     0.060 A 
BRANCH  70  71
ATOM     71  S   UNL A   1      46.900  37.191  28.661  1.00  0.00     0.124 S 
ATOM     72  O   UNL A   1      45.771  37.626  29.478  1.00  0.00    -0.237 OA
ATOM     73  O   UNL A   1      48.197  37.176  29.328  1.00  0.00    -0.237 OA
ATOM     74  O   UNL A   1      46.909  37.691  27.289  1.00  0.00    -0.744 OA
ENDBRANCH  70  71
ENDBRANCH  49  63
BRANCH  50  75
ATOM     75  C   UNL A   1      43.432  23.135  26.845  1.00  0.00     0.058 A 
ATOM     76  C   UNL A   1      43.304  22.619  25.547  1.00  0.00     0.135 A 
ATOM     77  C   UNL A   1      43.188  22.264  27.919  1.00  0.00     0.135 A 
ATOM     78  F   UNL A   1      43.515  23.413  24.487  1.00  0.00    -0.206 F 
ATOM     79  C   UNL A   1      42.935  21.296  25.319  1.00  0.00     0.059 A 
ATOM     80  C   UNL A   1      42.847  20.929  27.718  1.00  0.00     0.059 A 
ATOM     81  F   UNL A   1      43.309  22.702  29.182  1.00  0.00    -0.206 F 
ATOM     82  C   UNL A   1      42.714  20.457  26.413  1.00  0.00     0.060 A 
BRANCH  82  83
ATOM     83  S   UNL A   1      42.287  18.730  26.107  1.00  0.00     0.124 S 
ATOM     84  O   UNL A   1      40.877  18.833  25.752  1.00  0.00    -0.237 OA
ATOM     85  O   UNL A   1      43.197  18.380  25.020  1.00  0.00    -0.237 OA
ATOM     86  O   UNL A   1      42.573  18.083  27.384  1.00  0.00    -0.744 OA
ENDBRANCH  82  83
ENDBRANCH  50  75
BRANCH  62  87
ATOM     87  C   UNL A   1      49.417  26.651  26.129  1.00  0.00     0.058 A 
ATOM     88  C   UNL A   1      49.872  26.827  24.812  1.00  0.00     0.135 A 
ATOM     89  C   UNL A   1      50.316  26.115  27.065  1.00  0.00     0.135 A 
ATOM     90  F   UNL A   1      49.051  27.327  23.874  1.00  0.00    -0.206 F 
ATOM     91  C   UNL A   1      51.160  26.462  24.433  1.00  0.00     0.059 A 
ATOM     92  C   UNL A   1      51.619  25.773  26.714  1.00  0.00     0.059 A 
ATOM     93  F   UNL A   1      49.939  25.933  28.340  1.00  0.00    -0.206 F 
ATOM     94  C   UNL A   1      52.028  25.939  25.392  1.00  0.00     0.060 A 
BRANCH  94  95
ATOM     95  S   UNL A   1      53.708  25.504  24.892  1.00  0.00     0.124 S 
ATOM     96  O   UNL A   1      53.728  25.953  23.503  1.00  0.00    -0.237 OA
ATOM     97  O   UNL A   1      54.521  26.283  25.822  1.00  0.00    -0.237 OA
ATOM     98  O   UNL A   1      53.758  24.058  25.086  1.00  0.00    -0.744 OA
ENDBRANCH  94  95
ENDBRANCH  62  87
ENDBRANCH  36  37
ENDBRANCH  28  31
ENDBRANCH  26  27
ENDBRANCH   1  26
TORSDOF 17
ENDMDL
MODEL 3
REMARK VINA RESULT:     -11.1      1.482      2.693
REMARK SMILES CCC(CC)(NC(=O)Nc1cc(Cl)cc(Cl)c1)C(=O)NCCCNC(=O)c1ccc(-c2c3nc(c(-c4c(F)cc(S(=O)(=O)[O-])cc4F)c4ccc([nH]4)c(-c4c(F)cc(S(=O)(=O)[O-])cc4F)c4nc(c(-c5c(F)cc(S(=O)(=O)[O-])cc5F)c5ccc2[nH]5)C=C4)C=C3)cc1
REMARK SMILES IDX 22 1 21 2 20 3 18 4 19 5 3 7 2 8 1 9 4 10 5 11 6 12 7 13
REMARK SMILES IDX 8 15 9 16 10 18 11 19 17 20 12 21 15 22 13 23 14 24 16 25
REMARK SMILES IDX 23 26 24 27 25 28 26 30 27 31 28 32 92 33 29 34 91 35 30 36
REMARK SMILES IDX 31 37 32 38 85 39 33 40 90 41 84 42 86 43 34 44 89 45 83 46
REMARK SMILES IDX 82 47 35 49 69 50 48 51 68 52 49 53 52 54 67 55 87 56 50 57
REMARK SMILES IDX 51 58 66 60 88 61 53 62 36 63 37 64 46 65 38 66 39 67 45 68
REMARK SMILES IDX 47 69 40 70 41 71 42 72 43 73 44 74 70 75 71 76 80 77 72 78
REMARK SMILES IDX 73 79 79 80 81 81 74 82 75 83 76 84 77 85 78 86 54 87 55 88
REMARK SMILES IDX 64 89 56 90 57 91 63 92 65 93 58 94 59 95 60 96 61 97 62 98
REMARK H PARENT 20 6 6 14 9 17 24 29 86 48 52 59
REMARK Flexibility Score: inf
ROOT
ATOM      1  C   UNL A   1      33.284  28.239  25.488  1.00  0.00     0.042 C 
ENDROOT
BRANCH   1   2
ATOM      2  C   UNL A   1      31.935  27.560  25.183  1.00  0.00     0.117 C 
BRANCH   2   3
ATOM      3  N   UNL A   1      31.981  26.819  23.930  1.00  0.00    -0.354 N 
ATOM      4  C   UNL A   1      31.534  25.536  23.617  1.00  0.00     0.245 C 
ATOM      5  O   UNL A   1      30.529  25.339  22.943  1.00  0.00    -0.272 OA
ATOM      6  H   UNL A   1      32.397  27.303  23.181  1.00  0.00     0.163 HD
BRANCH   4   7
ATOM      7  C   UNL A   1      32.351  24.400  24.288  1.00  0.00     0.120 C 
BRANCH   7   8
ATOM      8  C   UNL A   1      33.881  24.448  24.472  1.00  0.00     0.035 C 
ATOM      9  C   UNL A   1      34.441  24.906  25.801  1.00  0.00     0.007 C 
ENDBRANCH   7   8
BRANCH   7  10
ATOM     10  C   UNL A   1      31.950  23.262  23.262  1.00  0.00     0.035 C 
ATOM     11  C   UNL A   1      32.926  22.650  22.281  1.00  0.00     0.007 C 
ENDBRANCH   7  10
BRANCH   7  12
ATOM     12  N   UNL A   1      31.785  24.300  25.663  1.00  0.00    -0.323 N 
ATOM     13  C   UNL A   1      31.494  23.270  26.485  1.00  0.00     0.320 C 
ATOM     14  H   UNL A   1      31.576  25.178  26.058  1.00  0.00     0.166 HD
ATOM     15  O   UNL A   1      30.779  23.548  27.455  1.00  0.00    -0.248 OA
ATOM     16  N   UNL A   1      31.859  21.970  26.382  1.00  0.00    -0.308 N 
ATOM     17  H   UNL A   1      31.379  21.463  27.077  1.00  0.00     0.171 HD
BRANCH  16  18
ATOM     18  C   UNL A   1      32.671  21.056  25.655  1.00  0.00     0.045 A 
ATOM     19  C   UNL A   1      32.271  20.053  24.768  1.00  0.00     0.046 A 
ATOM     20  C   UNL A   1      34.049  21.306  25.685  1.00  0.00     0.046 A 
ATOM     21  C   UNL A   1      33.177  19.146  24.200  1.00  0.00     0.044 A 
ATOM     22  C   UNL A   1      34.963  20.440  25.064  1.00  0.00     0.044 A 
ATOM     23  Cl  UNL A   1      32.595  17.832  23.247  1.00  0.00    -0.084 Cl
ATOM     24  C   UNL A   1      34.534  19.314  24.376  1.00  0.00     0.041 A 
ATOM     25  Cl  UNL A   1      36.648  20.774  25.155  1.00  0.00    -0.084 Cl
ENDBRANCH  16  18
ENDBRANCH   7  12
ENDBRANCH   4   7
ENDBRANCH   2   3
ENDBRANCH   1   2
BRANCH   1  26
ATOM     26  C   UNL A   1      33.645  28.428  26.963  1.00  0.00     0.118 C 
BRANCH  26  27
ATOM     27  N   UNL A   1      33.561  29.805  27.399  1.00  0.00    -0.352 N 
ATOM     28  C   UNL A   1      34.490  30.573  28.063  1.00  0.00     0.251 C 
ATOM     29  H   UNL A   1      32.714  30.261  27.188  1.00  0.00     0.163 HD
ATOM     30  O   UNL A   1      34.181  31.677  28.482  1.00  0.00    -0.269 OA
BRANCH  28  31
ATOM     31  C   UNL A   1      35.852  30.042  28.311  1.00  0.00     0.039 A 
ATOM     32  C   UNL A   1      36.777  30.081  27.266  1.00  0.00     0.014 A 
ATOM     33  C   UNL A   1      36.218  29.505  29.549  1.00  0.00     0.014 A 
ATOM     34  C   UNL A   1      38.090  29.656  27.483  1.00  0.00     0.010 A 
ATOM     35  C   UNL A   1      37.545  29.135  29.782  1.00  0.00     0.010 A 
ATOM     36  C   UNL A   1      38.500  29.221  28.756  1.00  0.00    -0.014 A 
BRANCH  36  37
ATOM     37  C   UNL A   1      39.931  28.917  29.034  1.00  0.00     0.031 A 
ATOM     38  C   UNL A   1      40.850  29.965  29.599  1.00  0.00     0.074 A 
ATOM     39  C   UNL A   1      40.418  27.698  28.723  1.00  0.00     0.049 A 
ATOM     40  N   UNL A   1      42.133  29.889  29.850  1.00  0.00    -0.248 NA
ATOM     41  C   UNL A   1      40.256  31.274  29.908  1.00  0.00     0.031 C 
ATOM     42  C   UNL A   1      39.640  26.604  28.137  1.00  0.00     0.029 A 
ATOM     43  N   UNL A   1      41.682  27.175  28.843  1.00  0.00    -0.354 N 
ATOM     44  C   UNL A   1      42.503  31.136  30.341  1.00  0.00     0.074 A 
ATOM     45  C   UNL A   1      41.315  31.964  30.308  1.00  0.00     0.031 C 
ATOM     46  C   UNL A   1      40.438  25.537  27.966  1.00  0.00     0.029 A 
ATOM     47  C   UNL A   1      41.794  25.882  28.384  1.00  0.00     0.049 A 
ATOM     48  H   UNL A   1      42.440  27.678  29.223  1.00  0.00     0.167 HD
ATOM     49  C   UNL A   1      43.714  31.547  30.791  1.00  0.00     0.037 A 
ATOM     50  C   UNL A   1      42.865  25.070  28.289  1.00  0.00     0.037 A 
ATOM     51  C   UNL A   1      44.891  30.715  30.826  1.00  0.00     0.049 A 
ATOM     52  C   UNL A   1      44.207  25.562  28.760  1.00  0.00     0.074 A 
ATOM     53  C   UNL A   1      46.149  31.026  31.314  1.00  0.00     0.029 A 
ATOM     54  N   UNL A   1      44.964  29.415  30.344  1.00  0.00    -0.354 N 
ATOM     55  N   UNL A   1      44.521  26.724  29.283  1.00  0.00    -0.248 NA
ATOM     56  C   UNL A   1      45.338  24.635  28.629  1.00  0.00     0.031 C 
ATOM     57  C   UNL A   1      46.997  29.939  31.074  1.00  0.00     0.029 A 
ATOM     58  C   UNL A   1      46.253  28.925  30.492  1.00  0.00     0.049 A 
ATOM     59  H   UNL A   1      44.211  28.914  29.956  1.00  0.00     0.167 HD
ATOM     60  C   UNL A   1      45.882  26.658  29.563  1.00  0.00     0.074 A 
ATOM     61  C   UNL A   1      46.325  25.336  29.170  1.00  0.00     0.031 C 
ATOM     62  C   UNL A   1      46.690  27.608  30.095  1.00  0.00     0.037 A 
BRANCH  49  63
ATOM     63  C   UNL A   1      43.837  32.967  31.279  1.00  0.00     0.058 A 
ATOM     64  C   UNL A   1      44.201  34.015  30.419  1.00  0.00     0.135 A 
ATOM     65  C   UNL A   1      43.535  33.292  32.612  1.00  0.00     0.135 A 
ATOM     66  F   UNL A   1      44.510  33.763  29.137  1.00  0.00    -0.206 F 
ATOM     67  C   UNL A   1      44.291  35.329  30.869  1.00  0.00     0.059 A 
ATOM     68  C   UNL A   1      43.588  34.603  33.076  1.00  0.00     0.059 A 
ATOM     69  F   UNL A   1      43.177  32.331  33.479  1.00  0.00    -0.206 F 
ATOM     70  C   UNL A   1      43.982  35.613  32.201  1.00  0.00     0.060 A 
BRANCH  70  71
ATOM     71  S   UNL A   1      44.100  37.324  32.765  1.00  0.00     0.124 S 
ATOM     72  O   UNL A   1      45.448  37.354  33.324  1.00  0.00    -0.237 OA
ATOM     73  O   UNL A   1      43.910  38.074  31.528  1.00  0.00    -0.237 OA
ATOM     74  O   UNL A   1      43.017  37.438  33.737  1.00  0.00    -0.744 OA
ENDBRANCH  70  71
ENDBRANCH  49  63
BRANCH  50  75
ATOM     75  C   UNL A   1      42.712  23.703  27.722  1.00  0.00     0.058 A 
ATOM     76  C   UNL A   1      42.546  22.587  28.555  1.00  0.00     0.135 A 
ATOM     77  C   UNL A   1      42.721  23.485  26.334  1.00  0.00     0.135 A 
ATOM     78  F   UNL A   1      42.541  22.740  29.887  1.00  0.00    -0.206 F 
ATOM     79  C   UNL A   1      42.409  21.302  28.037  1.00  0.00     0.059 A 
ATOM     80  C   UNL A   1      42.556  22.214  25.791  1.00  0.00     0.059 A 
ATOM     81  F   UNL A   1      42.863  24.519  25.491  1.00  0.00    -0.206 F 
ATOM     82  C   UNL A   1      42.410  21.127  26.652  1.00  0.00     0.060 A 
BRANCH  82  83
ATOM     83  S   UNL A   1      42.179  19.463  25.989  1.00  0.00     0.124 S 
ATOM     84  O   UNL A   1      42.558  18.637  27.129  1.00  0.00    -0.237 OA
ATOM     85  O   UNL A   1      40.760  19.468  25.644  1.00  0.00    -0.237 OA
ATOM     86  O   UNL A   1      43.092  19.427  24.850  1.00  0.00    -0.744 OA
ENDBRANCH  82  83
ENDBRANCH  50  75
BRANCH  62  87
ATOM     87  C   UNL A   1      48.138  27.250  30.306  1.00  0.00     0.058 A 
ATOM     88  C   UNL A   1      49.130  27.607  29.379  1.00  0.00     0.135 A 
ATOM     89  C   UNL A   1      48.545  26.584  31.474  1.00  0.00     0.135 A 
ATOM     90  F   UNL A   1      48.796  28.239  28.241  1.00  0.00    -0.206 F 
ATOM     91  C   UNL A   1      50.469  27.294  29.589  1.00  0.00     0.059 A 
ATOM     92  C   UNL A   1      49.883  26.289  31.718  1.00  0.00     0.059 A 
ATOM     93  F   UNL A   1      47.641  26.226  32.399  1.00  0.00    -0.206 F 
ATOM     94  C   UNL A   1      50.837  26.638  30.764  1.00  0.00     0.060 A 
BRANCH  94  95
ATOM     95  S   UNL A   1      52.583  26.270  31.039  1.00  0.00     0.124 S 
ATOM     96  O   UNL A   1      53.062  26.077  29.673  1.00  0.00    -0.237 OA
ATOM     97  O   UNL A   1      53.054  27.478  31.711  1.00  0.00    -0.237 OA
ATOM     98  O   UNL A   1      52.553  25.070  31.869  1.00  0.00    -0.744 OA
ENDBRANCH  94  95
ENDBRANCH  62  87
ENDBRANCH  36  37
ENDBRANCH  28  31
ENDBRANCH  26  27
ENDBRANCH   1  26
TORSDOF 17
ENDMDL
