MODEL 1
REMARK VINA RESULT:     -14.9      0.000      0.000
REMARK SMILES C[C@]1(C(=O)NCCCNC(=O)c2ccc(-c3c4nc(c(-c5c(F)cc(S(=O)(=O)[O-])cc5F)c5ccc([nH]5)c(-c5c(F)cc(S(=O)(=O)[O-])cc5F)c5nc(c(-c6c(F)cc(S(=O)(=O)[O-])cc6F)c6ccc3[nH]6)C=C5)C=C4)cc2)[NH2+]C2(C(=O)c3ccccc3C2=O)[C@@H]2C(=O)N(c3ccccc3)C(=O)[C@H]21
REMARK SMILES IDX 8 1 7 2 6 3 5 4 3 5 4 6 2 8 1 9 78 10 102 11 79 12 90 15
REMARK SMILES IDX 100 16 80 17 88 18 91 19 93 20 101 21 81 22 82 23 87 24
REMARK SMILES IDX 89 25 92 26 83 27 86 28 84 29 85 30 94 31 95 32 99 33 96 34
REMARK SMILES IDX 98 35 97 36 9 37 10 38 11 40 12 41 13 42 77 43 14 44 76 45
REMARK SMILES IDX 15 46 16 47 17 48 70 49 18 50 75 51 69 52 71 53 19 54 74 55
REMARK SMILES IDX 68 56 67 57 20 59 54 60 33 61 53 62 34 63 37 64 52 65 72 66
REMARK SMILES IDX 35 67 36 68 51 70 73 71 38 72 21 73 22 74 31 75 23 76 24 77
REMARK SMILES IDX 30 78 32 79 25 80 26 81 27 82 28 83 29 84 55 85 56 86 65 87
REMARK SMILES IDX 57 88 58 89 64 90 66 91 59 92 60 93 61 94 62 95 63 96 39 97
REMARK SMILES IDX 40 98 49 99 41 100 42 101 48 102 50 103 43 104 44 105 45 106
REMARK SMILES IDX 46 107 47 108
REMARK H PARENT 5 7 78 13 78 14 9 39 71 58 37 69
REMARK Flexibility Score: inf
ROOT
ATOM      1  C   UNL A   1      40.682  22.983  26.969  1.00  0.00     0.118 C 
ENDROOT
BRANCH   1   2
ATOM      2  C   UNL A   1      39.924  21.868  26.273  1.00  0.00     0.042 C 
BRANCH   2   3
ATOM      3  C   UNL A   1      38.461  22.215  26.073  1.00  0.00     0.118 C 
BRANCH   3   4
ATOM      4  N   UNL A   1      38.063  22.499  24.717  1.00  0.00    -0.351 N 
ATOM      5  C   UNL A   1      36.920  23.025  24.197  1.00  0.00     0.281 C 
ATOM      6  O   UNL A   1      36.951  23.190  22.968  1.00  0.00    -0.268 OA
ATOM      7  H   UNL A   1      38.743  22.270  24.043  1.00  0.00     0.163 HD
BRANCH   5   8
ATOM      8  C   UNL A   1      35.634  23.439  25.017  1.00  0.00     0.186 C 
ATOM      9  C   UNL A   1      36.163  24.001  26.359  1.00  0.00     0.091 C 
ATOM     10  N   UNL A   1      34.804  24.515  24.331  1.00  0.00    -0.314 N 
ATOM     11  C   UNL A   1      34.614  22.358  25.315  1.00  0.00     0.170 C 
ATOM     12  C   UNL A   1      33.399  23.954  24.073  1.00  0.00     0.236 C 
ATOM     13  H   UNL A   1      35.240  24.773  23.444  1.00  0.00     0.348 HD
ATOM     14  H   UNL A   1      34.747  25.344  24.922  1.00  0.00     0.348 HD
ATOM     15  C   UNL A   1      33.642  22.488  24.168  1.00  0.00     0.177 C 
ATOM     16  C   UNL A   1      34.795  20.870  25.315  1.00  0.00     0.244 C 
ATOM     17  C   UNL A   1      32.389  24.669  24.979  1.00  0.00     0.232 C 
ATOM     18  C   UNL A   1      32.902  24.369  22.680  1.00  0.00     0.232 C 
ATOM     19  C   UNL A   1      32.708  21.381  24.455  1.00  0.00     0.245 C 
ATOM     20  N   UNL A   1      33.557  20.368  24.901  1.00  0.00    -0.250 N 
ATOM     21  O   UNL A   1      35.800  20.271  25.656  1.00  0.00    -0.273 OA
ATOM     22  O   UNL A   1      32.284  24.545  26.186  1.00  0.00    -0.286 OA
ATOM     23  C   UNL A   1      31.671  25.665  24.159  1.00  0.00     0.036 A 
ATOM     24  C   UNL A   1      32.021  25.511  22.824  1.00  0.00     0.036 A 
ATOM     25  O   UNL A   1      33.101  23.834  21.604  1.00  0.00    -0.286 OA
ATOM     26  O   UNL A   1      31.519  21.368  24.199  1.00  0.00    -0.273 OA
ATOM     27  C   UNL A   1      30.809  26.677  24.540  1.00  0.00     0.013 A 
ATOM     28  C   UNL A   1      31.566  26.345  21.818  1.00  0.00     0.013 A 
ATOM     29  C   UNL A   1      30.330  27.536  23.538  1.00  0.00     0.001 A 
ATOM     30  C   UNL A   1      30.712  27.377  22.191  1.00  0.00     0.001 A 
BRANCH  20  31
ATOM     31  C   UNL A   1      33.302  18.997  24.711  1.00  0.00     0.052 A 
ATOM     32  C   UNL A   1      32.803  18.208  25.749  1.00  0.00     0.027 A 
ATOM     33  C   UNL A   1      33.638  18.399  23.488  1.00  0.00     0.027 A 
ATOM     34  C   UNL A   1      32.606  16.838  25.551  1.00  0.00     0.002 A 
ATOM     35  C   UNL A   1      33.497  17.022  23.316  1.00  0.00     0.002 A 
ATOM     36  C   UNL A   1      32.967  16.245  24.342  1.00  0.00     0.000 A 
ENDBRANCH  20  31
ENDBRANCH   5   8
ENDBRANCH   3   4
ENDBRANCH   2   3
ENDBRANCH   1   2
BRANCH   1  37
ATOM     37  N   UNL A   1      41.294  23.930  26.035  1.00  0.00    -0.352 N 
ATOM     38  C   UNL A   1      41.471  25.294  26.032  1.00  0.00     0.251 C 
ATOM     39  H   UNL A   1      41.661  23.493  25.233  1.00  0.00     0.163 HD
ATOM     40  O   UNL A   1      41.880  25.820  24.996  1.00  0.00    -0.269 OA
BRANCH  38  41
ATOM     41  C   UNL A   1      41.174  26.151  27.207  1.00  0.00     0.039 A 
ATOM     42  C   UNL A   1      41.851  27.341  27.437  1.00  0.00     0.014 A 
ATOM     43  C   UNL A   1      40.132  25.795  28.078  1.00  0.00     0.014 A 
ATOM     44  C   UNL A   1      41.658  28.045  28.619  1.00  0.00     0.010 A 
ATOM     45  C   UNL A   1      39.828  26.593  29.192  1.00  0.00     0.010 A 
ATOM     46  C   UNL A   1      40.622  27.705  29.501  1.00  0.00    -0.014 A 
BRANCH  46  47
ATOM     47  C   UNL A   1      40.397  28.567  30.697  1.00  0.00     0.031 A 
ATOM     48  C   UNL A   1      41.325  28.520  31.881  1.00  0.00     0.074 A 
ATOM     49  C   UNL A   1      39.395  29.471  30.666  1.00  0.00     0.049 A 
ATOM     50  N   UNL A   1      41.320  29.268  32.957  1.00  0.00    -0.248 NA
ATOM     51  C   UNL A   1      42.383  27.500  31.870  1.00  0.00     0.031 C 
ATOM     52  C   UNL A   1      38.420  29.606  29.580  1.00  0.00     0.029 A 
ATOM     53  N   UNL A   1      39.061  30.484  31.531  1.00  0.00    -0.354 N 
ATOM     54  C   UNL A   1      42.350  28.791  33.760  1.00  0.00     0.074 A 
ATOM     55  C   UNL A   1      42.941  27.671  33.061  1.00  0.00     0.031 C 
ATOM     56  C   UNL A   1      37.674  30.700  29.787  1.00  0.00     0.029 A 
ATOM     57  C   UNL A   1      38.049  31.292  31.064  1.00  0.00     0.049 A 
ATOM     58  H   UNL A   1      39.502  30.618  32.401  1.00  0.00     0.167 HD
ATOM     59  C   UNL A   1      42.771  29.252  34.962  1.00  0.00     0.037 A 
ATOM     60  C   UNL A   1      37.476  32.388  31.601  1.00  0.00     0.037 A 
ATOM     61  C   UNL A   1      42.196  30.387  35.638  1.00  0.00     0.049 A 
ATOM     62  C   UNL A   1      37.952  32.877  32.935  1.00  0.00     0.074 A 
ATOM     63  C   UNL A   1      42.569  30.947  36.848  1.00  0.00     0.029 A 
ATOM     64  N   UNL A   1      41.128  31.136  35.165  1.00  0.00    -0.354 N 
ATOM     65  N   UNL A   1      38.929  32.412  33.676  1.00  0.00    -0.248 NA
ATOM     66  C   UNL A   1      37.239  34.019  33.520  1.00  0.00     0.031 C 
ATOM     67  C   UNL A   1      41.699  32.007  37.126  1.00  0.00     0.029 A 
ATOM     68  C   UNL A   1      40.813  32.139  36.068  1.00  0.00     0.049 A 
ATOM     69  H   UNL A   1      40.661  30.978  34.312  1.00  0.00     0.167 HD
ATOM     70  C   UNL A   1      38.947  33.200  34.818  1.00  0.00     0.074 A 
ATOM     71  C   UNL A   1      37.898  34.188  34.660  1.00  0.00     0.031 C 
ATOM     72  C   UNL A   1      39.757  33.107  35.901  1.00  0.00     0.037 A 
BRANCH  59  73
ATOM     73  C   UNL A   1      43.896  28.513  35.634  1.00  0.00     0.058 A 
ATOM     74  C   UNL A   1      45.242  28.822  35.382  1.00  0.00     0.135 A 
ATOM     75  C   UNL A   1      43.624  27.487  36.555  1.00  0.00     0.135 A 
ATOM     76  F   UNL A   1      45.563  29.782  34.499  1.00  0.00    -0.206 F 
ATOM     77  C   UNL A   1      46.276  28.116  35.989  1.00  0.00     0.059 A 
ATOM     78  C   UNL A   1      44.643  26.784  37.192  1.00  0.00     0.059 A 
ATOM     79  F   UNL A   1      42.354  27.151  36.835  1.00  0.00    -0.206 F 
ATOM     80  C   UNL A   1      45.966  27.094  36.887  1.00  0.00     0.060 A 
BRANCH  80  81
ATOM     81  S   UNL A   1      47.323  26.166  37.633  1.00  0.00     0.124 S 
ATOM     82  O   UNL A   1      48.480  26.782  36.990  1.00  0.00    -0.237 OA
ATOM     83  O   UNL A   1      47.159  26.463  39.053  1.00  0.00    -0.237 OA
ATOM     84  O   UNL A   1      47.049  24.787  37.246  1.00  0.00    -0.744 OA
ENDBRANCH  80  81
ENDBRANCH  59  73
BRANCH  60  85
ATOM     85  C   UNL A   1      36.393  33.078  30.851  1.00  0.00     0.058 A 
ATOM     86  C   UNL A   1      35.055  32.973  31.255  1.00  0.00     0.135 A 
ATOM     87  C   UNL A   1      36.689  33.940  29.782  1.00  0.00     0.135 A 
ATOM     88  F   UNL A   1      34.721  32.155  32.264  1.00  0.00    -0.206 F 
ATOM     89  C   UNL A   1      34.051  33.718  30.643  1.00  0.00     0.059 A 
ATOM     90  C   UNL A   1      35.708  34.714  29.173  1.00  0.00     0.059 A 
ATOM     91  F   UNL A   1      37.958  34.086  29.368  1.00  0.00    -0.206 F 
ATOM     92  C   UNL A   1      34.391  34.600  29.615  1.00  0.00     0.060 A 
BRANCH  92  93
ATOM     93  S   UNL A   1      33.101  35.654  28.916  1.00  0.00     0.124 S 
ATOM     94  O   UNL A   1      33.891  36.667  28.225  1.00  0.00    -0.237 OA
ATOM     95  O   UNL A   1      32.374  34.719  28.063  1.00  0.00    -0.237 OA
ATOM     96  O   UNL A   1      32.370  36.116  30.092  1.00  0.00    -0.744 OA
ENDBRANCH  92  93
ENDBRANCH  60  85
BRANCH  72  97
ATOM     97  C   UNL A   1      39.543  34.097  37.010  1.00  0.00     0.058 A 
ATOM     98  C   UNL A   1      38.772  33.774  38.137  1.00  0.00     0.135 A 
ATOM     99  C   UNL A   1      40.179  35.347  36.983  1.00  0.00     0.135 A 
ATOM    100  F   UNL A   1      38.135  32.595  38.206  1.00  0.00    -0.206 F 
ATOM    101  C   UNL A   1      38.637  34.661  39.200  1.00  0.00     0.059 A 
ATOM    102  C   UNL A   1      40.076  36.240  38.044  1.00  0.00     0.059 A 
ATOM    103  F   UNL A   1      40.933  35.699  35.929  1.00  0.00    -0.206 F 
ATOM    104  C   UNL A   1      39.299  35.889  39.148  1.00  0.00     0.060 A 
BRANCH 104 105
ATOM    105  S   UNL A   1      39.162  37.004  40.561  1.00  0.00     0.124 S 
ATOM    106  O   UNL A   1      38.294  38.048  40.029  1.00  0.00    -0.237 OA
ATOM    107  O   UNL A   1      38.568  36.143  41.579  1.00  0.00    -0.237 OA
ATOM    108  O   UNL A   1      40.543  37.403  40.814  1.00  0.00    -0.744 OA
ENDBRANCH 104 105
ENDBRANCH  72  97
ENDBRANCH  46  47
ENDBRANCH  38  41
ENDBRANCH   1  37
TORSDOF 14
ENDMDL
MODEL 2
REMARK VINA RESULT:     -14.6      6.326     12.152
REMARK SMILES C[C@]1(C(=O)NCCCNC(=O)c2ccc(-c3c4nc(c(-c5c(F)cc(S(=O)(=O)[O-])cc5F)c5ccc([nH]5)c(-c5c(F)cc(S(=O)(=O)[O-])cc5F)c5nc(c(-c6c(F)cc(S(=O)(=O)[O-])cc6F)c6ccc3[nH]6)C=C5)C=C4)cc2)[NH2+]C2(C(=O)c3ccccc3C2=O)[C@@H]2C(=O)N(c3ccccc3)C(=O)[C@H]21
REMARK SMILES IDX 8 1 7 2 6 3 5 4 3 5 4 6 2 8 1 9 78 10 102 11 79 12 90 15
REMARK SMILES IDX 100 16 80 17 88 18 91 19 93 20 101 21 81 22 82 23 87 24
REMARK SMILES IDX 89 25 92 26 83 27 86 28 84 29 85 30 94 31 95 32 99 33 96 34
REMARK SMILES IDX 98 35 97 36 9 37 10 38 11 40 12 41 13 42 77 43 14 44 76 45
REMARK SMILES IDX 15 46 16 47 17 48 70 49 18 50 75 51 69 52 71 53 19 54 74 55
REMARK SMILES IDX 68 56 67 57 20 59 54 60 33 61 53 62 34 63 37 64 52 65 72 66
REMARK SMILES IDX 35 67 36 68 51 70 73 71 38 72 21 73 22 74 31 75 23 76 24 77
REMARK SMILES IDX 30 78 32 79 25 80 26 81 27 82 28 83 29 84 55 85 56 86 65 87
REMARK SMILES IDX 57 88 58 89 64 90 66 91 59 92 60 93 61 94 62 95 63 96 39 97
REMARK SMILES IDX 40 98 49 99 41 100 42 101 48 102 50 103 43 104 44 105 45 106
REMARK SMILES IDX 46 107 47 108
REMARK H PARENT 5 7 78 13 78 14 9 39 71 58 37 69
REMARK Flexibility Score: inf
ROOT
ATOM      1  C   UNL A   1      35.550  31.652  28.731  1.00  0.00     0.118 C 
ENDROOT
BRANCH   1   2
ATOM      2  C   UNL A   1      34.143  31.675  28.161  1.00  0.00     0.042 C 
BRANCH   2   3
ATOM      3  C   UNL A   1      33.874  30.481  27.265  1.00  0.00     0.118 C 
BRANCH   3   4
ATOM      4  N   UNL A   1      32.923  29.522  27.768  1.00  0.00    -0.351 N 
ATOM      5  C   UNL A   1      32.590  28.269  27.350  1.00  0.00     0.281 C 
ATOM      6  O   UNL A   1      31.760  27.698  28.073  1.00  0.00    -0.268 OA
ATOM      7  H   UNL A   1      32.421  29.829  28.558  1.00  0.00     0.163 HD
BRANCH   5   8
ATOM      8  C   UNL A   1      33.179  27.528  26.086  1.00  0.00     0.186 C 
ATOM      9  C   UNL A   1      34.663  27.964  26.004  1.00  0.00     0.091 C 
ATOM     10  N   UNL A   1      33.123  26.010  26.199  1.00  0.00    -0.314 N 
ATOM     11  C   UNL A   1      32.522  27.795  24.746  1.00  0.00     0.170 C 
ATOM     12  C   UNL A   1      32.272  25.467  25.043  1.00  0.00     0.236 C 
ATOM     13  H   UNL A   1      32.701  25.747  27.091  1.00  0.00     0.348 HD
ATOM     14  H   UNL A   1      34.065  25.621  26.154  1.00  0.00     0.348 HD
ATOM     15  C   UNL A   1      31.509  26.680  24.641  1.00  0.00     0.177 C 
ATOM     16  C   UNL A   1      31.659  28.950  24.337  1.00  0.00     0.244 C 
ATOM     17  C   UNL A   1      33.172  24.711  24.058  1.00  0.00     0.232 C 
ATOM     18  C   UNL A   1      31.351  24.342  25.537  1.00  0.00     0.232 C 
ATOM     19  C   UNL A   1      30.847  27.014  23.363  1.00  0.00     0.245 C 
ATOM     20  N   UNL A   1      30.762  28.405  23.412  1.00  0.00    -0.250 N 
ATOM     21  O   UNL A   1      31.780  30.103  24.713  1.00  0.00    -0.273 OA
ATOM     22  O   UNL A   1      33.993  25.200  23.304  1.00  0.00    -0.286 OA
ATOM     23  C   UNL A   1      32.990  23.264  24.298  1.00  0.00     0.036 A 
ATOM     24  C   UNL A   1      31.957  23.068  25.204  1.00  0.00     0.036 A 
ATOM     25  O   UNL A   1      30.250  24.422  26.052  1.00  0.00    -0.286 OA
ATOM     26  O   UNL A   1      30.378  26.215  22.575  1.00  0.00    -0.273 OA
ATOM     27  C   UNL A   1      33.703  22.186  23.809  1.00  0.00     0.013 A 
ATOM     28  C   UNL A   1      31.594  21.821  25.683  1.00  0.00     0.013 A 
ATOM     29  C   UNL A   1      33.353  20.908  24.276  1.00  0.00     0.001 A 
ATOM     30  C   UNL A   1      32.315  20.729  25.212  1.00  0.00     0.001 A 
BRANCH  20  31
ATOM     31  C   UNL A   1      29.728  29.144  22.809  1.00  0.00     0.052 A 
ATOM     32  C   UNL A   1      30.005  30.098  21.827  1.00  0.00     0.027 A 
ATOM     33  C   UNL A   1      28.412  28.983  23.264  1.00  0.00     0.027 A 
ATOM     34  C   UNL A   1      28.966  30.856  21.278  1.00  0.00     0.002 A 
ATOM     35  C   UNL A   1      27.389  29.784  22.758  1.00  0.00     0.002 A 
ATOM     36  C   UNL A   1      27.664  30.710  21.755  1.00  0.00     0.000 A 
ENDBRANCH  20  31
ENDBRANCH   5   8
ENDBRANCH   3   4
ENDBRANCH   2   3
ENDBRANCH   1   2
BRANCH   1  37
ATOM     37  N   UNL A   1      35.618  31.054  30.066  1.00  0.00    -0.352 N 
ATOM     38  C   UNL A   1      36.505  30.209  30.692  1.00  0.00     0.251 C 
ATOM     39  H   UNL A   1      34.864  31.315  30.641  1.00  0.00     0.163 HD
ATOM     40  O   UNL A   1      36.181  29.743  31.787  1.00  0.00    -0.269 OA
BRANCH  38  41
ATOM     41  C   UNL A   1      37.811  29.824  30.103  1.00  0.00     0.039 A 
ATOM     42  C   UNL A   1      38.839  29.299  30.875  1.00  0.00     0.014 A 
ATOM     43  C   UNL A   1      38.000  29.923  28.715  1.00  0.00     0.014 A 
ATOM     44  C   UNL A   1      40.097  29.089  30.326  1.00  0.00     0.010 A 
ATOM     45  C   UNL A   1      39.225  29.558  28.134  1.00  0.00     0.010 A 
ATOM     46  C   UNL A   1      40.306  29.182  28.942  1.00  0.00    -0.014 A 
BRANCH  46  47
ATOM     47  C   UNL A   1      41.652  28.836  28.403  1.00  0.00     0.031 A 
ATOM     48  C   UNL A   1      42.791  29.818  28.454  1.00  0.00     0.074 A 
ATOM     49  C   UNL A   1      41.868  27.582  27.951  1.00  0.00     0.049 A 
ATOM     50  N   UNL A   1      44.043  29.641  28.112  1.00  0.00    -0.248 NA
ATOM     51  C   UNL A   1      42.492  31.175  28.934  1.00  0.00     0.031 C 
ATOM     52  C   UNL A   1      40.841  26.543  27.838  1.00  0.00     0.029 A 
ATOM     53  N   UNL A   1      43.020  26.946  27.558  1.00  0.00    -0.354 N 
ATOM     54  C   UNL A   1      44.671  30.866  28.307  1.00  0.00     0.074 A 
ATOM     55  C   UNL A   1      43.657  31.787  28.769  1.00  0.00     0.031 C 
ATOM     56  C   UNL A   1      41.422  25.379  27.516  1.00  0.00     0.029 A 
ATOM     57  C   UNL A   1      42.846  25.604  27.304  1.00  0.00     0.049 A 
ATOM     58  H   UNL A   1      43.886  27.405  27.467  1.00  0.00     0.167 HD
ATOM     59  C   UNL A   1      45.975  31.189  28.126  1.00  0.00     0.037 A 
ATOM     60  C   UNL A   1      43.727  24.655  26.935  1.00  0.00     0.037 A 
ATOM     61  C   UNL A   1      46.985  30.258  27.693  1.00  0.00     0.049 A 
ATOM     62  C   UNL A   1      45.163  25.035  26.735  1.00  0.00     0.074 A 
ATOM     63  C   UNL A   1      48.338  30.482  27.506  1.00  0.00     0.029 A 
ATOM     64  N   UNL A   1      46.755  28.925  27.379  1.00  0.00    -0.354 N 
ATOM     65  N   UNL A   1      45.736  26.199  26.927  1.00  0.00    -0.248 NA
ATOM     66  C   UNL A   1      46.068  23.987  26.248  1.00  0.00     0.031 C 
ATOM     67  C   UNL A   1      48.917  29.298  27.038  1.00  0.00     0.029 A 
ATOM     68  C   UNL A   1      47.936  28.321  26.978  1.00  0.00     0.049 A 
ATOM     69  H   UNL A   1      45.881  28.475  27.434  1.00  0.00     0.167 HD
ATOM     70  C   UNL A   1      47.068  26.028  26.580  1.00  0.00     0.074 A 
ATOM     71  C   UNL A   1      47.223  24.640  26.188  1.00  0.00     0.031 C 
ATOM     72  C   UNL A   1      48.070  26.941  26.579  1.00  0.00     0.037 A 
BRANCH  59  73
ATOM     73  C   UNL A   1      46.378  32.616  28.379  1.00  0.00     0.058 A 
ATOM     74  C   UNL A   1      46.347  33.586  27.364  1.00  0.00     0.135 A 
ATOM     75  C   UNL A   1      46.788  33.024  29.659  1.00  0.00     0.135 A 
ATOM     76  F   UNL A   1      45.979  33.250  26.117  1.00  0.00    -0.206 F 
ATOM     77  C   UNL A   1      46.745  34.898  27.600  1.00  0.00     0.059 A 
ATOM     78  C   UNL A   1      47.167  34.337  29.924  1.00  0.00     0.059 A 
ATOM     79  F   UNL A   1      46.835  32.139  30.668  1.00  0.00    -0.206 F 
ATOM     80  C   UNL A   1      47.161  35.262  28.882  1.00  0.00     0.060 A 
BRANCH  80  81
ATOM     81  S   UNL A   1      47.709  36.960  29.156  1.00  0.00     0.124 S 
ATOM     82  O   UNL A   1      46.498  37.710  28.833  1.00  0.00    -0.237 OA
ATOM     83  O   UNL A   1      48.081  36.943  30.568  1.00  0.00    -0.237 OA
ATOM     84  O   UNL A   1      48.815  37.119  28.219  1.00  0.00    -0.744 OA
ENDBRANCH  80  81
ENDBRANCH  59  73
BRANCH  60  85
ATOM     85  C   UNL A   1      43.250  23.260  26.742  1.00  0.00     0.058 A 
ATOM     86  C   UNL A   1      43.180  22.691  25.463  1.00  0.00     0.135 A 
ATOM     87  C   UNL A   1      42.955  22.437  27.842  1.00  0.00     0.135 A 
ATOM     88  F   UNL A   1      43.442  23.439  24.381  1.00  0.00    -0.206 F 
ATOM     89  C   UNL A   1      42.861  21.349  25.281  1.00  0.00     0.059 A 
ATOM     90  C   UNL A   1      42.659  21.088  27.688  1.00  0.00     0.059 A 
ATOM     91  F   UNL A   1      43.022  22.932  29.088  1.00  0.00    -0.206 F 
ATOM     92  C   UNL A   1      42.620  20.550  26.401  1.00  0.00     0.060 A 
BRANCH  92  93
ATOM     93  S   UNL A   1      42.333  18.783  26.161  1.00  0.00     0.124 S 
ATOM     94  O   UNL A   1      42.551  18.263  27.506  1.00  0.00    -0.237 OA
ATOM     95  O   UNL A   1      40.955  18.761  25.682  1.00  0.00    -0.237 OA
ATOM     96  O   UNL A   1      43.339  18.411  25.170  1.00  0.00    -0.744 OA
ENDBRANCH  92  93
ENDBRANCH  60  85
BRANCH  72  97
ATOM     97  C   UNL A   1      49.429  26.477  26.139  1.00  0.00     0.058 A 
ATOM     98  C   UNL A   1      49.913  26.756  24.852  1.00  0.00     0.135 A 
ATOM     99  C   UNL A   1      50.283  25.817  27.036  1.00  0.00     0.135 A 
ATOM    100  F   UNL A   1      49.131  27.375  23.954  1.00  0.00    -0.206 F 
ATOM    101  C   UNL A   1      51.200  26.395  24.468  1.00  0.00     0.059 A 
ATOM    102  C   UNL A   1      51.581  25.466  26.681  1.00  0.00     0.059 A 
ATOM    103  F   UNL A   1      49.867  25.533  28.280  1.00  0.00    -0.206 F 
ATOM    104  C   UNL A   1      52.029  25.756  25.392  1.00  0.00     0.060 A 
BRANCH 104 105
ATOM    105  S   UNL A   1      53.717  25.347  24.899  1.00  0.00     0.124 S 
ATOM    106  O   UNL A   1      53.674  23.889  24.885  1.00  0.00    -0.237 OA
ATOM    107  O   UNL A   1      53.823  25.990  23.593  1.00  0.00    -0.237 OA
ATOM    108  O   UNL A   1      54.533  25.942  25.952  1.00  0.00    -0.744 OA
ENDBRANCH 104 105
ENDBRANCH  72  97
ENDBRANCH  46  47
ENDBRANCH  38  41
ENDBRANCH   1  37
TORSDOF 14
ENDMDL
MODEL 3
REMARK VINA RESULT:     -14.2      0.476      7.858
REMARK SMILES C[C@]1(C(=O)NCCCNC(=O)c2ccc(-c3c4nc(c(-c5c(F)cc(S(=O)(=O)[O-])cc5F)c5ccc([nH]5)c(-c5c(F)cc(S(=O)(=O)[O-])cc5F)c5nc(c(-c6c(F)cc(S(=O)(=O)[O-])cc6F)c6ccc3[nH]6)C=C5)C=C4)cc2)[NH2+]C2(C(=O)c3ccccc3C2=O)[C@@H]2C(=O)N(c3ccccc3)C(=O)[C@H]21
REMARK SMILES IDX 8 1 7 2 6 3 5 4 3 5 4 6 2 8 1 9 78 10 102 11 79 12 90 15
REMARK SMILES IDX 100 16 80 17 88 18 91 19 93 20 101 21 81 22 82 23 87 24
REMARK SMILES IDX 89 25 92 26 83 27 86 28 84 29 85 30 94 31 95 32 99 33 96 34
REMARK SMILES IDX 98 35 97 36 9 37 10 38 11 40 12 41 13 42 77 43 14 44 76 45
REMARK SMILES IDX 15 46 16 47 17 48 70 49 18 50 75 51 69 52 71 53 19 54 74 55
REMARK SMILES IDX 68 56 67 57 20 59 54 60 33 61 53 62 34 63 37 64 52 65 72 66
REMARK SMILES IDX 35 67 36 68 51 70 73 71 38 72 21 73 22 74 31 75 23 76 24 77
REMARK SMILES IDX 30 78 32 79 25 80 26 81 27 82 28 83 29 84 55 85 56 86 65 87
REMARK SMILES IDX 57 88 58 89 64 90 66 91 59 92 60 93 61 94 62 95 63 96 39 97
REMARK SMILES IDX 40 98 49 99 41 100 42 101 48 102 50 103 43 104 44 105 45 106
REMARK SMILES IDX 46 107 47 108
REMARK H PARENT 5 7 78 13 78 14 9 39 71 58 37 69
REMARK Flexibility Score: inf
ROOT
ATOM      1  C   UNL A   1      40.326  23.276  26.854  1.00  0.00     0.118 C 
ENDROOT
BRANCH   1   2
ATOM      2  C   UNL A   1      39.886  21.953  26.255  1.00  0.00     0.042 C 
BRANCH   2   3
ATOM      3  C   UNL A   1      38.402  21.938  25.942  1.00  0.00     0.118 C 
BRANCH   3   4
ATOM      4  N   UNL A   1      38.037  22.357  24.612  1.00  0.00    -0.351 N 
ATOM      5  C   UNL A   1      36.930  22.987  24.129  1.00  0.00     0.281 C 
ATOM      6  O   UNL A   1      36.986  23.253  22.920  1.00  0.00    -0.268 OA
ATOM      7  H   UNL A   1      38.712  22.148  23.925  1.00  0.00     0.163 HD
BRANCH   5   8
ATOM      8  C   UNL A   1      35.659  23.400  24.973  1.00  0.00     0.186 C 
ATOM      9  C   UNL A   1      36.211  23.956  26.308  1.00  0.00     0.091 C 
ATOM     10  N   UNL A   1      34.820  24.482  24.304  1.00  0.00    -0.314 N 
ATOM     11  C   UNL A   1      34.641  22.320  25.282  1.00  0.00     0.170 C 
ATOM     12  C   UNL A   1      33.410  23.925  24.067  1.00  0.00     0.236 C 
ATOM     13  H   UNL A   1      35.243  24.742  23.412  1.00  0.00     0.348 HD
ATOM     14  H   UNL A   1      34.776  25.308  24.900  1.00  0.00     0.348 HD
ATOM     15  C   UNL A   1      33.651  22.458  24.151  1.00  0.00     0.177 C 
ATOM     16  C   UNL A   1      34.819  20.832  25.273  1.00  0.00     0.244 C 
ATOM     17  C   UNL A   1      32.417  24.638  24.992  1.00  0.00     0.232 C 
ATOM     18  C   UNL A   1      32.892  24.347  22.684  1.00  0.00     0.232 C 
ATOM     19  C   UNL A   1      32.719  21.351  24.449  1.00  0.00     0.245 C 
ATOM     20  N   UNL A   1      33.573  20.335  24.876  1.00  0.00    -0.250 N 
ATOM     21  O   UNL A   1      35.828  20.229  25.595  1.00  0.00    -0.273 OA
ATOM     22  O   UNL A   1      32.331  24.510  26.200  1.00  0.00    -0.286 OA
ATOM     23  C   UNL A   1      31.688  25.640  24.188  1.00  0.00     0.036 A 
ATOM     24  C   UNL A   1      32.016  25.491  22.847  1.00  0.00     0.036 A 
ATOM     25  O   UNL A   1      33.072  23.816  21.602  1.00  0.00    -0.286 OA
ATOM     26  O   UNL A   1      31.526  21.343  24.212  1.00  0.00    -0.273 OA
ATOM     27  C   UNL A   1      30.835  26.652  24.588  1.00  0.00     0.013 A 
ATOM     28  C   UNL A   1      31.546  26.330  21.852  1.00  0.00     0.013 A 
ATOM     29  C   UNL A   1      30.341  27.517  23.598  1.00  0.00     0.001 A 
ATOM     30  C   UNL A   1      30.701  27.363  22.244  1.00  0.00     0.001 A 
BRANCH  20  31
ATOM     31  C   UNL A   1      33.311  18.966  24.685  1.00  0.00     0.052 A 
ATOM     32  C   UNL A   1      32.743  18.193  25.699  1.00  0.00     0.027 A 
ATOM     33  C   UNL A   1      33.709  18.351  23.489  1.00  0.00     0.027 A 
ATOM     34  C   UNL A   1      32.540  16.824  25.504  1.00  0.00     0.002 A 
ATOM     35  C   UNL A   1      33.561  16.975  23.321  1.00  0.00     0.002 A 
ATOM     36  C   UNL A   1      32.963  16.214  24.323  1.00  0.00     0.000 A 
ENDBRANCH  20  31
ENDBRANCH   5   8
ENDBRANCH   3   4
ENDBRANCH   2   3
ENDBRANCH   1   2
BRANCH   1  37
ATOM     37  N   UNL A   1      41.174  24.060  25.954  1.00  0.00    -0.352 N 
ATOM     38  C   UNL A   1      41.612  25.364  25.945  1.00  0.00     0.251 C 
ATOM     39  H   UNL A   1      41.503  23.539  25.187  1.00  0.00     0.163 HD
ATOM     40  O   UNL A   1      42.186  25.772  24.933  1.00  0.00    -0.269 OA
BRANCH  38  41
ATOM     41  C   UNL A   1      41.407  26.295  27.082  1.00  0.00     0.039 A 
ATOM     42  C   UNL A   1      42.048  27.525  27.148  1.00  0.00     0.014 A 
ATOM     43  C   UNL A   1      40.487  25.965  28.090  1.00  0.00     0.014 A 
ATOM     44  C   UNL A   1      41.954  28.308  28.292  1.00  0.00     0.010 A 
ATOM     45  C   UNL A   1      40.271  26.833  29.171  1.00  0.00     0.010 A 
ATOM     46  C   UNL A   1      41.041  27.995  29.309  1.00  0.00    -0.014 A 
BRANCH  46  47
ATOM     47  C   UNL A   1      40.909  28.937  30.458  1.00  0.00     0.031 A 
ATOM     48  C   UNL A   1      39.797  29.949  30.517  1.00  0.00     0.074 A 
ATOM     49  C   UNL A   1      41.753  28.806  31.504  1.00  0.00     0.049 A 
ATOM     50  N   UNL A   1      39.490  30.775  31.486  1.00  0.00    -0.248 NA
ATOM     51  C   UNL A   1      38.924  30.062  29.339  1.00  0.00     0.031 C 
ATOM     52  C   UNL A   1      42.881  27.871  31.560  1.00  0.00     0.029 A 
ATOM     53  N   UNL A   1      41.766  29.408  32.738  1.00  0.00    -0.354 N 
ATOM     54  C   UNL A   1      38.413  31.524  31.025  1.00  0.00     0.074 A 
ATOM     55  C   UNL A   1      38.136  31.074  29.679  1.00  0.00     0.031 C 
ATOM     56  C   UNL A   1      43.403  27.881  32.795  1.00  0.00     0.029 A 
ATOM     57  C   UNL A   1      42.714  28.889  33.591  1.00  0.00     0.049 A 
ATOM     58  H   UNL A   1      41.157  30.139  32.988  1.00  0.00     0.167 HD
ATOM     59  C   UNL A   1      37.714  32.489  31.670  1.00  0.00     0.037 A 
ATOM     60  C   UNL A   1      43.007  29.188  34.871  1.00  0.00     0.037 A 
ATOM     61  C   UNL A   1      37.977  32.911  33.022  1.00  0.00     0.049 A 
ATOM     62  C   UNL A   1      42.225  30.263  35.563  1.00  0.00     0.074 A 
ATOM     63  C   UNL A   1      37.308  33.862  33.771  1.00  0.00     0.029 A 
ATOM     64  N   UNL A   1      38.990  32.409  33.827  1.00  0.00    -0.354 N 
ATOM     65  N   UNL A   1      41.209  30.957  35.109  1.00  0.00    -0.248 NA
ATOM     66  C   UNL A   1      42.639  30.616  36.927  1.00  0.00     0.031 C 
ATOM     67  C   UNL A   1      37.942  33.967  35.014  1.00  0.00     0.029 A 
ATOM     68  C   UNL A   1      38.978  33.047  35.057  1.00  0.00     0.049 A 
ATOM     69  H   UNL A   1      39.624  31.703  33.563  1.00  0.00     0.167 HD
ATOM     70  C   UNL A   1      40.862  31.833  36.128  1.00  0.00     0.074 A 
ATOM     71  C   UNL A   1      41.763  31.565  37.233  1.00  0.00     0.031 C 
ATOM     72  C   UNL A   1      39.890  32.777  36.143  1.00  0.00     0.037 A 
BRANCH  59  73
ATOM     73  C   UNL A   1      36.607  33.169  30.910  1.00  0.00     0.058 A 
ATOM     74  C   UNL A   1      36.869  34.117  29.908  1.00  0.00     0.135 A 
ATOM     75  C   UNL A   1      35.264  32.858  31.179  1.00  0.00     0.135 A 
ATOM     76  F   UNL A   1      38.134  34.466  29.620  1.00  0.00    -0.206 F 
ATOM     77  C   UNL A   1      35.840  34.759  29.228  1.00  0.00     0.059 A 
ATOM     78  C   UNL A   1      34.218  33.470  30.493  1.00  0.00     0.059 A 
ATOM     79  F   UNL A   1      34.955  31.957  32.126  1.00  0.00    -0.206 F 
ATOM     80  C   UNL A   1      34.517  34.434  29.533  1.00  0.00     0.060 A 
BRANCH  80  81
ATOM     81  S   UNL A   1      33.197  35.308  28.665  1.00  0.00     0.124 S 
ATOM     82  O   UNL A   1      33.962  36.223  27.823  1.00  0.00    -0.237 OA
ATOM     83  O   UNL A   1      32.517  34.224  27.961  1.00  0.00    -0.237 OA
ATOM     84  O   UNL A   1      32.434  35.931  29.740  1.00  0.00    -0.744 OA
ENDBRANCH  80  81
ENDBRANCH  59  73
BRANCH  60  85
ATOM     85  C   UNL A   1      44.094  28.441  35.558  1.00  0.00     0.058 A 
ATOM     86  C   UNL A   1      45.421  28.889  35.511  1.00  0.00     0.135 A 
ATOM     87  C   UNL A   1      43.808  27.325  36.362  1.00  0.00     0.135 A 
ATOM     88  F   UNL A   1      45.745  29.944  34.749  1.00  0.00    -0.206 F 
ATOM     89  C   UNL A   1      46.423  28.275  36.256  1.00  0.00     0.059 A 
ATOM     90  C   UNL A   1      44.786  26.710  37.136  1.00  0.00     0.059 A 
ATOM     91  F   UNL A   1      42.550  26.866  36.452  1.00  0.00    -0.206 F 
ATOM     92  C   UNL A   1      46.092  27.197  37.080  1.00  0.00     0.060 A 
BRANCH  92  93
ATOM     93  S   UNL A   1      47.373  26.490  38.138  1.00  0.00     0.124 S 
ATOM     94  O   UNL A   1      47.918  27.681  38.778  1.00  0.00    -0.237 OA
ATOM     95  O   UNL A   1      46.601  25.599  38.997  1.00  0.00    -0.237 OA
ATOM     96  O   UNL A   1      48.260  25.820  37.190  1.00  0.00    -0.744 OA
ENDBRANCH  92  93
ENDBRANCH  60  85
BRANCH  72  97
ATOM     97  C   UNL A   1      39.745  33.601  37.390  1.00  0.00     0.058 A 
ATOM     98  C   UNL A   1      40.462  34.794  37.564  1.00  0.00     0.135 A 
ATOM     99  C   UNL A   1      38.822  33.235  38.382  1.00  0.00     0.135 A 
ATOM    100  F   UNL A   1      41.364  35.181  36.648  1.00  0.00    -0.206 F 
ATOM    101  C   UNL A   1      40.271  35.597  38.683  1.00  0.00     0.059 A 
ATOM    102  C   UNL A   1      38.599  34.034  39.499  1.00  0.00     0.059 A 
ATOM    103  F   UNL A   1      38.108  32.106  38.258  1.00  0.00    -0.206 F 
ATOM    104  C   UNL A   1      39.332  35.212  39.642  1.00  0.00     0.060 A 
BRANCH 104 105
ATOM    105  S   UNL A   1      39.052  36.295  41.059  1.00  0.00     0.124 S 
ATOM    106  O   UNL A   1      40.368  36.301  41.689  1.00  0.00    -0.237 OA
ATOM    107  O   UNL A   1      38.649  37.545  40.420  1.00  0.00    -0.237 OA
ATOM    108  O   UNL A   1      38.000  35.613  41.806  1.00  0.00    -0.744 OA
ENDBRANCH 104 105
ENDBRANCH  72  97
ENDBRANCH  46  47
ENDBRANCH  38  41
ENDBRANCH   1  37
TORSDOF 14
ENDMDL
