MODEL 1
REMARK VINA RESULT:     -11.0      0.000      0.000
REMARK SMILES CC(C)c1cc(=O)[nH]c(SCC(=O)NCCCNC(=O)c2ccc(-c3c4nc(c(-c5c(F)cc(S(=O)(=O)[O-])cc5F)c5ccc([nH]5)c(-c5c(F)cc(S(=O)(=O)[O-])cc5F)c5nc(c(-c6c(F)cc(S(=O)(=O)[O-])cc6F)c6ccc3[nH]6)C=C5)C=C4)cc2)n1
REMARK SMILES IDX 16 1 15 2 14 3 12 4 13 5 11 7 10 8 9 9 4 10 5 11 87 12 6 13
REMARK SMILES IDX 7 14 8 15 2 17 1 18 3 19 17 20 18 21 19 22 20 24 21 25 22 26
REMARK SMILES IDX 86 27 23 28 85 29 24 30 25 31 26 32 79 33 27 34 84 35 78 36
REMARK SMILES IDX 80 37 28 38 83 39 77 40 76 41 29 43 63 44 42 45 62 46 43 47
REMARK SMILES IDX 46 48 61 49 81 50 44 51 45 52 60 54 82 55 47 56 30 57 31 58
REMARK SMILES IDX 40 59 32 60 33 61 39 62 41 63 34 64 35 65 36 66 37 67 38 68
REMARK SMILES IDX 64 69 65 70 74 71 66 72 67 73 73 74 75 75 68 76 69 77 70 78
REMARK SMILES IDX 71 79 72 80 48 81 49 82 58 83 50 84 51 85 57 86 59 87 52 88
REMARK SMILES IDX 53 89 54 90 55 91 56 92
REMARK H PARENT 14 6 8 16 18 23 80 42 46 53
REMARK Flexibility Score: inf
ROOT
ATOM      1  C   UNL A   1      33.528  28.117  25.837  1.00  0.00     0.042 C 
ENDROOT
BRANCH   1   2
ATOM      2  C   UNL A   1      33.229  26.663  25.480  1.00  0.00     0.117 C 
BRANCH   2   3
ATOM      3  N   UNL A   1      31.959  26.218  26.026  1.00  0.00    -0.355 N 
ATOM      4  C   UNL A   1      31.448  24.961  26.161  1.00  0.00     0.230 C 
ATOM      5  O   UNL A   1      30.365  24.854  26.744  1.00  0.00    -0.274 OA
ATOM      6  H   UNL A   1      31.373  26.940  26.352  1.00  0.00     0.163 HD
BRANCH   4   7
ATOM      7  C   UNL A   1      32.244  23.738  25.743  1.00  0.00     0.178 C 
BRANCH   7   8
ATOM      8  S   UNL A   1      31.287  22.206  25.637  1.00  0.00    -0.078 SA
BRANCH   8   9
ATOM      9  C   UNL A   1      32.502  21.043  25.226  1.00  0.00     0.168 A 
ATOM     10  C   UNL A   1      33.308  18.991  24.631  1.00  0.00     0.051 A 
ATOM     11  C   UNL A   1      34.581  19.423  24.664  1.00  0.00     0.095 A 
ATOM     12  N   UNL A   1      32.242  19.821  24.922  1.00  0.00    -0.229 NA
ATOM     13  C   UNL A   1      34.848  20.821  25.027  1.00  0.00     0.251 A 
ATOM     14  O   UNL A   1      35.991  21.255  25.098  1.00  0.00    -0.269 OA
ATOM     15  N   UNL A   1      33.748  21.573  25.284  1.00  0.00    -0.301 N 
ATOM     16  H   UNL A   1      33.858  22.523  25.518  1.00  0.00     0.172 HD
BRANCH  10  17
ATOM     17  C   UNL A   1      32.918  17.556  24.262  1.00  0.00     0.032 C 
ATOM     18  C   UNL A   1      33.971  16.785  23.452  1.00  0.00     0.014 C 
ATOM     19  C   UNL A   1      32.566  16.732  25.510  1.00  0.00     0.014 C 
ENDBRANCH  10  17
ENDBRANCH   8   9
ENDBRANCH   7   8
ENDBRANCH   4   7
ENDBRANCH   2   3
ENDBRANCH   1   2
BRANCH   1  20
ATOM     20  C   UNL A   1      33.437  28.429  27.331  1.00  0.00     0.118 C 
BRANCH  20  21
ATOM     21  N   UNL A   1      33.456  29.858  27.613  1.00  0.00    -0.352 N 
ATOM     22  C   UNL A   1      34.442  30.647  28.153  1.00  0.00     0.251 C 
ATOM     23  H   UNL A   1      32.627  30.335  27.379  1.00  0.00     0.163 HD
ATOM     24  O   UNL A   1      34.175  31.804  28.466  1.00  0.00    -0.269 OA
BRANCH  22  25
ATOM     25  C   UNL A   1      35.803  30.114  28.386  1.00  0.00     0.039 A 
ATOM     26  C   UNL A   1      36.712  30.111  27.324  1.00  0.00     0.014 A 
ATOM     27  C   UNL A   1      36.186  29.600  29.627  1.00  0.00     0.014 A 
ATOM     28  C   UNL A   1      38.024  29.674  27.530  1.00  0.00     0.010 A 
ATOM     29  C   UNL A   1      37.513  29.232  29.851  1.00  0.00     0.010 A 
ATOM     30  C   UNL A   1      38.449  29.278  28.808  1.00  0.00    -0.014 A 
BRANCH  30  31
ATOM     31  C   UNL A   1      39.880  28.971  29.078  1.00  0.00     0.031 A 
ATOM     32  C   UNL A   1      40.804  30.019  29.634  1.00  0.00     0.074 A 
ATOM     33  C   UNL A   1      40.362  27.753  28.753  1.00  0.00     0.049 A 
ATOM     34  N   UNL A   1      42.088  29.943  29.873  1.00  0.00    -0.248 NA
ATOM     35  C   UNL A   1      40.214  31.331  29.945  1.00  0.00     0.031 C 
ATOM     36  C   UNL A   1      39.577  26.665  28.163  1.00  0.00     0.029 A 
ATOM     37  N   UNL A   1      41.626  27.227  28.860  1.00  0.00    -0.354 N 
ATOM     38  C   UNL A   1      42.463  31.192  30.355  1.00  0.00     0.074 A 
ATOM     39  C   UNL A   1      41.277  32.023  30.329  1.00  0.00     0.031 C 
ATOM     40  C   UNL A   1      40.370  25.598  27.981  1.00  0.00     0.029 A 
ATOM     41  C   UNL A   1      41.728  25.936  28.394  1.00  0.00     0.049 A 
ATOM     42  H   UNL A   1      42.387  27.725  29.236  1.00  0.00     0.167 HD
ATOM     43  C   UNL A   1      43.677  31.602  30.794  1.00  0.00     0.037 A 
ATOM     44  C   UNL A   1      42.795  25.120  28.292  1.00  0.00     0.037 A 
ATOM     45  C   UNL A   1      44.851  30.765  30.824  1.00  0.00     0.049 A 
ATOM     46  C   UNL A   1      44.138  25.608  28.762  1.00  0.00     0.074 A 
ATOM     47  C   UNL A   1      46.113  31.072  31.305  1.00  0.00     0.029 A 
ATOM     48  N   UNL A   1      44.915  29.464  30.346  1.00  0.00    -0.354 N 
ATOM     49  N   UNL A   1      44.456  26.769  29.283  1.00  0.00    -0.248 NA
ATOM     50  C   UNL A   1      45.266  24.676  28.636  1.00  0.00     0.031 C 
ATOM     51  C   UNL A   1      46.953  29.979  31.065  1.00  0.00     0.029 A 
ATOM     52  C   UNL A   1      46.201  28.967  30.490  1.00  0.00     0.049 A 
ATOM     53  H   UNL A   1      44.158  28.967  29.961  1.00  0.00     0.167 HD
ATOM     54  C   UNL A   1      45.816  26.698  29.566  1.00  0.00     0.074 A 
ATOM     55  C   UNL A   1      46.254  25.374  29.178  1.00  0.00     0.031 C 
ATOM     56  C   UNL A   1      46.628  27.645  30.099  1.00  0.00     0.037 A 
BRANCH  43  57
ATOM     57  C   UNL A   1      43.808  33.022  31.279  1.00  0.00     0.058 A 
ATOM     58  C   UNL A   1      44.232  34.057  30.430  1.00  0.00     0.135 A 
ATOM     59  C   UNL A   1      43.451  33.363  32.595  1.00  0.00     0.135 A 
ATOM     60  F   UNL A   1      44.596  33.789  29.165  1.00  0.00    -0.206 F 
ATOM     61  C   UNL A   1      44.323  35.373  30.873  1.00  0.00     0.059 A 
ATOM     62  C   UNL A   1      43.507  34.677  33.051  1.00  0.00     0.059 A 
ATOM     63  F   UNL A   1      43.037  32.415  33.450  1.00  0.00    -0.206 F 
ATOM     64  C   UNL A   1      43.956  35.674  32.186  1.00  0.00     0.060 A 
BRANCH  64  65
ATOM     65  S   UNL A   1      44.071  37.388  32.740  1.00  0.00     0.124 S 
ATOM     66  O   UNL A   1      43.060  37.422  33.793  1.00  0.00    -0.237 OA
ATOM     67  O   UNL A   1      45.455  37.477  33.190  1.00  0.00    -0.237 OA
ATOM     68  O   UNL A   1      43.753  38.157  31.541  1.00  0.00    -0.744 OA
ENDBRANCH  64  65
ENDBRANCH  43  57
BRANCH  44  69
ATOM     69  C   UNL A   1      42.635  23.754  27.724  1.00  0.00     0.058 A 
ATOM     70  C   UNL A   1      42.458  22.640  28.558  1.00  0.00     0.135 A 
ATOM     71  C   UNL A   1      42.644  23.535  26.337  1.00  0.00     0.135 A 
ATOM     72  F   UNL A   1      42.449  22.795  29.891  1.00  0.00    -0.206 F 
ATOM     73  C   UNL A   1      42.314  21.357  28.041  1.00  0.00     0.059 A 
ATOM     74  C   UNL A   1      42.473  22.266  25.795  1.00  0.00     0.059 A 
ATOM     75  F   UNL A   1      42.794  24.569  25.494  1.00  0.00    -0.206 F 
ATOM     76  C   UNL A   1      42.319  21.180  26.656  1.00  0.00     0.060 A 
BRANCH  76  77
ATOM     77  S   UNL A   1      42.081  19.517  25.995  1.00  0.00     0.124 S 
ATOM     78  O   UNL A   1      42.927  19.549  24.807  1.00  0.00    -0.237 OA
ATOM     79  O   UNL A   1      42.554  18.681  27.094  1.00  0.00    -0.237 OA
ATOM     80  O   UNL A   1      40.643  19.457  25.746  1.00  0.00    -0.744 OA
ENDBRANCH  76  77
ENDBRANCH  44  69
BRANCH  56  81
ATOM     81  C   UNL A   1      48.071  27.277  30.320  1.00  0.00     0.058 A 
ATOM     82  C   UNL A   1      49.065  27.588  29.378  1.00  0.00     0.135 A 
ATOM     83  C   UNL A   1      48.471  26.644  31.508  1.00  0.00     0.135 A 
ATOM     84  F   UNL A   1      48.738  28.185  28.221  1.00  0.00    -0.206 F 
ATOM     85  C   UNL A   1      50.401  27.261  29.595  1.00  0.00     0.059 A 
ATOM     86  C   UNL A   1      49.805  26.337  31.760  1.00  0.00     0.059 A 
ATOM     87  F   UNL A   1      47.564  26.332  32.447  1.00  0.00    -0.206 F 
ATOM     88  C   UNL A   1      50.761  26.638  30.792  1.00  0.00     0.060 A 
BRANCH  88  89
ATOM     89  S   UNL A   1      52.501  26.250  31.074  1.00  0.00     0.124 S 
ATOM     90  O   UNL A   1      52.930  27.391  31.876  1.00  0.00    -0.237 OA
ATOM     91  O   UNL A   1      52.425  24.973  31.777  1.00  0.00    -0.237 OA
ATOM     92  O   UNL A   1      53.059  26.185  29.727  1.00  0.00    -0.744 OA
ENDBRANCH  88  89
ENDBRANCH  56  81
ENDBRANCH  30  31
ENDBRANCH  22  25
ENDBRANCH  20  21
ENDBRANCH   1  20
TORSDOF 16
ENDMDL
MODEL 2
REMARK VINA RESULT:     -11.0      1.313      2.226
REMARK SMILES CC(C)c1cc(=O)[nH]c(SCC(=O)NCCCNC(=O)c2ccc(-c3c4nc(c(-c5c(F)cc(S(=O)(=O)[O-])cc5F)c5ccc([nH]5)c(-c5c(F)cc(S(=O)(=O)[O-])cc5F)c5nc(c(-c6c(F)cc(S(=O)(=O)[O-])cc6F)c6ccc3[nH]6)C=C5)C=C4)cc2)n1
REMARK SMILES IDX 16 1 15 2 14 3 12 4 13 5 11 7 10 8 9 9 4 10 5 11 87 12 6 13
REMARK SMILES IDX 7 14 8 15 2 17 1 18 3 19 17 20 18 21 19 22 20 24 21 25 22 26
REMARK SMILES IDX 86 27 23 28 85 29 24 30 25 31 26 32 79 33 27 34 84 35 78 36
REMARK SMILES IDX 80 37 28 38 83 39 77 40 76 41 29 43 63 44 42 45 62 46 43 47
REMARK SMILES IDX 46 48 61 49 81 50 44 51 45 52 60 54 82 55 47 56 30 57 31 58
REMARK SMILES IDX 40 59 32 60 33 61 39 62 41 63 34 64 35 65 36 66 37 67 38 68
REMARK SMILES IDX 64 69 65 70 74 71 66 72 67 73 73 74 75 75 68 76 69 77 70 78
REMARK SMILES IDX 71 79 72 80 48 81 49 82 58 83 50 84 51 85 57 86 59 87 52 88
REMARK SMILES IDX 53 89 54 90 55 91 56 92
REMARK H PARENT 14 6 8 16 18 23 80 42 46 53
REMARK Flexibility Score: inf
ROOT
ATOM      1  C   UNL A   1      33.835  28.151  25.784  1.00  0.00     0.042 C 
ENDROOT
BRANCH   1   2
ATOM      2  C   UNL A   1      32.673  27.882  24.832  1.00  0.00     0.117 C 
BRANCH   2   3
ATOM      3  N   UNL A   1      33.127  27.637  23.474  1.00  0.00    -0.355 N 
ATOM      4  C   UNL A   1      33.546  26.484  22.878  1.00  0.00     0.230 C 
ATOM      5  O   UNL A   1      33.801  26.536  21.671  1.00  0.00    -0.274 OA
ATOM      6  H   UNL A   1      33.134  28.430  22.891  1.00  0.00     0.163 HD
BRANCH   4   7
ATOM      7  C   UNL A   1      33.556  25.166  23.632  1.00  0.00     0.178 C 
BRANCH   7   8
ATOM      8  S   UNL A   1      32.968  23.742  22.684  1.00  0.00    -0.078 SA
BRANCH   8   9
ATOM      9  C   UNL A   1      33.526  22.410  23.639  1.00  0.00     0.168 A 
ATOM     10  C   UNL A   1      35.022  21.229  24.897  1.00  0.00     0.051 A 
ATOM     11  C   UNL A   1      34.165  20.205  25.050  1.00  0.00     0.095 A 
ATOM     12  N   UNL A   1      34.696  22.359  24.172  1.00  0.00    -0.229 NA
ATOM     13  C   UNL A   1      32.839  20.287  24.420  1.00  0.00     0.251 A 
ATOM     14  O   UNL A   1      32.033  19.369  24.507  1.00  0.00    -0.269 OA
ATOM     15  N   UNL A   1      32.592  21.433  23.739  1.00  0.00    -0.301 N 
ATOM     16  H   UNL A   1      31.717  21.557  23.306  1.00  0.00     0.172 HD
BRANCH  10  17
ATOM     17  C   UNL A   1      36.424  21.248  25.513  1.00  0.00     0.032 C 
ATOM     18  C   UNL A   1      37.462  20.372  24.797  1.00  0.00     0.014 C 
ATOM     19  C   UNL A   1      36.977  22.679  25.606  1.00  0.00     0.014 C 
ENDBRANCH  10  17
ENDBRANCH   8   9
ENDBRANCH   7   8
ENDBRANCH   4   7
ENDBRANCH   2   3
ENDBRANCH   1   2
BRANCH   1  20
ATOM     20  C   UNL A   1      33.416  28.410  27.231  1.00  0.00     0.118 C 
BRANCH  20  21
ATOM     21  N   UNL A   1      33.413  29.825  27.576  1.00  0.00    -0.352 N 
ATOM     22  C   UNL A   1      34.381  30.601  28.165  1.00  0.00     0.251 C 
ATOM     23  H   UNL A   1      32.582  30.303  27.350  1.00  0.00     0.163 HD
ATOM     24  O   UNL A   1      34.095  31.740  28.524  1.00  0.00    -0.269 OA
BRANCH  22  25
ATOM     25  C   UNL A   1      35.745  30.073  28.396  1.00  0.00     0.039 A 
ATOM     26  C   UNL A   1      36.651  30.069  27.332  1.00  0.00     0.014 A 
ATOM     27  C   UNL A   1      36.133  29.566  29.639  1.00  0.00     0.014 A 
ATOM     28  C   UNL A   1      37.964  29.637  27.536  1.00  0.00     0.010 A 
ATOM     29  C   UNL A   1      37.461  29.203  29.861  1.00  0.00     0.010 A 
ATOM     30  C   UNL A   1      38.395  29.248  28.815  1.00  0.00    -0.014 A 
BRANCH  30  31
ATOM     31  C   UNL A   1      39.827  28.946  29.082  1.00  0.00     0.031 A 
ATOM     32  C   UNL A   1      40.750  30.001  29.628  1.00  0.00     0.074 A 
ATOM     33  C   UNL A   1      40.311  27.727  28.764  1.00  0.00     0.049 A 
ATOM     34  N   UNL A   1      42.036  29.929  29.863  1.00  0.00    -0.248 NA
ATOM     35  C   UNL A   1      40.158  31.312  29.932  1.00  0.00     0.031 C 
ATOM     36  C   UNL A   1      39.528  26.634  28.183  1.00  0.00     0.029 A 
ATOM     37  N   UNL A   1      41.577  27.205  28.870  1.00  0.00    -0.354 N 
ATOM     38  C   UNL A   1      42.409  31.183  30.335  1.00  0.00     0.074 A 
ATOM     39  C   UNL A   1      41.220  32.010  30.308  1.00  0.00     0.031 C 
ATOM     40  C   UNL A   1      40.323  25.568  28.005  1.00  0.00     0.029 A 
ATOM     41  C   UNL A   1      41.682  25.912  28.411  1.00  0.00     0.049 A 
ATOM     42  H   UNL A   1      42.338  27.709  29.239  1.00  0.00     0.167 HD
ATOM     43  C   UNL A   1      43.623  31.599  30.767  1.00  0.00     0.037 A 
ATOM     44  C   UNL A   1      42.751  25.098  28.311  1.00  0.00     0.037 A 
ATOM     45  C   UNL A   1      44.800  30.766  30.798  1.00  0.00     0.049 A 
ATOM     46  C   UNL A   1      44.094  25.593  28.773  1.00  0.00     0.074 A 
ATOM     47  C   UNL A   1      46.062  31.079  31.274  1.00  0.00     0.029 A 
ATOM     48  N   UNL A   1      44.866  29.461  30.329  1.00  0.00    -0.354 N 
ATOM     49  N   UNL A   1      44.410  26.759  29.285  1.00  0.00    -0.248 NA
ATOM     50  C   UNL A   1      45.224  24.663  28.650  1.00  0.00     0.031 C 
ATOM     51  C   UNL A   1      46.904  29.987  31.038  1.00  0.00     0.029 A 
ATOM     52  C   UNL A   1      46.153  28.969  30.472  1.00  0.00     0.049 A 
ATOM     53  H   UNL A   1      44.108  28.960  29.950  1.00  0.00     0.167 HD
ATOM     54  C   UNL A   1      45.771  26.693  29.565  1.00  0.00     0.074 A 
ATOM     55  C   UNL A   1      46.211  25.367  29.183  1.00  0.00     0.031 C 
ATOM     56  C   UNL A   1      46.583  27.646  30.088  1.00  0.00     0.037 A 
BRANCH  43  57
ATOM     57  C   UNL A   1      43.751  33.023  31.243  1.00  0.00     0.058 A 
ATOM     58  C   UNL A   1      43.467  33.387  32.569  1.00  0.00     0.135 A 
ATOM     59  C   UNL A   1      44.217  34.026  30.377  1.00  0.00     0.135 A 
ATOM     60  F   UNL A   1      43.008  32.472  33.439  1.00  0.00    -0.206 F 
ATOM     61  C   UNL A   1      43.614  34.697  33.013  1.00  0.00     0.059 A 
ATOM     62  C   UNL A   1      44.399  35.338  30.807  1.00  0.00     0.059 A 
ATOM     63  F   UNL A   1      44.506  33.735  29.099  1.00  0.00    -0.206 F 
ATOM     64  C   UNL A   1      44.083  35.666  32.124  1.00  0.00     0.060 A 
BRANCH  64  65
ATOM     65  S   UNL A   1      44.278  37.359  32.721  1.00  0.00     0.124 S 
ATOM     66  O   UNL A   1      43.383  37.366  33.873  1.00  0.00    -0.237 OA
ATOM     67  O   UNL A   1      45.703  37.418  33.027  1.00  0.00    -0.237 OA
ATOM     68  O   UNL A   1      43.848  38.172  31.588  1.00  0.00    -0.744 OA
ENDBRANCH  64  65
ENDBRANCH  43  57
BRANCH  44  69
ATOM     69  C   UNL A   1      42.592  23.728  27.753  1.00  0.00     0.058 A 
ATOM     70  C   UNL A   1      42.610  23.504  26.368  1.00  0.00     0.135 A 
ATOM     71  C   UNL A   1      42.429  22.614  28.591  1.00  0.00     0.135 A 
ATOM     72  F   UNL A   1      42.755  24.537  25.524  1.00  0.00    -0.206 F 
ATOM     73  C   UNL A   1      42.456  22.230  25.833  1.00  0.00     0.059 A 
ATOM     74  C   UNL A   1      42.302  21.326  28.081  1.00  0.00     0.059 A 
ATOM     75  F   UNL A   1      42.422  22.771  29.924  1.00  0.00    -0.206 F 
ATOM     76  C   UNL A   1      42.306  21.145  26.699  1.00  0.00     0.060 A 
BRANCH  76  77
ATOM     77  S   UNL A   1      42.156  19.489  25.995  1.00  0.00     0.124 S 
ATOM     78  O   UNL A   1      42.694  18.663  27.069  1.00  0.00    -0.237 OA
ATOM     79  O   UNL A   1      40.718  19.384  25.766  1.00  0.00    -0.237 OA
ATOM     80  O   UNL A   1      42.972  19.564  24.786  1.00  0.00    -0.744 OA
ENDBRANCH  76  77
ENDBRANCH  44  69
BRANCH  56  81
ATOM     81  C   UNL A   1      48.027  27.284  30.307  1.00  0.00     0.058 A 
ATOM     82  C   UNL A   1      49.002  27.509  29.322  1.00  0.00     0.135 A 
ATOM     83  C   UNL A   1      48.449  26.743  31.532  1.00  0.00     0.135 A 
ATOM     84  F   UNL A   1      48.654  28.016  28.129  1.00  0.00    -0.206 F 
ATOM     85  C   UNL A   1      50.340  27.189  29.536  1.00  0.00     0.059 A 
ATOM     86  C   UNL A   1      49.786  26.445  31.779  1.00  0.00     0.059 A 
ATOM     87  F   UNL A   1      47.560  26.514  32.512  1.00  0.00    -0.206 F 
ATOM     88  C   UNL A   1      50.722  26.659  30.770  1.00  0.00     0.060 A 
BRANCH  88  89
ATOM     89  S   UNL A   1      52.465  26.278  31.045  1.00  0.00     0.124 S 
ATOM     90  O   UNL A   1      52.963  26.179  29.677  1.00  0.00    -0.237 OA
ATOM     91  O   UNL A   1      52.921  27.439  31.804  1.00  0.00    -0.237 OA
ATOM     92  O   UNL A   1      52.427  25.024  31.791  1.00  0.00    -0.744 OA
ENDBRANCH  88  89
ENDBRANCH  56  81
ENDBRANCH  30  31
ENDBRANCH  22  25
ENDBRANCH  20  21
ENDBRANCH   1  20
TORSDOF 16
ENDMDL
MODEL 3
REMARK VINA RESULT:     -11.0      3.873      7.191
REMARK SMILES CC(C)c1cc(=O)[nH]c(SCC(=O)NCCCNC(=O)c2ccc(-c3c4nc(c(-c5c(F)cc(S(=O)(=O)[O-])cc5F)c5ccc([nH]5)c(-c5c(F)cc(S(=O)(=O)[O-])cc5F)c5nc(c(-c6c(F)cc(S(=O)(=O)[O-])cc6F)c6ccc3[nH]6)C=C5)C=C4)cc2)n1
REMARK SMILES IDX 16 1 15 2 14 3 12 4 13 5 11 7 10 8 9 9 4 10 5 11 87 12 6 13
REMARK SMILES IDX 7 14 8 15 2 17 1 18 3 19 17 20 18 21 19 22 20 24 21 25 22 26
REMARK SMILES IDX 86 27 23 28 85 29 24 30 25 31 26 32 79 33 27 34 84 35 78 36
REMARK SMILES IDX 80 37 28 38 83 39 77 40 76 41 29 43 63 44 42 45 62 46 43 47
REMARK SMILES IDX 46 48 61 49 81 50 44 51 45 52 60 54 82 55 47 56 30 57 31 58
REMARK SMILES IDX 40 59 32 60 33 61 39 62 41 63 34 64 35 65 36 66 37 67 38 68
REMARK SMILES IDX 64 69 65 70 74 71 66 72 67 73 73 74 75 75 68 76 69 77 70 78
REMARK SMILES IDX 71 79 72 80 48 81 49 82 58 83 50 84 51 85 57 86 59 87 52 88
REMARK SMILES IDX 53 89 54 90 55 91 56 92
REMARK H PARENT 14 6 8 16 18 23 80 42 46 53
REMARK Flexibility Score: inf
ROOT
ATOM      1  C   UNL A   1      34.508  34.326  28.803  1.00  0.00     0.042 C 
ENDROOT
BRANCH   1   2
ATOM      2  C   UNL A   1      34.152  34.054  30.263  1.00  0.00     0.117 C 
BRANCH   2   3
ATOM      3  N   UNL A   1      33.126  34.959  30.751  1.00  0.00    -0.355 N 
ATOM      4  C   UNL A   1      33.180  35.911  31.726  1.00  0.00     0.230 C 
ATOM      5  O   UNL A   1      32.173  36.607  31.887  1.00  0.00    -0.274 OA
ATOM      6  H   UNL A   1      32.252  34.870  30.307  1.00  0.00     0.163 HD
BRANCH   4   7
ATOM      7  C   UNL A   1      34.467  36.197  32.478  1.00  0.00     0.178 C 
BRANCH   7   8
ATOM      8  S   UNL A   1      34.984  34.895  33.624  1.00  0.00    -0.078 SA
BRANCH   8   9
ATOM      9  C   UNL A   1      36.671  34.742  33.267  1.00  0.00     0.168 A 
ATOM     10  C   UNL A   1      38.901  34.625  33.744  1.00  0.00     0.051 A 
ATOM     11  C   UNL A   1      39.228  34.529  32.443  1.00  0.00     0.095 A 
ATOM     12  N   UNL A   1      37.590  34.737  34.166  1.00  0.00    -0.229 NA
ATOM     13  C   UNL A   1      38.157  34.550  31.437  1.00  0.00     0.251 A 
ATOM     14  O   UNL A   1      38.405  34.494  30.240  1.00  0.00    -0.269 OA
ATOM     15  N   UNL A   1      36.898  34.648  31.934  1.00  0.00    -0.301 N 
ATOM     16  H   UNL A   1      36.135  34.652  31.313  1.00  0.00     0.172 HD
BRANCH  10  17
ATOM     17  C   UNL A   1      39.937  34.608  34.872  1.00  0.00     0.032 C 
ATOM     18  C   UNL A   1      39.728  35.669  35.963  1.00  0.00     0.014 C 
ATOM     19  C   UNL A   1      40.011  33.229  35.546  1.00  0.00     0.014 C 
ENDBRANCH  10  17
ENDBRANCH   8   9
ENDBRANCH   7   8
ENDBRANCH   4   7
ENDBRANCH   2   3
ENDBRANCH   1   2
BRANCH   1  20
ATOM     20  C   UNL A   1      35.126  33.134  28.075  1.00  0.00     0.118 C 
BRANCH  20  21
ATOM     21  N   UNL A   1      34.210  32.008  27.950  1.00  0.00    -0.352 N 
ATOM     22  C   UNL A   1      34.454  30.656  27.937  1.00  0.00     0.251 C 
ATOM     23  H   UNL A   1      33.261  32.257  27.861  1.00  0.00     0.163 HD
ATOM     24  O   UNL A   1      33.542  29.888  27.642  1.00  0.00    -0.269 OA
BRANCH  22  25
ATOM     25  C   UNL A   1      35.801  30.122  28.242  1.00  0.00     0.039 A 
ATOM     26  C   UNL A   1      36.754  30.086  27.220  1.00  0.00     0.014 A 
ATOM     27  C   UNL A   1      36.127  29.639  29.512  1.00  0.00     0.014 A 
ATOM     28  C   UNL A   1      38.053  29.647  27.493  1.00  0.00     0.010 A 
ATOM     29  C   UNL A   1      37.441  29.270  29.801  1.00  0.00     0.010 A 
ATOM     30  C   UNL A   1      38.421  29.283  28.799  1.00  0.00    -0.014 A 
BRANCH  30  31
ATOM     31  C   UNL A   1      39.837  28.975  29.137  1.00  0.00     0.031 A 
ATOM     32  C   UNL A   1      40.725  30.014  29.764  1.00  0.00     0.074 A 
ATOM     33  C   UNL A   1      40.341  27.766  28.813  1.00  0.00     0.049 A 
ATOM     34  N   UNL A   1      41.996  29.937  30.069  1.00  0.00    -0.248 NA
ATOM     35  C   UNL A   1      40.114  31.317  30.071  1.00  0.00     0.031 C 
ATOM     36  C   UNL A   1      39.593  26.688  28.159  1.00  0.00     0.029 A 
ATOM     37  N   UNL A   1      41.600  27.242  28.976  1.00  0.00    -0.354 N 
ATOM     38  C   UNL A   1      42.339  31.177  30.596  1.00  0.00     0.074 A 
ATOM     39  C   UNL A   1      41.152  32.004  30.525  1.00  0.00     0.031 C 
ATOM     40  C   UNL A   1      40.400  25.628  27.996  1.00  0.00     0.029 A 
ATOM     41  C   UNL A   1      41.733  25.962  28.488  1.00  0.00     0.049 A 
ATOM     42  H   UNL A   1      42.337  27.735  29.401  1.00  0.00     0.167 HD
ATOM     43  C   UNL A   1      43.526  31.582  31.108  1.00  0.00     0.037 A 
ATOM     44  C   UNL A   1      42.808  25.152  28.425  1.00  0.00     0.037 A 
ATOM     45  C   UNL A   1      44.701  30.749  31.182  1.00  0.00     0.049 A 
ATOM     46  C   UNL A   1      44.121  25.635  28.976  1.00  0.00     0.074 A 
ATOM     47  C   UNL A   1      45.934  31.049  31.736  1.00  0.00     0.029 A 
ATOM     48  N   UNL A   1      44.796  29.458  30.680  1.00  0.00    -0.354 N 
ATOM     49  N   UNL A   1      44.406  26.786  29.537  1.00  0.00    -0.248 NA
ATOM     50  C   UNL A   1      45.259  24.709  28.890  1.00  0.00     0.031 C 
ATOM     51  C   UNL A   1      46.790  29.965  31.517  1.00  0.00     0.029 A 
ATOM     52  C   UNL A   1      46.074  28.963  30.882  1.00  0.00     0.049 A 
ATOM     53  H   UNL A   1      44.062  28.967  30.245  1.00  0.00     0.167 HD
ATOM     54  C   UNL A   1      45.749  26.713  29.891  1.00  0.00     0.074 A 
ATOM     55  C   UNL A   1      46.213  25.399  29.498  1.00  0.00     0.031 C 
ATOM     56  C   UNL A   1      46.528  27.651  30.486  1.00  0.00     0.037 A 
BRANCH  43  57
ATOM     57  C   UNL A   1      43.624  32.992  31.629  1.00  0.00     0.058 A 
ATOM     58  C   UNL A   1      44.122  34.039  30.837  1.00  0.00     0.135 A 
ATOM     59  C   UNL A   1      43.163  33.311  32.917  1.00  0.00     0.135 A 
ATOM     60  F   UNL A   1      44.586  33.792  29.602  1.00  0.00    -0.206 F 
ATOM     61  C   UNL A   1      44.183  35.346  31.312  1.00  0.00     0.059 A 
ATOM     62  C   UNL A   1      43.188  34.616  33.402  1.00  0.00     0.059 A 
ATOM     63  F   UNL A   1      42.676  32.350  33.718  1.00  0.00    -0.206 F 
ATOM     64  C   UNL A   1      43.712  35.625  32.596  1.00  0.00     0.060 A 
BRANCH  64  65
ATOM     65  S   UNL A   1      43.790  37.327  33.191  1.00  0.00     0.124 S 
ATOM     66  O   UNL A   1      42.613  37.390  34.051  1.00  0.00    -0.237 OA
ATOM     67  O   UNL A   1      45.076  37.358  33.877  1.00  0.00    -0.237 OA
ATOM     68  O   UNL A   1      43.715  38.120  31.968  1.00  0.00    -0.744 OA
ENDBRANCH  64  65
ENDBRANCH  43  57
BRANCH  44  69
ATOM     69  C   UNL A   1      42.684  23.798  27.821  1.00  0.00     0.058 A 
ATOM     70  C   UNL A   1      42.440  22.669  28.618  1.00  0.00     0.135 A 
ATOM     71  C   UNL A   1      42.796  23.606  26.435  1.00  0.00     0.135 A 
ATOM     72  F   UNL A   1      42.332  22.800  29.949  1.00  0.00    -0.206 F 
ATOM     73  C   UNL A   1      42.329  21.397  28.067  1.00  0.00     0.059 A 
ATOM     74  C   UNL A   1      42.660  22.347  25.857  1.00  0.00     0.059 A 
ATOM     75  F   UNL A   1      43.013  24.653  25.625  1.00  0.00    -0.206 F 
ATOM     76  C   UNL A   1      42.437  21.247  26.683  1.00  0.00     0.060 A 
BRANCH  76  77
ATOM     77  S   UNL A   1      42.241  19.598  25.974  1.00  0.00     0.124 S 
ATOM     78  O   UNL A   1      43.116  19.673  24.809  1.00  0.00    -0.237 OA
ATOM     79  O   UNL A   1      42.699  18.740  27.064  1.00  0.00    -0.237 OA
ATOM     80  O   UNL A   1      40.812  19.523  25.687  1.00  0.00    -0.744 OA
ENDBRANCH  76  77
ENDBRANCH  44  69
BRANCH  56  81
ATOM     81  C   UNL A   1      47.958  27.284  30.775  1.00  0.00     0.058 A 
ATOM     82  C   UNL A   1      48.312  26.519  31.899  1.00  0.00     0.135 A 
ATOM     83  C   UNL A   1      48.984  27.665  29.895  1.00  0.00     0.135 A 
ATOM     84  F   UNL A   1      47.374  26.134  32.778  1.00  0.00    -0.206 F 
ATOM     85  C   UNL A   1      49.635  26.167  32.152  1.00  0.00     0.059 A 
ATOM     86  C   UNL A   1      50.308  27.297  30.112  1.00  0.00     0.059 A 
ATOM     87  F   UNL A   1      48.701  28.390  28.801  1.00  0.00    -0.206 F 
ATOM     88  C   UNL A   1      50.626  26.560  31.250  1.00  0.00     0.060 A 
BRANCH  88  89
ATOM     89  S   UNL A   1      52.333  26.068  31.574  1.00  0.00     0.124 S 
ATOM     90  O   UNL A   1      52.888  26.030  30.225  1.00  0.00    -0.237 OA
ATOM     91  O   UNL A   1      52.812  27.151  32.427  1.00  0.00    -0.237 OA
ATOM     92  O   UNL A   1      52.196  24.773  32.233  1.00  0.00    -0.744 OA
ENDBRANCH  88  89
ENDBRANCH  56  81
ENDBRANCH  30  31
ENDBRANCH  22  25
ENDBRANCH  20  21
ENDBRANCH   1  20
TORSDOF 16
ENDMDL
