MODEL 1
REMARK VINA RESULT:     -11.5      0.000      0.000
REMARK SMILES [NH3+][C@]1(C(=O)NCCCNC(=O)c2ccc(-c3c4nc(c(-c5c(F)cc(S(=O)(=O)[O-])cc5F)c5ccc([nH]5)c(-c5c(F)cc(S(=O)(=O)[O-])cc5F)c5nc(c(-c6c(F)cc(S(=O)(=O)[O-])cc6F)c6ccc3[nH]6)C=C5)C=C4)cc2)CC[C@@H](Sc2cc3ccccc3[nH]2)C1
REMARK SMILES IDX 7 1 6 2 5 3 3 4 4 5 2 7 78 8 91 9 79 10 80 11 1 12 81 16
REMARK SMILES IDX 82 17 83 18 90 19 84 20 89 21 85 23 88 24 86 25 87 26 8 27
REMARK SMILES IDX 9 28 10 29 11 31 12 32 13 33 77 34 14 35 76 36 15 37 16 38
REMARK SMILES IDX 17 39 70 40 18 41 75 42 69 43 71 44 19 45 74 46 68 47 67 48
REMARK SMILES IDX 20 50 54 51 33 52 53 53 34 54 37 55 52 56 72 57 35 58 36 59
REMARK SMILES IDX 51 61 73 62 38 63 21 64 22 65 31 66 23 67 24 68 30 69 32 70
REMARK SMILES IDX 25 71 26 72 27 73 28 74 29 75 55 76 56 77 65 78 57 79 58 80
REMARK SMILES IDX 64 81 66 82 59 83 60 84 61 85 62 86 63 87 39 88 40 89 49 90
REMARK SMILES IDX 41 91 42 92 48 93 50 94 43 95 44 96 45 97 46 98 47 99
REMARK H PARENT 5 6 1 13 1 14 1 15 90 22 9 30 71 49 37 60
REMARK Flexibility Score: inf
ROOT
ATOM      1  C   UNL A   1      33.612  27.848  25.384  1.00  0.00     0.042 C 
ENDROOT
BRANCH   1   2
ATOM      2  C   UNL A   1      33.034  26.491  24.978  1.00  0.00     0.118 C 
BRANCH   2   3
ATOM      3  N   UNL A   1      32.476  25.777  26.111  1.00  0.00    -0.351 N 
ATOM      4  C   UNL A   1      31.840  24.581  26.214  1.00  0.00     0.281 C 
ATOM      5  O   UNL A   1      31.509  24.241  27.359  1.00  0.00    -0.268 OA
ATOM      6  H   UNL A   1      32.577  26.250  26.968  1.00  0.00     0.163 HD
BRANCH   4   7
ATOM      7  C   UNL A   1      31.628  23.590  25.032  1.00  0.00     0.175 C 
ATOM      8  C   UNL A   1      32.940  23.536  24.215  1.00  0.00     0.080 C 
ATOM      9  C   UNL A   1      31.409  22.116  25.355  1.00  0.00     0.094 C 
ATOM     10  C   UNL A   1      32.872  22.260  23.385  1.00  0.00     0.022 C 
ATOM     11  C   UNL A   1      31.965  21.329  24.176  1.00  0.00     0.060 C 
BRANCH   7  12
ATOM     12  N   UNL A   1      30.512  24.101  24.201  1.00  0.00    -0.345 N 
ATOM     13  H   UNL A   1      29.751  23.422  24.199  1.00  0.00     0.345 HD
ATOM     14  H   UNL A   1      30.839  24.249  23.246  1.00  0.00     0.345 HD
ATOM     15  H   UNL A   1      30.178  24.984  24.587  1.00  0.00     0.345 HD
ENDBRANCH   7  12
BRANCH  11  16
ATOM     16  S   UNL A   1      32.666  19.759  24.697  1.00  0.00    -0.105 SA
BRANCH  16  17
ATOM     17  C   UNL A   1      34.265  20.044  25.309  1.00  0.00     0.073 A 
ATOM     18  C   UNL A   1      35.509  20.079  24.710  1.00  0.00     0.043 A 
ATOM     19  N   UNL A   1      34.333  20.858  26.407  1.00  0.00    -0.350 N 
ATOM     20  C   UNL A   1      36.065  21.345  25.108  1.00  0.00     0.001 A 
ATOM     21  C   UNL A   1      35.238  21.854  26.111  1.00  0.00     0.046 A 
ATOM     22  H   UNL A   1      33.831  20.753  27.248  1.00  0.00     0.167 HD
ATOM     23  C   UNL A   1      37.076  22.180  24.591  1.00  0.00     0.010 A 
ATOM     24  C   UNL A   1      35.301  23.169  26.575  1.00  0.00     0.027 A 
ATOM     25  C   UNL A   1      37.111  23.523  24.995  1.00  0.00     0.001 A 
ATOM     26  C   UNL A   1      36.222  24.011  25.953  1.00  0.00     0.002 A 
ENDBRANCH  16  17
ENDBRANCH  11  16
ENDBRANCH   4   7
ENDBRANCH   2   3
ENDBRANCH   1   2
BRANCH   1  27
ATOM     27  C   UNL A   1      33.724  28.052  26.892  1.00  0.00     0.118 C 
BRANCH  27  28
ATOM     28  N   UNL A   1      33.590  29.449  27.261  1.00  0.00    -0.352 N 
ATOM     29  C   UNL A   1      34.459  30.283  27.916  1.00  0.00     0.251 C 
ATOM     30  H   UNL A   1      32.739  29.866  26.996  1.00  0.00     0.163 HD
ATOM     31  O   UNL A   1      34.041  31.363  28.326  1.00  0.00    -0.269 OA
BRANCH  29  32
ATOM     32  C   UNL A   1      35.876  29.908  28.138  1.00  0.00     0.039 A 
ATOM     33  C   UNL A   1      36.243  29.425  29.398  1.00  0.00     0.014 A 
ATOM     34  C   UNL A   1      36.855  30.105  27.160  1.00  0.00     0.014 A 
ATOM     35  C   UNL A   1      37.579  29.122  29.670  1.00  0.00     0.010 A 
ATOM     36  C   UNL A   1      38.178  29.738  27.409  1.00  0.00     0.010 A 
ATOM     37  C   UNL A   1      38.557  29.261  28.672  1.00  0.00    -0.014 A 
BRANCH  37  38
ATOM     38  C   UNL A   1      39.979  28.935  28.951  1.00  0.00     0.031 A 
ATOM     39  C   UNL A   1      40.890  29.966  29.564  1.00  0.00     0.074 A 
ATOM     40  C   UNL A   1      40.459  27.720  28.619  1.00  0.00     0.049 A 
ATOM     41  N   UNL A   1      42.163  29.877  29.852  1.00  0.00    -0.248 NA
ATOM     42  C   UNL A   1      40.296  31.277  29.874  1.00  0.00     0.031 C 
ATOM     43  C   UNL A   1      39.686  26.653  27.980  1.00  0.00     0.029 A 
ATOM     44  N   UNL A   1      41.711  27.178  28.769  1.00  0.00    -0.354 N 
ATOM     45  C   UNL A   1      42.526  31.119  30.360  1.00  0.00     0.074 A 
ATOM     46  C   UNL A   1      41.350  31.960  30.297  1.00  0.00     0.031 C 
ATOM     47  C   UNL A   1      40.474  25.578  27.812  1.00  0.00     0.029 A 
ATOM     48  C   UNL A   1      41.813  25.890  28.303  1.00  0.00     0.049 A 
ATOM     49  H   UNL A   1      42.464  27.667  29.173  1.00  0.00     0.167 HD
ATOM     50  C   UNL A   1      43.724  31.517  30.853  1.00  0.00     0.037 A 
ATOM     51  C   UNL A   1      42.869  25.053  28.271  1.00  0.00     0.037 A 
ATOM     52  C   UNL A   1      44.883  30.666  30.939  1.00  0.00     0.049 A 
ATOM     53  C   UNL A   1      44.184  25.511  28.839  1.00  0.00     0.074 A 
ATOM     54  C   UNL A   1      46.125  30.953  31.477  1.00  0.00     0.029 A 
ATOM     55  N   UNL A   1      44.942  29.359  30.476  1.00  0.00    -0.354 N 
ATOM     56  N   UNL A   1      44.493  26.670  29.372  1.00  0.00    -0.248 NA
ATOM     57  C   UNL A   1      45.291  24.547  28.812  1.00  0.00     0.031 C 
ATOM     58  C   UNL A   1      46.947  29.834  31.304  1.00  0.00     0.029 A 
ATOM     59  C   UNL A   1      46.204  28.833  30.699  1.00  0.00     0.049 A 
ATOM     60  H   UNL A   1      44.196  28.877  30.051  1.00  0.00     0.167 HD
ATOM     61  C   UNL A   1      45.823  26.566  29.762  1.00  0.00     0.074 A 
ATOM     62  C   UNL A   1      46.255  25.226  29.418  1.00  0.00     0.031 C 
ATOM     63  C   UNL A   1      46.616  27.495  30.351  1.00  0.00     0.037 A 
BRANCH  50  64
ATOM     64  C   UNL A   1      43.842  32.935  31.344  1.00  0.00     0.058 A 
ATOM     65  C   UNL A   1      44.195  33.986  30.482  1.00  0.00     0.135 A 
ATOM     66  C   UNL A   1      43.569  33.253  32.684  1.00  0.00     0.135 A 
ATOM     67  F   UNL A   1      44.480  33.737  29.194  1.00  0.00    -0.206 F 
ATOM     68  C   UNL A   1      44.303  35.297  30.937  1.00  0.00     0.059 A 
ATOM     69  C   UNL A   1      43.645  34.562  33.155  1.00  0.00     0.059 A 
ATOM     70  F   UNL A   1      43.226  32.289  33.552  1.00  0.00    -0.206 F 
ATOM     71  C   UNL A   1      44.028  35.575  32.276  1.00  0.00     0.060 A 
BRANCH  71  72
ATOM     72  S   UNL A   1      44.172  37.280  32.851  1.00  0.00     0.124 S 
ATOM     73  O   UNL A   1      45.462  37.248  33.533  1.00  0.00    -0.237 OA
ATOM     74  O   UNL A   1      44.132  38.036  31.604  1.00  0.00    -0.237 OA
ATOM     75  O   UNL A   1      43.008  37.446  33.719  1.00  0.00    -0.744 OA
ENDBRANCH  71  72
ENDBRANCH  50  64
BRANCH  51  76
ATOM     76  C   UNL A   1      42.714  23.688  27.702  1.00  0.00     0.058 A 
ATOM     77  C   UNL A   1      42.418  22.593  28.527  1.00  0.00     0.135 A 
ATOM     78  C   UNL A   1      42.839  23.454  26.324  1.00  0.00     0.135 A 
ATOM     79  F   UNL A   1      42.293  22.765  29.851  1.00  0.00    -0.206 F 
ATOM     80  C   UNL A   1      42.265  21.311  28.010  1.00  0.00     0.059 A 
ATOM     81  C   UNL A   1      42.667  22.186  25.780  1.00  0.00     0.059 A 
ATOM     82  F   UNL A   1      43.103  24.473  25.490  1.00  0.00    -0.206 F 
ATOM     83  C   UNL A   1      42.390  21.118  26.632  1.00  0.00     0.060 A 
BRANCH  83  84
ATOM     84  S   UNL A   1      42.142  19.459  25.963  1.00  0.00     0.124 S 
ATOM     85  O   UNL A   1      42.967  19.501  24.761  1.00  0.00    -0.237 OA
ATOM     86  O   UNL A   1      42.634  18.614  27.046  1.00  0.00    -0.237 OA
ATOM     87  O   UNL A   1      40.700  19.401  25.738  1.00  0.00    -0.744 OA
ENDBRANCH  83  84
ENDBRANCH  51  76
BRANCH  63  88
ATOM     88  C   UNL A   1      48.024  27.087  30.684  1.00  0.00     0.058 A 
ATOM     89  C   UNL A   1      49.093  27.352  29.813  1.00  0.00     0.135 A 
ATOM     90  C   UNL A   1      48.312  26.458  31.906  1.00  0.00     0.135 A 
ATOM     91  F   UNL A   1      48.869  27.945  28.631  1.00  0.00    -0.206 F 
ATOM     92  C   UNL A   1      50.395  26.982  30.131  1.00  0.00     0.059 A 
ATOM     93  C   UNL A   1      49.612  26.104  32.256  1.00  0.00     0.059 A 
ATOM     94  F   UNL A   1      47.327  26.192  32.779  1.00  0.00    -0.206 F 
ATOM     95  C   UNL A   1      50.645  26.358  31.355  1.00  0.00     0.060 A 
BRANCH  95  96
ATOM     96  S   UNL A   1      52.343  25.905  31.766  1.00  0.00     0.124 S 
ATOM     97  O   UNL A   1      52.686  26.921  32.756  1.00  0.00    -0.237 OA
ATOM     98  O   UNL A   1      52.191  24.547  32.278  1.00  0.00    -0.237 OA
ATOM     99  O   UNL A   1      53.042  26.012  30.489  1.00  0.00    -0.744 OA
ENDBRANCH  95  96
ENDBRANCH  63  88
ENDBRANCH  37  38
ENDBRANCH  29  32
ENDBRANCH  27  28
ENDBRANCH   1  27
TORSDOF 16
ENDMDL
MODEL 2
REMARK VINA RESULT:     -11.4      4.828     10.437
REMARK SMILES [NH3+][C@]1(C(=O)NCCCNC(=O)c2ccc(-c3c4nc(c(-c5c(F)cc(S(=O)(=O)[O-])cc5F)c5ccc([nH]5)c(-c5c(F)cc(S(=O)(=O)[O-])cc5F)c5nc(c(-c6c(F)cc(S(=O)(=O)[O-])cc6F)c6ccc3[nH]6)C=C5)C=C4)cc2)CC[C@@H](Sc2cc3ccccc3[nH]2)C1
REMARK SMILES IDX 7 1 6 2 5 3 3 4 4 5 2 7 78 8 91 9 79 10 80 11 1 12 81 16
REMARK SMILES IDX 82 17 83 18 90 19 84 20 89 21 85 23 88 24 86 25 87 26 8 27
REMARK SMILES IDX 9 28 10 29 11 31 12 32 13 33 77 34 14 35 76 36 15 37 16 38
REMARK SMILES IDX 17 39 70 40 18 41 75 42 69 43 71 44 19 45 74 46 68 47 67 48
REMARK SMILES IDX 20 50 54 51 33 52 53 53 34 54 37 55 52 56 72 57 35 58 36 59
REMARK SMILES IDX 51 61 73 62 38 63 21 64 22 65 31 66 23 67 24 68 30 69 32 70
REMARK SMILES IDX 25 71 26 72 27 73 28 74 29 75 55 76 56 77 65 78 57 79 58 80
REMARK SMILES IDX 64 81 66 82 59 83 60 84 61 85 62 86 63 87 39 88 40 89 49 90
REMARK SMILES IDX 41 91 42 92 48 93 50 94 43 95 44 96 45 97 46 98 47 99
REMARK H PARENT 5 6 1 13 1 14 1 15 90 22 9 30 71 49 37 60
REMARK Flexibility Score: inf
ROOT
ATOM      1  C   UNL A   1      37.366  23.659  25.319  1.00  0.00     0.042 C 
ENDROOT
BRANCH   1   2
ATOM      2  C   UNL A   1      36.083  22.920  25.704  1.00  0.00     0.118 C 
BRANCH   2   3
ATOM      3  N   UNL A   1      36.158  21.505  25.396  1.00  0.00    -0.351 N 
ATOM      4  C   UNL A   1      35.220  20.604  25.002  1.00  0.00     0.281 C 
ATOM      5  O   UNL A   1      35.630  19.454  24.788  1.00  0.00    -0.268 OA
ATOM      6  H   UNL A   1      37.060  21.124  25.489  1.00  0.00     0.163 HD
BRANCH   4   7
ATOM      7  C   UNL A   1      33.735  20.956  24.691  1.00  0.00     0.175 C 
ATOM      8  C   UNL A   1      33.066  21.404  26.011  1.00  0.00     0.080 C 
ATOM      9  C   UNL A   1      33.449  22.147  23.784  1.00  0.00     0.094 C 
ATOM     10  C   UNL A   1      31.808  22.165  25.614  1.00  0.00     0.022 C 
ATOM     11  C   UNL A   1      32.106  22.713  24.225  1.00  0.00     0.060 C 
BRANCH   7  12
ATOM     12  N   UNL A   1      33.080  19.738  24.157  1.00  0.00    -0.345 N 
ATOM     13  H   UNL A   1      32.489  19.325  24.880  1.00  0.00     0.345 HD
ATOM     14  H   UNL A   1      33.792  19.065  23.874  1.00  0.00     0.345 HD
ATOM     15  H   UNL A   1      32.507  19.986  23.351  1.00  0.00     0.345 HD
ENDBRANCH   7  12
BRANCH  11  16
ATOM     16  S   UNL A   1      32.037  24.496  24.022  1.00  0.00    -0.105 SA
BRANCH  16  17
ATOM     17  C   UNL A   1      32.828  25.237  25.378  1.00  0.00     0.073 A 
ATOM     18  C   UNL A   1      33.981  25.988  25.500  1.00  0.00     0.043 A 
ATOM     19  N   UNL A   1      32.001  25.617  26.400  1.00  0.00    -0.350 N 
ATOM     20  C   UNL A   1      33.564  27.178  26.194  1.00  0.00     0.001 A 
ATOM     21  C   UNL A   1      32.270  26.943  26.661  1.00  0.00     0.046 A 
ATOM     22  H   UNL A   1      31.339  25.052  26.861  1.00  0.00     0.167 HD
ATOM     23  C   UNL A   1      34.089  28.481  26.310  1.00  0.00     0.010 A 
ATOM     24  C   UNL A   1      31.434  27.941  27.163  1.00  0.00     0.027 A 
ATOM     25  C   UNL A   1      33.241  29.510  26.749  1.00  0.00     0.001 A 
ATOM     26  C   UNL A   1      31.930  29.244  27.145  1.00  0.00     0.002 A 
ENDBRANCH  16  17
ENDBRANCH  11  16
ENDBRANCH   4   7
ENDBRANCH   2   3
ENDBRANCH   1   2
BRANCH   1  27
ATOM     27  C   UNL A   1      38.248  24.038  26.504  1.00  0.00     0.118 C 
BRANCH  27  28
ATOM     28  N   UNL A   1      39.658  24.007  26.161  1.00  0.00    -0.352 N 
ATOM     29  C   UNL A   1      40.679  24.847  26.523  1.00  0.00     0.251 C 
ATOM     30  H   UNL A   1      39.924  23.263  25.575  1.00  0.00     0.163 HD
ATOM     31  O   UNL A   1      41.750  24.762  25.925  1.00  0.00    -0.269 OA
BRANCH  29  32
ATOM     32  C   UNL A   1      40.517  25.844  27.607  1.00  0.00     0.039 A 
ATOM     33  C   UNL A   1      41.395  26.931  27.643  1.00  0.00     0.014 A 
ATOM     34  C   UNL A   1      39.577  25.679  28.630  1.00  0.00     0.014 A 
ATOM     35  C   UNL A   1      41.319  27.859  28.686  1.00  0.00     0.010 A 
ATOM     36  C   UNL A   1      39.456  26.642  29.631  1.00  0.00     0.010 A 
ATOM     37  C   UNL A   1      40.338  27.731  29.681  1.00  0.00    -0.014 A 
BRANCH  37  38
ATOM     38  C   UNL A   1      40.246  28.717  30.789  1.00  0.00     0.031 A 
ATOM     39  C   UNL A   1      41.134  28.586  31.998  1.00  0.00     0.074 A 
ATOM     40  C   UNL A   1      39.338  29.709  30.720  1.00  0.00     0.049 A 
ATOM     41  N   UNL A   1      41.178  29.328  33.075  1.00  0.00    -0.248 NA
ATOM     42  C   UNL A   1      42.082  27.460  32.009  1.00  0.00     0.031 C 
ATOM     43  C   UNL A   1      38.392  29.914  29.620  1.00  0.00     0.029 A 
ATOM     44  N   UNL A   1      39.057  30.731  31.593  1.00  0.00    -0.354 N 
ATOM     45  C   UNL A   1      42.141  28.753  33.895  1.00  0.00     0.074 A 
ATOM     46  C   UNL A   1      42.625  27.572  33.213  1.00  0.00     0.031 C 
ATOM     47  C   UNL A   1      37.651  31.005  29.874  1.00  0.00     0.029 A 
ATOM     48  C   UNL A   1      38.047  31.559  31.166  1.00  0.00     0.049 A 
ATOM     49  H   UNL A   1      39.535  30.858  32.444  1.00  0.00     0.167 HD
ATOM     50  C   UNL A   1      42.597  29.181  35.097  1.00  0.00     0.037 A 
ATOM     51  C   UNL A   1      37.498  32.641  31.751  1.00  0.00     0.037 A 
ATOM     52  C   UNL A   1      42.132  30.373  35.758  1.00  0.00     0.049 A 
ATOM     53  C   UNL A   1      38.032  33.107  33.077  1.00  0.00     0.074 A 
ATOM     54  C   UNL A   1      42.571  30.926  36.948  1.00  0.00     0.029 A 
ATOM     55  N   UNL A   1      41.122  31.198  35.284  1.00  0.00    -0.354 N 
ATOM     56  N   UNL A   1      38.987  32.584  33.811  1.00  0.00    -0.248 NA
ATOM     57  C   UNL A   1      37.422  34.312  33.653  1.00  0.00     0.031 C 
ATOM     58  C   UNL A   1      41.801  32.063  37.214  1.00  0.00     0.029 A 
ATOM     59  C   UNL A   1      40.911  32.245  36.166  1.00  0.00     0.049 A 
ATOM     60  H   UNL A   1      40.628  31.059  34.444  1.00  0.00     0.167 HD
ATOM     61  C   UNL A   1      39.106  33.410  34.923  1.00  0.00     0.074 A 
ATOM     62  C   UNL A   1      38.137  34.475  34.758  1.00  0.00     0.031 C 
ATOM     63  C   UNL A   1      39.942  33.298  35.985  1.00  0.00     0.037 A 
BRANCH  50  64
ATOM     64  C   UNL A   1      43.659  28.357  35.776  1.00  0.00     0.058 A 
ATOM     65  C   UNL A   1      43.331  27.325  36.671  1.00  0.00     0.135 A 
ATOM     66  C   UNL A   1      45.018  28.578  35.506  1.00  0.00     0.135 A 
ATOM     67  F   UNL A   1      42.047  27.078  36.976  1.00  0.00    -0.206 F 
ATOM     68  C   UNL A   1      44.313  26.563  37.296  1.00  0.00     0.059 A 
ATOM     69  C   UNL A   1      46.018  27.811  36.100  1.00  0.00     0.059 A 
ATOM     70  F   UNL A   1      45.390  29.550  34.658  1.00  0.00    -0.206 F 
ATOM     71  C   UNL A   1      45.654  26.816  37.007  1.00  0.00     0.060 A 
BRANCH  71  72
ATOM     72  S   UNL A   1      46.917  25.819  37.827  1.00  0.00     0.124 S 
ATOM     73  O   UNL A   1      48.126  26.579  37.527  1.00  0.00    -0.237 OA
ATOM     74  O   UNL A   1      46.481  25.844  39.219  1.00  0.00    -0.237 OA
ATOM     75  O   UNL A   1      46.810  24.522  37.163  1.00  0.00    -0.744 OA
ENDBRANCH  71  72
ENDBRANCH  50  64
BRANCH  51  76
ATOM     76  C   UNL A   1      36.397  33.372  31.069  1.00  0.00     0.058 A 
ATOM     77  C   UNL A   1      35.093  33.355  31.583  1.00  0.00     0.135 A 
ATOM     78  C   UNL A   1      36.631  34.117  29.903  1.00  0.00     0.135 A 
ATOM     79  F   UNL A   1      34.819  32.653  32.694  1.00  0.00    -0.206 F 
ATOM     80  C   UNL A   1      34.054  34.038  30.960  1.00  0.00     0.059 A 
ATOM     81  C   UNL A   1      35.614  34.828  29.274  1.00  0.00     0.059 A 
ATOM     82  F   UNL A   1      37.866  34.181  29.380  1.00  0.00    -0.206 F 
ATOM     83  C   UNL A   1      34.326  34.774  29.806  1.00  0.00     0.060 A 
BRANCH  83  84
ATOM     84  S   UNL A   1      32.982  35.698  29.029  1.00  0.00     0.124 S 
ATOM     85  O   UNL A   1      32.193  36.099  30.189  1.00  0.00    -0.237 OA
ATOM     86  O   UNL A   1      33.700  36.768  28.344  1.00  0.00    -0.237 OA
ATOM     87  O   UNL A   1      32.359  34.710  28.153  1.00  0.00    -0.744 OA
ENDBRANCH  83  84
ENDBRANCH  51  76
BRANCH  63  88
ATOM     88  C   UNL A   1      39.863  34.366  37.040  1.00  0.00     0.058 A 
ATOM     89  C   UNL A   1      40.535  35.590  36.901  1.00  0.00     0.135 A 
ATOM     90  C   UNL A   1      39.072  34.176  38.185  1.00  0.00     0.135 A 
ATOM     91  F   UNL A   1      41.308  35.818  35.827  1.00  0.00    -0.206 F 
ATOM     92  C   UNL A   1      40.449  36.580  37.874  1.00  0.00     0.059 A 
ATOM     93  C   UNL A   1      38.951  35.163  39.159  1.00  0.00     0.059 A 
ATOM     94  F   UNL A   1      38.401  33.028  38.362  1.00  0.00    -0.206 F 
ATOM     95  C   UNL A   1      39.655  36.357  39.000  1.00  0.00     0.060 A 
BRANCH  95  96
ATOM     96  S   UNL A   1      39.532  37.658  40.245  1.00  0.00     0.124 S 
ATOM     97  O   UNL A   1      40.921  38.090  40.357  1.00  0.00    -0.237 OA
ATOM     98  O   UNL A   1      38.621  38.609  39.618  1.00  0.00    -0.237 OA
ATOM     99  O   UNL A   1      38.995  36.962  41.411  1.00  0.00    -0.744 OA
ENDBRANCH  95  96
ENDBRANCH  63  88
ENDBRANCH  37  38
ENDBRANCH  29  32
ENDBRANCH  27  28
ENDBRANCH   1  27
TORSDOF 16
ENDMDL
MODEL 3
REMARK VINA RESULT:     -11.4      5.226     10.871
REMARK SMILES [NH3+][C@]1(C(=O)NCCCNC(=O)c2ccc(-c3c4nc(c(-c5c(F)cc(S(=O)(=O)[O-])cc5F)c5ccc([nH]5)c(-c5c(F)cc(S(=O)(=O)[O-])cc5F)c5nc(c(-c6c(F)cc(S(=O)(=O)[O-])cc6F)c6ccc3[nH]6)C=C5)C=C4)cc2)CC[C@@H](Sc2cc3ccccc3[nH]2)C1
REMARK SMILES IDX 7 1 6 2 5 3 3 4 4 5 2 7 78 8 91 9 79 10 80 11 1 12 81 16
REMARK SMILES IDX 82 17 83 18 90 19 84 20 89 21 85 23 88 24 86 25 87 26 8 27
REMARK SMILES IDX 9 28 10 29 11 31 12 32 13 33 77 34 14 35 76 36 15 37 16 38
REMARK SMILES IDX 17 39 70 40 18 41 75 42 69 43 71 44 19 45 74 46 68 47 67 48
REMARK SMILES IDX 20 50 54 51 33 52 53 53 34 54 37 55 52 56 72 57 35 58 36 59
REMARK SMILES IDX 51 61 73 62 38 63 21 64 22 65 31 66 23 67 24 68 30 69 32 70
REMARK SMILES IDX 25 71 26 72 27 73 28 74 29 75 55 76 56 77 65 78 57 79 58 80
REMARK SMILES IDX 64 81 66 82 59 83 60 84 61 85 62 86 63 87 39 88 40 89 49 90
REMARK SMILES IDX 41 91 42 92 48 93 50 94 43 95 44 96 45 97 46 98 47 99
REMARK H PARENT 5 6 1 13 1 14 1 15 90 22 9 30 71 49 37 60
REMARK Flexibility Score: inf
ROOT
ATOM      1  C   UNL A   1      37.546  23.282  25.400  1.00  0.00     0.042 C 
ENDROOT
BRANCH   1   2
ATOM      2  C   UNL A   1      36.051  23.604  25.409  1.00  0.00     0.118 C 
BRANCH   2   3
ATOM      3  N   UNL A   1      35.448  23.419  24.103  1.00  0.00    -0.351 N 
ATOM      4  C   UNL A   1      34.322  23.927  23.535  1.00  0.00     0.281 C 
ATOM      5  O   UNL A   1      34.104  23.583  22.365  1.00  0.00    -0.268 OA
ATOM      6  H   UNL A   1      35.950  22.811  23.515  1.00  0.00     0.163 HD
BRANCH   4   7
ATOM      7  C   UNL A   1      33.394  24.981  24.208  1.00  0.00     0.175 C 
ATOM      8  C   UNL A   1      34.287  25.977  24.982  1.00  0.00     0.080 C 
ATOM      9  C   UNL A   1      32.598  25.921  23.309  1.00  0.00     0.094 C 
ATOM     10  C   UNL A   1      33.435  27.216  25.223  1.00  0.00     0.022 C 
ATOM     11  C   UNL A   1      32.419  27.216  24.090  1.00  0.00     0.060 C 
BRANCH   7  12
ATOM     12  N   UNL A   1      32.483  24.265  25.131  1.00  0.00    -0.345 N 
ATOM     13  H   UNL A   1      31.755  23.793  24.593  1.00  0.00     0.345 HD
ATOM     14  H   UNL A   1      32.053  24.933  25.772  1.00  0.00     0.345 HD
ATOM     15  H   UNL A   1      33.011  23.575  25.664  1.00  0.00     0.345 HD
ENDBRANCH   7  12
BRANCH  11  16
ATOM     16  S   UNL A   1      32.408  28.649  23.006  1.00  0.00    -0.105 SA
BRANCH  16  17
ATOM     17  C   UNL A   1      30.812  28.833  22.350  1.00  0.00     0.073 A 
ATOM     18  C   UNL A   1      29.570  28.387  22.757  1.00  0.00     0.043 A 
ATOM     19  N   UNL A   1      30.603  29.984  21.638  1.00  0.00    -0.350 N 
ATOM     20  C   UNL A   1      28.756  29.574  22.796  1.00  0.00     0.001 A 
ATOM     21  C   UNL A   1      29.484  30.586  22.169  1.00  0.00     0.046 A 
ATOM     22  H   UNL A   1      31.149  30.317  20.889  1.00  0.00     0.167 HD
ATOM     23  C   UNL A   1      27.562  29.923  23.457  1.00  0.00     0.010 A 
ATOM     24  C   UNL A   1      29.141  31.937  22.227  1.00  0.00     0.027 A 
ATOM     25  C   UNL A   1      27.236  31.283  23.584  1.00  0.00     0.001 A 
ATOM     26  C   UNL A   1      28.028  32.271  22.998  1.00  0.00     0.002 A 
ENDBRANCH  16  17
ENDBRANCH  11  16
ENDBRANCH   4   7
ENDBRANCH   2   3
ENDBRANCH   1   2
BRANCH   1  27
ATOM     27  C   UNL A   1      38.367  24.101  26.392  1.00  0.00     0.118 C 
BRANCH  27  28
ATOM     28  N   UNL A   1      39.789  24.024  26.111  1.00  0.00    -0.352 N 
ATOM     29  C   UNL A   1      40.820  24.830  26.518  1.00  0.00     0.251 C 
ATOM     30  H   UNL A   1      40.056  23.272  25.536  1.00  0.00     0.163 HD
ATOM     31  O   UNL A   1      41.912  24.711  25.968  1.00  0.00    -0.269 OA
BRANCH  29  32
ATOM     32  C   UNL A   1      40.643  25.832  27.596  1.00  0.00     0.039 A 
ATOM     33  C   UNL A   1      41.520  26.920  27.639  1.00  0.00     0.014 A 
ATOM     34  C   UNL A   1      39.689  25.672  28.606  1.00  0.00     0.014 A 
ATOM     35  C   UNL A   1      41.429  27.852  28.676  1.00  0.00     0.010 A 
ATOM     36  C   UNL A   1      39.554  26.639  29.602  1.00  0.00     0.010 A 
ATOM     37  C   UNL A   1      40.435  27.728  29.659  1.00  0.00    -0.014 A 
BRANCH  37  38
ATOM     38  C   UNL A   1      40.328  28.719  30.760  1.00  0.00     0.031 A 
ATOM     39  C   UNL A   1      41.213  28.605  31.974  1.00  0.00     0.074 A 
ATOM     40  C   UNL A   1      39.408  29.701  30.683  1.00  0.00     0.049 A 
ATOM     41  N   UNL A   1      41.244  29.354  33.047  1.00  0.00    -0.248 NA
ATOM     42  C   UNL A   1      42.173  27.490  31.994  1.00  0.00     0.031 C 
ATOM     43  C   UNL A   1      38.464  29.889  29.579  1.00  0.00     0.029 A 
ATOM     44  N   UNL A   1      39.113  30.723  31.549  1.00  0.00    -0.354 N 
ATOM     45  C   UNL A   1      42.211  28.794  33.873  1.00  0.00     0.074 A 
ATOM     46  C   UNL A   1      42.711  27.616  33.199  1.00  0.00     0.031 C 
ATOM     47  C   UNL A   1      37.710  30.972  29.825  1.00  0.00     0.029 A 
ATOM     48  C   UNL A   1      38.094  31.537  31.115  1.00  0.00     0.049 A 
ATOM     49  H   UNL A   1      39.585  30.861  32.402  1.00  0.00     0.167 HD
ATOM     50  C   UNL A   1      42.658  29.234  35.075  1.00  0.00     0.037 A 
ATOM     51  C   UNL A   1      37.530  32.616  31.692  1.00  0.00     0.037 A 
ATOM     52  C   UNL A   1      42.177  30.424  35.727  1.00  0.00     0.049 A 
ATOM     53  C   UNL A   1      38.054  33.095  33.017  1.00  0.00     0.074 A 
ATOM     54  C   UNL A   1      42.605  30.989  36.916  1.00  0.00     0.029 A 
ATOM     55  N   UNL A   1      41.159  31.235  35.246  1.00  0.00    -0.354 N 
ATOM     56  N   UNL A   1      39.013  32.588  33.757  1.00  0.00    -0.248 NA
ATOM     57  C   UNL A   1      37.429  34.297  33.585  1.00  0.00     0.031 C 
ATOM     58  C   UNL A   1      41.821  32.119  37.172  1.00  0.00     0.029 A 
ATOM     59  C   UNL A   1      40.933  32.284  36.121  1.00  0.00     0.049 A 
ATOM     60  H   UNL A   1      40.669  31.086  34.404  1.00  0.00     0.167 HD
ATOM     61  C   UNL A   1      39.119  33.421  34.865  1.00  0.00     0.074 A 
ATOM     62  C   UNL A   1      38.138  34.474  34.691  1.00  0.00     0.031 C 
ATOM     63  C   UNL A   1      39.952  33.325  35.931  1.00  0.00     0.037 A 
BRANCH  50  64
ATOM     64  C   UNL A   1      43.727  28.426  35.761  1.00  0.00     0.058 A 
ATOM     65  C   UNL A   1      43.408  27.395  36.660  1.00  0.00     0.135 A 
ATOM     66  C   UNL A   1      45.085  28.662  35.495  1.00  0.00     0.135 A 
ATOM     67  F   UNL A   1      42.126  27.134  36.962  1.00  0.00    -0.206 F 
ATOM     68  C   UNL A   1      44.397  26.649  37.294  1.00  0.00     0.059 A 
ATOM     69  C   UNL A   1      46.091  27.910  36.097  1.00  0.00     0.059 A 
ATOM     70  F   UNL A   1      45.448  29.634  34.643  1.00  0.00    -0.206 F 
ATOM     71  C   UNL A   1      45.736  26.915  37.007  1.00  0.00     0.060 A 
BRANCH  71  72
ATOM     72  S   UNL A   1      47.007  25.938  37.837  1.00  0.00     0.124 S 
ATOM     73  O   UNL A   1      46.384  24.618  37.867  1.00  0.00    -0.237 OA
ATOM     74  O   UNL A   1      48.148  26.081  36.940  1.00  0.00    -0.237 OA
ATOM     75  O   UNL A   1      47.148  26.594  39.135  1.00  0.00    -0.744 OA
ENDBRANCH  71  72
ENDBRANCH  50  64
BRANCH  51  76
ATOM     76  C   UNL A   1      36.424  33.331  31.002  1.00  0.00     0.058 A 
ATOM     77  C   UNL A   1      35.109  33.260  31.484  1.00  0.00     0.135 A 
ATOM     78  C   UNL A   1      36.661  34.112  29.861  1.00  0.00     0.135 A 
ATOM     79  F   UNL A   1      34.831  32.521  32.570  1.00  0.00    -0.206 F 
ATOM     80  C   UNL A   1      34.064  33.927  30.854  1.00  0.00     0.059 A 
ATOM     81  C   UNL A   1      35.637  34.808  29.226  1.00  0.00     0.059 A 
ATOM     82  F   UNL A   1      37.905  34.227  29.370  1.00  0.00    -0.206 F 
ATOM     83  C   UNL A   1      34.340  34.701  29.725  1.00  0.00     0.060 A 
BRANCH  83  84
ATOM     84  S   UNL A   1      32.986  35.603  28.940  1.00  0.00     0.124 S 
ATOM     85  O   UNL A   1      32.359  34.555  28.142  1.00  0.00    -0.237 OA
ATOM     86  O   UNL A   1      32.221  36.073  30.091  1.00  0.00    -0.237 OA
ATOM     87  O   UNL A   1      33.672  36.647  28.185  1.00  0.00    -0.744 OA
ENDBRANCH  83  84
ENDBRANCH  51  76
BRANCH  63  88
ATOM     88  C   UNL A   1      39.856  34.398  36.979  1.00  0.00     0.058 A 
ATOM     89  C   UNL A   1      39.075  34.232  38.133  1.00  0.00     0.135 A 
ATOM     90  C   UNL A   1      40.586  35.590  36.844  1.00  0.00     0.135 A 
ATOM     91  F   UNL A   1      38.355  33.112  38.306  1.00  0.00    -0.206 F 
ATOM     92  C   UNL A   1      38.999  35.223  39.106  1.00  0.00     0.059 A 
ATOM     93  C   UNL A   1      40.545  36.584  37.818  1.00  0.00     0.059 A 
ATOM     94  F   UNL A   1      41.356  35.795  35.764  1.00  0.00    -0.206 F 
ATOM     95  C   UNL A   1      39.737  36.396  38.939  1.00  0.00     0.060 A 
BRANCH  95  96
ATOM     96  S   UNL A   1      39.649  37.665  40.219  1.00  0.00     0.124 S 
ATOM     97  O   UNL A   1      39.692  36.859  41.435  1.00  0.00    -0.237 OA
ATOM     98  O   UNL A   1      40.836  38.468  39.949  1.00  0.00    -0.237 OA
ATOM     99  O   UNL A   1      38.376  38.329  39.952  1.00  0.00    -0.744 OA
ENDBRANCH  95  96
ENDBRANCH  63  88
ENDBRANCH  37  38
ENDBRANCH  29  32
ENDBRANCH  27  28
ENDBRANCH   1  27
TORSDOF 16
ENDMDL
