MODEL 1
REMARK VINA RESULT:     -11.6      0.000      0.000
REMARK SMILES CCOc1ccc(N)c(SCc2ccccc2C(=O)NCCCNC(=O)c2ccc(-c3c4nc(c(-c5c(F)cc(S(=O)(=O)[O-])cc5F)c5ccc([nH]5)c(-c5c(F)cc(S(=O)(=O)[O-])cc5F)c5nc(c(-c6c(F)cc(S(=O)(=O)[O-])cc6F)c6ccc3[nH]6)C=C5)C=C4)cc2)c1
REMARK SMILES IDX 21 1 20 2 18 3 19 4 17 6 12 7 13 8 14 9 16 10 15 11 11 12
REMARK SMILES IDX 10 13 9 14 4 15 5 16 93 17 6 18 7 19 3 20 2 21 1 22 8 23
REMARK SMILES IDX 22 26 23 27 24 28 25 29 26 31 27 32 28 33 92 34 29 35 91 36
REMARK SMILES IDX 30 37 31 38 32 39 85 40 33 41 90 42 84 43 86 44 34 45 89 46
REMARK SMILES IDX 83 47 82 48 35 50 69 51 48 52 68 53 49 54 52 55 67 56 87 57
REMARK SMILES IDX 50 58 51 59 66 61 88 62 53 63 36 64 37 65 46 66 38 67 39 68
REMARK SMILES IDX 45 69 47 70 40 71 41 72 42 73 43 74 44 75 70 76 71 77 80 78
REMARK SMILES IDX 72 79 73 80 79 81 81 82 74 83 75 84 76 85 77 86 78 87 54 88
REMARK SMILES IDX 55 89 64 90 56 91 57 92 63 93 65 94 58 95 59 96 60 97 61 98
REMARK SMILES IDX 62 99
REMARK H PARENT 20 5 8 24 8 25 24 30 86 49 52 60
REMARK Flexibility Score: inf
ROOT
ATOM      1  C   UNL A   1      32.935  30.035  26.260  1.00  0.00     0.118 C 
ENDROOT
BRANCH   1   2
ATOM      2  N   UNL A   1      33.420  29.515  24.993  1.00  0.00    -0.352 N 
ATOM      3  C   UNL A   1      33.235  28.356  24.282  1.00  0.00     0.251 C 
ATOM      4  O   UNL A   1      33.884  28.266  23.234  1.00  0.00    -0.269 OA
ATOM      5  H   UNL A   1      34.025  30.142  24.536  1.00  0.00     0.163 HD
BRANCH   3   6
ATOM      6  C   UNL A   1      32.228  27.282  24.580  1.00  0.00     0.043 A 
ATOM      7  C   UNL A   1      32.360  26.120  25.371  1.00  0.00    -0.025 A 
ATOM      8  C   UNL A   1      31.207  25.331  25.604  1.00  0.00     0.005 A 
ATOM      9  C   UNL A   1      30.039  25.508  24.870  1.00  0.00     0.000 A 
ATOM     10  C   UNL A   1      31.029  27.435  23.843  1.00  0.00     0.014 A 
ATOM     11  C   UNL A   1      29.968  26.536  23.947  1.00  0.00     0.001 A 
BRANCH   7  12
ATOM     12  C   UNL A   1      33.667  25.541  25.866  1.00  0.00     0.111 C 
BRANCH  12  13
ATOM     13  S   UNL A   1      34.596  24.694  24.547  1.00  0.00    -0.119 SA
BRANCH  13  14
ATOM     14  C   UNL A   1      33.698  23.281  23.916  1.00  0.00     0.034 A 
ATOM     15  C   UNL A   1      33.444  20.886  24.351  1.00  0.00     0.120 A 
ATOM     16  C   UNL A   1      32.401  20.820  23.446  1.00  0.00     0.048 A 
ATOM     17  C   UNL A   1      34.066  22.103  24.606  1.00  0.00     0.063 A 
ATOM     18  C   UNL A   1      32.039  21.959  22.736  1.00  0.00     0.030 A 
ATOM     19  C   UNL A   1      32.702  23.185  22.924  1.00  0.00     0.045 A 
BRANCH  15  20
ATOM     20  O   UNL A   1      33.773  19.800  25.109  1.00  0.00    -0.494 OA
BRANCH  20  21
ATOM     21  C   UNL A   1      33.571  18.560  24.420  1.00  0.00     0.226 C 
ATOM     22  C   UNL A   1      34.841  17.724  24.374  1.00  0.00     0.049 C 
ENDBRANCH  20  21
ENDBRANCH  15  20
BRANCH  19  23
ATOM     23  N   UNL A   1      32.251  24.254  22.154  1.00  0.00    -0.398 N 
ATOM     24  H   UNL A   1      31.450  24.756  22.429  1.00  0.00     0.156 HD
ATOM     25  H   UNL A   1      32.734  24.508  21.334  1.00  0.00     0.156 HD
ENDBRANCH  19  23
ENDBRANCH  13  14
ENDBRANCH  12  13
ENDBRANCH   7  12
ENDBRANCH   3   6
ENDBRANCH   1   2
BRANCH   1  26
ATOM     26  C   UNL A   1      33.566  29.264  27.424  1.00  0.00     0.042 C 
BRANCH  26  27
ATOM     27  C   UNL A   1      35.023  29.591  27.717  1.00  0.00     0.118 C 
BRANCH  27  28
ATOM     28  N   UNL A   1      35.169  30.342  28.952  1.00  0.00    -0.352 N 
ATOM     29  C   UNL A   1      36.243  30.455  29.804  1.00  0.00     0.251 C 
ATOM     30  H   UNL A   1      34.371  30.852  29.222  1.00  0.00     0.163 HD
ATOM     31  O   UNL A   1      36.054  30.943  30.918  1.00  0.00    -0.269 OA
BRANCH  29  32
ATOM     32  C   UNL A   1      37.608  29.999  29.424  1.00  0.00     0.039 A 
ATOM     33  C   UNL A   1      38.515  29.678  30.442  1.00  0.00     0.014 A 
ATOM     34  C   UNL A   1      38.041  29.954  28.095  1.00  0.00     0.014 A 
ATOM     35  C   UNL A   1      39.822  29.283  30.128  1.00  0.00     0.010 A 
ATOM     36  C   UNL A   1      39.312  29.472  27.779  1.00  0.00     0.010 A 
ATOM     37  C   UNL A   1      40.229  29.153  28.792  1.00  0.00    -0.014 A 
BRANCH  37  38
ATOM     38  C   UNL A   1      41.616  28.739  28.439  1.00  0.00     0.031 A 
ATOM     39  C   UNL A   1      42.724  29.766  28.404  1.00  0.00     0.074 A 
ATOM     40  C   UNL A   1      41.880  27.456  28.118  1.00  0.00     0.049 A 
ATOM     41  N   UNL A   1      43.977  29.622  28.049  1.00  0.00    -0.248 NA
ATOM     42  C   UNL A   1      42.373  31.142  28.795  1.00  0.00     0.031 C 
ATOM     43  C   UNL A   1      40.892  26.374  28.072  1.00  0.00     0.029 A 
ATOM     44  N   UNL A   1      43.055  26.842  27.759  1.00  0.00    -0.354 N 
ATOM     45  C   UNL A   1      44.554  30.882  28.167  1.00  0.00     0.074 A 
ATOM     46  C   UNL A   1      43.504  31.792  28.566  1.00  0.00     0.031 C 
ATOM     47  C   UNL A   1      41.506  25.231  27.726  1.00  0.00     0.029 A 
ATOM     48  C   UNL A   1      42.920  25.499  27.487  1.00  0.00     0.049 A 
ATOM     49  H   UNL A   1      43.915  27.317  27.703  1.00  0.00     0.167 HD
ATOM     50  C   UNL A   1      45.848  31.245  27.992  1.00  0.00     0.037 A 
ATOM     51  C   UNL A   1      43.829  24.590  27.080  1.00  0.00     0.037 A 
ATOM     52  C   UNL A   1      46.899  30.331  27.628  1.00  0.00     0.049 A 
ATOM     53  C   UNL A   1      45.260  25.023  26.886  1.00  0.00     0.074 A 
ATOM     54  C   UNL A   1      48.247  30.594  27.455  1.00  0.00     0.029 A 
ATOM     55  N   UNL A   1      46.724  28.976  27.392  1.00  0.00    -0.354 N 
ATOM     56  N   UNL A   1      45.792  26.211  27.046  1.00  0.00    -0.248 NA
ATOM     57  C   UNL A   1      46.217  23.989  26.465  1.00  0.00     0.031 C 
ATOM     58  C   UNL A   1      48.882  29.404  27.085  1.00  0.00     0.029 A 
ATOM     59  C   UNL A   1      47.937  28.391  27.070  1.00  0.00     0.049 A 
ATOM     60  H   UNL A   1      45.864  28.499  27.445  1.00  0.00     0.167 HD
ATOM     61  C   UNL A   1      47.148  26.060  26.774  1.00  0.00     0.074 A 
ATOM     62  C   UNL A   1      47.358  24.663  26.458  1.00  0.00     0.031 C 
ATOM     63  C   UNL A   1      48.131  26.994  26.783  1.00  0.00     0.037 A 
BRANCH  50  64
ATOM     64  C   UNL A   1      46.214  32.685  28.225  1.00  0.00     0.058 A 
ATOM     65  C   UNL A   1      46.116  33.638  27.197  1.00  0.00     0.135 A 
ATOM     66  C   UNL A   1      46.598  33.135  29.498  1.00  0.00     0.135 A 
ATOM     67  F   UNL A   1      45.770  33.260  25.956  1.00  0.00    -0.206 F 
ATOM     68  C   UNL A   1      46.396  34.981  27.421  1.00  0.00     0.059 A 
ATOM     69  C   UNL A   1      46.858  34.480  29.751  1.00  0.00     0.059 A 
ATOM     70  F   UNL A   1      46.711  32.268  30.516  1.00  0.00    -0.206 F 
ATOM     71  C   UNL A   1      46.761  35.395  28.702  1.00  0.00     0.060 A 
BRANCH  71  72
ATOM     72  S   UNL A   1      47.082  37.149  28.986  1.00  0.00     0.124 S 
ATOM     73  O   UNL A   1      47.926  37.479  27.836  1.00  0.00    -0.237 OA
ATOM     74  O   UNL A   1      45.734  37.719  28.959  1.00  0.00    -0.237 OA
ATOM     75  O   UNL A   1      47.745  37.174  30.277  1.00  0.00    -0.744 OA
ENDBRANCH  71  72
ENDBRANCH  50  64
BRANCH  51  76
ATOM     76  C   UNL A   1      43.427  23.179  26.826  1.00  0.00     0.058 A 
ATOM     77  C   UNL A   1      43.137  22.304  27.885  1.00  0.00     0.135 A 
ATOM     78  C   UNL A   1      43.362  22.664  25.522  1.00  0.00     0.135 A 
ATOM     79  F   UNL A   1      43.188  22.746  29.152  1.00  0.00    -0.206 F 
ATOM     80  C   UNL A   1      42.838  20.963  27.665  1.00  0.00     0.059 A 
ATOM     81  C   UNL A   1      43.035  21.334  25.274  1.00  0.00     0.059 A 
ATOM     82  F   UNL A   1      43.611  23.460  24.472  1.00  0.00    -0.206 F 
ATOM     83  C   UNL A   1      42.796  20.485  26.354  1.00  0.00     0.060 A 
BRANCH  83  84
ATOM     84  S   UNL A   1      42.413  18.742  26.077  1.00  0.00     0.124 S 
ATOM     85  O   UNL A   1      43.357  18.401  25.019  1.00  0.00    -0.237 OA
ATOM     86  O   UNL A   1      42.682  18.154  27.386  1.00  0.00    -0.237 OA
ATOM     87  O   UNL A   1      41.007  18.766  25.686  1.00  0.00    -0.744 OA
ENDBRANCH  83  84
ENDBRANCH  51  76
BRANCH  63  88
ATOM     88  C   UNL A   1      49.531  26.529  26.489  1.00  0.00     0.058 A 
ATOM     89  C   UNL A   1      50.353  25.985  27.487  1.00  0.00     0.135 A 
ATOM     90  C   UNL A   1      50.036  26.584  25.179  1.00  0.00     0.135 A 
ATOM     91  F   UNL A   1      49.920  25.915  28.756  1.00  0.00    -0.206 F 
ATOM     92  C   UNL A   1      51.638  25.532  27.202  1.00  0.00     0.059 A 
ATOM     93  C   UNL A   1      51.305  26.111  24.866  1.00  0.00     0.059 A 
ATOM     94  F   UNL A   1      49.285  27.086  24.186  1.00  0.00    -0.206 F 
ATOM     95  C   UNL A   1      52.104  25.597  25.887  1.00  0.00     0.060 A 
BRANCH  95  96
ATOM     96  S   UNL A   1      53.759  24.975  25.525  1.00  0.00     0.124 S 
ATOM     97  O   UNL A   1      54.483  25.341  26.737  1.00  0.00    -0.237 OA
ATOM     98  O   UNL A   1      53.521  23.547  25.335  1.00  0.00    -0.237 OA
ATOM     99  O   UNL A   1      54.141  25.706  24.320  1.00  0.00    -0.744 OA
ENDBRANCH  95  96
ENDBRANCH  63  88
ENDBRANCH  37  38
ENDBRANCH  29  32
ENDBRANCH  27  28
ENDBRANCH  26  27
ENDBRANCH   1  26
TORSDOF 19
ENDMDL
MODEL 2
REMARK VINA RESULT:     -11.4      6.438     11.728
REMARK SMILES CCOc1ccc(N)c(SCc2ccccc2C(=O)NCCCNC(=O)c2ccc(-c3c4nc(c(-c5c(F)cc(S(=O)(=O)[O-])cc5F)c5ccc([nH]5)c(-c5c(F)cc(S(=O)(=O)[O-])cc5F)c5nc(c(-c6c(F)cc(S(=O)(=O)[O-])cc6F)c6ccc3[nH]6)C=C5)C=C4)cc2)c1
REMARK SMILES IDX 21 1 20 2 18 3 19 4 17 6 12 7 13 8 14 9 16 10 15 11 11 12
REMARK SMILES IDX 10 13 9 14 4 15 5 16 93 17 6 18 7 19 3 20 2 21 1 22 8 23
REMARK SMILES IDX 22 26 23 27 24 28 25 29 26 31 27 32 28 33 92 34 29 35 91 36
REMARK SMILES IDX 30 37 31 38 32 39 85 40 33 41 90 42 84 43 86 44 34 45 89 46
REMARK SMILES IDX 83 47 82 48 35 50 69 51 48 52 68 53 49 54 52 55 67 56 87 57
REMARK SMILES IDX 50 58 51 59 66 61 88 62 53 63 36 64 37 65 46 66 38 67 39 68
REMARK SMILES IDX 45 69 47 70 40 71 41 72 42 73 43 74 44 75 70 76 71 77 80 78
REMARK SMILES IDX 72 79 73 80 79 81 81 82 74 83 75 84 76 85 77 86 78 87 54 88
REMARK SMILES IDX 55 89 64 90 56 91 57 92 63 93 65 94 58 95 59 96 60 97 61 98
REMARK SMILES IDX 62 99
REMARK H PARENT 20 5 8 24 8 25 24 30 86 49 52 60
REMARK Flexibility Score: inf
ROOT
ATOM      1  C   UNL A   1      38.191  23.053  26.101  1.00  0.00     0.118 C 
ENDROOT
BRANCH   1   2
ATOM      2  N   UNL A   1      37.768  22.966  24.713  1.00  0.00    -0.352 N 
ATOM      3  C   UNL A   1      36.580  23.134  24.047  1.00  0.00     0.251 C 
ATOM      4  O   UNL A   1      36.618  22.916  22.830  1.00  0.00    -0.269 OA
ATOM      5  H   UNL A   1      38.507  22.732  24.108  1.00  0.00     0.163 HD
BRANCH   3   6
ATOM      6  C   UNL A   1      35.308  23.689  24.622  1.00  0.00     0.043 A 
ATOM      7  C   UNL A   1      34.574  23.267  25.752  1.00  0.00    -0.025 A 
ATOM      8  C   UNL A   1      33.469  24.052  26.166  1.00  0.00     0.005 A 
ATOM      9  C   UNL A   1      32.931  25.044  25.354  1.00  0.00     0.000 A 
ATOM     10  C   UNL A   1      34.736  24.699  23.813  1.00  0.00     0.014 A 
ATOM     11  C   UNL A   1      33.539  25.335  24.146  1.00  0.00     0.001 A 
BRANCH   7  12
ATOM     12  C   UNL A   1      34.757  21.952  26.476  1.00  0.00     0.111 C 
BRANCH  12  13
ATOM     13  S   UNL A   1      33.229  20.959  26.512  1.00  0.00    -0.119 SA
BRANCH  13  14
ATOM     14  C   UNL A   1      32.936  20.151  24.944  1.00  0.00     0.034 A 
ATOM     15  C   UNL A   1      33.001  17.911  23.959  1.00  0.00     0.120 A 
ATOM     16  C   UNL A   1      32.422  18.392  22.799  1.00  0.00     0.048 A 
ATOM     17  C   UNL A   1      33.228  18.770  25.028  1.00  0.00     0.063 A 
ATOM     18  C   UNL A   1      32.150  19.750  22.682  1.00  0.00     0.030 A 
ATOM     19  C   UNL A   1      32.439  20.650  23.723  1.00  0.00     0.045 A 
BRANCH  15  20
ATOM     20  O   UNL A   1      33.213  16.573  24.123  1.00  0.00    -0.494 OA
BRANCH  20  21
ATOM     21  C   UNL A   1      33.810  16.256  25.387  1.00  0.00     0.226 C 
ATOM     22  C   UNL A   1      35.261  15.824  25.236  1.00  0.00     0.049 C 
ENDBRANCH  20  21
ENDBRANCH  15  20
BRANCH  19  23
ATOM     23  N   UNL A   1      32.124  21.986  23.488  1.00  0.00    -0.398 N 
ATOM     24  H   UNL A   1      31.309  22.376  23.881  1.00  0.00     0.156 HD
ATOM     25  H   UNL A   1      32.716  22.541  22.930  1.00  0.00     0.156 HD
ENDBRANCH  19  23
ENDBRANCH  13  14
ENDBRANCH  12  13
ENDBRANCH   7  12
ENDBRANCH   3   6
ENDBRANCH   1   2
BRANCH   1  26
ATOM     26  C   UNL A   1      39.445  22.201  26.324  1.00  0.00     0.042 C 
BRANCH  26  27
ATOM     27  C   UNL A   1      40.618  22.914  26.979  1.00  0.00     0.118 C 
BRANCH  27  28
ATOM     28  N   UNL A   1      41.441  23.608  26.004  1.00  0.00    -0.352 N 
ATOM     29  C   UNL A   1      41.826  24.927  25.942  1.00  0.00     0.251 C 
ATOM     30  H   UNL A   1      41.777  23.044  25.270  1.00  0.00     0.163 HD
ATOM     31  O   UNL A   1      42.313  25.342  24.890  1.00  0.00    -0.269 OA
BRANCH  29  32
ATOM     32  C   UNL A   1      41.661  25.857  27.092  1.00  0.00     0.039 A 
ATOM     33  C   UNL A   1      40.606  25.635  27.987  1.00  0.00     0.014 A 
ATOM     34  C   UNL A   1      42.470  26.983  27.268  1.00  0.00     0.014 A 
ATOM     35  C   UNL A   1      40.392  26.509  29.060  1.00  0.00     0.010 A 
ATOM     36  C   UNL A   1      42.313  27.801  28.389  1.00  0.00     0.010 A 
ATOM     37  C   UNL A   1      41.257  27.589  29.287  1.00  0.00    -0.014 A 
BRANCH  37  38
ATOM     38  C   UNL A   1      41.042  28.533  30.421  1.00  0.00     0.031 A 
ATOM     39  C   UNL A   1      41.901  28.434  31.660  1.00  0.00     0.074 A 
ATOM     40  C   UNL A   1      40.058  29.454  30.357  1.00  0.00     0.049 A 
ATOM     41  N   UNL A   1      41.823  29.109  32.779  1.00  0.00    -0.248 NA
ATOM     42  C   UNL A   1      42.975  27.426  31.648  1.00  0.00     0.031 C 
ATOM     43  C   UNL A   1      39.130  29.627  29.237  1.00  0.00     0.029 A 
ATOM     44  N   UNL A   1      39.666  30.414  31.259  1.00  0.00    -0.354 N 
ATOM     45  C   UNL A   1      42.825  28.605  33.600  1.00  0.00     0.074 A 
ATOM     46  C   UNL A   1      43.459  27.526  32.878  1.00  0.00     0.031 C 
ATOM     47  C   UNL A   1      38.292  30.641  29.510  1.00  0.00     0.029 A 
ATOM     48  C   UNL A   1      38.594  31.167  30.836  1.00  0.00     0.049 A 
ATOM     49  H   UNL A   1      40.111  30.552  32.126  1.00  0.00     0.167 HD
ATOM     50  C   UNL A   1      43.207  29.022  34.832  1.00  0.00     0.037 A 
ATOM     51  C   UNL A   1      37.923  32.161  31.452  1.00  0.00     0.037 A 
ATOM     52  C   UNL A   1      42.596  30.119  35.536  1.00  0.00     0.049 A 
ATOM     53  C   UNL A   1      38.364  32.601  32.826  1.00  0.00     0.074 A 
ATOM     54  C   UNL A   1      42.929  30.639  36.775  1.00  0.00     0.029 A 
ATOM     55  N   UNL A   1      41.534  30.873  35.060  1.00  0.00    -0.354 N 
ATOM     56  N   UNL A   1      39.343  32.138  33.566  1.00  0.00    -0.248 NA
ATOM     57  C   UNL A   1      37.615  33.704  33.445  1.00  0.00     0.031 C 
ATOM     58  C   UNL A   1      42.049  31.687  37.061  1.00  0.00     0.029 A 
ATOM     59  C   UNL A   1      41.197  31.850  35.982  1.00  0.00     0.049 A 
ATOM     60  H   UNL A   1      41.087  30.735  34.194  1.00  0.00     0.167 HD
ATOM     61  C   UNL A   1      39.346  32.912  34.721  1.00  0.00     0.074 A 
ATOM     62  C   UNL A   1      38.283  33.884  34.575  1.00  0.00     0.031 C 
ATOM     63  C   UNL A   1      40.152  32.825  35.807  1.00  0.00     0.037 A 
BRANCH  50  64
ATOM     64  C   UNL A   1      44.361  28.316  35.489  1.00  0.00     0.058 A 
ATOM     65  C   UNL A   1      45.684  28.748  35.301  1.00  0.00     0.135 A 
ATOM     66  C   UNL A   1      44.143  27.244  36.369  1.00  0.00     0.135 A 
ATOM     67  F   UNL A   1      45.952  29.757  34.456  1.00  0.00    -0.206 F 
ATOM     68  C   UNL A   1      46.749  28.136  35.951  1.00  0.00     0.059 A 
ATOM     69  C   UNL A   1      45.193  26.633  37.052  1.00  0.00     0.059 A 
ATOM     70  F   UNL A   1      42.899  26.788  36.585  1.00  0.00    -0.206 F 
ATOM     71  C   UNL A   1      46.494  27.083  36.830  1.00  0.00     0.060 A 
BRANCH  71  72
ATOM     72  S   UNL A   1      47.885  26.326  37.699  1.00  0.00     0.124 S 
ATOM     73  O   UNL A   1      48.469  25.498  36.642  1.00  0.00    -0.237 OA
ATOM     74  O   UNL A   1      48.677  27.492  38.091  1.00  0.00    -0.237 OA
ATOM     75  O   UNL A   1      47.257  25.602  38.788  1.00  0.00    -0.744 OA
ENDBRANCH  71  72
ENDBRANCH  50  64
BRANCH  51  76
ATOM     76  C   UNL A   1      36.763  32.817  30.788  1.00  0.00     0.058 A 
ATOM     77  C   UNL A   1      36.949  33.766  29.771  1.00  0.00     0.135 A 
ATOM     78  C   UNL A   1      35.444  32.537  31.182  1.00  0.00     0.135 A 
ATOM     79  F   UNL A   1      38.190  34.072  29.360  1.00  0.00    -0.206 F 
ATOM     80  C   UNL A   1      35.878  34.444  29.197  1.00  0.00     0.059 A 
ATOM     81  C   UNL A   1      34.354  33.180  30.603  1.00  0.00     0.059 A 
ATOM     82  F   UNL A   1      35.207  31.626  32.137  1.00  0.00    -0.206 F 
ATOM     83  C   UNL A   1      34.583  34.148  29.626  1.00  0.00     0.060 A 
BRANCH  83  84
ATOM     84  S   UNL A   1      33.197  35.036  28.881  1.00  0.00     0.124 S 
ATOM     85  O   UNL A   1      32.694  34.049  27.932  1.00  0.00    -0.237 OA
ATOM     86  O   UNL A   1      32.344  35.302  30.036  1.00  0.00    -0.237 OA
ATOM     87  O   UNL A   1      33.829  36.213  28.293  1.00  0.00    -0.744 OA
ENDBRANCH  83  84
ENDBRANCH  51  76
BRANCH  63  88
ATOM     88  C   UNL A   1      39.952  33.836  36.903  1.00  0.00     0.058 A 
ATOM     89  C   UNL A   1      40.472  35.136  36.812  1.00  0.00     0.135 A 
ATOM     90  C   UNL A   1      39.185  33.513  38.035  1.00  0.00     0.135 A 
ATOM     91  F   UNL A   1      41.217  35.494  35.753  1.00  0.00    -0.206 F 
ATOM     92  C   UNL A   1      40.259  36.074  37.817  1.00  0.00     0.059 A 
ATOM     93  C   UNL A   1      38.936  34.443  39.037  1.00  0.00     0.059 A 
ATOM     94  F   UNL A   1      38.656  32.286  38.165  1.00  0.00    -0.206 F 
ATOM     95  C   UNL A   1      39.488  35.719  38.925  1.00  0.00     0.060 A 
BRANCH  95  96
ATOM     96  S   UNL A   1      39.190  36.957  40.206  1.00  0.00     0.124 S 
ATOM     97  O   UNL A   1      38.812  38.118  39.409  1.00  0.00    -0.237 OA
ATOM     98  O   UNL A   1      38.118  36.347  40.987  1.00  0.00    -0.237 OA
ATOM     99  O   UNL A   1      40.477  37.055  40.888  1.00  0.00    -0.744 OA
ENDBRANCH  95  96
ENDBRANCH  63  88
ENDBRANCH  37  38
ENDBRANCH  29  32
ENDBRANCH  27  28
ENDBRANCH  26  27
ENDBRANCH   1  26
TORSDOF 19
ENDMDL
MODEL 3
REMARK VINA RESULT:     -11.4      6.535     12.251
REMARK SMILES CCOc1ccc(N)c(SCc2ccccc2C(=O)NCCCNC(=O)c2ccc(-c3c4nc(c(-c5c(F)cc(S(=O)(=O)[O-])cc5F)c5ccc([nH]5)c(-c5c(F)cc(S(=O)(=O)[O-])cc5F)c5nc(c(-c6c(F)cc(S(=O)(=O)[O-])cc6F)c6ccc3[nH]6)C=C5)C=C4)cc2)c1
REMARK SMILES IDX 21 1 20 2 18 3 19 4 17 6 12 7 13 8 14 9 16 10 15 11 11 12
REMARK SMILES IDX 10 13 9 14 4 15 5 16 93 17 6 18 7 19 3 20 2 21 1 22 8 23
REMARK SMILES IDX 22 26 23 27 24 28 25 29 26 31 27 32 28 33 92 34 29 35 91 36
REMARK SMILES IDX 30 37 31 38 32 39 85 40 33 41 90 42 84 43 86 44 34 45 89 46
REMARK SMILES IDX 83 47 82 48 35 50 69 51 48 52 68 53 49 54 52 55 67 56 87 57
REMARK SMILES IDX 50 58 51 59 66 61 88 62 53 63 36 64 37 65 46 66 38 67 39 68
REMARK SMILES IDX 45 69 47 70 40 71 41 72 42 73 43 74 44 75 70 76 71 77 80 78
REMARK SMILES IDX 72 79 73 80 79 81 81 82 74 83 75 84 76 85 77 86 78 87 54 88
REMARK SMILES IDX 55 89 64 90 56 91 57 92 63 93 65 94 58 95 59 96 60 97 61 98
REMARK SMILES IDX 62 99
REMARK H PARENT 20 5 8 24 8 25 24 30 86 49 52 60
REMARK Flexibility Score: inf
ROOT
ATOM      1  C   UNL A   1      36.265  23.154  25.451  1.00  0.00     0.118 C 
ENDROOT
BRANCH   1   2
ATOM      2  N   UNL A   1      35.480  22.528  26.501  1.00  0.00    -0.352 N 
ATOM      3  C   UNL A   1      34.322  21.793  26.544  1.00  0.00     0.251 C 
ATOM      4  O   UNL A   1      33.938  21.472  27.674  1.00  0.00    -0.269 OA
ATOM      5  H   UNL A   1      35.872  22.663  27.394  1.00  0.00     0.163 HD
BRANCH   3   6
ATOM      6  C   UNL A   1      33.582  21.231  25.364  1.00  0.00     0.043 A 
ATOM      7  C   UNL A   1      32.703  21.873  24.465  1.00  0.00    -0.025 A 
ATOM      8  C   UNL A   1      32.237  21.143  23.344  1.00  0.00     0.005 A 
ATOM      9  C   UNL A   1      32.394  19.764  23.252  1.00  0.00     0.000 A 
ATOM     10  C   UNL A   1      33.722  19.827  25.248  1.00  0.00     0.014 A 
ATOM     11  C   UNL A   1      33.098  19.095  24.237  1.00  0.00     0.001 A 
BRANCH   7  12
ATOM     12  C   UNL A   1      32.073  23.232  24.675  1.00  0.00     0.111 C 
BRANCH  12  13
ATOM     13  S   UNL A   1      32.994  24.562  23.836  1.00  0.00    -0.119 SA
BRANCH  13  14
ATOM     14  C   UNL A   1      32.395  26.177  24.316  1.00  0.00     0.034 A 
ATOM     15  C   UNL A   1      33.219  28.243  25.339  1.00  0.00     0.120 A 
ATOM     16  C   UNL A   1      32.020  28.873  25.059  1.00  0.00     0.048 A 
ATOM     17  C   UNL A   1      33.417  26.924  24.947  1.00  0.00     0.063 A 
ATOM     18  C   UNL A   1      30.992  28.152  24.463  1.00  0.00     0.030 A 
ATOM     19  C   UNL A   1      31.144  26.796  24.124  1.00  0.00     0.045 A 
BRANCH  15  20
ATOM     20  O   UNL A   1      34.265  28.947  25.860  1.00  0.00    -0.494 OA
BRANCH  20  21
ATOM     21  C   UNL A   1      34.093  29.250  27.250  1.00  0.00     0.226 C 
ATOM     22  C   UNL A   1      34.817  30.530  27.644  1.00  0.00     0.049 C 
ENDBRANCH  20  21
ENDBRANCH  15  20
BRANCH  19  23
ATOM     23  N   UNL A   1      30.043  26.180  23.535  1.00  0.00    -0.398 N 
ATOM     24  H   UNL A   1      29.308  26.727  23.173  1.00  0.00     0.156 HD
ATOM     25  H   UNL A   1      29.999  25.198  23.479  1.00  0.00     0.156 HD
ENDBRANCH  19  23
ENDBRANCH  13  14
ENDBRANCH  12  13
ENDBRANCH   7  12
ENDBRANCH   3   6
ENDBRANCH   1   2
BRANCH   1  26
ATOM     26  C   UNL A   1      37.751  22.834  25.641  1.00  0.00     0.042 C 
BRANCH  26  27
ATOM     27  C   UNL A   1      38.537  23.827  26.483  1.00  0.00     0.118 C 
BRANCH  27  28
ATOM     28  N   UNL A   1      39.946  23.840  26.130  1.00  0.00    -0.352 N 
ATOM     29  C   UNL A   1      40.942  24.725  26.470  1.00  0.00     0.251 C 
ATOM     30  H   UNL A   1      40.234  23.094  25.554  1.00  0.00     0.163 HD
ATOM     31  O   UNL A   1      42.003  24.674  25.849  1.00  0.00    -0.269 OA
BRANCH  29  32
ATOM     32  C   UNL A   1      40.769  25.736  27.548  1.00  0.00     0.039 A 
ATOM     33  C   UNL A   1      41.677  26.801  27.620  1.00  0.00     0.014 A 
ATOM     34  C   UNL A   1      39.785  25.622  28.533  1.00  0.00     0.014 A 
ATOM     35  C   UNL A   1      41.575  27.752  28.642  1.00  0.00     0.010 A 
ATOM     36  C   UNL A   1      39.625  26.620  29.497  1.00  0.00     0.010 A 
ATOM     37  C   UNL A   1      40.533  27.686  29.579  1.00  0.00    -0.014 A 
BRANCH  37  38
ATOM     38  C   UNL A   1      40.410  28.686  30.677  1.00  0.00     0.031 A 
ATOM     39  C   UNL A   1      41.288  28.575  31.902  1.00  0.00     0.074 A 
ATOM     40  C   UNL A   1      39.494  29.672  30.596  1.00  0.00     0.049 A 
ATOM     41  N   UNL A   1      41.283  29.297  32.994  1.00  0.00    -0.248 NA
ATOM     42  C   UNL A   1      42.288  27.493  31.911  1.00  0.00     0.031 C 
ATOM     43  C   UNL A   1      38.555  29.868  29.488  1.00  0.00     0.029 A 
ATOM     44  N   UNL A   1      39.191  30.693  31.465  1.00  0.00    -0.354 N 
ATOM     45  C   UNL A   1      42.266  28.755  33.816  1.00  0.00     0.074 A 
ATOM     46  C   UNL A   1      42.806  27.605  33.125  1.00  0.00     0.031 C 
ATOM     47  C   UNL A   1      37.798  30.949  29.736  1.00  0.00     0.029 A 
ATOM     48  C   UNL A   1      38.166  31.504  31.034  1.00  0.00     0.049 A 
ATOM     49  H   UNL A   1      39.664  30.832  32.317  1.00  0.00     0.167 HD
ATOM     50  C   UNL A   1      42.704  29.191  35.021  1.00  0.00     0.037 A 
ATOM     51  C   UNL A   1      37.581  32.567  31.622  1.00  0.00     0.037 A 
ATOM     52  C   UNL A   1      42.188  30.356  35.693  1.00  0.00     0.049 A 
ATOM     53  C   UNL A   1      38.083  33.027  32.968  1.00  0.00     0.074 A 
ATOM     54  C   UNL A   1      42.585  30.898  36.903  1.00  0.00     0.029 A 
ATOM     55  N   UNL A   1      41.172  31.165  35.207  1.00  0.00    -0.354 N 
ATOM     56  N   UNL A   1      39.043  32.524  33.706  1.00  0.00    -0.248 NA
ATOM     57  C   UNL A   1      37.428  34.204  33.556  1.00  0.00     0.031 C 
ATOM     58  C   UNL A   1      41.789  32.018  37.163  1.00  0.00     0.029 A 
ATOM     59  C   UNL A   1      40.926  32.199  36.095  1.00  0.00     0.049 A 
ATOM     60  H   UNL A   1      40.697  31.026  34.356  1.00  0.00     0.167 HD
ATOM     61  C   UNL A   1      39.127  33.341  34.829  1.00  0.00     0.074 A 
ATOM     62  C   UNL A   1      38.133  34.380  34.664  1.00  0.00     0.031 C 
ATOM     63  C   UNL A   1      39.949  33.239  35.902  1.00  0.00     0.037 A 
BRANCH  50  64
ATOM     64  C   UNL A   1      43.820  28.430  35.684  1.00  0.00     0.058 A 
ATOM     65  C   UNL A   1      45.165  28.765  35.460  1.00  0.00     0.135 A 
ATOM     66  C   UNL A   1      43.547  27.405  36.603  1.00  0.00     0.135 A 
ATOM     67  F   UNL A   1      45.485  29.725  34.577  1.00  0.00    -0.206 F 
ATOM     68  C   UNL A   1      46.199  28.104  36.114  1.00  0.00     0.059 A 
ATOM     69  C   UNL A   1      44.565  26.747  37.290  1.00  0.00     0.059 A 
ATOM     70  F   UNL A   1      42.279  27.042  36.855  1.00  0.00    -0.206 F 
ATOM     71  C   UNL A   1      45.889  27.101  37.032  1.00  0.00     0.060 A 
BRANCH  71  72
ATOM     72  S   UNL A   1      47.241  26.279  37.904  1.00  0.00     0.124 S 
ATOM     73  O   UNL A   1      47.128  26.872  39.237  1.00  0.00    -0.237 OA
ATOM     74  O   UNL A   1      46.859  24.870  37.810  1.00  0.00    -0.237 OA
ATOM     75  O   UNL A   1      48.420  26.659  37.147  1.00  0.00    -0.744 OA
ENDBRANCH  71  72
ENDBRANCH  50  64
BRANCH  51  76
ATOM     76  C   UNL A   1      36.456  33.277  30.955  1.00  0.00     0.058 A 
ATOM     77  C   UNL A   1      36.677  34.109  29.845  1.00  0.00     0.135 A 
ATOM     78  C   UNL A   1      35.140  33.171  31.434  1.00  0.00     0.135 A 
ATOM     79  F   UNL A   1      37.916  34.248  29.350  1.00  0.00    -0.206 F 
ATOM     80  C   UNL A   1      35.647  34.840  29.262  1.00  0.00     0.059 A 
ATOM     81  C   UNL A   1      34.088  33.869  30.849  1.00  0.00     0.059 A 
ATOM     82  F   UNL A   1      34.869  32.376  32.480  1.00  0.00    -0.206 F 
ATOM     83  C   UNL A   1      34.355  34.719  29.777  1.00  0.00     0.060 A 
BRANCH  83  84
ATOM     84  S   UNL A   1      33.024  35.675  29.018  1.00  0.00     0.124 S 
ATOM     85  O   UNL A   1      32.419  34.684  28.135  1.00  0.00    -0.237 OA
ATOM     86  O   UNL A   1      32.227  36.068  30.177  1.00  0.00    -0.237 OA
ATOM     87  O   UNL A   1      33.730  36.766  28.354  1.00  0.00    -0.744 OA
ENDBRANCH  83  84
ENDBRANCH  51  76
BRANCH  63  88
ATOM     88  C   UNL A   1      39.846  34.304  36.959  1.00  0.00     0.058 A 
ATOM     89  C   UNL A   1      40.513  35.532  36.837  1.00  0.00     0.135 A 
ATOM     90  C   UNL A   1      39.027  34.109  38.084  1.00  0.00     0.135 A 
ATOM     91  F   UNL A   1      41.312  35.766  35.784  1.00  0.00    -0.206 F 
ATOM     92  C   UNL A   1      40.390  36.523  37.806  1.00  0.00     0.059 A 
ATOM     93  C   UNL A   1      38.867  35.097  39.049  1.00  0.00     0.059 A 
ATOM     94  F   UNL A   1      38.359  32.955  38.242  1.00  0.00    -0.206 F 
ATOM     95  C   UNL A   1      39.563  36.296  38.908  1.00  0.00     0.060 A 
BRANCH  95  96
ATOM     96  S   UNL A   1      39.386  37.604  40.140  1.00  0.00     0.124 S 
ATOM     97  O   UNL A   1      38.913  36.854  41.298  1.00  0.00    -0.237 OA
ATOM     98  O   UNL A   1      40.745  38.128  40.237  1.00  0.00    -0.237 OA
ATOM     99  O   UNL A   1      38.412  38.509  39.538  1.00  0.00    -0.744 OA
ENDBRANCH  95  96
ENDBRANCH  63  88
ENDBRANCH  37  38
ENDBRANCH  29  32
ENDBRANCH  27  28
ENDBRANCH  26  27
ENDBRANCH   1  26
TORSDOF 19
ENDMDL
