MODEL 1
REMARK VINA RESULT:     -14.1      0.000      0.000
REMARK SMILES Cc1ccc([C@H](C)NC(=O)[C@H]2[C@@H]3CC[C@@H](C3)[C@@H]2C(=O)NCCCNC(=O)c2ccc(-c3c4nc(c(-c5c(F)cc(S(=O)(=O)[O-])cc5F)c5ccc([nH]5)c(-c5c(F)cc(S(=O)(=O)[O-])cc5F)c5nc(c(-c6c(F)cc(S(=O)(=O)[O-])cc6F)c6ccc3[nH]6)C=C5)C=C4)cc2)cc1
REMARK SMILES IDX 22 1 21 2 20 3 18 4 19 5 17 7 11 8 12 9 13 10 16 11 15 12
REMARK SMILES IDX 14 13 9 14 8 15 10 17 6 18 7 19 5 20 1 21 2 22 3 23 94 24
REMARK SMILES IDX 4 25 93 26 23 27 24 28 25 29 26 31 27 32 28 33 92 34 29 35
REMARK SMILES IDX 91 36 30 37 31 38 32 39 85 40 33 41 90 42 84 43 86 44 34 45
REMARK SMILES IDX 89 46 83 47 82 48 35 50 69 51 48 52 68 53 49 54 52 55 67 56
REMARK SMILES IDX 87 57 50 58 51 59 66 61 88 62 53 63 36 64 37 65 46 66 38 67
REMARK SMILES IDX 39 68 45 69 47 70 40 71 41 72 42 73 43 74 44 75 70 76 71 77
REMARK SMILES IDX 80 78 72 79 73 80 79 81 81 82 74 83 75 84 76 85 77 86 78 87
REMARK SMILES IDX 54 88 55 89 64 90 56 91 57 92 63 93 65 94 58 95 59 96 60 97
REMARK SMILES IDX 61 98 62 99
REMARK H PARENT 20 6 8 16 24 30 86 49 52 60
REMARK Flexibility Score: inf
ROOT
ATOM      1  C   UNL A   1      32.858  29.758  27.182  1.00  0.00     0.042 C 
ENDROOT
BRANCH   1   2
ATOM      2  C   UNL A   1      32.242  28.365  27.046  1.00  0.00     0.117 C 
BRANCH   2   3
ATOM      3  N   UNL A   1      33.194  27.348  26.629  1.00  0.00    -0.356 N 
ATOM      4  C   UNL A   1      33.026  26.163  25.982  1.00  0.00     0.224 C 
ATOM      5  O   UNL A   1      34.045  25.599  25.576  1.00  0.00    -0.275 OA
ATOM      6  H   UNL A   1      34.129  27.554  26.857  1.00  0.00     0.163 HD
BRANCH   4   7
ATOM      7  C   UNL A   1      31.640  25.607  25.641  1.00  0.00     0.094 C 
ATOM      8  C   UNL A   1      31.560  24.242  24.950  1.00  0.00     0.094 C 
ATOM      9  C   UNL A   1      30.706  24.501  23.684  1.00  0.00     0.002 C 
ATOM     10  C   UNL A   1      31.583  25.264  22.670  1.00  0.00     0.005 C 
ATOM     11  C   UNL A   1      29.751  25.603  24.121  1.00  0.00     0.009 C 
ATOM     12  C   UNL A   1      30.881  26.512  24.615  1.00  0.00     0.002 C 
ATOM     13  C   UNL A   1      31.681  26.663  23.299  1.00  0.00     0.005 C 
BRANCH   8  14
ATOM     14  C   UNL A   1      31.085  23.016  25.732  1.00  0.00     0.224 C 
ATOM     15  N   UNL A   1      31.471  21.734  25.552  1.00  0.00    -0.349 N 
ATOM     16  H   UNL A   1      30.898  21.101  26.042  1.00  0.00     0.164 HD
ATOM     17  O   UNL A   1      30.273  23.194  26.651  1.00  0.00    -0.275 OA
BRANCH  15  18
ATOM     18  C   UNL A   1      32.529  21.063  24.808  1.00  0.00     0.109 C 
ATOM     19  C   UNL A   1      32.176  21.062  23.317  1.00  0.00     0.036 C 
BRANCH  18  20
ATOM     20  C   UNL A   1      33.895  21.682  25.039  1.00  0.00    -0.026 A 
ATOM     21  C   UNL A   1      37.672  23.722  25.608  1.00  0.00     0.044 C 
ATOM     22  C   UNL A   1      36.371  22.998  25.420  1.00  0.00    -0.051 A 
ATOM     23  C   UNL A   1      35.832  22.863  24.139  1.00  0.00     0.004 A 
ATOM     24  C   UNL A   1      35.684  22.446  26.505  1.00  0.00     0.004 A 
ATOM     25  C   UNL A   1      34.606  22.220  23.952  1.00  0.00     0.006 A 
ATOM     26  C   UNL A   1      34.460  21.791  26.317  1.00  0.00     0.006 A 
ENDBRANCH  18  20
ENDBRANCH  15  18
ENDBRANCH   8  14
ENDBRANCH   4   7
ENDBRANCH   2   3
ENDBRANCH   1   2
BRANCH   1  27
ATOM     27  C   UNL A   1      34.380  29.729  27.229  1.00  0.00     0.118 C 
BRANCH  27  28
ATOM     28  N   UNL A   1      34.949  30.951  27.794  1.00  0.00    -0.352 N 
ATOM     29  C   UNL A   1      36.230  31.138  28.295  1.00  0.00     0.251 C 
ATOM     30  H   UNL A   1      34.353  31.734  27.823  1.00  0.00     0.163 HD
ATOM     31  O   UNL A   1      36.613  32.191  28.740  1.00  0.00    -0.269 OA
BRANCH  29  32
ATOM     32  C   UNL A   1      37.130  29.967  28.214  1.00  0.00     0.039 A 
ATOM     33  C   UNL A   1      37.253  29.151  29.342  1.00  0.00     0.014 A 
ATOM     34  C   UNL A   1      38.030  29.892  27.155  1.00  0.00     0.014 A 
ATOM     35  C   UNL A   1      38.391  28.361  29.484  1.00  0.00     0.010 A 
ATOM     36  C   UNL A   1      39.194  29.171  27.336  1.00  0.00     0.010 A 
ATOM     37  C   UNL A   1      39.396  28.438  28.517  1.00  0.00    -0.014 A 
BRANCH  37  38
ATOM     38  C   UNL A   1      40.727  27.866  28.699  1.00  0.00     0.031 A 
ATOM     39  C   UNL A   1      41.010  26.473  28.282  1.00  0.00     0.074 A 
ATOM     40  C   UNL A   1      41.734  28.608  29.213  1.00  0.00     0.049 A 
ATOM     41  N   UNL A   1      41.940  25.742  28.804  1.00  0.00    -0.248 NA
ATOM     42  C   UNL A   1      40.238  25.774  27.260  1.00  0.00     0.031 C 
ATOM     43  C   UNL A   1      43.159  28.292  29.170  1.00  0.00     0.029 A 
ATOM     44  N   UNL A   1      41.654  29.715  30.053  1.00  0.00    -0.354 N 
ATOM     45  C   UNL A   1      42.073  24.617  28.025  1.00  0.00     0.074 A 
ATOM     46  C   UNL A   1      40.952  24.653  27.113  1.00  0.00     0.031 C 
ATOM     47  C   UNL A   1      43.797  29.010  30.105  1.00  0.00     0.029 A 
ATOM     48  C   UNL A   1      42.790  29.713  30.879  1.00  0.00     0.049 A 
ATOM     49  H   UNL A   1      40.930  30.383  30.066  1.00  0.00     0.167 HD
ATOM     50  C   UNL A   1      43.186  23.838  28.131  1.00  0.00     0.037 A 
ATOM     51  C   UNL A   1      42.693  29.676  32.240  1.00  0.00     0.037 A 
ATOM     52  C   UNL A   1      44.113  24.346  29.134  1.00  0.00     0.049 A 
ATOM     53  C   UNL A   1      43.339  28.465  32.874  1.00  0.00     0.074 A 
ATOM     54  C   UNL A   1      45.240  25.145  29.042  1.00  0.00     0.029 A 
ATOM     55  N   UNL A   1      43.775  24.300  30.482  1.00  0.00    -0.354 N 
ATOM     56  N   UNL A   1      43.676  27.391  32.219  1.00  0.00    -0.248 NA
ATOM     57  C   UNL A   1      43.633  28.360  34.300  1.00  0.00     0.031 C 
ATOM     58  C   UNL A   1      45.571  25.600  30.339  1.00  0.00     0.029 A 
ATOM     59  C   UNL A   1      44.646  25.076  31.224  1.00  0.00     0.049 A 
ATOM     60  H   UNL A   1      43.021  23.788  30.855  1.00  0.00     0.167 HD
ATOM     61  C   UNL A   1      44.161  26.448  33.092  1.00  0.00     0.074 A 
ATOM     62  C   UNL A   1      44.151  27.120  34.377  1.00  0.00     0.031 C 
ATOM     63  C   UNL A   1      44.512  25.195  32.669  1.00  0.00     0.037 A 
BRANCH  50  64
ATOM     64  C   UNL A   1      43.542  22.806  27.087  1.00  0.00     0.058 A 
ATOM     65  C   UNL A   1      42.838  21.586  26.995  1.00  0.00     0.135 A 
ATOM     66  C   UNL A   1      44.614  22.946  26.185  1.00  0.00     0.135 A 
ATOM     67  F   UNL A   1      41.749  21.343  27.733  1.00  0.00    -0.206 F 
ATOM     68  C   UNL A   1      43.238  20.543  26.160  1.00  0.00     0.059 A 
ATOM     69  C   UNL A   1      45.065  21.897  25.374  1.00  0.00     0.059 A 
ATOM     70  F   UNL A   1      45.257  24.118  26.058  1.00  0.00    -0.206 F 
ATOM     71  C   UNL A   1      44.375  20.692  25.379  1.00  0.00     0.060 A 
BRANCH  71  72
ATOM     72  S   UNL A   1      44.946  19.281  24.412  1.00  0.00     0.124 S 
ATOM     73  O   UNL A   1      44.188  18.177  24.994  1.00  0.00    -0.237 OA
ATOM     74  O   UNL A   1      44.564  19.668  23.058  1.00  0.00    -0.237 OA
ATOM     75  O   UNL A   1      46.382  19.249  24.675  1.00  0.00    -0.744 OA
ENDBRANCH  71  72
ENDBRANCH  50  64
BRANCH  51  76
ATOM     76  C   UNL A   1      41.498  30.384  32.766  1.00  0.00     0.058 A 
ATOM     77  C   UNL A   1      40.336  29.622  32.990  1.00  0.00     0.135 A 
ATOM     78  C   UNL A   1      41.614  31.610  33.435  1.00  0.00     0.135 A 
ATOM     79  F   UNL A   1      40.172  28.446  32.362  1.00  0.00    -0.206 F 
ATOM     80  C   UNL A   1      39.409  29.977  33.961  1.00  0.00     0.059 A 
ATOM     81  C   UNL A   1      40.692  31.989  34.411  1.00  0.00     0.059 A 
ATOM     82  F   UNL A   1      42.699  32.379  33.255  1.00  0.00    -0.206 F 
ATOM     83  C   UNL A   1      39.633  31.129  34.712  1.00  0.00     0.060 A 
BRANCH  83  84
ATOM     84  S   UNL A   1      38.637  31.360  36.203  1.00  0.00     0.124 S 
ATOM     85  O   UNL A   1      37.466  32.053  35.679  1.00  0.00    -0.237 OA
ATOM     86  O   UNL A   1      38.418  29.977  36.623  1.00  0.00    -0.237 OA
ATOM     87  O   UNL A   1      39.507  32.148  37.068  1.00  0.00    -0.744 OA
ENDBRANCH  83  84
ENDBRANCH  51  76
BRANCH  63  88
ATOM     88  C   UNL A   1      44.862  23.999  33.535  1.00  0.00     0.058 A 
ATOM     89  C   UNL A   1      43.938  23.047  33.997  1.00  0.00     0.135 A 
ATOM     90  C   UNL A   1      46.220  23.705  33.830  1.00  0.00     0.135 A 
ATOM     91  F   UNL A   1      42.637  23.126  33.690  1.00  0.00    -0.206 F 
ATOM     92  C   UNL A   1      44.317  21.933  34.754  1.00  0.00     0.059 A 
ATOM     93  C   UNL A   1      46.625  22.572  34.534  1.00  0.00     0.059 A 
ATOM     94  F   UNL A   1      47.218  24.510  33.430  1.00  0.00    -0.206 F 
ATOM     95  C   UNL A   1      45.662  21.702  35.019  1.00  0.00     0.060 A 
BRANCH  95  96
ATOM     96  S   UNL A   1      46.164  20.234  35.934  1.00  0.00     0.124 S 
ATOM     97  O   UNL A   1      45.677  20.545  37.274  1.00  0.00    -0.237 OA
ATOM     98  O   UNL A   1      45.457  19.160  35.242  1.00  0.00    -0.237 OA
ATOM     99  O   UNL A   1      47.615  20.222  35.773  1.00  0.00    -0.744 OA
ENDBRANCH  95  96
ENDBRANCH  63  88
ENDBRANCH  37  38
ENDBRANCH  29  32
ENDBRANCH  27  28
ENDBRANCH   1  27
TORSDOF 16
ENDMDL
MODEL 2
REMARK VINA RESULT:     -14.1      1.349      2.117
REMARK SMILES Cc1ccc([C@H](C)NC(=O)[C@H]2[C@@H]3CC[C@@H](C3)[C@@H]2C(=O)NCCCNC(=O)c2ccc(-c3c4nc(c(-c5c(F)cc(S(=O)(=O)[O-])cc5F)c5ccc([nH]5)c(-c5c(F)cc(S(=O)(=O)[O-])cc5F)c5nc(c(-c6c(F)cc(S(=O)(=O)[O-])cc6F)c6ccc3[nH]6)C=C5)C=C4)cc2)cc1
REMARK SMILES IDX 22 1 21 2 20 3 18 4 19 5 17 7 11 8 12 9 13 10 16 11 15 12
REMARK SMILES IDX 14 13 9 14 8 15 10 17 6 18 7 19 5 20 1 21 2 22 3 23 94 24
REMARK SMILES IDX 4 25 93 26 23 27 24 28 25 29 26 31 27 32 28 33 92 34 29 35
REMARK SMILES IDX 91 36 30 37 31 38 32 39 85 40 33 41 90 42 84 43 86 44 34 45
REMARK SMILES IDX 89 46 83 47 82 48 35 50 69 51 48 52 68 53 49 54 52 55 67 56
REMARK SMILES IDX 87 57 50 58 51 59 66 61 88 62 53 63 36 64 37 65 46 66 38 67
REMARK SMILES IDX 39 68 45 69 47 70 40 71 41 72 42 73 43 74 44 75 70 76 71 77
REMARK SMILES IDX 80 78 72 79 73 80 79 81 81 82 74 83 75 84 76 85 77 86 78 87
REMARK SMILES IDX 54 88 55 89 64 90 56 91 57 92 63 93 65 94 58 95 59 96 60 97
REMARK SMILES IDX 61 98 62 99
REMARK H PARENT 20 6 8 16 24 30 86 49 52 60
REMARK Flexibility Score: inf
ROOT
ATOM      1  C   UNL A   1      34.209  29.076  26.240  1.00  0.00     0.042 C 
ENDROOT
BRANCH   1   2
ATOM      2  C   UNL A   1      34.046  27.602  25.864  1.00  0.00     0.117 C 
BRANCH   2   3
ATOM      3  N   UNL A   1      32.865  26.983  26.445  1.00  0.00    -0.356 N 
ATOM      4  C   UNL A   1      31.783  26.387  25.875  1.00  0.00     0.224 C 
ATOM      5  O   UNL A   1      31.028  25.764  26.626  1.00  0.00    -0.275 OA
ATOM      6  H   UNL A   1      32.844  26.999  27.430  1.00  0.00     0.163 HD
BRANCH   4   7
ATOM      7  C   UNL A   1      31.570  26.359  24.359  1.00  0.00     0.094 C 
ATOM      8  C   UNL A   1      32.730  26.799  23.459  1.00  0.00     0.094 C 
ATOM      9  C   UNL A   1      32.120  27.899  22.554  1.00  0.00     0.002 C 
ATOM     10  C   UNL A   1      31.946  29.171  23.409  1.00  0.00     0.005 C 
ATOM     11  C   UNL A   1      30.670  27.462  22.396  1.00  0.00     0.009 C 
ATOM     12  C   UNL A   1      30.444  27.346  23.907  1.00  0.00     0.002 C 
ATOM     13  C   UNL A   1      30.769  28.800  24.325  1.00  0.00     0.005 C 
BRANCH   8  14
ATOM     14  C   UNL A   1      33.515  25.758  22.660  1.00  0.00     0.224 C 
ATOM     15  N   UNL A   1      34.043  24.603  23.121  1.00  0.00    -0.349 N 
ATOM     16  H   UNL A   1      34.658  24.189  22.472  1.00  0.00     0.164 HD
ATOM     17  O   UNL A   1      33.680  25.961  21.448  1.00  0.00    -0.275 OA
BRANCH  15  18
ATOM     18  C   UNL A   1      33.924  23.824  24.346  1.00  0.00     0.109 C 
ATOM     19  C   UNL A   1      32.922  22.685  24.125  1.00  0.00     0.036 C 
BRANCH  18  20
ATOM     20  C   UNL A   1      35.256  23.284  24.834  1.00  0.00    -0.026 A 
ATOM     21  C   UNL A   1      39.153  21.745  25.926  1.00  0.00     0.044 C 
ATOM     22  C   UNL A   1      37.799  22.281  25.567  1.00  0.00    -0.051 A 
ATOM     23  C   UNL A   1      36.927  21.505  24.800  1.00  0.00     0.004 A 
ATOM     24  C   UNL A   1      37.382  23.546  25.992  1.00  0.00     0.004 A 
ATOM     25  C   UNL A   1      35.675  22.003  24.432  1.00  0.00     0.006 A 
ATOM     26  C   UNL A   1      36.123  24.042  25.632  1.00  0.00     0.006 A 
ENDBRANCH  18  20
ENDBRANCH  15  18
ENDBRANCH   8  14
ENDBRANCH   4   7
ENDBRANCH   2   3
ENDBRANCH   1   2
BRANCH   1  27
ATOM     27  C   UNL A   1      34.339  29.292  27.742  1.00  0.00     0.118 C 
BRANCH  27  28
ATOM     28  N   UNL A   1      34.930  30.587  28.075  1.00  0.00    -0.352 N 
ATOM     29  C   UNL A   1      36.252  30.858  28.401  1.00  0.00     0.251 C 
ATOM     30  H   UNL A   1      34.317  31.358  28.067  1.00  0.00     0.163 HD
ATOM     31  O   UNL A   1      36.649  31.967  28.658  1.00  0.00    -0.269 OA
BRANCH  29  32
ATOM     32  C   UNL A   1      37.171  29.701  28.376  1.00  0.00     0.039 A 
ATOM     33  C   UNL A   1      37.341  28.967  29.553  1.00  0.00     0.014 A 
ATOM     34  C   UNL A   1      38.044  29.568  27.299  1.00  0.00     0.014 A 
ATOM     35  C   UNL A   1      38.498  28.209  29.716  1.00  0.00     0.010 A 
ATOM     36  C   UNL A   1      39.226  28.882  27.496  1.00  0.00     0.010 A 
ATOM     37  C   UNL A   1      39.474  28.236  28.719  1.00  0.00    -0.014 A 
BRANCH  37  38
ATOM     38  C   UNL A   1      40.821  27.702  28.901  1.00  0.00     0.031 A 
ATOM     39  C   UNL A   1      41.156  26.334  28.441  1.00  0.00     0.074 A 
ATOM     40  C   UNL A   1      41.795  28.457  29.457  1.00  0.00     0.049 A 
ATOM     41  N   UNL A   1      42.102  25.616  28.951  1.00  0.00    -0.248 NA
ATOM     42  C   UNL A   1      40.422  25.648  27.382  1.00  0.00     0.031 C 
ATOM     43  C   UNL A   1      43.230  28.189  29.425  1.00  0.00     0.029 A 
ATOM     44  N   UNL A   1      41.667  29.531  30.333  1.00  0.00    -0.354 N 
ATOM     45  C   UNL A   1      42.282  24.524  28.135  1.00  0.00     0.074 A 
ATOM     46  C   UNL A   1      41.174  24.556  27.208  1.00  0.00     0.031 C 
ATOM     47  C   UNL A   1      43.831  28.894  30.394  1.00  0.00     0.029 A 
ATOM     48  C   UNL A   1      42.790  29.537  31.177  1.00  0.00     0.049 A 
ATOM     49  H   UNL A   1      40.921  30.174  30.358  1.00  0.00     0.167 HD
ATOM     50  C   UNL A   1      43.419  23.778  28.231  1.00  0.00     0.037 A 
ATOM     51  C   UNL A   1      42.675  29.448  32.534  1.00  0.00     0.037 A 
ATOM     52  C   UNL A   1      44.315  24.280  29.266  1.00  0.00     0.049 A 
ATOM     53  C   UNL A   1      43.351  28.238  33.135  1.00  0.00     0.074 A 
ATOM     54  C   UNL A   1      45.416  25.119  29.219  1.00  0.00     0.029 A 
ATOM     55  N   UNL A   1      43.958  24.176  30.606  1.00  0.00    -0.354 N 
ATOM     56  N   UNL A   1      43.733  27.198  32.448  1.00  0.00    -0.248 NA
ATOM     57  C   UNL A   1      43.628  28.091  34.560  1.00  0.00     0.031 C 
ATOM     58  C   UNL A   1      45.712  25.538  30.536  1.00  0.00     0.029 A 
ATOM     59  C   UNL A   1      44.792  24.953  31.389  1.00  0.00     0.049 A 
ATOM     60  H   UNL A   1      43.217  23.627  30.949  1.00  0.00     0.167 HD
ATOM     61  C   UNL A   1      44.236  26.242  33.295  1.00  0.00     0.074 A 
ATOM     62  C   UNL A   1      44.185  26.867  34.603  1.00  0.00     0.031 C 
ATOM     63  C   UNL A   1      44.633  25.016  32.835  1.00  0.00     0.037 A 
BRANCH  50  64
ATOM     64  C   UNL A   1      43.824  22.796  27.158  1.00  0.00     0.058 A 
ATOM     65  C   UNL A   1      43.078  21.621  26.923  1.00  0.00     0.135 A 
ATOM     66  C   UNL A   1      44.980  22.937  26.367  1.00  0.00     0.135 A 
ATOM     67  F   UNL A   1      41.915  21.388  27.543  1.00  0.00    -0.206 F 
ATOM     68  C   UNL A   1      43.506  20.613  26.060  1.00  0.00     0.059 A 
ATOM     69  C   UNL A   1      45.458  21.919  25.533  1.00  0.00     0.059 A 
ATOM     70  F   UNL A   1      45.684  24.081  26.376  1.00  0.00    -0.206 F 
ATOM     71  C   UNL A   1      44.717  20.751  25.396  1.00  0.00     0.060 A 
BRANCH  71  72
ATOM     72  S   UNL A   1      45.311  19.376  24.393  1.00  0.00     0.124 S 
ATOM     73  O   UNL A   1      46.731  19.688  24.246  1.00  0.00    -0.237 OA
ATOM     74  O   UNL A   1      44.999  18.229  25.238  1.00  0.00    -0.237 OA
ATOM     75  O   UNL A   1      44.526  19.487  23.167  1.00  0.00    -0.744 OA
ENDBRANCH  71  72
ENDBRANCH  50  64
BRANCH  51  76
ATOM     76  C   UNL A   1      41.449  30.099  33.065  1.00  0.00     0.058 A 
ATOM     77  C   UNL A   1      41.437  31.505  33.133  1.00  0.00     0.135 A 
ATOM     78  C   UNL A   1      40.216  29.434  33.069  1.00  0.00     0.135 A 
ATOM     79  F   UNL A   1      42.594  32.187  33.144  1.00  0.00    -0.206 F 
ATOM     80  C   UNL A   1      40.255  32.227  33.041  1.00  0.00     0.059 A 
ATOM     81  C   UNL A   1      39.015  30.140  32.982  1.00  0.00     0.059 A 
ATOM     82  F   UNL A   1      40.169  28.094  33.010  1.00  0.00    -0.206 F 
ATOM     83  C   UNL A   1      39.055  31.533  32.899  1.00  0.00     0.060 A 
BRANCH  83  84
ATOM     84  S   UNL A   1      37.597  32.481  32.400  1.00  0.00     0.124 S 
ATOM     85  O   UNL A   1      36.688  31.427  31.966  1.00  0.00    -0.237 OA
ATOM     86  O   UNL A   1      37.241  33.146  33.652  1.00  0.00    -0.237 OA
ATOM     87  O   UNL A   1      38.108  33.352  31.349  1.00  0.00    -0.744 OA
ENDBRANCH  83  84
ENDBRANCH  51  76
BRANCH  63  88
ATOM     88  C   UNL A   1      45.011  23.803  33.663  1.00  0.00     0.058 A 
ATOM     89  C   UNL A   1      44.127  22.770  34.019  1.00  0.00     0.135 A 
ATOM     90  C   UNL A   1      46.365  23.583  34.032  1.00  0.00     0.135 A 
ATOM     91  F   UNL A   1      42.845  22.780  33.632  1.00  0.00    -0.206 F 
ATOM     92  C   UNL A   1      44.533  21.646  34.745  1.00  0.00     0.059 A 
ATOM     93  C   UNL A   1      46.801  22.443  34.705  1.00  0.00     0.059 A 
ATOM     94  F   UNL A   1      47.328  24.470  33.736  1.00  0.00    -0.206 F 
ATOM     95  C   UNL A   1      45.872  21.489  35.085  1.00  0.00     0.060 A 
BRANCH  95  96
ATOM     96  S   UNL A   1      46.416  20.011  35.960  1.00  0.00     0.124 S 
ATOM     97  O   UNL A   1      47.864  20.197  35.976  1.00  0.00    -0.237 OA
ATOM     98  O   UNL A   1      45.753  20.135  37.255  1.00  0.00    -0.237 OA
ATOM     99  O   UNL A   1      45.926  18.926  35.116  1.00  0.00    -0.744 OA
ENDBRANCH  95  96
ENDBRANCH  63  88
ENDBRANCH  37  38
ENDBRANCH  29  32
ENDBRANCH  27  28
ENDBRANCH   1  27
TORSDOF 16
ENDMDL
MODEL 3
REMARK VINA RESULT:     -13.9      4.911     11.248
REMARK SMILES Cc1ccc([C@H](C)NC(=O)[C@H]2[C@@H]3CC[C@@H](C3)[C@@H]2C(=O)NCCCNC(=O)c2ccc(-c3c4nc(c(-c5c(F)cc(S(=O)(=O)[O-])cc5F)c5ccc([nH]5)c(-c5c(F)cc(S(=O)(=O)[O-])cc5F)c5nc(c(-c6c(F)cc(S(=O)(=O)[O-])cc6F)c6ccc3[nH]6)C=C5)C=C4)cc2)cc1
REMARK SMILES IDX 22 1 21 2 20 3 18 4 19 5 17 7 11 8 12 9 13 10 16 11 15 12
REMARK SMILES IDX 14 13 9 14 8 15 10 17 6 18 7 19 5 20 1 21 2 22 3 23 94 24
REMARK SMILES IDX 4 25 93 26 23 27 24 28 25 29 26 31 27 32 28 33 92 34 29 35
REMARK SMILES IDX 91 36 30 37 31 38 32 39 85 40 33 41 90 42 84 43 86 44 34 45
REMARK SMILES IDX 89 46 83 47 82 48 35 50 69 51 48 52 68 53 49 54 52 55 67 56
REMARK SMILES IDX 87 57 50 58 51 59 66 61 88 62 53 63 36 64 37 65 46 66 38 67
REMARK SMILES IDX 39 68 45 69 47 70 40 71 41 72 42 73 43 74 44 75 70 76 71 77
REMARK SMILES IDX 80 78 72 79 73 80 79 81 81 82 74 83 75 84 76 85 77 86 78 87
REMARK SMILES IDX 54 88 55 89 64 90 56 91 57 92 63 93 65 94 58 95 59 96 60 97
REMARK SMILES IDX 61 98 62 99
REMARK H PARENT 20 6 8 16 24 30 86 49 52 60
REMARK Flexibility Score: inf
ROOT
ATOM      1  C   UNL A   1      37.635  22.318  25.131  1.00  0.00     0.042 C 
ENDROOT
BRANCH   1   2
ATOM      2  C   UNL A   1      36.524  22.882  24.244  1.00  0.00     0.117 C 
BRANCH   2   3
ATOM      3  N   UNL A   1      35.872  24.055  24.805  1.00  0.00    -0.356 N 
ATOM      4  C   UNL A   1      34.659  24.619  24.560  1.00  0.00     0.224 C 
ATOM      5  O   UNL A   1      34.284  25.499  25.340  1.00  0.00    -0.275 OA
ATOM      6  H   UNL A   1      36.406  24.525  25.486  1.00  0.00     0.163 HD
BRANCH   4   7
ATOM      7  C   UNL A   1      33.727  24.106  23.459  1.00  0.00     0.094 C 
ATOM      8  C   UNL A   1      32.422  24.869  23.204  1.00  0.00     0.094 C 
ATOM      9  C   UNL A   1      31.317  23.788  23.307  1.00  0.00     0.002 C 
ATOM     10  C   UNL A   1      31.137  23.437  24.798  1.00  0.00     0.005 C 
ATOM     11  C   UNL A   1      32.007  22.529  22.800  1.00  0.00     0.009 C 
ATOM     12  C   UNL A   1      33.184  22.672  23.770  1.00  0.00     0.002 C 
ATOM     13  C   UNL A   1      32.413  22.642  25.112  1.00  0.00     0.005 C 
BRANCH   8  14
ATOM     14  C   UNL A   1      32.275  25.734  21.952  1.00  0.00     0.224 C 
ATOM     15  N   UNL A   1      31.549  26.867  21.823  1.00  0.00    -0.349 N 
ATOM     16  H   UNL A   1      31.457  27.145  20.883  1.00  0.00     0.164 HD
ATOM     17  O   UNL A   1      32.895  25.393  20.935  1.00  0.00    -0.275 OA
BRANCH  15  18
ATOM     18  C   UNL A   1      30.872  27.775  22.739  1.00  0.00     0.109 C 
ATOM     19  C   UNL A   1      29.559  27.137  23.206  1.00  0.00     0.036 C 
BRANCH  18  20
ATOM     20  C   UNL A   1      31.734  28.167  23.926  1.00  0.00    -0.026 A 
ATOM     21  C   UNL A   1      34.242  28.978  27.360  1.00  0.00     0.044 C 
ATOM     22  C   UNL A   1      33.373  28.717  26.165  1.00  0.00    -0.051 A 
ATOM     23  C   UNL A   1      32.147  28.070  26.329  1.00  0.00     0.004 A 
ATOM     24  C   UNL A   1      33.762  29.116  24.883  1.00  0.00     0.004 A 
ATOM     25  C   UNL A   1      31.342  27.791  25.223  1.00  0.00     0.006 A 
ATOM     26  C   UNL A   1      32.950  28.847  23.775  1.00  0.00     0.006 A 
ENDBRANCH  18  20
ENDBRANCH  15  18
ENDBRANCH   8  14
ENDBRANCH   4   7
ENDBRANCH   2   3
ENDBRANCH   1   2
BRANCH   1  27
ATOM     27  C   UNL A   1      38.195  23.348  26.104  1.00  0.00     0.118 C 
BRANCH  27  28
ATOM     28  N   UNL A   1      39.586  23.084  26.464  1.00  0.00    -0.352 N 
ATOM     29  C   UNL A   1      40.482  23.947  27.081  1.00  0.00     0.251 C 
ATOM     30  H   UNL A   1      39.929  22.187  26.242  1.00  0.00     0.163 HD
ATOM     31  O   UNL A   1      41.617  23.635  27.344  1.00  0.00    -0.269 OA
BRANCH  29  32
ATOM     32  C   UNL A   1      39.948  25.277  27.442  1.00  0.00     0.039 A 
ATOM     33  C   UNL A   1      40.363  26.380  26.690  1.00  0.00     0.014 A 
ATOM     34  C   UNL A   1      39.311  25.427  28.670  1.00  0.00     0.014 A 
ATOM     35  C   UNL A   1      40.284  27.651  27.255  1.00  0.00     0.010 A 
ATOM     36  C   UNL A   1      39.309  26.677  29.258  1.00  0.00     0.010 A 
ATOM     37  C   UNL A   1      39.833  27.783  28.569  1.00  0.00    -0.014 A 
BRANCH  37  38
ATOM     38  C   UNL A   1      39.961  29.017  29.340  1.00  0.00     0.031 A 
ATOM     39  C   UNL A   1      38.898  30.048  29.291  1.00  0.00     0.074 A 
ATOM     40  C   UNL A   1      41.030  29.225  30.140  1.00  0.00     0.049 A 
ATOM     41  N   UNL A   1      39.104  31.304  29.518  1.00  0.00    -0.248 NA
ATOM     42  C   UNL A   1      37.512  29.747  28.945  1.00  0.00     0.031 C 
ATOM     43  C   UNL A   1      41.153  30.237  31.185  1.00  0.00     0.029 A 
ATOM     44  N   UNL A   1      42.307  28.679  30.041  1.00  0.00    -0.354 N 
ATOM     45  C   UNL A   1      37.876  31.915  29.622  1.00  0.00     0.074 A 
ATOM     46  C   UNL A   1      36.919  30.919  29.198  1.00  0.00     0.031 C 
ATOM     47  C   UNL A   1      42.450  30.416  31.475  1.00  0.00     0.029 A 
ATOM     48  C   UNL A   1      43.221  29.626  30.531  1.00  0.00     0.049 A 
ATOM     49  H   UNL A   1      42.531  27.787  29.689  1.00  0.00     0.167 HD
ATOM     50  C   UNL A   1      37.773  33.152  30.185  1.00  0.00     0.037 A 
ATOM     51  C   UNL A   1      44.239  30.114  29.763  1.00  0.00     0.037 A 
ATOM     52  C   UNL A   1      39.071  33.673  30.598  1.00  0.00     0.049 A 
ATOM     53  C   UNL A   1      44.187  31.608  29.542  1.00  0.00     0.074 A 
ATOM     54  C   UNL A   1      39.729  33.676  31.816  1.00  0.00     0.029 A 
ATOM     55  N   UNL A   1      40.015  34.026  29.641  1.00  0.00    -0.354 N 
ATOM     56  N   UNL A   1      43.135  32.343  29.765  1.00  0.00    -0.248 NA
ATOM     57  C   UNL A   1      45.309  32.388  29.029  1.00  0.00     0.031 C 
ATOM     58  C   UNL A   1      41.083  34.014  31.589  1.00  0.00     0.029 A 
ATOM     59  C   UNL A   1      41.250  34.219  30.232  1.00  0.00     0.049 A 
ATOM     60  H   UNL A   1      39.831  34.125  28.679  1.00  0.00     0.167 HD
ATOM     61  C   UNL A   1      43.386  33.640  29.390  1.00  0.00     0.074 A 
ATOM     62  C   UNL A   1      44.776  33.623  28.974  1.00  0.00     0.031 C 
ATOM     63  C   UNL A   1      42.415  34.602  29.446  1.00  0.00     0.037 A 
BRANCH  50  64
ATOM     64  C   UNL A   1      36.446  33.719  30.632  1.00  0.00     0.058 A 
ATOM     65  C   UNL A   1      35.528  34.252  29.701  1.00  0.00     0.135 A 
ATOM     66  C   UNL A   1      36.053  33.816  31.980  1.00  0.00     0.135 A 
ATOM     67  F   UNL A   1      35.730  34.161  28.381  1.00  0.00    -0.206 F 
ATOM     68  C   UNL A   1      34.372  34.931  30.084  1.00  0.00     0.059 A 
ATOM     69  C   UNL A   1      34.925  34.536  32.392  1.00  0.00     0.059 A 
ATOM     70  F   UNL A   1      36.757  33.203  32.947  1.00  0.00    -0.206 F 
ATOM     71  C   UNL A   1      34.096  35.102  31.432  1.00  0.00     0.060 A 
BRANCH  71  72
ATOM     72  S   UNL A   1      32.668  36.099  31.899  1.00  0.00     0.124 S 
ATOM     73  O   UNL A   1      31.761  35.101  32.462  1.00  0.00    -0.237 OA
ATOM     74  O   UNL A   1      33.251  37.035  32.853  1.00  0.00    -0.237 OA
ATOM     75  O   UNL A   1      32.232  36.681  30.632  1.00  0.00    -0.744 OA
ENDBRANCH  71  72
ENDBRANCH  50  64
BRANCH  51  76
ATOM     76  C   UNL A   1      44.774  29.121  28.796  1.00  0.00     0.058 A 
ATOM     77  C   UNL A   1      44.254  29.142  27.488  1.00  0.00     0.135 A 
ATOM     78  C   UNL A   1      46.019  28.511  28.994  1.00  0.00     0.135 A 
ATOM     79  F   UNL A   1      43.059  29.705  27.248  1.00  0.00    -0.206 F 
ATOM     80  C   UNL A   1      45.009  28.727  26.399  1.00  0.00     0.059 A 
ATOM     81  C   UNL A   1      46.793  28.082  27.914  1.00  0.00     0.059 A 
ATOM     82  F   UNL A   1      46.560  28.459  30.221  1.00  0.00    -0.206 F 
ATOM     83  C   UNL A   1      46.303  28.260  26.619  1.00  0.00     0.060 A 
BRANCH  83  84
ATOM     84  S   UNL A   1      47.385  28.092  25.180  1.00  0.00     0.124 S 
ATOM     85  O   UNL A   1      47.385  26.649  24.970  1.00  0.00    -0.237 OA
ATOM     86  O   UNL A   1      46.663  28.877  24.180  1.00  0.00    -0.237 OA
ATOM     87  O   UNL A   1      48.645  28.666  25.639  1.00  0.00    -0.744 OA
ENDBRANCH  83  84
ENDBRANCH  51  76
BRANCH  63  88
ATOM     88  C   UNL A   1      42.483  36.008  28.880  1.00  0.00     0.058 A 
ATOM     89  C   UNL A   1      43.143  37.087  29.493  1.00  0.00     0.135 A 
ATOM     90  C   UNL A   1      41.964  36.283  27.587  1.00  0.00     0.135 A 
ATOM     91  F   UNL A   1      43.786  36.943  30.659  1.00  0.00    -0.206 F 
ATOM     92  C   UNL A   1      43.218  38.355  28.909  1.00  0.00     0.059 A 
ATOM     93  C   UNL A   1      42.079  37.524  26.962  1.00  0.00     0.059 A 
ATOM     94  F   UNL A   1      41.331  35.343  26.867  1.00  0.00    -0.206 F 
ATOM     95  C   UNL A   1      42.684  38.567  27.643  1.00  0.00     0.060 A 
BRANCH  95  96
ATOM     96  S   UNL A   1      42.838  40.179  26.854  1.00  0.00     0.124 S 
ATOM     97  O   UNL A   1      41.509  40.349  26.276  1.00  0.00    -0.237 OA
ATOM     98  O   UNL A   1      43.153  41.061  27.974  1.00  0.00    -0.237 OA
ATOM     99  O   UNL A   1      43.924  39.980  25.900  1.00  0.00    -0.744 OA
ENDBRANCH  95  96
ENDBRANCH  63  88
ENDBRANCH  37  38
ENDBRANCH  29  32
ENDBRANCH  27  28
ENDBRANCH   1  27
TORSDOF 16
ENDMDL
