MODEL 1
REMARK VINA RESULT:     -11.8      0.000      0.000
REMARK SMILES COc1cc([C@@H]2[NH2+][C@@H](C(=O)NCCCNC(=O)c3ccc(-c4c5nc(c(-c6c(F)cc(S(=O)(=O)[O-])cc6F)c6ccc([nH]6)c(-c6c(F)cc(S(=O)(=O)[O-])cc6F)c6nc(c(-c7c(F)cc(S(=O)(=O)[O-])cc7F)c7ccc4[nH]7)C=C6)C=C5)cc3)CS2)cc(Cl)c1O
REMARK SMILES IDX 13 1 12 2 11 3 9 4 10 5 8 7 6 8 7 9 85 10 84 13 5 14 3 15
REMARK SMILES IDX 4 16 89 17 87 18 86 19 88 20 2 21 1 22 90 23 14 25 15 26
REMARK SMILES IDX 16 27 17 29 18 30 19 31 83 32 20 33 82 34 21 35 22 36 23 37
REMARK SMILES IDX 76 38 24 39 81 40 75 41 77 42 25 43 80 44 74 45 73 46 26 48
REMARK SMILES IDX 60 49 39 50 59 51 40 52 43 53 58 54 78 55 41 56 42 57 57 59
REMARK SMILES IDX 79 60 44 61 27 62 28 63 37 64 29 65 30 66 36 67 38 68 31 69
REMARK SMILES IDX 32 70 33 71 34 72 35 73 61 74 62 75 71 76 63 77 64 78 70 79
REMARK SMILES IDX 72 80 65 81 66 82 67 83 68 84 69 85 45 86 46 87 55 88 47 89
REMARK SMILES IDX 48 90 54 91 56 92 49 93 50 94 51 95 52 96 53 97
REMARK H PARENT 11 6 7 11 7 12 90 24 15 28 77 47 43 58
REMARK Flexibility Score: inf
ROOT
ATOM      1  C   UNL A   1      34.007  28.066  25.758  1.00  0.00     0.042 C 
ENDROOT
BRANCH   1   2
ATOM      2  C   UNL A   1      32.979  28.445  24.696  1.00  0.00     0.118 C 
BRANCH   2   3
ATOM      3  N   UNL A   1      33.371  27.970  23.382  1.00  0.00    -0.351 N 
ATOM      4  C   UNL A   1      33.410  26.705  22.887  1.00  0.00     0.279 C 
ATOM      5  O   UNL A   1      33.930  26.532  21.780  1.00  0.00    -0.268 OA
ATOM      6  H   UNL A   1      33.651  28.674  22.752  1.00  0.00     0.163 HD
BRANCH   4   7
ATOM      7  C   UNL A   1      32.778  25.529  23.648  1.00  0.00     0.283 C 
ATOM      8  C   UNL A   1      32.443  23.204  23.072  1.00  0.00     0.274 C 
ATOM      9  N   UNL A   1      33.429  24.276  23.191  1.00  0.00    -0.321 N 
ATOM     10  S   UNL A   1      30.772  23.836  23.365  1.00  0.00    -0.088 SA
ATOM     11  H   UNL A   1      33.865  24.434  22.283  1.00  0.00     0.348 HD
ATOM     12  H   UNL A   1      34.134  24.001  23.875  1.00  0.00     0.348 HD
ATOM     13  C   UNL A   1      31.290  25.550  23.316  1.00  0.00     0.151 C 
BRANCH   8  14
ATOM     14  C   UNL A   1      32.750  22.015  23.961  1.00  0.00     0.025 A 
ATOM     15  C   UNL A   1      33.349  21.053  26.118  1.00  0.00     0.162 A 
ATOM     16  C   UNL A   1      33.205  22.165  25.285  1.00  0.00     0.061 A 
ATOM     17  C   UNL A   1      33.024  19.777  25.651  1.00  0.00     0.176 A 
ATOM     18  C   UNL A   1      32.644  19.603  24.322  1.00  0.00     0.087 A 
ATOM     19  C   UNL A   1      32.509  20.713  23.482  1.00  0.00     0.035 A 
ATOM     20  Cl  UNL A   1      32.259  18.042  23.691  1.00  0.00    -0.080 Cl
BRANCH  15  21
ATOM     21  O   UNL A   1      33.692  21.267  27.428  1.00  0.00    -0.493 OA
ATOM     22  C   UNL A   1      34.198  22.592  27.628  1.00  0.00     0.278 C 
ENDBRANCH  15  21
BRANCH  17  23
ATOM     23  O   UNL A   1      33.019  18.714  26.515  1.00  0.00    -0.503 OA
ATOM     24  H   UNL A   1      32.316  18.095  26.493  1.00  0.00     0.293 HD
ENDBRANCH  17  23
ENDBRANCH   8  14
ENDBRANCH   4   7
ENDBRANCH   2   3
ENDBRANCH   1   2
BRANCH   1  25
ATOM     25  C   UNL A   1      33.539  28.316  27.192  1.00  0.00     0.118 C 
BRANCH  25  26
ATOM     26  N   UNL A   1      33.466  29.734  27.523  1.00  0.00    -0.352 N 
ATOM     27  C   UNL A   1      34.401  30.551  28.112  1.00  0.00     0.251 C 
ATOM     28  H   UNL A   1      32.618  30.174  27.288  1.00  0.00     0.163 HD
ATOM     29  O   UNL A   1      34.078  31.683  28.465  1.00  0.00    -0.269 OA
BRANCH  27  30
ATOM     30  C   UNL A   1      35.780  30.067  28.339  1.00  0.00     0.039 A 
ATOM     31  C   UNL A   1      36.696  30.101  27.284  1.00  0.00     0.014 A 
ATOM     32  C   UNL A   1      36.166  29.572  29.586  1.00  0.00     0.014 A 
ATOM     33  C   UNL A   1      38.020  29.709  27.499  1.00  0.00     0.010 A 
ATOM     34  C   UNL A   1      37.500  29.251  29.819  1.00  0.00     0.010 A 
ATOM     35  C   UNL A   1      38.443  29.317  28.780  1.00  0.00    -0.014 A 
BRANCH  35  36
ATOM     36  C   UNL A   1      39.856  28.960  29.069  1.00  0.00     0.031 A 
ATOM     37  C   UNL A   1      40.793  30.007  29.609  1.00  0.00     0.074 A 
ATOM     38  C   UNL A   1      40.319  27.733  28.761  1.00  0.00     0.049 A 
ATOM     39  N   UNL A   1      42.090  29.952  29.772  1.00  0.00    -0.248 NA
ATOM     40  C   UNL A   1      40.193  31.297  29.986  1.00  0.00     0.031 C 
ATOM     41  C   UNL A   1      39.516  26.637  28.212  1.00  0.00     0.029 A 
ATOM     42  N   UNL A   1      41.585  27.205  28.840  1.00  0.00    -0.354 N 
ATOM     43  C   UNL A   1      42.464  31.204  30.247  1.00  0.00     0.074 A 
ATOM     44  C   UNL A   1      41.264  32.011  30.300  1.00  0.00     0.031 C 
ATOM     45  C   UNL A   1      40.306  25.569  28.014  1.00  0.00     0.029 A 
ATOM     46  C   UNL A   1      41.678  25.915  28.373  1.00  0.00     0.049 A 
ATOM     47  H   UNL A   1      42.354  27.705  29.198  1.00  0.00     0.167 HD
ATOM     48  C   UNL A   1      43.692  31.635  30.622  1.00  0.00     0.037 A 
ATOM     49  C   UNL A   1      42.749  25.110  28.228  1.00  0.00     0.037 A 
ATOM     50  C   UNL A   1      44.875  30.816  30.589  1.00  0.00     0.049 A 
ATOM     51  C   UNL A   1      44.109  25.618  28.628  1.00  0.00     0.074 A 
ATOM     52  C   UNL A   1      46.159  31.147  30.986  1.00  0.00     0.029 A 
ATOM     53  N   UNL A   1      44.920  29.507  30.135  1.00  0.00    -0.354 N 
ATOM     54  N   UNL A   1      44.441  26.792  29.110  1.00  0.00    -0.248 NA
ATOM     55  C   UNL A   1      45.242  24.694  28.467  1.00  0.00     0.031 C 
ATOM     56  C   UNL A   1      46.990  30.051  30.730  1.00  0.00     0.029 A 
ATOM     57  C   UNL A   1      46.213  29.019  30.227  1.00  0.00     0.049 A 
ATOM     58  H   UNL A   1      44.147  28.999  29.796  1.00  0.00     0.167 HD
ATOM     59  C   UNL A   1      45.810  26.733  29.351  1.00  0.00     0.074 A 
ATOM     60  C   UNL A   1      46.247  25.411  28.955  1.00  0.00     0.031 C 
ATOM     61  C   UNL A   1      46.626  27.687  29.860  1.00  0.00     0.037 A 
BRANCH  48  62
ATOM     62  C   UNL A   1      43.816  33.056  31.101  1.00  0.00     0.058 A 
ATOM     63  C   UNL A   1      43.716  33.387  32.462  1.00  0.00     0.135 A 
ATOM     64  C   UNL A   1      44.067  34.097  30.192  1.00  0.00     0.135 A 
ATOM     65  F   UNL A   1      43.463  32.435  33.373  1.00  0.00    -0.206 F 
ATOM     66  C   UNL A   1      43.822  34.703  32.900  1.00  0.00     0.059 A 
ATOM     67  C   UNL A   1      44.209  35.416  30.611  1.00  0.00     0.059 A 
ATOM     68  F   UNL A   1      44.175  33.837  28.879  1.00  0.00    -0.206 F 
ATOM     69  C   UNL A   1      44.066  35.711  31.966  1.00  0.00     0.060 A 
BRANCH  69  70
ATOM     70  S   UNL A   1      44.193  37.414  32.551  1.00  0.00     0.124 S 
ATOM     71  O   UNL A   1      43.097  37.472  33.515  1.00  0.00    -0.237 OA
ATOM     72  O   UNL A   1      45.537  37.450  33.119  1.00  0.00    -0.237 OA
ATOM     73  O   UNL A   1      44.005  38.206  31.339  1.00  0.00    -0.744 OA
ENDBRANCH  69  70
ENDBRANCH  48  62
BRANCH  49  74
ATOM     74  C   UNL A   1      42.577  23.731  27.695  1.00  0.00     0.058 A 
ATOM     75  C   UNL A   1      42.579  23.491  26.312  1.00  0.00     0.135 A 
ATOM     76  C   UNL A   1      42.421  22.628  28.548  1.00  0.00     0.135 A 
ATOM     77  F   UNL A   1      42.718  24.514  25.455  1.00  0.00    -0.206 F 
ATOM     78  C   UNL A   1      42.416  22.210  25.794  1.00  0.00     0.059 A 
ATOM     79  C   UNL A   1      42.284  21.335  28.055  1.00  0.00     0.059 A 
ATOM     80  F   UNL A   1      42.431  22.801  29.879  1.00  0.00    -0.206 F 
ATOM     81  C   UNL A   1      42.273  21.137  26.675  1.00  0.00     0.060 A 
BRANCH  81  82
ATOM     82  S   UNL A   1      42.112  19.473  25.992  1.00  0.00     0.124 S 
ATOM     83  O   UNL A   1      42.916  19.574  24.779  1.00  0.00    -0.237 OA
ATOM     84  O   UNL A   1      42.669  18.649  27.061  1.00  0.00    -0.237 OA
ATOM     85  O   UNL A   1      40.674  19.333  25.787  1.00  0.00    -0.744 OA
ENDBRANCH  81  82
ENDBRANCH  49  74
BRANCH  61  86
ATOM     86  C   UNL A   1      48.068  27.330  30.091  1.00  0.00     0.058 A 
ATOM     87  C   UNL A   1      49.072  27.652  29.165  1.00  0.00     0.135 A 
ATOM     88  C   UNL A   1      48.461  26.751  31.310  1.00  0.00     0.135 A 
ATOM     89  F   UNL A   1      48.749  28.197  27.982  1.00  0.00    -0.206 F 
ATOM     90  C   UNL A   1      50.414  27.412  29.439  1.00  0.00     0.059 A 
ATOM     91  C   UNL A   1      49.799  26.526  31.615  1.00  0.00     0.059 A 
ATOM     92  F   UNL A   1      47.540  26.431  32.233  1.00  0.00    -0.206 F 
ATOM     93  C   UNL A   1      50.769  26.860  30.672  1.00  0.00     0.060 A 
BRANCH  93  94
ATOM     94  S   UNL A   1      52.521  26.631  31.046  1.00  0.00     0.124 S 
ATOM     95  O   UNL A   1      52.942  27.999  31.331  1.00  0.00    -0.237 OA
ATOM     96  O   UNL A   1      52.479  25.728  32.192  1.00  0.00    -0.237 OA
ATOM     97  O   UNL A   1      53.058  26.052  29.818  1.00  0.00    -0.744 OA
ENDBRANCH  93  94
ENDBRANCH  61  86
ENDBRANCH  35  36
ENDBRANCH  27  30
ENDBRANCH  25  26
ENDBRANCH   1  25
TORSDOF 16
ENDMDL
MODEL 2
REMARK VINA RESULT:     -11.4      1.015      1.933
REMARK SMILES COc1cc([C@@H]2[NH2+][C@@H](C(=O)NCCCNC(=O)c3ccc(-c4c5nc(c(-c6c(F)cc(S(=O)(=O)[O-])cc6F)c6ccc([nH]6)c(-c6c(F)cc(S(=O)(=O)[O-])cc6F)c6nc(c(-c7c(F)cc(S(=O)(=O)[O-])cc7F)c7ccc4[nH]7)C=C6)C=C5)cc3)CS2)cc(Cl)c1O
REMARK SMILES IDX 13 1 12 2 11 3 9 4 10 5 8 7 6 8 7 9 85 10 84 13 5 14 3 15
REMARK SMILES IDX 4 16 89 17 87 18 86 19 88 20 2 21 1 22 90 23 14 25 15 26
REMARK SMILES IDX 16 27 17 29 18 30 19 31 83 32 20 33 82 34 21 35 22 36 23 37
REMARK SMILES IDX 76 38 24 39 81 40 75 41 77 42 25 43 80 44 74 45 73 46 26 48
REMARK SMILES IDX 60 49 39 50 59 51 40 52 43 53 58 54 78 55 41 56 42 57 57 59
REMARK SMILES IDX 79 60 44 61 27 62 28 63 37 64 29 65 30 66 36 67 38 68 31 69
REMARK SMILES IDX 32 70 33 71 34 72 35 73 61 74 62 75 71 76 63 77 64 78 70 79
REMARK SMILES IDX 72 80 65 81 66 82 67 83 68 84 69 85 45 86 46 87 55 88 47 89
REMARK SMILES IDX 48 90 54 91 56 92 49 93 50 94 51 95 52 96 53 97
REMARK H PARENT 11 6 7 11 7 12 90 24 15 28 77 47 43 58
REMARK Flexibility Score: inf
ROOT
ATOM      1  C   UNL A   1      32.836  28.047  25.948  1.00  0.00     0.042 C 
ENDROOT
BRANCH   1   2
ATOM      2  C   UNL A   1      33.752  27.898  24.736  1.00  0.00     0.118 C 
BRANCH   2   3
ATOM      3  N   UNL A   1      33.011  27.496  23.555  1.00  0.00    -0.351 N 
ATOM      4  C   UNL A   1      32.604  26.262  23.159  1.00  0.00     0.279 C 
ATOM      5  O   UNL A   1      32.119  26.146  22.028  1.00  0.00    -0.268 OA
ATOM      6  H   UNL A   1      32.767  28.231  22.947  1.00  0.00     0.163 HD
BRANCH   4   7
ATOM      7  C   UNL A   1      32.687  25.051  24.101  1.00  0.00     0.283 C 
ATOM      8  C   UNL A   1      32.218  22.700  23.784  1.00  0.00     0.274 C 
ATOM      9  N   UNL A   1      32.977  23.845  23.286  1.00  0.00    -0.321 N 
ATOM     10  S   UNL A   1      31.085  23.206  25.102  1.00  0.00    -0.088 SA
ATOM     11  H   UNL A   1      32.717  24.023  22.316  1.00  0.00     0.348 HD
ATOM     12  H   UNL A   1      33.972  23.634  23.349  1.00  0.00     0.348 HD
ATOM     13  C   UNL A   1      31.334  24.954  24.799  1.00  0.00     0.151 C 
BRANCH   8  14
ATOM     14  C   UNL A   1      33.102  21.549  24.225  1.00  0.00     0.025 A 
ATOM     15  C   UNL A   1      33.542  19.168  24.490  1.00  0.00     0.162 A 
ATOM     16  C   UNL A   1      32.660  20.213  24.206  1.00  0.00     0.061 A 
ATOM     17  C   UNL A   1      34.883  19.437  24.778  1.00  0.00     0.176 A 
ATOM     18  C   UNL A   1      35.318  20.757  24.873  1.00  0.00     0.087 A 
ATOM     19  C   UNL A   1      34.435  21.806  24.600  1.00  0.00     0.035 A 
ATOM     20  Cl  UNL A   1      36.958  21.140  25.253  1.00  0.00    -0.080 Cl
BRANCH  15  21
ATOM     21  O   UNL A   1      33.087  17.882  24.353  1.00  0.00    -0.493 OA
ATOM     22  C   UNL A   1      32.594  17.365  25.595  1.00  0.00     0.278 C 
ENDBRANCH  15  21
BRANCH  17  23
ATOM     23  O   UNL A   1      35.775  18.405  24.902  1.00  0.00    -0.503 OA
ATOM     24  H   UNL A   1      36.008  18.086  25.751  1.00  0.00     0.293 HD
ENDBRANCH  17  23
ENDBRANCH   8  14
ENDBRANCH   4   7
ENDBRANCH   2   3
ENDBRANCH   1   2
BRANCH   1  25
ATOM     25  C   UNL A   1      33.573  28.383  27.245  1.00  0.00     0.118 C 
BRANCH  25  26
ATOM     26  N   UNL A   1      33.510  29.800  27.580  1.00  0.00    -0.352 N 
ATOM     27  C   UNL A   1      34.454  30.611  28.164  1.00  0.00     0.251 C 
ATOM     28  H   UNL A   1      32.663  30.245  27.352  1.00  0.00     0.163 HD
ATOM     29  O   UNL A   1      34.140  31.743  28.523  1.00  0.00    -0.269 OA
BRANCH  27  30
ATOM     30  C   UNL A   1      35.831  30.118  28.381  1.00  0.00     0.039 A 
ATOM     31  C   UNL A   1      36.733  30.126  27.313  1.00  0.00     0.014 A 
ATOM     32  C   UNL A   1      36.230  29.640  29.631  1.00  0.00     0.014 A 
ATOM     33  C   UNL A   1      38.057  29.725  27.518  1.00  0.00     0.010 A 
ATOM     34  C   UNL A   1      37.564  29.311  29.851  1.00  0.00     0.010 A 
ATOM     35  C   UNL A   1      38.494  29.351  28.799  1.00  0.00    -0.014 A 
BRANCH  35  36
ATOM     36  C   UNL A   1      39.907  28.986  29.075  1.00  0.00     0.031 A 
ATOM     37  C   UNL A   1      40.854  30.027  29.609  1.00  0.00     0.074 A 
ATOM     38  C   UNL A   1      40.361  27.757  28.760  1.00  0.00     0.049 A 
ATOM     39  N   UNL A   1      42.152  29.966  29.760  1.00  0.00    -0.248 NA
ATOM     40  C   UNL A   1      40.264  31.320  29.994  1.00  0.00     0.031 C 
ATOM     41  C   UNL A   1      39.548  26.667  28.216  1.00  0.00     0.029 A 
ATOM     42  N   UNL A   1      41.625  27.223  28.827  1.00  0.00    -0.354 N 
ATOM     43  C   UNL A   1      42.536  31.214  30.234  1.00  0.00     0.074 A 
ATOM     44  C   UNL A   1      41.341  32.028  30.300  1.00  0.00     0.031 C 
ATOM     45  C   UNL A   1      40.330  25.595  28.010  1.00  0.00     0.029 A 
ATOM     46  C   UNL A   1      41.707  25.933  28.357  1.00  0.00     0.049 A 
ATOM     47  H   UNL A   1      42.399  27.719  29.180  1.00  0.00     0.167 HD
ATOM     48  C   UNL A   1      43.770  31.638  30.600  1.00  0.00     0.037 A 
ATOM     49  C   UNL A   1      42.773  25.123  28.202  1.00  0.00     0.037 A 
ATOM     50  C   UNL A   1      44.948  30.814  30.555  1.00  0.00     0.049 A 
ATOM     51  C   UNL A   1      44.139  25.623  28.590  1.00  0.00     0.074 A 
ATOM     52  C   UNL A   1      46.238  31.137  30.941  1.00  0.00     0.029 A 
ATOM     53  N   UNL A   1      44.983  29.505  30.097  1.00  0.00    -0.354 N 
ATOM     54  N   UNL A   1      44.481  26.795  29.072  1.00  0.00    -0.248 NA
ATOM     55  C   UNL A   1      45.265  24.694  28.417  1.00  0.00     0.031 C 
ATOM     56  C   UNL A   1      47.060  30.037  30.675  1.00  0.00     0.029 A 
ATOM     57  C   UNL A   1      46.274  29.010  30.178  1.00  0.00     0.049 A 
ATOM     58  H   UNL A   1      44.205  29.002  29.765  1.00  0.00     0.167 HD
ATOM     59  C   UNL A   1      45.852  26.729  29.300  1.00  0.00     0.074 A 
ATOM     60  C   UNL A   1      46.278  25.405  28.898  1.00  0.00     0.031 C 
ATOM     61  C   UNL A   1      46.677  27.677  29.804  1.00  0.00     0.037 A 
BRANCH  48  62
ATOM     62  C   UNL A   1      43.906  33.058  31.080  1.00  0.00     0.058 A 
ATOM     63  C   UNL A   1      44.114  34.122  30.187  1.00  0.00     0.135 A 
ATOM     64  C   UNL A   1      43.799  33.363  32.447  1.00  0.00     0.135 A 
ATOM     65  F   UNL A   1      44.238  33.886  28.872  1.00  0.00    -0.206 F 
ATOM     66  C   UNL A   1      44.249  35.432  30.636  1.00  0.00     0.059 A 
ATOM     67  C   UNL A   1      43.899  34.670  32.914  1.00  0.00     0.059 A 
ATOM     68  F   UNL A   1      43.598  32.386  33.345  1.00  0.00    -0.206 F 
ATOM     69  C   UNL A   1      44.143  35.695  32.002  1.00  0.00     0.060 A 
BRANCH  69  70
ATOM     70  S   UNL A   1      44.328  37.400  32.566  1.00  0.00     0.124 S 
ATOM     71  O   UNL A   1      44.137  38.140  31.323  1.00  0.00    -0.237 OA
ATOM     72  O   UNL A   1      43.256  37.523  33.548  1.00  0.00    -0.237 OA
ATOM     73  O   UNL A   1      45.682  37.432  33.114  1.00  0.00    -0.744 OA
ENDBRANCH  69  70
ENDBRANCH  48  62
BRANCH  49  74
ATOM     74  C   UNL A   1      42.590  23.747  27.667  1.00  0.00     0.058 A 
ATOM     75  C   UNL A   1      42.496  22.646  28.533  1.00  0.00     0.135 A 
ATOM     76  C   UNL A   1      42.492  23.502  26.289  1.00  0.00     0.135 A 
ATOM     77  F   UNL A   1      42.590  22.828  29.859  1.00  0.00    -0.206 F 
ATOM     78  C   UNL A   1      42.328  21.352  28.053  1.00  0.00     0.059 A 
ATOM     79  C   UNL A   1      42.298  22.219  25.785  1.00  0.00     0.059 A 
ATOM     80  F   UNL A   1      42.558  24.521  25.418  1.00  0.00    -0.206 F 
ATOM     81  C   UNL A   1      42.226  21.148  26.676  1.00  0.00     0.060 A 
BRANCH  81  82
ATOM     82  S   UNL A   1      41.959  19.470  26.066  1.00  0.00     0.124 S 
ATOM     83  O   UNL A   1      42.416  18.671  27.198  1.00  0.00    -0.237 OA
ATOM     84  O   UNL A   1      40.521  19.461  25.816  1.00  0.00    -0.237 OA
ATOM     85  O   UNL A   1      42.796  19.410  24.872  1.00  0.00    -0.744 OA
ENDBRANCH  81  82
ENDBRANCH  49  74
BRANCH  61  86
ATOM     86  C   UNL A   1      48.120  27.312  30.022  1.00  0.00     0.058 A 
ATOM     87  C   UNL A   1      49.109  27.591  29.067  1.00  0.00     0.135 A 
ATOM     88  C   UNL A   1      48.528  26.772  31.254  1.00  0.00     0.135 A 
ATOM     89  F   UNL A   1      48.771  28.099  27.872  1.00  0.00    -0.206 F 
ATOM     90  C   UNL A   1      50.454  27.346  29.326  1.00  0.00     0.059 A 
ATOM     91  C   UNL A   1      49.869  26.543  31.542  1.00  0.00     0.059 A 
ATOM     92  F   UNL A   1      47.620  26.494  32.203  1.00  0.00    -0.206 F 
ATOM     93  C   UNL A   1      50.825  26.833  30.571  1.00  0.00     0.060 A 
BRANCH  93  94
ATOM     94  S   UNL A   1      52.581  26.597  30.922  1.00  0.00     0.124 S 
ATOM     95  O   UNL A   1      53.116  26.342  29.589  1.00  0.00    -0.237 OA
ATOM     96  O   UNL A   1      52.952  27.875  31.522  1.00  0.00    -0.237 OA
ATOM     97  O   UNL A   1      52.596  25.457  31.834  1.00  0.00    -0.744 OA
ENDBRANCH  93  94
ENDBRANCH  61  86
ENDBRANCH  35  36
ENDBRANCH  27  30
ENDBRANCH  25  26
ENDBRANCH   1  25
TORSDOF 16
ENDMDL
MODEL 3
REMARK VINA RESULT:     -11.3      5.014     10.603
REMARK SMILES COc1cc([C@@H]2[NH2+][C@@H](C(=O)NCCCNC(=O)c3ccc(-c4c5nc(c(-c6c(F)cc(S(=O)(=O)[O-])cc6F)c6ccc([nH]6)c(-c6c(F)cc(S(=O)(=O)[O-])cc6F)c6nc(c(-c7c(F)cc(S(=O)(=O)[O-])cc7F)c7ccc4[nH]7)C=C6)C=C5)cc3)CS2)cc(Cl)c1O
REMARK SMILES IDX 13 1 12 2 11 3 9 4 10 5 8 7 6 8 7 9 85 10 84 13 5 14 3 15
REMARK SMILES IDX 4 16 89 17 87 18 86 19 88 20 2 21 1 22 90 23 14 25 15 26
REMARK SMILES IDX 16 27 17 29 18 30 19 31 83 32 20 33 82 34 21 35 22 36 23 37
REMARK SMILES IDX 76 38 24 39 81 40 75 41 77 42 25 43 80 44 74 45 73 46 26 48
REMARK SMILES IDX 60 49 39 50 59 51 40 52 43 53 58 54 78 55 41 56 42 57 57 59
REMARK SMILES IDX 79 60 44 61 27 62 28 63 37 64 29 65 30 66 36 67 38 68 31 69
REMARK SMILES IDX 32 70 33 71 34 72 35 73 61 74 62 75 71 76 63 77 64 78 70 79
REMARK SMILES IDX 72 80 65 81 66 82 67 83 68 84 69 85 45 86 46 87 55 88 47 89
REMARK SMILES IDX 48 90 54 91 56 92 49 93 50 94 51 95 52 96 53 97
REMARK H PARENT 11 6 7 11 7 12 90 24 15 28 77 47 43 58
REMARK Flexibility Score: inf
ROOT
ATOM      1  C   UNL A   1      37.297  23.715  25.320  1.00  0.00     0.042 C 
ENDROOT
BRANCH   1   2
ATOM      2  C   UNL A   1      36.713  22.305  25.303  1.00  0.00     0.118 C 
BRANCH   2   3
ATOM      3  N   UNL A   1      35.829  22.081  26.431  1.00  0.00    -0.351 N 
ATOM      4  C   UNL A   1      34.643  22.668  26.740  1.00  0.00     0.279 C 
ATOM      5  O   UNL A   1      34.144  22.423  27.844  1.00  0.00    -0.268 OA
ATOM      6  H   UNL A   1      36.136  21.399  27.072  1.00  0.00     0.163 HD
BRANCH   4   7
ATOM      7  C   UNL A   1      33.908  23.566  25.733  1.00  0.00     0.283 C 
ATOM      8  C   UNL A   1      31.774  24.702  25.810  1.00  0.00     0.274 C 
ATOM      9  N   UNL A   1      33.054  24.515  26.489  1.00  0.00    -0.321 N 
ATOM     10  S   UNL A   1      31.635  23.588  24.390  1.00  0.00    -0.088 SA
ATOM     11  H   UNL A   1      32.887  24.145  27.425  1.00  0.00     0.348 HD
ATOM     12  H   UNL A   1      33.531  25.414  26.548  1.00  0.00     0.348 HD
ATOM     13  C   UNL A   1      33.080  22.636  24.850  1.00  0.00     0.151 C 
BRANCH   8  14
ATOM     14  C   UNL A   1      31.519  26.142  25.413  1.00  0.00     0.025 A 
ATOM     15  C   UNL A   1      32.206  28.474  25.260  1.00  0.00     0.162 A 
ATOM     16  C   UNL A   1      32.402  27.183  25.756  1.00  0.00     0.061 A 
ATOM     17  C   UNL A   1      31.140  28.744  24.400  1.00  0.00     0.176 A 
ATOM     18  C   UNL A   1      30.215  27.742  24.110  1.00  0.00     0.087 A 
ATOM     19  C   UNL A   1      30.402  26.451  24.613  1.00  0.00     0.035 A 
ATOM     20  Cl  UNL A   1      28.865  28.034  23.074  1.00  0.00    -0.080 Cl
BRANCH  15  21
ATOM     21  O   UNL A   1      33.155  29.424  25.539  1.00  0.00    -0.493 OA
ATOM     22  C   UNL A   1      32.936  30.023  26.821  1.00  0.00     0.278 C 
ENDBRANCH  15  21
BRANCH  17  23
ATOM     23  O   UNL A   1      31.042  29.969  23.795  1.00  0.00    -0.503 OA
ATOM     24  H   UNL A   1      30.225  30.249  23.432  1.00  0.00     0.293 HD
ENDBRANCH  17  23
ENDBRANCH   8  14
ENDBRANCH   4   7
ENDBRANCH   2   3
ENDBRANCH   1   2
BRANCH   1  25
ATOM     25  C   UNL A   1      38.228  23.987  26.502  1.00  0.00     0.118 C 
BRANCH  25  26
ATOM     26  N   UNL A   1      39.635  23.808  26.167  1.00  0.00    -0.352 N 
ATOM     27  C   UNL A   1      40.727  24.568  26.513  1.00  0.00     0.251 C 
ATOM     28  H   UNL A   1      39.834  23.023  25.609  1.00  0.00     0.163 HD
ATOM     29  O   UNL A   1      41.812  24.344  25.981  1.00  0.00    -0.269 OA
BRANCH  27  30
ATOM     30  C   UNL A   1      40.595  25.660  27.501  1.00  0.00     0.039 A 
ATOM     31  C   UNL A   1      39.658  25.537  28.531  1.00  0.00     0.014 A 
ATOM     32  C   UNL A   1      41.386  26.807  27.407  1.00  0.00     0.014 A 
ATOM     33  C   UNL A   1      39.567  26.531  29.510  1.00  0.00     0.010 A 
ATOM     34  C   UNL A   1      41.346  27.760  28.421  1.00  0.00     0.010 A 
ATOM     35  C   UNL A   1      40.438  27.632  29.485  1.00  0.00    -0.014 A 
BRANCH  35  36
ATOM     36  C   UNL A   1      40.422  28.674  30.543  1.00  0.00     0.031 A 
ATOM     37  C   UNL A   1      41.338  28.543  31.731  1.00  0.00     0.074 A 
ATOM     38  C   UNL A   1      39.527  29.680  30.489  1.00  0.00     0.049 A 
ATOM     39  N   UNL A   1      41.367  29.243  32.836  1.00  0.00    -0.248 NA
ATOM     40  C   UNL A   1      42.333  27.459  31.679  1.00  0.00     0.031 C 
ATOM     41  C   UNL A   1      38.571  29.905  29.402  1.00  0.00     0.029 A 
ATOM     42  N   UNL A   1      39.256  30.690  31.379  1.00  0.00    -0.354 N 
ATOM     43  C   UNL A   1      42.363  28.672  33.619  1.00  0.00     0.074 A 
ATOM     44  C   UNL A   1      42.881  27.539  32.883  1.00  0.00     0.031 C 
ATOM     45  C   UNL A   1      37.828  30.987  29.686  1.00  0.00     0.029 A 
ATOM     46  C   UNL A   1      38.217  31.505  30.995  1.00  0.00     0.049 A 
ATOM     47  H   UNL A   1      39.760  30.818  32.216  1.00  0.00     0.167 HD
ATOM     48  C   UNL A   1      42.817  29.067  34.832  1.00  0.00     0.037 A 
ATOM     49  C   UNL A   1      37.629  32.536  31.632  1.00  0.00     0.037 A 
ATOM     50  C   UNL A   1      42.313  30.211  35.545  1.00  0.00     0.049 A 
ATOM     51  C   UNL A   1      38.133  32.943  32.991  1.00  0.00     0.074 A 
ATOM     52  C   UNL A   1      42.733  30.718  36.763  1.00  0.00     0.029 A 
ATOM     53  N   UNL A   1      41.278  31.024  35.107  1.00  0.00    -0.354 N 
ATOM     54  N   UNL A   1      39.100  32.415  33.703  1.00  0.00    -0.248 NA
ATOM     55  C   UNL A   1      37.469  34.085  33.636  1.00  0.00     0.031 C 
ATOM     56  C   UNL A   1      41.923  31.813  37.081  1.00  0.00     0.029 A 
ATOM     57  C   UNL A   1      41.036  32.022  36.036  1.00  0.00     0.049 A 
ATOM     58  H   UNL A   1      40.788  30.910  34.261  1.00  0.00     0.167 HD
ATOM     59  C   UNL A   1      39.190  33.187  34.857  1.00  0.00     0.074 A 
ATOM     60  C   UNL A   1      38.175  34.213  34.753  1.00  0.00     0.031 C 
ATOM     61  C   UNL A   1      40.042  33.059  35.902  1.00  0.00     0.037 A 
BRANCH  48  62
ATOM     62  C   UNL A   1      43.916  28.256  35.465  1.00  0.00     0.058 A 
ATOM     63  C   UNL A   1      43.637  27.206  36.354  1.00  0.00     0.135 A 
ATOM     64  C   UNL A   1      45.262  28.512  35.156  1.00  0.00     0.135 A 
ATOM     65  F   UNL A   1      42.370  26.926  36.696  1.00  0.00    -0.206 F 
ATOM     66  C   UNL A   1      44.655  26.464  36.945  1.00  0.00     0.059 A 
ATOM     67  C   UNL A   1      46.294  27.762  35.710  1.00  0.00     0.059 A 
ATOM     68  F   UNL A   1      45.585  29.503  34.309  1.00  0.00    -0.206 F 
ATOM     69  C   UNL A   1      45.981  26.752  36.617  1.00  0.00     0.060 A 
BRANCH  69  70
ATOM     70  S   UNL A   1      47.289  25.784  37.399  1.00  0.00     0.124 S 
ATOM     71  O   UNL A   1      47.256  24.558  36.608  1.00  0.00    -0.237 OA
ATOM     72  O   UNL A   1      48.463  26.630  37.206  1.00  0.00    -0.237 OA
ATOM     73  O   UNL A   1      46.836  25.652  38.781  1.00  0.00    -0.744 OA
ENDBRANCH  69  70
ENDBRANCH  48  62
BRANCH  49  74
ATOM     74  C   UNL A   1      36.507  33.269  30.985  1.00  0.00     0.058 A 
ATOM     75  C   UNL A   1      36.741  34.129  29.901  1.00  0.00     0.135 A 
ATOM     76  C   UNL A   1      35.182  33.118  31.424  1.00  0.00     0.135 A 
ATOM     77  F   UNL A   1      37.991  34.311  29.449  1.00  0.00    -0.206 F 
ATOM     78  C   UNL A   1      35.706  34.825  29.285  1.00  0.00     0.059 A 
ATOM     79  C   UNL A   1      34.127  33.783  30.808  1.00  0.00     0.059 A 
ATOM     80  F   UNL A   1      34.902  32.294  32.445  1.00  0.00    -0.206 F 
ATOM     81  C   UNL A   1      34.400  34.643  29.744  1.00  0.00     0.060 A 
BRANCH  81  82
ATOM     82  S   UNL A   1      33.059  35.514  28.906  1.00  0.00     0.124 S 
ATOM     83  O   UNL A   1      33.792  36.516  28.142  1.00  0.00    -0.237 OA
ATOM     84  O   UNL A   1      32.440  34.445  28.128  1.00  0.00    -0.237 OA
ATOM     85  O   UNL A   1      32.251  36.025  30.008  1.00  0.00    -0.744 OA
ENDBRANCH  81  82
ENDBRANCH  49  74
BRANCH  61  86
ATOM     86  C   UNL A   1      39.974  34.087  36.997  1.00  0.00     0.058 A 
ATOM     87  C   UNL A   1      40.608  35.334  36.887  1.00  0.00     0.135 A 
ATOM     88  C   UNL A   1      39.172  33.855  38.128  1.00  0.00     0.135 A 
ATOM     89  F   UNL A   1      41.393  35.602  35.832  1.00  0.00    -0.206 F 
ATOM     90  C   UNL A   1      40.449  36.315  37.860  1.00  0.00     0.059 A 
ATOM     91  C   UNL A   1      38.979  34.831  39.099  1.00  0.00     0.059 A 
ATOM     92  F   UNL A   1      38.539  32.680  38.277  1.00  0.00    -0.206 F 
ATOM     93  C   UNL A   1      39.623  36.059  38.957  1.00  0.00     0.060 A 
BRANCH  93  94
ATOM     94  S   UNL A   1      39.360  37.372  40.168  1.00  0.00     0.124 S 
ATOM     95  O   UNL A   1      40.719  37.861  40.373  1.00  0.00    -0.237 OA
ATOM     96  O   UNL A   1      38.460  38.275  39.459  1.00  0.00    -0.237 OA
ATOM     97  O   UNL A   1      38.767  36.672  41.305  1.00  0.00    -0.744 OA
ENDBRANCH  93  94
ENDBRANCH  61  86
ENDBRANCH  35  36
ENDBRANCH  27  30
ENDBRANCH  25  26
ENDBRANCH   1  25
TORSDOF 16
ENDMDL
