MODEL 1
REMARK VINA RESULT:     -12.3      0.000      0.000
REMARK SMILES C[C@@H](C(=O)NCCCNC(=O)c1ccc(-c2c3nc(c(-c4c(F)cc(S(=O)(=O)[O-])cc4F)c4ccc([nH]4)c(-c4c(F)cc(S(=O)(=O)[O-])cc4F)c4nc(c(-c5c(F)cc(S(=O)(=O)[O-])cc5F)c5ccc2[nH]5)C=C4)C=C3)cc1)c1ccc(C[C@@H]2CCC[C@@H]2O)cc1F
REMARK SMILES IDX 6 1 5 2 3 3 4 4 2 6 1 7 78 8 79 9 90 10 80 11 89 12 91 13
REMARK SMILES IDX 81 14 82 15 83 16 84 17 87 18 85 19 86 20 88 21 7 23 8 24
REMARK SMILES IDX 9 25 10 26 11 28 12 29 13 30 77 31 14 32 76 33 15 34 16 35
REMARK SMILES IDX 17 36 70 37 18 38 75 39 69 40 71 41 19 42 74 43 68 44 67 45
REMARK SMILES IDX 20 47 54 48 33 49 53 50 34 51 37 52 52 53 72 54 35 55 36 56
REMARK SMILES IDX 51 58 73 59 38 60 21 61 22 62 31 63 23 64 24 65 30 66 32 67
REMARK SMILES IDX 25 68 26 69 27 70 28 71 29 72 55 73 56 74 65 75 57 76 58 77
REMARK SMILES IDX 64 78 66 79 59 80 60 81 61 82 62 83 63 84 39 85 40 86 49 87
REMARK SMILES IDX 41 88 42 89 48 90 50 91 43 92 44 93 45 94 46 95 47 96
REMARK H PARENT 5 5 88 22 9 27 71 46 37 57
REMARK Flexibility Score: inf
ROOT
ATOM      1  C   UNL A   1      37.664  23.454  25.798  1.00  0.00     0.117 C 
ENDROOT
BRANCH   1   2
ATOM      2  N   UNL A   1      37.509  23.208  24.377  1.00  0.00    -0.356 N 
ATOM      3  C   UNL A   1      36.384  23.063  23.618  1.00  0.00     0.227 C 
ATOM      4  O   UNL A   1      36.554  22.903  22.407  1.00  0.00    -0.274 OA
ATOM      5  H   UNL A   1      38.354  23.133  23.878  1.00  0.00     0.163 HD
BRANCH   3   6
ATOM      6  C   UNL A   1      34.997  23.177  24.267  1.00  0.00     0.108 C 
ATOM      7  C   UNL A   1      34.054  22.036  23.865  1.00  0.00     0.023 C 
BRANCH   6   8
ATOM      8  C   UNL A   1      34.340  24.520  23.991  1.00  0.00    -0.000 A 
ATOM      9  C   UNL A   1      33.753  24.781  22.744  1.00  0.00     0.008 A 
ATOM     10  C   UNL A   1      34.323  25.537  24.952  1.00  0.00     0.127 A 
ATOM     11  C   UNL A   1      33.232  26.045  22.454  1.00  0.00     0.004 A 
ATOM     12  C   UNL A   1      33.820  26.801  24.662  1.00  0.00     0.043 A 
ATOM     13  F   UNL A   1      34.839  25.324  26.171  1.00  0.00    -0.207 F 
ATOM     14  C   UNL A   1      33.304  27.082  23.392  1.00  0.00    -0.045 A 
BRANCH  14  15
ATOM     15  C   UNL A   1      32.876  28.485  23.048  1.00  0.00     0.041 C 
BRANCH  15  16
ATOM     16  C   UNL A   1      31.566  29.015  23.677  1.00  0.00     0.022 C 
ATOM     17  C   UNL A   1      30.832  28.012  24.575  1.00  0.00     0.007 C 
ATOM     18  C   UNL A   1      30.456  29.481  22.728  1.00  0.00     0.117 C 
ATOM     19  C   UNL A   1      29.692  27.423  23.740  1.00  0.00     0.003 C 
ATOM     20  C   UNL A   1      29.626  28.235  22.451  1.00  0.00     0.032 C 
BRANCH  18  21
ATOM     21  O   UNL A   1      30.925  30.080  21.539  1.00  0.00    -0.393 OA
ATOM     22  H   UNL A   1      30.451  30.912  21.387  1.00  0.00     0.210 HD
ENDBRANCH  18  21
ENDBRANCH  15  16
ENDBRANCH  14  15
ENDBRANCH   6   8
ENDBRANCH   3   6
ENDBRANCH   1   2
BRANCH   1  23
ATOM     23  C   UNL A   1      38.739  22.568  26.423  1.00  0.00     0.042 C 
BRANCH  23  24
ATOM     24  C   UNL A   1      39.875  23.328  27.103  1.00  0.00     0.118 C 
BRANCH  24  25
ATOM     25  N   UNL A   1      40.812  23.911  26.155  1.00  0.00    -0.352 N 
ATOM     26  C   UNL A   1      41.353  25.168  26.094  1.00  0.00     0.251 C 
ATOM     27  H   UNL A   1      41.105  23.301  25.440  1.00  0.00     0.163 HD
ATOM     28  O   UNL A   1      41.995  25.486  25.092  1.00  0.00    -0.269 OA
BRANCH  26  29
ATOM     29  C   UNL A   1      41.165  26.149  27.188  1.00  0.00     0.039 A 
ATOM     30  C   UNL A   1      40.134  25.927  28.107  1.00  0.00     0.014 A 
ATOM     31  C   UNL A   1      41.947  27.303  27.293  1.00  0.00     0.014 A 
ATOM     32  C   UNL A   1      39.924  26.827  29.154  1.00  0.00     0.010 A 
ATOM     33  C   UNL A   1      41.780  28.168  28.377  1.00  0.00     0.010 A 
ATOM     34  C   UNL A   1      40.766  27.940  29.317  1.00  0.00    -0.014 A 
BRANCH  34  35
ATOM     35  C   UNL A   1      40.597  28.849  30.482  1.00  0.00     0.031 A 
ATOM     36  C   UNL A   1      41.456  28.701  31.709  1.00  0.00     0.074 A 
ATOM     37  C   UNL A   1      39.637  29.796  30.443  1.00  0.00     0.049 A 
ATOM     38  N   UNL A   1      41.447  29.406  32.812  1.00  0.00    -0.248 NA
ATOM     39  C   UNL A   1      42.439  27.607  31.706  1.00  0.00     0.031 C 
ATOM     40  C   UNL A   1      38.699  30.000  29.337  1.00  0.00     0.029 A 
ATOM     41  N   UNL A   1      39.290  30.760  31.353  1.00  0.00    -0.354 N 
ATOM     42  C   UNL A   1      42.418  28.845  33.633  1.00  0.00     0.074 A 
ATOM     43  C   UNL A   1      42.961  27.706  32.921  1.00  0.00     0.031 C 
ATOM     44  C   UNL A   1      37.900  31.040  29.624  1.00  0.00     0.029 A 
ATOM     45  C   UNL A   1      38.250  31.559  30.942  1.00  0.00     0.049 A 
ATOM     46  H   UNL A   1      39.744  30.871  32.220  1.00  0.00     0.167 HD
ATOM     47  C   UNL A   1      42.836  29.254  34.855  1.00  0.00     0.037 A 
ATOM     48  C   UNL A   1      37.646  32.595  31.555  1.00  0.00     0.037 A 
ATOM     49  C   UNL A   1      42.304  30.395  35.554  1.00  0.00     0.049 A 
ATOM     50  C   UNL A   1      38.141  33.043  32.901  1.00  0.00     0.074 A 
ATOM     51  C   UNL A   1      42.693  30.917  36.777  1.00  0.00     0.029 A 
ATOM     52  N   UNL A   1      41.266  31.194  35.094  1.00  0.00    -0.354 N 
ATOM     53  N   UNL A   1      39.104  32.537  33.635  1.00  0.00    -0.248 NA
ATOM     54  C   UNL A   1      37.480  34.212  33.497  1.00  0.00     0.031 C 
ATOM     55  C   UNL A   1      41.869  32.010  37.070  1.00  0.00     0.029 A 
ATOM     56  C   UNL A   1      40.994  32.195  36.014  1.00  0.00     0.049 A 
ATOM     57  H   UNL A   1      40.793  31.068  34.240  1.00  0.00     0.167 HD
ATOM     58  C   UNL A   1      39.170  33.330  34.773  1.00  0.00     0.074 A 
ATOM     59  C   UNL A   1      38.168  34.366  34.619  1.00  0.00     0.031 C 
ATOM     60  C   UNL A   1      39.984  33.212  35.852  1.00  0.00     0.037 A 
BRANCH  47  61
ATOM     61  C   UNL A   1      43.937  28.467  35.511  1.00  0.00     0.058 A 
ATOM     62  C   UNL A   1      45.289  28.775  35.290  1.00  0.00     0.135 A 
ATOM     63  C   UNL A   1      43.643  27.419  36.399  1.00  0.00     0.135 A 
ATOM     64  F   UNL A   1      45.628  29.757  34.441  1.00  0.00    -0.206 F 
ATOM     65  C   UNL A   1      46.311  28.058  35.904  1.00  0.00     0.059 A 
ATOM     66  C   UNL A   1      44.648  26.704  37.045  1.00  0.00     0.059 A 
ATOM     67  F   UNL A   1      42.367  27.082  36.648  1.00  0.00    -0.206 F 
ATOM     68  C   UNL A   1      45.980  27.022  36.780  1.00  0.00     0.060 A 
BRANCH  68  69
ATOM     69  S   UNL A   1      47.316  26.105  37.575  1.00  0.00     0.124 S 
ATOM     70  O   UNL A   1      46.572  25.236  38.484  1.00  0.00    -0.237 OA
ATOM     71  O   UNL A   1      47.955  25.436  36.445  1.00  0.00    -0.237 OA
ATOM     72  O   UNL A   1      48.112  27.146  38.214  1.00  0.00    -0.744 OA
ENDBRANCH  68  69
ENDBRANCH  47  61
BRANCH  48  73
ATOM     73  C   UNL A   1      36.518  33.293  30.884  1.00  0.00     0.058 A 
ATOM     74  C   UNL A   1      35.198  33.125  31.325  1.00  0.00     0.135 A 
ATOM     75  C   UNL A   1      36.742  34.158  29.802  1.00  0.00     0.135 A 
ATOM     76  F   UNL A   1      34.933  32.304  32.353  1.00  0.00    -0.206 F 
ATOM     77  C   UNL A   1      34.136  33.779  30.709  1.00  0.00     0.059 A 
ATOM     78  C   UNL A   1      35.699  34.840  29.184  1.00  0.00     0.059 A 
ATOM     79  F   UNL A   1      37.990  34.366  29.355  1.00  0.00    -0.206 F 
ATOM     80  C   UNL A   1      34.397  34.637  29.639  1.00  0.00     0.060 A 
BRANCH  80  81
ATOM     81  S   UNL A   1      33.020  35.526  28.882  1.00  0.00     0.124 S 
ATOM     82  O   UNL A   1      32.391  34.474  28.092  1.00  0.00    -0.237 OA
ATOM     83  O   UNL A   1      32.270  35.985  30.046  1.00  0.00    -0.237 OA
ATOM     84  O   UNL A   1      33.683  36.580  28.119  1.00  0.00    -0.744 OA
ENDBRANCH  80  81
ENDBRANCH  48  73
BRANCH  60  85
ATOM     85  C   UNL A   1      39.826  34.234  36.942  1.00  0.00     0.058 A 
ATOM     86  C   UNL A   1      40.440  35.494  36.861  1.00  0.00     0.135 A 
ATOM     87  C   UNL A   1      39.044  33.957  38.074  1.00  0.00     0.135 A 
ATOM     88  F   UNL A   1      41.204  35.806  35.801  1.00  0.00    -0.206 F 
ATOM     89  C   UNL A   1      40.317  36.431  37.882  1.00  0.00     0.059 A 
ATOM     90  C   UNL A   1      38.885  34.888  39.096  1.00  0.00     0.059 A 
ATOM     91  F   UNL A   1      38.425  32.773  38.196  1.00  0.00    -0.206 F 
ATOM     92  C   UNL A   1      39.541  36.116  38.999  1.00  0.00     0.060 A 
BRANCH  92  93
ATOM     93  S   UNL A   1      39.385  37.336  40.320  1.00  0.00     0.124 S 
ATOM     94  O   UNL A   1      38.625  38.390  39.657  1.00  0.00    -0.237 OA
ATOM     95  O   UNL A   1      38.668  36.593  41.353  1.00  0.00    -0.237 OA
ATOM     96  O   UNL A   1      40.770  37.666  40.642  1.00  0.00    -0.744 OA
ENDBRANCH  92  93
ENDBRANCH  60  85
ENDBRANCH  34  35
ENDBRANCH  26  29
ENDBRANCH  24  25
ENDBRANCH  23  24
ENDBRANCH   1  23
TORSDOF 17
ENDMDL
MODEL 2
REMARK VINA RESULT:     -12.3      4.519      6.931
REMARK SMILES C[C@@H](C(=O)NCCCNC(=O)c1ccc(-c2c3nc(c(-c4c(F)cc(S(=O)(=O)[O-])cc4F)c4ccc([nH]4)c(-c4c(F)cc(S(=O)(=O)[O-])cc4F)c4nc(c(-c5c(F)cc(S(=O)(=O)[O-])cc5F)c5ccc2[nH]5)C=C4)C=C3)cc1)c1ccc(C[C@@H]2CCC[C@@H]2O)cc1F
REMARK SMILES IDX 6 1 5 2 3 3 4 4 2 6 1 7 78 8 79 9 90 10 80 11 89 12 91 13
REMARK SMILES IDX 81 14 82 15 83 16 84 17 87 18 85 19 86 20 88 21 7 23 8 24
REMARK SMILES IDX 9 25 10 26 11 28 12 29 13 30 77 31 14 32 76 33 15 34 16 35
REMARK SMILES IDX 17 36 70 37 18 38 75 39 69 40 71 41 19 42 74 43 68 44 67 45
REMARK SMILES IDX 20 47 54 48 33 49 53 50 34 51 37 52 52 53 72 54 35 55 36 56
REMARK SMILES IDX 51 58 73 59 38 60 21 61 22 62 31 63 23 64 24 65 30 66 32 67
REMARK SMILES IDX 25 68 26 69 27 70 28 71 29 72 55 73 56 74 65 75 57 76 58 77
REMARK SMILES IDX 64 78 66 79 59 80 60 81 61 82 62 83 63 84 39 85 40 86 49 87
REMARK SMILES IDX 41 88 42 89 48 90 50 91 43 92 44 93 45 94 46 95 47 96
REMARK H PARENT 5 5 88 22 9 27 71 46 37 57
REMARK Flexibility Score: inf
ROOT
ATOM      1  C   UNL A   1      43.481  21.715  26.002  1.00  0.00     0.117 C 
ENDROOT
BRANCH   1   2
ATOM      2  N   UNL A   1      44.144  22.295  27.154  1.00  0.00    -0.356 N 
ATOM      3  C   UNL A   1      44.990  23.362  27.248  1.00  0.00     0.227 C 
ATOM      4  O   UNL A   1      45.374  23.661  28.382  1.00  0.00    -0.274 OA
ATOM      5  H   UNL A   1      43.951  21.846  28.008  1.00  0.00     0.163 HD
BRANCH   3   6
ATOM      6  C   UNL A   1      45.360  24.165  25.993  1.00  0.00     0.108 C 
ATOM      7  C   UNL A   1      46.830  24.000  25.590  1.00  0.00     0.023 C 
BRANCH   6   8
ATOM      8  C   UNL A   1      45.018  25.641  26.132  1.00  0.00    -0.000 A 
ATOM      9  C   UNL A   1      45.842  26.493  26.880  1.00  0.00     0.008 A 
ATOM     10  C   UNL A   1      43.868  26.183  25.547  1.00  0.00     0.127 A 
ATOM     11  C   UNL A   1      45.483  27.827  27.089  1.00  0.00     0.004 A 
ATOM     12  C   UNL A   1      43.498  27.505  25.765  1.00  0.00     0.043 A 
ATOM     13  F   UNL A   1      43.067  25.416  24.792  1.00  0.00    -0.207 F 
ATOM     14  C   UNL A   1      44.283  28.335  26.575  1.00  0.00    -0.045 A 
BRANCH  14  15
ATOM     15  C   UNL A   1      43.811  29.727  26.906  1.00  0.00     0.041 C 
BRANCH  15  16
ATOM     16  C   UNL A   1      44.821  30.693  27.567  1.00  0.00     0.022 C 
ATOM     17  C   UNL A   1      44.192  31.762  28.470  1.00  0.00     0.007 C 
ATOM     18  C   UNL A   1      45.720  31.527  26.647  1.00  0.00     0.117 C 
ATOM     19  C   UNL A   1      44.140  33.056  27.653  1.00  0.00     0.003 C 
ATOM     20  C   UNL A   1      44.931  32.800  26.374  1.00  0.00     0.032 C 
BRANCH  18  21
ATOM     21  O   UNL A   1      46.095  30.870  25.456  1.00  0.00    -0.393 OA
ATOM     22  H   UNL A   1      45.502  31.141  24.737  1.00  0.00     0.210 HD
ENDBRANCH  18  21
ENDBRANCH  15  16
ENDBRANCH  14  15
ENDBRANCH   6   8
ENDBRANCH   3   6
ENDBRANCH   1   2
BRANCH   1  23
ATOM     23  C   UNL A   1      42.138  22.383  25.712  1.00  0.00     0.042 C 
BRANCH  23  24
ATOM     24  C   UNL A   1      40.970  21.853  26.541  1.00  0.00     0.118 C 
BRANCH  24  25
ATOM     25  N   UNL A   1      39.677  22.141  25.941  1.00  0.00    -0.352 N 
ATOM     26  C   UNL A   1      38.852  23.226  26.076  1.00  0.00     0.251 C 
ATOM     27  H   UNL A   1      39.338  21.439  25.338  1.00  0.00     0.163 HD
ATOM     28  O   UNL A   1      37.717  23.168  25.600  1.00  0.00    -0.269 OA
BRANCH  26  29
ATOM     29  C   UNL A   1      39.286  24.446  26.795  1.00  0.00     0.039 A 
ATOM     30  C   UNL A   1      38.907  24.599  28.132  1.00  0.00     0.014 A 
ATOM     31  C   UNL A   1      40.010  25.462  26.161  1.00  0.00     0.014 A 
ATOM     32  C   UNL A   1      39.297  25.734  28.845  1.00  0.00     0.010 A 
ATOM     33  C   UNL A   1      40.456  26.565  26.893  1.00  0.00     0.010 A 
ATOM     34  C   UNL A   1      40.102  26.714  28.240  1.00  0.00    -0.014 A 
BRANCH  34  35
ATOM     35  C   UNL A   1      40.589  27.879  29.026  1.00  0.00     0.031 A 
ATOM     36  C   UNL A   1      41.973  27.887  29.619  1.00  0.00     0.074 A 
ATOM     37  C   UNL A   1      39.764  28.925  29.230  1.00  0.00     0.049 A 
ATOM     38  N   UNL A   1      42.561  28.818  30.328  1.00  0.00    -0.248 NA
ATOM     39  C   UNL A   1      42.795  26.685  29.409  1.00  0.00     0.031 C 
ATOM     40  C   UNL A   1      38.379  29.012  28.761  1.00  0.00     0.029 A 
ATOM     41  N   UNL A   1      39.965  30.113  29.886  1.00  0.00    -0.354 N 
ATOM     42  C   UNL A   1      43.817  28.318  30.647  1.00  0.00     0.074 A 
ATOM     43  C   UNL A   1      43.888  26.979  30.100  1.00  0.00     0.031 C 
ATOM     44  C   UNL A   1      37.864  30.198  29.122  1.00  0.00     0.029 A 
ATOM     45  C   UNL A   1      38.870  30.944  29.870  1.00  0.00     0.049 A 
ATOM     46  H   UNL A   1      40.813  30.348  30.326  1.00  0.00     0.167 HD
ATOM     47  C   UNL A   1      44.829  28.927  31.313  1.00  0.00     0.037 A 
ATOM     48  C   UNL A   1      38.695  32.171  30.398  1.00  0.00     0.037 A 
ATOM     49  C   UNL A   1      44.761  30.264  31.844  1.00  0.00     0.049 A 
ATOM     50  C   UNL A   1      39.838  32.834  31.113  1.00  0.00     0.074 A 
ATOM     51  C   UNL A   1      45.749  30.986  32.494  1.00  0.00     0.029 A 
ATOM     52  N   UNL A   1      43.643  31.084  31.788  1.00  0.00    -0.354 N 
ATOM     53  N   UNL A   1      41.041  32.369  31.351  1.00  0.00    -0.248 NA
ATOM     54  C   UNL A   1      39.606  34.193  31.619  1.00  0.00     0.031 C 
ATOM     55  C   UNL A   1      45.217  32.228  32.859  1.00  0.00     0.029 A 
ATOM     56  C   UNL A   1      43.912  32.297  32.402  1.00  0.00     0.049 A 
ATOM     57  H   UNL A   1      42.784  30.840  31.372  1.00  0.00     0.167 HD
ATOM     58  C   UNL A   1      41.713  33.382  32.025  1.00  0.00     0.074 A 
ATOM     59  C   UNL A   1      40.790  34.494  32.134  1.00  0.00     0.031 C 
ATOM     60  C   UNL A   1      42.978  33.391  32.514  1.00  0.00     0.037 A 
BRANCH  47  61
ATOM     61  C   UNL A   1      46.106  28.153  31.493  1.00  0.00     0.058 A 
ATOM     62  C   UNL A   1      47.170  28.276  30.585  1.00  0.00     0.135 A 
ATOM     63  C   UNL A   1      46.287  27.310  32.601  1.00  0.00     0.135 A 
ATOM     64  F   UNL A   1      47.047  29.058  29.501  1.00  0.00    -0.206 F 
ATOM     65  C   UNL A   1      48.359  27.573  30.754  1.00  0.00     0.059 A 
ATOM     66  C   UNL A   1      47.476  26.614  32.804  1.00  0.00     0.059 A 
ATOM     67  F   UNL A   1      45.303  27.155  33.500  1.00  0.00    -0.206 F 
ATOM     68  C   UNL A   1      48.501  26.742  31.867  1.00  0.00     0.060 A 
BRANCH  68  69
ATOM     69  S   UNL A   1      50.051  25.840  32.077  1.00  0.00     0.124 S 
ATOM     70  O   UNL A   1      50.766  26.705  33.013  1.00  0.00    -0.237 OA
ATOM     71  O   UNL A   1      49.600  24.561  32.618  1.00  0.00    -0.237 OA
ATOM     72  O   UNL A   1      50.601  25.786  30.727  1.00  0.00    -0.744 OA
ENDBRANCH  68  69
ENDBRANCH  47  61
BRANCH  48  73
ATOM     73  C   UNL A   1      37.386  32.860  30.244  1.00  0.00     0.058 A 
ATOM     74  C   UNL A   1      37.132  33.691  29.144  1.00  0.00     0.135 A 
ATOM     75  C   UNL A   1      36.360  32.684  31.184  1.00  0.00     0.135 A 
ATOM     76  F   UNL A   1      38.084  33.894  28.221  1.00  0.00    -0.206 F 
ATOM     77  C   UNL A   1      35.909  34.335  28.986  1.00  0.00     0.059 A 
ATOM     78  C   UNL A   1      35.121  33.299  31.036  1.00  0.00     0.059 A 
ATOM     79  F   UNL A   1      36.549  31.884  32.245  1.00  0.00    -0.206 F 
ATOM     80  C   UNL A   1      34.908  34.132  29.938  1.00  0.00     0.060 A 
BRANCH  80  81
ATOM     81  S   UNL A   1      33.304  34.925  29.697  1.00  0.00     0.124 S 
ATOM     82  O   UNL A   1      32.768  34.922  31.053  1.00  0.00    -0.237 OA
ATOM     83  O   UNL A   1      33.681  36.230  29.163  1.00  0.00    -0.237 OA
ATOM     84  O   UNL A   1      32.634  34.041  28.749  1.00  0.00    -0.744 OA
ENDBRANCH  80  81
ENDBRANCH  48  73
BRANCH  60  85
ATOM     85  C   UNL A   1      43.435  34.646  33.202  1.00  0.00     0.058 A 
ATOM     86  C   UNL A   1      43.306  34.810  34.591  1.00  0.00     0.135 A 
ATOM     87  C   UNL A   1      44.017  35.692  32.469  1.00  0.00     0.135 A 
ATOM     88  F   UNL A   1      42.751  33.841  35.336  1.00  0.00    -0.206 F 
ATOM     89  C   UNL A   1      43.703  35.983  35.224  1.00  0.00     0.059 A 
ATOM     90  C   UNL A   1      44.445  36.864  33.085  1.00  0.00     0.059 A 
ATOM     91  F   UNL A   1      44.174  35.582  31.141  1.00  0.00    -0.206 F 
ATOM     92  C   UNL A   1      44.267  37.007  34.462  1.00  0.00     0.060 A 
BRANCH  92  93
ATOM     93  S   UNL A   1      44.780  38.526  35.291  1.00  0.00     0.124 S 
ATOM     94  O   UNL A   1      46.214  38.307  35.442  1.00  0.00    -0.237 OA
ATOM     95  O   UNL A   1      44.395  39.556  34.329  1.00  0.00    -0.237 OA
ATOM     96  O   UNL A   1      44.007  38.515  36.529  1.00  0.00    -0.744 OA
ENDBRANCH  92  93
ENDBRANCH  60  85
ENDBRANCH  34  35
ENDBRANCH  26  29
ENDBRANCH  24  25
ENDBRANCH  23  24
ENDBRANCH   1  23
TORSDOF 17
ENDMDL
MODEL 3
REMARK VINA RESULT:     -12.1      6.705     12.297
REMARK SMILES C[C@@H](C(=O)NCCCNC(=O)c1ccc(-c2c3nc(c(-c4c(F)cc(S(=O)(=O)[O-])cc4F)c4ccc([nH]4)c(-c4c(F)cc(S(=O)(=O)[O-])cc4F)c4nc(c(-c5c(F)cc(S(=O)(=O)[O-])cc5F)c5ccc2[nH]5)C=C4)C=C3)cc1)c1ccc(C[C@@H]2CCC[C@@H]2O)cc1F
REMARK SMILES IDX 6 1 5 2 3 3 4 4 2 6 1 7 78 8 79 9 90 10 80 11 89 12 91 13
REMARK SMILES IDX 81 14 82 15 83 16 84 17 87 18 85 19 86 20 88 21 7 23 8 24
REMARK SMILES IDX 9 25 10 26 11 28 12 29 13 30 77 31 14 32 76 33 15 34 16 35
REMARK SMILES IDX 17 36 70 37 18 38 75 39 69 40 71 41 19 42 74 43 68 44 67 45
REMARK SMILES IDX 20 47 54 48 33 49 53 50 34 51 37 52 52 53 72 54 35 55 36 56
REMARK SMILES IDX 51 58 73 59 38 60 21 61 22 62 31 63 23 64 24 65 30 66 32 67
REMARK SMILES IDX 25 68 26 69 27 70 28 71 29 72 55 73 56 74 65 75 57 76 58 77
REMARK SMILES IDX 64 78 66 79 59 80 60 81 61 82 62 83 63 84 39 85 40 86 49 87
REMARK SMILES IDX 41 88 42 89 48 90 50 91 43 92 44 93 45 94 46 95 47 96
REMARK H PARENT 5 5 88 22 9 27 71 46 37 57
REMARK Flexibility Score: inf
ROOT
ATOM      1  C   UNL A   1      34.260  29.281  27.254  1.00  0.00     0.117 C 
ENDROOT
BRANCH   1   2
ATOM      2  N   UNL A   1      32.953  28.882  27.742  1.00  0.00    -0.356 N 
ATOM      3  C   UNL A   1      32.023  28.041  27.203  1.00  0.00     0.227 C 
ATOM      4  O   UNL A   1      31.003  27.850  27.870  1.00  0.00    -0.274 OA
ATOM      5  H   UNL A   1      32.696  29.282  28.603  1.00  0.00     0.163 HD
BRANCH   3   6
ATOM      6  C   UNL A   1      32.304  27.334  25.870  1.00  0.00     0.108 C 
ATOM      7  C   UNL A   1      31.060  27.216  24.981  1.00  0.00     0.023 C 
BRANCH   6   8
ATOM      8  C   UNL A   1      32.939  25.965  26.066  1.00  0.00    -0.000 A 
ATOM      9  C   UNL A   1      34.290  25.758  25.754  1.00  0.00     0.008 A 
ATOM     10  C   UNL A   1      32.196  24.876  26.534  1.00  0.00     0.127 A 
ATOM     11  C   UNL A   1      34.852  24.482  25.842  1.00  0.00     0.004 A 
ATOM     12  C   UNL A   1      32.747  23.601  26.608  1.00  0.00     0.043 A 
ATOM     13  F   UNL A   1      30.910  25.032  26.880  1.00  0.00    -0.207 F 
ATOM     14  C   UNL A   1      34.075  23.382  26.224  1.00  0.00    -0.045 A 
BRANCH  14  15
ATOM     15  C   UNL A   1      34.626  21.979  26.190  1.00  0.00     0.041 C 
BRANCH  15  16
ATOM     16  C   UNL A   1      34.443  21.162  24.890  1.00  0.00     0.022 C 
ATOM     17  C   UNL A   1      34.053  21.991  23.660  1.00  0.00     0.007 C 
ATOM     18  C   UNL A   1      33.386  20.051  24.887  1.00  0.00     0.117 C 
ATOM     19  C   UNL A   1      32.543  21.822  23.473  1.00  0.00     0.003 C 
ATOM     20  C   UNL A   1      32.099  20.734  24.445  1.00  0.00     0.032 C 
BRANCH  18  21
ATOM     21  O   UNL A   1      33.238  19.392  26.126  1.00  0.00    -0.393 OA
ATOM     22  H   UNL A   1      32.911  20.020  26.789  1.00  0.00     0.210 HD
ENDBRANCH  18  21
ENDBRANCH  15  16
ENDBRANCH  14  15
ENDBRANCH   6   8
ENDBRANCH   3   6
ENDBRANCH   1   2
BRANCH   1  23
ATOM     23  C   UNL A   1      34.441  30.798  27.266  1.00  0.00     0.042 C 
BRANCH  23  24
ATOM     24  C   UNL A   1      35.599  31.295  28.128  1.00  0.00     0.118 C 
BRANCH  24  25
ATOM     25  N   UNL A   1      35.516  30.833  29.505  1.00  0.00    -0.352 N 
ATOM     26  C   UNL A   1      36.405  30.114  30.260  1.00  0.00     0.251 C 
ATOM     27  H   UNL A   1      34.683  31.078  29.971  1.00  0.00     0.163 HD
ATOM     28  O   UNL A   1      36.040  29.689  31.357  1.00  0.00    -0.269 OA
BRANCH  26  29
ATOM     29  C   UNL A   1      37.776  29.824  29.778  1.00  0.00     0.039 A 
ATOM     30  C   UNL A   1      38.792  29.668  30.726  1.00  0.00     0.014 A 
ATOM     31  C   UNL A   1      38.085  29.758  28.416  1.00  0.00     0.014 A 
ATOM     32  C   UNL A   1      40.097  29.392  30.314  1.00  0.00     0.010 A 
ATOM     33  C   UNL A   1      39.376  29.418  28.007  1.00  0.00     0.010 A 
ATOM     34  C   UNL A   1      40.396  29.234  28.950  1.00  0.00    -0.014 A 
BRANCH  34  35
ATOM     35  C   UNL A   1      41.767  28.854  28.519  1.00  0.00     0.031 A 
ATOM     36  C   UNL A   1      42.866  29.879  28.443  1.00  0.00     0.074 A 
ATOM     37  C   UNL A   1      42.013  27.576  28.163  1.00  0.00     0.049 A 
ATOM     38  N   UNL A   1      44.117  29.722  28.092  1.00  0.00    -0.248 NA
ATOM     39  C   UNL A   1      42.509  31.265  28.785  1.00  0.00     0.031 C 
ATOM     40  C   UNL A   1      41.018  26.502  28.134  1.00  0.00     0.029 A 
ATOM     41  N   UNL A   1      43.171  26.965  27.757  1.00  0.00    -0.354 N 
ATOM     42  C   UNL A   1      44.697  30.983  28.170  1.00  0.00     0.074 A 
ATOM     43  C   UNL A   1      43.647  31.904  28.551  1.00  0.00     0.031 C 
ATOM     44  C   UNL A   1      41.614  25.360  27.755  1.00  0.00     0.029 A 
ATOM     45  C   UNL A   1      43.024  25.625  27.490  1.00  0.00     0.049 A 
ATOM     46  H   UNL A   1      44.028  27.441  27.666  1.00  0.00     0.167 HD
ATOM     47  C   UNL A   1      45.989  31.337  27.968  1.00  0.00     0.037 A 
ATOM     48  C   UNL A   1      43.922  24.709  27.078  1.00  0.00     0.037 A 
ATOM     49  C   UNL A   1      47.035  30.416  27.602  1.00  0.00     0.049 A 
ATOM     50  C   UNL A   1      45.354  25.122  26.881  1.00  0.00     0.074 A 
ATOM     51  C   UNL A   1      48.384  30.670  27.419  1.00  0.00     0.029 A 
ATOM     52  N   UNL A   1      46.850  29.062  27.363  1.00  0.00    -0.354 N 
ATOM     53  N   UNL A   1      45.896  26.308  27.021  1.00  0.00    -0.248 NA
ATOM     54  C   UNL A   1      46.299  24.069  26.484  1.00  0.00     0.031 C 
ATOM     55  C   UNL A   1      49.008  29.477  27.037  1.00  0.00     0.029 A 
ATOM     56  C   UNL A   1      48.058  28.471  27.021  1.00  0.00     0.049 A 
ATOM     57  H   UNL A   1      45.989  28.590  27.427  1.00  0.00     0.167 HD
ATOM     58  C   UNL A   1      47.246  26.143  26.740  1.00  0.00     0.074 A 
ATOM     59  C   UNL A   1      47.443  24.737  26.447  1.00  0.00     0.031 C 
ATOM     60  C   UNL A   1      48.235  27.072  26.721  1.00  0.00     0.037 A 
BRANCH  47  61
ATOM     61  C   UNL A   1      46.349  32.786  28.152  1.00  0.00     0.058 A 
ATOM     62  C   UNL A   1      46.185  33.718  27.115  1.00  0.00     0.135 A 
ATOM     63  C   UNL A   1      46.826  33.258  29.385  1.00  0.00     0.135 A 
ATOM     64  F   UNL A   1      45.745  33.320  25.911  1.00  0.00    -0.206 F 
ATOM     65  C   UNL A   1      46.504  35.062  27.284  1.00  0.00     0.059 A 
ATOM     66  C   UNL A   1      47.129  34.603  29.586  1.00  0.00     0.059 A 
ATOM     67  F   UNL A   1      47.002  32.411  30.411  1.00  0.00    -0.206 F 
ATOM     68  C   UNL A   1      46.978  35.494  28.524  1.00  0.00     0.060 A 
BRANCH  68  69
ATOM     69  S   UNL A   1      47.382  37.242  28.732  1.00  0.00     0.124 S 
ATOM     70  O   UNL A   1      46.450  37.632  29.786  1.00  0.00    -0.237 OA
ATOM     71  O   UNL A   1      48.789  37.195  29.119  1.00  0.00    -0.237 OA
ATOM     72  O   UNL A   1      47.116  37.812  27.416  1.00  0.00    -0.744 OA
ENDBRANCH  68  69
ENDBRANCH  47  61
BRANCH  48  73
ATOM     73  C   UNL A   1      43.492  23.305  26.850  1.00  0.00     0.058 A 
ATOM     74  C   UNL A   1      43.389  22.782  25.553  1.00  0.00     0.135 A 
ATOM     75  C   UNL A   1      43.197  22.453  27.925  1.00  0.00     0.135 A 
ATOM     76  F   UNL A   1      43.656  23.559  24.493  1.00  0.00    -0.206 F 
ATOM     77  C   UNL A   1      42.994  21.467  25.328  1.00  0.00     0.059 A 
ATOM     78  C   UNL A   1      42.823  21.128  27.727  1.00  0.00     0.059 A 
ATOM     79  F   UNL A   1      43.299  22.902  29.186  1.00  0.00    -0.206 F 
ATOM     80  C   UNL A   1      42.715  20.647  26.423  1.00  0.00     0.060 A 
BRANCH  80  81
ATOM     81  S   UNL A   1      42.260  18.925  26.125  1.00  0.00     0.124 S 
ATOM     82  O   UNL A   1      42.521  18.323  27.427  1.00  0.00    -0.237 OA
ATOM     83  O   UNL A   1      40.856  19.037  25.744  1.00  0.00    -0.237 OA
ATOM     84  O   UNL A   1      43.161  18.523  25.049  1.00  0.00    -0.744 OA
ENDBRANCH  80  81
ENDBRANCH  48  73
BRANCH  60  85
ATOM     85  C   UNL A   1      49.618  26.589  26.380  1.00  0.00     0.058 A 
ATOM     86  C   UNL A   1      50.437  25.973  27.340  1.00  0.00     0.135 A 
ATOM     87  C   UNL A   1      50.125  26.735  25.080  1.00  0.00     0.135 A 
ATOM     88  F   UNL A   1      50.000  25.816  28.600  1.00  0.00    -0.206 F 
ATOM     89  C   UNL A   1      51.726  25.552  27.033  1.00  0.00     0.059 A 
ATOM     90  C   UNL A   1      51.402  26.297  24.743  1.00  0.00     0.059 A 
ATOM     91  F   UNL A   1      49.379  27.306  24.122  1.00  0.00    -0.206 F 
ATOM     92  C   UNL A   1      52.203  25.723  25.732  1.00  0.00     0.060 A 
BRANCH  92  93
ATOM     93  S   UNL A   1      53.877  25.174  25.340  1.00  0.00     0.124 S 
ATOM     94  O   UNL A   1      53.975  25.520  23.926  1.00  0.00    -0.237 OA
ATOM     95  O   UNL A   1      54.693  25.977  26.247  1.00  0.00    -0.237 OA
ATOM     96  O   UNL A   1      53.844  23.745  25.637  1.00  0.00    -0.744 OA
ENDBRANCH  92  93
ENDBRANCH  60  85
ENDBRANCH  34  35
ENDBRANCH  26  29
ENDBRANCH  24  25
ENDBRANCH  23  24
ENDBRANCH   1  23
TORSDOF 17
ENDMDL
