MODEL 1
REMARK VINA RESULT:     -11.7      0.000      0.000
REMARK SMILES CN(C)C(=O)c1ccc(N[C@@H]2CCC[C@H]2C(=O)NCCCNC(=O)c2ccc(-c3c4nc(c(-c5c(F)cc(S(=O)(=O)[O-])cc5F)c5ccc([nH]5)c(-c5c(F)cc(S(=O)(=O)[O-])cc5F)c5nc(c(-c6c(F)cc(S(=O)(=O)[O-])cc6F)c6ccc3[nH]6)C=C5)C=C4)cc2)nc1
REMARK SMILES IDX 20 1 19 2 18 3 16 4 17 5 15 7 11 8 12 9 13 10 14 11 10 12
REMARK SMILES IDX 9 14 6 15 7 16 92 17 8 18 91 19 4 20 1 21 2 22 3 23 5 24
REMARK SMILES IDX 21 25 22 26 23 27 24 29 25 30 26 31 90 32 27 33 89 34 28 35
REMARK SMILES IDX 29 36 30 37 83 38 31 39 88 40 82 41 84 42 32 43 87 44 81 45
REMARK SMILES IDX 80 46 33 48 67 49 46 50 66 51 47 52 50 53 65 54 85 55 48 56
REMARK SMILES IDX 49 57 64 59 86 60 51 61 34 62 35 63 44 64 36 65 37 66 43 67
REMARK SMILES IDX 45 68 38 69 39 70 40 71 41 72 42 73 68 74 69 75 78 76 70 77
REMARK SMILES IDX 71 78 77 79 79 80 72 81 73 82 74 83 75 84 76 85 52 86 53 87
REMARK SMILES IDX 62 88 54 89 55 90 61 91 63 92 56 93 57 94 58 95 59 96 60 97
REMARK H PARENT 18 6 10 13 22 28 84 47 50 58
REMARK Flexibility Score: inf
ROOT
ATOM      1  C   UNL A   1      34.054  27.933  25.907  1.00  0.00     0.042 C 
ENDROOT
BRANCH   1   2
ATOM      2  C   UNL A   1      33.212  28.339  24.705  1.00  0.00     0.117 C 
BRANCH   2   3
ATOM      3  N   UNL A   1      33.666  27.694  23.488  1.00  0.00    -0.356 N 
ATOM      4  C   UNL A   1      32.990  27.100  22.473  1.00  0.00     0.225 C 
ATOM      5  O   UNL A   1      33.676  26.610  21.571  1.00  0.00    -0.275 OA
ATOM      6  H   UNL A   1      34.644  27.686  23.378  1.00  0.00     0.163 HD
BRANCH   4   7
ATOM      7  C   UNL A   1      31.475  27.046  22.407  1.00  0.00     0.101 C 
ATOM      8  C   UNL A   1      30.810  26.328  23.585  1.00  0.00     0.093 C 
ATOM      9  C   UNL A   1      29.417  26.944  23.689  1.00  0.00     0.026 C 
ATOM     10  C   UNL A   1      29.610  28.395  23.273  1.00  0.00     0.003 C 
ATOM     11  C   UNL A   1      30.799  28.420  22.313  1.00  0.00     0.016 C 
BRANCH   8  12
ATOM     12  N   UNL A   1      30.801  24.874  23.501  1.00  0.00    -0.367 N 
ATOM     13  H   UNL A   1      29.990  24.439  23.152  1.00  0.00     0.162 HD
BRANCH  12  14
ATOM     14  C   UNL A   1      31.854  24.068  23.880  1.00  0.00     0.126 A 
ATOM     15  C   UNL A   1      33.987  22.469  24.585  1.00  0.00     0.058 A 
ATOM     16  C   UNL A   1      33.151  22.058  23.553  1.00  0.00     0.019 A 
ATOM     17  C   UNL A   1      33.688  23.646  25.240  1.00  0.00     0.127 A 
ATOM     18  C   UNL A   1      32.081  22.877  23.192  1.00  0.00     0.047 A 
ATOM     19  N   UNL A   1      32.659  24.450  24.891  1.00  0.00    -0.239 NA
BRANCH  15  20
ATOM     20  C   UNL A   1      35.170  21.710  25.014  1.00  0.00     0.254 C 
ATOM     21  C   UNL A   1      37.507  21.099  24.757  1.00  0.00     0.146 C 
ATOM     22  N   UNL A   1      36.368  21.887  24.325  1.00  0.00    -0.345 N 
ATOM     23  C   UNL A   1      36.594  22.909  23.312  1.00  0.00     0.146 C 
ATOM     24  O   UNL A   1      35.057  20.975  25.994  1.00  0.00    -0.269 OA
ENDBRANCH  15  20
ENDBRANCH  12  14
ENDBRANCH   8  12
ENDBRANCH   4   7
ENDBRANCH   2   3
ENDBRANCH   1   2
BRANCH   1  25
ATOM     25  C   UNL A   1      33.442  28.319  27.247  1.00  0.00     0.118 C 
BRANCH  25  26
ATOM     26  N   UNL A   1      33.409  29.761  27.449  1.00  0.00    -0.352 N 
ATOM     27  C   UNL A   1      34.353  30.596  27.992  1.00  0.00     0.251 C 
ATOM     28  H   UNL A   1      32.583  30.205  27.151  1.00  0.00     0.163 HD
ATOM     29  O   UNL A   1      34.043  31.752  28.278  1.00  0.00    -0.269 OA
BRANCH  27  30
ATOM     30  C   UNL A   1      35.724  30.108  28.249  1.00  0.00     0.039 A 
ATOM     31  C   UNL A   1      36.672  30.177  27.225  1.00  0.00     0.014 A 
ATOM     32  C   UNL A   1      36.074  29.568  29.490  1.00  0.00     0.014 A 
ATOM     33  C   UNL A   1      37.984  29.766  27.467  1.00  0.00     0.010 A 
ATOM     34  C   UNL A   1      37.401  29.245  29.756  1.00  0.00     0.010 A 
ATOM     35  C   UNL A   1      38.370  29.332  28.747  1.00  0.00    -0.014 A 
BRANCH  35  36
ATOM     36  C   UNL A   1      39.776  28.957  29.045  1.00  0.00     0.031 A 
ATOM     37  C   UNL A   1      40.710  29.964  29.665  1.00  0.00     0.074 A 
ATOM     38  C   UNL A   1      40.226  27.730  28.711  1.00  0.00     0.049 A 
ATOM     39  N   UNL A   1      41.987  29.852  29.926  1.00  0.00    -0.248 NA
ATOM     40  C   UNL A   1      40.141  31.277  30.013  1.00  0.00     0.031 C 
ATOM     41  C   UNL A   1      39.429  26.682  28.067  1.00  0.00     0.029 A 
ATOM     42  N   UNL A   1      41.465  27.158  28.854  1.00  0.00    -0.354 N 
ATOM     43  C   UNL A   1      42.373  31.077  30.462  1.00  0.00     0.074 A 
ATOM     44  C   UNL A   1      41.211  31.937  30.430  1.00  0.00     0.031 C 
ATOM     45  C   UNL A   1      40.191  25.590  27.897  1.00  0.00     0.029 A 
ATOM     46  C   UNL A   1      41.540  25.871  28.374  1.00  0.00     0.049 A 
ATOM     47  H   UNL A   1      42.229  27.625  29.264  1.00  0.00     0.167 HD
ATOM     48  C   UNL A   1      43.576  31.440  30.964  1.00  0.00     0.037 A 
ATOM     49  C   UNL A   1      42.582  25.019  28.316  1.00  0.00     0.037 A 
ATOM     50  C   UNL A   1      44.723  30.570  31.015  1.00  0.00     0.049 A 
ATOM     51  C   UNL A   1      43.918  25.459  28.858  1.00  0.00     0.074 A 
ATOM     52  C   UNL A   1      45.977  30.832  31.538  1.00  0.00     0.029 A 
ATOM     53  N   UNL A   1      44.754  29.271  30.534  1.00  0.00    -0.354 N 
ATOM     54  N   UNL A   1      44.248  26.603  29.407  1.00  0.00    -0.248 NA
ATOM     55  C   UNL A   1      45.019  24.490  28.779  1.00  0.00     0.031 C 
ATOM     56  C   UNL A   1      46.781  29.708  31.332  1.00  0.00     0.029 A 
ATOM     57  C   UNL A   1      46.010  28.724  30.733  1.00  0.00     0.049 A 
ATOM     58  H   UNL A   1      43.995  28.805  30.113  1.00  0.00     0.167 HD
ATOM     59  C   UNL A   1      45.584  26.477  29.774  1.00  0.00     0.074 A 
ATOM     60  C   UNL A   1      45.996  25.141  29.395  1.00  0.00     0.031 C 
ATOM     61  C   UNL A   1      46.398  27.383  30.370  1.00  0.00     0.037 A 
BRANCH  48  62
ATOM     62  C   UNL A   1      43.716  32.832  31.520  1.00  0.00     0.058 A 
ATOM     63  C   UNL A   1      44.167  33.897  30.724  1.00  0.00     0.135 A 
ATOM     64  C   UNL A   1      43.330  33.119  32.839  1.00  0.00     0.135 A 
ATOM     65  F   UNL A   1      44.568  33.677  29.461  1.00  0.00    -0.206 F 
ATOM     66  C   UNL A   1      44.244  35.194  31.220  1.00  0.00     0.059 A 
ATOM     67  C   UNL A   1      43.371  34.415  33.347  1.00  0.00     0.059 A 
ATOM     68  F   UNL A   1      42.894  32.138  33.646  1.00  0.00    -0.206 F 
ATOM     69  C   UNL A   1      43.837  35.444  32.531  1.00  0.00     0.060 A 
BRANCH  69  70
ATOM     70  S   UNL A   1      43.908  37.141  33.142  1.00  0.00     0.124 S 
ATOM     71  O   UNL A   1      45.194  37.148  33.834  1.00  0.00    -0.237 OA
ATOM     72  O   UNL A   1      43.847  37.918  31.909  1.00  0.00    -0.237 OA
ATOM     73  O   UNL A   1      42.734  37.243  34.004  1.00  0.00    -0.744 OA
ENDBRANCH  69  70
ENDBRANCH  48  62
BRANCH  49  74
ATOM     74  C   UNL A   1      42.416  23.661  27.729  1.00  0.00     0.058 A 
ATOM     75  C   UNL A   1      42.281  22.530  28.550  1.00  0.00     0.135 A 
ATOM     76  C   UNL A   1      42.421  23.459  26.340  1.00  0.00     0.135 A 
ATOM     77  F   UNL A   1      42.273  22.668  29.884  1.00  0.00    -0.206 F 
ATOM     78  C   UNL A   1      42.199  21.246  28.017  1.00  0.00     0.059 A 
ATOM     79  C   UNL A   1      42.308  22.189  25.783  1.00  0.00     0.059 A 
ATOM     80  F   UNL A   1      42.526  24.507  25.507  1.00  0.00    -0.206 F 
ATOM     81  C   UNL A   1      42.219  21.086  26.631  1.00  0.00     0.060 A 
BRANCH  81  82
ATOM     82  S   UNL A   1      42.110  19.418  25.950  1.00  0.00     0.124 S 
ATOM     83  O   UNL A   1      42.935  19.537  24.754  1.00  0.00    -0.237 OA
ATOM     84  O   UNL A   1      42.662  18.608  27.031  1.00  0.00    -0.237 OA
ATOM     85  O   UNL A   1      40.680  19.245  25.715  1.00  0.00    -0.744 OA
ENDBRANCH  81  82
ENDBRANCH  49  74
BRANCH  61  86
ATOM     86  C   UNL A   1      47.799  26.948  30.701  1.00  0.00     0.058 A 
ATOM     87  C   UNL A   1      48.853  27.082  29.786  1.00  0.00     0.135 A 
ATOM     88  C   UNL A   1      48.097  26.435  31.974  1.00  0.00     0.135 A 
ATOM     89  F   UNL A   1      48.623  27.560  28.553  1.00  0.00    -0.206 F 
ATOM     90  C   UNL A   1      50.150  26.696  30.111  1.00  0.00     0.059 A 
ATOM     91  C   UNL A   1      49.391  26.073  32.333  1.00  0.00     0.059 A 
ATOM     92  F   UNL A   1      47.127  26.296  32.893  1.00  0.00    -0.206 F 
ATOM     93  C   UNL A   1      50.409  26.196  31.388  1.00  0.00     0.060 A 
BRANCH  93  94
ATOM     94  S   UNL A   1      52.103  25.732  31.808  1.00  0.00     0.124 S 
ATOM     95  O   UNL A   1      52.811  26.056  30.573  1.00  0.00    -0.237 OA
ATOM     96  O   UNL A   1      52.389  26.598  32.948  1.00  0.00    -0.237 OA
ATOM     97  O   UNL A   1      52.000  24.309  32.117  1.00  0.00    -0.744 OA
ENDBRANCH  93  94
ENDBRANCH  61  86
ENDBRANCH  35  36
ENDBRANCH  27  30
ENDBRANCH  25  26
ENDBRANCH   1  25
TORSDOF 16
ENDMDL
MODEL 2
REMARK VINA RESULT:     -11.6      1.086      3.328
REMARK SMILES CN(C)C(=O)c1ccc(N[C@@H]2CCC[C@H]2C(=O)NCCCNC(=O)c2ccc(-c3c4nc(c(-c5c(F)cc(S(=O)(=O)[O-])cc5F)c5ccc([nH]5)c(-c5c(F)cc(S(=O)(=O)[O-])cc5F)c5nc(c(-c6c(F)cc(S(=O)(=O)[O-])cc6F)c6ccc3[nH]6)C=C5)C=C4)cc2)nc1
REMARK SMILES IDX 20 1 19 2 18 3 16 4 17 5 15 7 11 8 12 9 13 10 14 11 10 12
REMARK SMILES IDX 9 14 6 15 7 16 92 17 8 18 91 19 4 20 1 21 2 22 3 23 5 24
REMARK SMILES IDX 21 25 22 26 23 27 24 29 25 30 26 31 90 32 27 33 89 34 28 35
REMARK SMILES IDX 29 36 30 37 83 38 31 39 88 40 82 41 84 42 32 43 87 44 81 45
REMARK SMILES IDX 80 46 33 48 67 49 46 50 66 51 47 52 50 53 65 54 85 55 48 56
REMARK SMILES IDX 49 57 64 59 86 60 51 61 34 62 35 63 44 64 36 65 37 66 43 67
REMARK SMILES IDX 45 68 38 69 39 70 40 71 41 72 42 73 68 74 69 75 78 76 70 77
REMARK SMILES IDX 71 78 77 79 79 80 72 81 73 82 74 83 75 84 76 85 52 86 53 87
REMARK SMILES IDX 62 88 54 89 55 90 61 91 63 92 56 93 57 94 58 95 59 96 60 97
REMARK H PARENT 18 6 10 13 22 28 84 47 50 58
REMARK Flexibility Score: inf
ROOT
ATOM      1  C   UNL A   1      33.743  27.902  25.848  1.00  0.00     0.042 C 
ENDROOT
BRANCH   1   2
ATOM      2  C   UNL A   1      33.344  26.469  25.518  1.00  0.00     0.117 C 
BRANCH   2   3
ATOM      3  N   UNL A   1      34.037  25.976  24.343  1.00  0.00    -0.356 N 
ATOM      4  C   UNL A   1      34.042  24.761  23.741  1.00  0.00     0.225 C 
ATOM      5  O   UNL A   1      34.770  24.644  22.749  1.00  0.00    -0.275 OA
ATOM      6  H   UNL A   1      34.608  26.646  23.902  1.00  0.00     0.163 HD
BRANCH   4   7
ATOM      7  C   UNL A   1      33.193  23.597  24.216  1.00  0.00     0.101 C 
ATOM      8  C   UNL A   1      32.358  22.928  23.121  1.00  0.00     0.093 C 
ATOM      9  C   UNL A   1      32.156  21.492  23.600  1.00  0.00     0.026 C 
ATOM     10  C   UNL A   1      33.439  21.154  24.345  1.00  0.00     0.003 C 
ATOM     11  C   UNL A   1      33.986  22.472  24.891  1.00  0.00     0.016 C 
BRANCH   8  12
ATOM     12  N   UNL A   1      31.117  23.610  22.780  1.00  0.00    -0.367 N 
ATOM     13  H   UNL A   1      30.409  23.084  22.342  1.00  0.00     0.162 HD
BRANCH  12  14
ATOM     14  C   UNL A   1      30.871  24.943  23.030  1.00  0.00     0.126 A 
ATOM     15  C   UNL A   1      30.412  27.606  23.578  1.00  0.00     0.058 A 
ATOM     16  C   UNL A   1      29.874  26.644  24.423  1.00  0.00     0.019 A 
ATOM     17  C   UNL A   1      31.124  27.183  22.474  1.00  0.00     0.127 A 
ATOM     18  C   UNL A   1      30.119  25.298  24.149  1.00  0.00     0.047 A 
ATOM     19  N   UNL A   1      31.374  25.883  22.205  1.00  0.00    -0.239 NA
BRANCH  15  20
ATOM     20  C   UNL A   1      30.257  29.051  23.800  1.00  0.00     0.254 C 
ATOM     21  C   UNL A   1      29.018  31.120  23.516  1.00  0.00     0.146 C 
ATOM     22  N   UNL A   1      29.121  29.689  23.305  1.00  0.00    -0.345 N 
ATOM     23  C   UNL A   1      27.972  29.002  22.732  1.00  0.00     0.146 C 
ATOM     24  O   UNL A   1      31.126  29.628  24.451  1.00  0.00    -0.269 OA
ENDBRANCH  15  20
ENDBRANCH  12  14
ENDBRANCH   8  12
ENDBRANCH   4   7
ENDBRANCH   2   3
ENDBRANCH   1   2
BRANCH   1  25
ATOM     25  C   UNL A   1      33.467  28.301  27.292  1.00  0.00     0.118 C 
BRANCH  25  26
ATOM     26  N   UNL A   1      33.420  29.747  27.470  1.00  0.00    -0.352 N 
ATOM     27  C   UNL A   1      34.355  30.599  27.999  1.00  0.00     0.251 C 
ATOM     28  H   UNL A   1      32.590  30.177  27.164  1.00  0.00     0.163 HD
ATOM     29  O   UNL A   1      34.034  31.757  28.266  1.00  0.00    -0.269 OA
BRANCH  27  30
ATOM     30  C   UNL A   1      35.731  30.130  28.264  1.00  0.00     0.039 A 
ATOM     31  C   UNL A   1      36.650  30.093  27.213  1.00  0.00     0.014 A 
ATOM     32  C   UNL A   1      36.114  29.709  29.541  1.00  0.00     0.014 A 
ATOM     33  C   UNL A   1      37.967  29.698  27.457  1.00  0.00     0.010 A 
ATOM     34  C   UNL A   1      37.447  29.404  29.801  1.00  0.00     0.010 A 
ATOM     35  C   UNL A   1      38.387  29.387  28.762  1.00  0.00    -0.014 A 
BRANCH  35  36
ATOM     36  C   UNL A   1      39.799  29.033  29.056  1.00  0.00     0.031 A 
ATOM     37  C   UNL A   1      40.716  30.049  29.686  1.00  0.00     0.074 A 
ATOM     38  C   UNL A   1      40.270  27.817  28.709  1.00  0.00     0.049 A 
ATOM     39  N   UNL A   1      41.995  29.957  29.945  1.00  0.00    -0.248 NA
ATOM     40  C   UNL A   1      40.125  31.349  30.047  1.00  0.00     0.031 C 
ATOM     41  C   UNL A   1      39.490  26.762  28.056  1.00  0.00     0.029 A 
ATOM     42  N   UNL A   1      41.518  27.265  28.846  1.00  0.00    -0.354 N 
ATOM     43  C   UNL A   1      42.360  31.183  30.493  1.00  0.00     0.074 A 
ATOM     44  C   UNL A   1      41.184  32.024  30.470  1.00  0.00     0.031 C 
ATOM     45  C   UNL A   1      40.271  25.685  27.874  1.00  0.00     0.029 A 
ATOM     46  C   UNL A   1      41.616  25.984  28.354  1.00  0.00     0.049 A 
ATOM     47  H   UNL A   1      42.275  27.741  29.261  1.00  0.00     0.167 HD
ATOM     48  C   UNL A   1      43.558  31.561  30.998  1.00  0.00     0.037 A 
ATOM     49  C   UNL A   1      42.672  25.151  28.287  1.00  0.00     0.037 A 
ATOM     50  C   UNL A   1      44.719  30.711  31.041  1.00  0.00     0.049 A 
ATOM     51  C   UNL A   1      44.000  25.608  28.833  1.00  0.00     0.074 A 
ATOM     52  C   UNL A   1      45.969  30.989  31.565  1.00  0.00     0.029 A 
ATOM     53  N   UNL A   1      44.772  29.417  30.547  1.00  0.00    -0.354 N 
ATOM     54  N   UNL A   1      44.311  26.753  29.393  1.00  0.00    -0.248 NA
ATOM     55  C   UNL A   1      45.118  24.659  28.744  1.00  0.00     0.031 C 
ATOM     56  C   UNL A   1      46.791  29.880  31.348  1.00  0.00     0.029 A 
ATOM     57  C   UNL A   1      46.038  28.889  30.739  1.00  0.00     0.049 A 
ATOM     58  H   UNL A   1      44.021  28.943  30.122  1.00  0.00     0.167 HD
ATOM     59  C   UNL A   1      45.649  26.645  29.759  1.00  0.00     0.074 A 
ATOM     60  C   UNL A   1      46.083  25.321  29.366  1.00  0.00     0.031 C 
ATOM     61  C   UNL A   1      46.447  27.559  30.363  1.00  0.00     0.037 A 
BRANCH  48  62
ATOM     62  C   UNL A   1      43.674  32.950  31.568  1.00  0.00     0.058 A 
ATOM     63  C   UNL A   1      44.082  34.035  30.776  1.00  0.00     0.135 A 
ATOM     64  C   UNL A   1      43.308  33.212  32.898  1.00  0.00     0.135 A 
ATOM     65  F   UNL A   1      44.461  33.839  29.503  1.00  0.00    -0.206 F 
ATOM     66  C   UNL A   1      44.136  35.328  31.286  1.00  0.00     0.059 A 
ATOM     67  C   UNL A   1      43.327  34.502  33.420  1.00  0.00     0.059 A 
ATOM     68  F   UNL A   1      42.914  32.211  33.702  1.00  0.00    -0.206 F 
ATOM     69  C   UNL A   1      43.750  35.552  32.608  1.00  0.00     0.060 A 
BRANCH  69  70
ATOM     70  S   UNL A   1      43.791  37.243  33.238  1.00  0.00     0.124 S 
ATOM     71  O   UNL A   1      42.621  37.258  34.111  1.00  0.00    -0.237 OA
ATOM     72  O   UNL A   1      45.084  37.293  33.910  1.00  0.00    -0.237 OA
ATOM     73  O   UNL A   1      43.682  38.060  32.032  1.00  0.00    -0.744 OA
ENDBRANCH  69  70
ENDBRANCH  48  62
BRANCH  49  74
ATOM     74  C   UNL A   1      42.529  23.796  27.686  1.00  0.00     0.058 A 
ATOM     75  C   UNL A   1      42.391  22.657  28.496  1.00  0.00     0.135 A 
ATOM     76  C   UNL A   1      42.559  23.606  26.296  1.00  0.00     0.135 A 
ATOM     77  F   UNL A   1      42.359  22.784  29.831  1.00  0.00    -0.206 F 
ATOM     78  C   UNL A   1      42.330  21.377  27.952  1.00  0.00     0.059 A 
ATOM     79  C   UNL A   1      42.467  22.339  25.728  1.00  0.00     0.059 A 
ATOM     80  F   UNL A   1      42.667  24.661  25.474  1.00  0.00    -0.206 F 
ATOM     81  C   UNL A   1      42.375  21.229  26.566  1.00  0.00     0.060 A 
BRANCH  81  82
ATOM     82  S   UNL A   1      42.294  19.565  25.869  1.00  0.00     0.124 S 
ATOM     83  O   UNL A   1      42.596  18.745  27.036  1.00  0.00    -0.237 OA
ATOM     84  O   UNL A   1      40.920  19.502  25.382  1.00  0.00    -0.237 OA
ATOM     85  O   UNL A   1      43.319  19.587  24.830  1.00  0.00    -0.744 OA
ENDBRANCH  81  82
ENDBRANCH  49  74
BRANCH  61  86
ATOM     86  C   UNL A   1      47.856  27.144  30.690  1.00  0.00     0.058 A 
ATOM     87  C   UNL A   1      48.151  26.326  31.791  1.00  0.00     0.135 A 
ATOM     88  C   UNL A   1      48.918  27.533  29.859  1.00  0.00     0.135 A 
ATOM     89  F   UNL A   1      47.174  25.931  32.622  1.00  0.00    -0.206 F 
ATOM     90  C   UNL A   1      49.455  25.930  32.071  1.00  0.00     0.059 A 
ATOM     91  C   UNL A   1      50.225  27.123  30.100  1.00  0.00     0.059 A 
ATOM     92  F   UNL A   1      48.689  28.307  28.785  1.00  0.00    -0.206 F 
ATOM     93  C   UNL A   1      50.485  26.331  31.218  1.00  0.00     0.060 A 
BRANCH  93  94
ATOM     94  S   UNL A   1      52.167  25.782  31.575  1.00  0.00     0.124 S 
ATOM     95  O   UNL A   1      52.780  25.834  30.252  1.00  0.00    -0.237 OA
ATOM     96  O   UNL A   1      52.627  26.788  32.528  1.00  0.00    -0.237 OA
ATOM     97  O   UNL A   1      51.979  24.443  32.127  1.00  0.00    -0.744 OA
ENDBRANCH  93  94
ENDBRANCH  61  86
ENDBRANCH  35  36
ENDBRANCH  27  30
ENDBRANCH  25  26
ENDBRANCH   1  25
TORSDOF 16
ENDMDL
MODEL 3
REMARK VINA RESULT:     -11.3      2.921      3.838
REMARK SMILES CN(C)C(=O)c1ccc(N[C@@H]2CCC[C@H]2C(=O)NCCCNC(=O)c2ccc(-c3c4nc(c(-c5c(F)cc(S(=O)(=O)[O-])cc5F)c5ccc([nH]5)c(-c5c(F)cc(S(=O)(=O)[O-])cc5F)c5nc(c(-c6c(F)cc(S(=O)(=O)[O-])cc6F)c6ccc3[nH]6)C=C5)C=C4)cc2)nc1
REMARK SMILES IDX 20 1 19 2 18 3 16 4 17 5 15 7 11 8 12 9 13 10 14 11 10 12
REMARK SMILES IDX 9 14 6 15 7 16 92 17 8 18 91 19 4 20 1 21 2 22 3 23 5 24
REMARK SMILES IDX 21 25 22 26 23 27 24 29 25 30 26 31 90 32 27 33 89 34 28 35
REMARK SMILES IDX 29 36 30 37 83 38 31 39 88 40 82 41 84 42 32 43 87 44 81 45
REMARK SMILES IDX 80 46 33 48 67 49 46 50 66 51 47 52 50 53 65 54 85 55 48 56
REMARK SMILES IDX 49 57 64 59 86 60 51 61 34 62 35 63 44 64 36 65 37 66 43 67
REMARK SMILES IDX 45 68 38 69 39 70 40 71 41 72 42 73 68 74 69 75 78 76 70 77
REMARK SMILES IDX 71 78 77 79 79 80 72 81 73 82 74 83 75 84 76 85 52 86 53 87
REMARK SMILES IDX 62 88 54 89 55 90 61 91 63 92 56 93 57 94 58 95 59 96 60 97
REMARK H PARENT 18 6 10 13 22 28 84 47 50 58
REMARK Flexibility Score: inf
ROOT
ATOM      1  C   UNL A   1      34.516  30.836  27.540  1.00  0.00     0.042 C 
ENDROOT
BRANCH   1   2
ATOM      2  C   UNL A   1      34.552  29.315  27.446  1.00  0.00     0.117 C 
BRANCH   2   3
ATOM      3  N   UNL A   1      33.287  28.723  27.835  1.00  0.00    -0.356 N 
ATOM      4  C   UNL A   1      32.270  28.203  27.103  1.00  0.00     0.225 C 
ATOM      5  O   UNL A   1      31.294  27.790  27.739  1.00  0.00    -0.275 OA
ATOM      6  H   UNL A   1      33.139  28.693  28.808  1.00  0.00     0.163 HD
BRANCH   4   7
ATOM      7  C   UNL A   1      32.308  28.095  25.591  1.00  0.00     0.101 C 
ATOM      8  C   UNL A   1      32.398  26.663  25.056  1.00  0.00     0.093 C 
ATOM      9  C   UNL A   1      31.765  26.719  23.667  1.00  0.00     0.026 C 
ATOM     10  C   UNL A   1      30.666  27.765  23.791  1.00  0.00     0.003 C 
ATOM     11  C   UNL A   1      31.110  28.738  24.882  1.00  0.00     0.016 C 
BRANCH   8  12
ATOM     12  N   UNL A   1      33.731  26.077  25.067  1.00  0.00    -0.367 N 
ATOM     13  H   UNL A   1      34.500  26.687  25.144  1.00  0.00     0.162 HD
BRANCH  12  14
ATOM     14  C   UNL A   1      33.985  24.725  24.977  1.00  0.00     0.126 A 
ATOM     15  C   UNL A   1      34.553  22.033  24.799  1.00  0.00     0.058 A 
ATOM     16  C   UNL A   1      34.850  22.855  23.719  1.00  0.00     0.019 A 
ATOM     17  C   UNL A   1      33.949  22.596  25.904  1.00  0.00     0.127 A 
ATOM     18  C   UNL A   1      34.572  24.218  23.818  1.00  0.00     0.047 A 
ATOM     19  N   UNL A   1      33.684  23.917  26.014  1.00  0.00    -0.239 NA
BRANCH  15  20
ATOM     20  C   UNL A   1      34.848  20.593  24.820  1.00  0.00     0.254 C 
ATOM     21  C   UNL A   1      34.149  18.280  24.567  1.00  0.00     0.146 C 
ATOM     22  N   UNL A   1      33.830  19.694  24.505  1.00  0.00    -0.345 N 
ATOM     23  C   UNL A   1      32.527  20.074  23.977  1.00  0.00     0.146 C 
ATOM     24  O   UNL A   1      35.998  20.246  25.079  1.00  0.00    -0.269 OA
ENDBRANCH  15  20
ENDBRANCH  12  14
ENDBRANCH   8  12
ENDBRANCH   4   7
ENDBRANCH   2   3
ENDBRANCH   1   2
BRANCH   1  25
ATOM     25  C   UNL A   1      35.670  31.431  28.336  1.00  0.00     0.118 C 
BRANCH  25  26
ATOM     26  N   UNL A   1      35.556  31.165  29.764  1.00  0.00    -0.352 N 
ATOM     27  C   UNL A   1      36.430  30.537  30.615  1.00  0.00     0.251 C 
ATOM     28  H   UNL A   1      34.724  31.484  30.182  1.00  0.00     0.163 HD
ATOM     29  O   UNL A   1      36.049  30.215  31.740  1.00  0.00    -0.269 OA
BRANCH  27  30
ATOM     30  C   UNL A   1      37.809  30.234  30.182  1.00  0.00     0.039 A 
ATOM     31  C   UNL A   1      38.780  29.960  31.148  1.00  0.00     0.014 A 
ATOM     32  C   UNL A   1      38.154  30.237  28.827  1.00  0.00     0.014 A 
ATOM     33  C   UNL A   1      40.076  29.623  30.753  1.00  0.00     0.010 A 
ATOM     34  C   UNL A   1      39.420  29.813  28.432  1.00  0.00     0.010 A 
ATOM     35  C   UNL A   1      40.397  29.509  29.390  1.00  0.00    -0.014 A 
BRANCH  35  36
ATOM     36  C   UNL A   1      41.751  29.085  28.947  1.00  0.00     0.031 A 
ATOM     37  C   UNL A   1      42.873  30.087  28.888  1.00  0.00     0.074 A 
ATOM     38  C   UNL A   1      41.955  27.813  28.547  1.00  0.00     0.049 A 
ATOM     39  N   UNL A   1      44.098  29.930  28.455  1.00  0.00    -0.248 NA
ATOM     40  C   UNL A   1      42.575  31.453  29.353  1.00  0.00     0.031 C 
ATOM     41  C   UNL A   1      40.936  26.760  28.518  1.00  0.00     0.029 A 
ATOM     42  N   UNL A   1      43.084  27.189  28.079  1.00  0.00    -0.354 N 
ATOM     43  C   UNL A   1      44.711  31.172  28.590  1.00  0.00     0.074 A 
ATOM     44  C   UNL A   1      43.707  32.087  29.084  1.00  0.00     0.031 C 
ATOM     45  C   UNL A   1      41.493  25.618  28.082  1.00  0.00     0.029 A 
ATOM     46  C   UNL A   1      42.893  25.865  27.757  1.00  0.00     0.049 A 
ATOM     47  H   UNL A   1      43.951  27.647  27.983  1.00  0.00     0.167 HD
ATOM     48  C   UNL A   1      46.000  31.509  28.353  1.00  0.00     0.037 A 
ATOM     49  C   UNL A   1      43.748  24.957  27.247  1.00  0.00     0.037 A 
ATOM     50  C   UNL A   1      47.001  30.587  27.884  1.00  0.00     0.049 A 
ATOM     51  C   UNL A   1      45.170  25.368  26.969  1.00  0.00     0.074 A 
ATOM     52  C   UNL A   1      48.344  30.823  27.648  1.00  0.00     0.029 A 
ATOM     53  N   UNL A   1      46.772  29.253  27.585  1.00  0.00    -0.354 N 
ATOM     54  N   UNL A   1      45.743  26.534  27.151  1.00  0.00    -0.248 NA
ATOM     55  C   UNL A   1      46.065  24.339  26.421  1.00  0.00     0.031 C 
ATOM     56  C   UNL A   1      48.917  29.645  27.163  1.00  0.00     0.029 A 
ATOM     57  C   UNL A   1      47.944  28.658  27.152  1.00  0.00     0.049 A 
ATOM     58  H   UNL A   1      45.903  28.796  27.669  1.00  0.00     0.167 HD
ATOM     59  C   UNL A   1      47.072  26.367  26.779  1.00  0.00     0.074 A 
ATOM     60  C   UNL A   1      47.221  24.985  26.372  1.00  0.00     0.031 C 
ATOM     61  C   UNL A   1      48.080  27.273  26.772  1.00  0.00     0.037 A 
BRANCH  48  62
ATOM     62  C   UNL A   1      46.414  32.932  28.617  1.00  0.00     0.058 A 
ATOM     63  C   UNL A   1      46.907  33.332  29.869  1.00  0.00     0.135 A 
ATOM     64  C   UNL A   1      46.384  33.890  27.590  1.00  0.00     0.135 A 
ATOM     65  F   UNL A   1      46.941  32.463  30.893  1.00  0.00    -0.206 F 
ATOM     66  C   UNL A   1      47.342  34.633  30.099  1.00  0.00     0.059 A 
ATOM     67  C   UNL A   1      46.842  35.190  27.789  1.00  0.00     0.059 A 
ATOM     68  F   UNL A   1      45.919  33.564  26.374  1.00  0.00    -0.206 F 
ATOM     69  C   UNL A   1      47.312  35.553  29.050  1.00  0.00     0.060 A 
BRANCH  69  70
ATOM     70  S   UNL A   1      47.918  37.225  29.358  1.00  0.00     0.124 S 
ATOM     71  O   UNL A   1      47.269  37.541  30.628  1.00  0.00    -0.237 OA
ATOM     72  O   UNL A   1      49.362  37.026  29.416  1.00  0.00    -0.237 OA
ATOM     73  O   UNL A   1      47.436  37.981  28.205  1.00  0.00    -0.744 OA
ENDBRANCH  69  70
ENDBRANCH  48  62
BRANCH  49  74
ATOM     74  C   UNL A   1      43.295  23.566  26.968  1.00  0.00     0.058 A 
ATOM     75  C   UNL A   1      43.134  22.636  28.006  1.00  0.00     0.135 A 
ATOM     76  C   UNL A   1      43.044  23.129  25.658  1.00  0.00     0.135 A 
ATOM     77  F   UNL A   1      43.364  23.003  29.276  1.00  0.00    -0.206 F 
ATOM     78  C   UNL A   1      42.783  21.313  27.753  1.00  0.00     0.059 A 
ATOM     79  C   UNL A   1      42.661  21.820  25.383  1.00  0.00     0.059 A 
ATOM     80  F   UNL A   1      43.161  23.983  24.628  1.00  0.00    -0.206 F 
ATOM     81  C   UNL A   1      42.554  20.914  26.436  1.00  0.00     0.060 A 
BRANCH  81  82
ATOM     82  S   UNL A   1      42.097  19.196  26.118  1.00  0.00     0.124 S 
ATOM     83  O   UNL A   1      42.911  18.889  24.948  1.00  0.00    -0.237 OA
ATOM     84  O   UNL A   1      42.489  18.539  27.361  1.00  0.00    -0.237 OA
ATOM     85  O   UNL A   1      40.658  19.270  25.884  1.00  0.00    -0.744 OA
ENDBRANCH  81  82
ENDBRANCH  49  74
BRANCH  61  86
ATOM     86  C   UNL A   1      49.446  26.793  26.366  1.00  0.00     0.058 A 
ATOM     87  C   UNL A   1      49.901  26.883  25.042  1.00  0.00     0.135 A 
ATOM     88  C   UNL A   1      50.330  26.279  27.328  1.00  0.00     0.135 A 
ATOM     89  F   UNL A   1      49.094  27.361  24.080  1.00  0.00    -0.206 F 
ATOM     90  C   UNL A   1      51.175  26.456  24.681  1.00  0.00     0.059 A 
ATOM     91  C   UNL A   1      51.619  25.876  26.998  1.00  0.00     0.059 A 
ATOM     92  F   UNL A   1      49.950  26.181  28.613  1.00  0.00    -0.206 F 
ATOM     93  C   UNL A   1      52.028  25.957  25.666  1.00  0.00     0.060 A 
BRANCH  93  94
ATOM     94  S   UNL A   1      53.690  25.438  25.190  1.00  0.00     0.124 S 
ATOM     95  O   UNL A   1      54.389  25.478  26.471  1.00  0.00    -0.237 OA
ATOM     96  O   UNL A   1      53.454  24.108  24.637  1.00  0.00    -0.237 OA
ATOM     97  O   UNL A   1      54.098  26.451  24.220  1.00  0.00    -0.744 OA
ENDBRANCH  93  94
ENDBRANCH  61  86
ENDBRANCH  35  36
ENDBRANCH  27  30
ENDBRANCH  25  26
ENDBRANCH   1  25
TORSDOF 16
ENDMDL
