MODEL 1
REMARK VINA RESULT:     -10.7      0.000      0.000
REMARK SMILES O=C(NCCCNC(=O)c1ccc(N2C(=O)/C(=C/C3=c4ccccc4=NC3)SC2=S)cc1O)c1ccc(-c2c3nc(c(-c4c(F)cc(S(=O)(=O)[O-])cc4F)c4ccc([nH]4)c(-c4c(F)cc(S(=O)(=O)[O-])cc4F)c4nc(c(-c5c(F)cc(S(=O)(=O)[O-])cc5F)c5ccc2[nH]5)C=C4)C=C3)cc1
REMARK SMILES IDX 4 1 3 2 1 3 2 4 34 6 35 7 99 8 36 9 98 10 37 11 38 12 39 13
REMARK SMILES IDX 92 14 40 15 97 16 91 17 93 18 41 19 96 20 90 21 89 22 42 24
REMARK SMILES IDX 76 25 55 26 75 27 56 28 59 29 74 30 94 31 57 32 58 33 73 35
REMARK SMILES IDX 95 36 60 37 43 38 44 39 53 40 45 41 46 42 52 43 54 44 47 45
REMARK SMILES IDX 48 46 49 47 50 48 51 49 77 50 78 51 87 52 79 53 80 54 86 55
REMARK SMILES IDX 88 56 81 57 82 58 83 59 84 60 85 61 61 62 62 63 71 64 63 65
REMARK SMILES IDX 64 66 70 67 72 68 65 69 66 70 67 71 68 72 69 73 5 74 6 75
REMARK SMILES IDX 7 76 8 77 9 79 10 80 11 81 32 82 12 83 31 84 13 85 33 86
REMARK SMILES IDX 14 88 15 89 29 90 16 91 17 92 28 93 30 94 18 95 19 96 20 97
REMARK SMILES IDX 27 98 21 99 25 100 26 101 22 102 24 103 23 104
REMARK H PARENT 3 5 93 23 59 34 7 78 33 87
REMARK Flexibility Score: inf
ROOT
ATOM      1  C   UNL A   1      35.079  33.151  28.001  1.00  0.00     0.118 C 
ENDROOT
BRANCH   1   2
ATOM      2  N   UNL A   1      34.171  32.015  28.002  1.00  0.00    -0.352 N 
ATOM      3  O   UNL A   1      33.512  29.889  27.712  1.00  0.00    -0.269 OA
ATOM      4  C   UNL A   1      34.432  30.670  27.948  1.00  0.00     0.251 C 
ATOM      5  H   UNL A   1      33.215  32.249  28.050  1.00  0.00     0.163 HD
BRANCH   4   6
ATOM      6  C   UNL A   1      35.801  30.152  28.173  1.00  0.00     0.039 A 
ATOM      7  C   UNL A   1      36.154  29.701  29.449  1.00  0.00     0.014 A 
ATOM      8  C   UNL A   1      36.761  30.186  27.159  1.00  0.00     0.014 A 
ATOM      9  C   UNL A   1      37.462  29.276  29.702  1.00  0.00     0.010 A 
ATOM     10  C   UNL A   1      38.032  29.670  27.381  1.00  0.00     0.010 A 
ATOM     11  C   UNL A   1      38.408  29.255  28.666  1.00  0.00    -0.014 A 
BRANCH  11  12
ATOM     12  C   UNL A   1      39.836  28.941  28.914  1.00  0.00     0.031 A 
ATOM     13  C   UNL A   1      40.722  30.003  29.512  1.00  0.00     0.074 A 
ATOM     14  C   UNL A   1      40.349  27.746  28.572  1.00  0.00     0.049 A 
ATOM     15  N   UNL A   1      42.019  30.009  29.677  1.00  0.00    -0.248 NA
ATOM     16  C   UNL A   1      40.053  31.237  29.957  1.00  0.00     0.031 C 
ATOM     17  C   UNL A   1      39.593  26.631  28.004  1.00  0.00     0.029 A 
ATOM     18  N   UNL A   1      41.635  27.277  28.648  1.00  0.00    -0.354 N 
ATOM     19  C   UNL A   1      42.322  31.249  30.229  1.00  0.00     0.074 A 
ATOM     20  C   UNL A   1      41.083  31.994  30.299  1.00  0.00     0.031 C 
ATOM     21  C   UNL A   1      40.425  25.594  27.811  1.00  0.00     0.029 A 
ATOM     22  C   UNL A   1      41.779  25.991  28.190  1.00  0.00     0.049 A 
ATOM     23  H   UNL A   1      42.384  27.811  28.999  1.00  0.00     0.167 HD
ATOM     24  C   UNL A   1      43.514  31.718  30.667  1.00  0.00     0.037 A 
ATOM     25  C   UNL A   1      42.881  25.224  28.082  1.00  0.00     0.037 A 
ATOM     26  C   UNL A   1      44.741  30.967  30.601  1.00  0.00     0.049 A 
ATOM     27  C   UNL A   1      44.211  25.786  28.504  1.00  0.00     0.074 A 
ATOM     28  C   UNL A   1      46.007  31.342  31.015  1.00  0.00     0.029 A 
ATOM     29  N   UNL A   1      44.855  29.681  30.089  1.00  0.00    -0.354 N 
ATOM     30  N   UNL A   1      44.489  26.965  29.007  1.00  0.00    -0.248 NA
ATOM     31  C   UNL A   1      45.378  24.910  28.337  1.00  0.00     0.031 C 
ATOM     32  C   UNL A   1      46.892  30.301  30.713  1.00  0.00     0.029 A 
ATOM     33  C   UNL A   1      46.171  29.255  30.158  1.00  0.00     0.049 A 
ATOM     34  H   UNL A   1      44.108  29.150  29.730  1.00  0.00     0.167 HD
ATOM     35  C   UNL A   1      45.862  26.970  29.233  1.00  0.00     0.074 A 
ATOM     36  C   UNL A   1      46.351  25.665  28.830  1.00  0.00     0.031 C 
ATOM     37  C   UNL A   1      46.646  27.962  29.727  1.00  0.00     0.037 A 
BRANCH  24  38
ATOM     38  C   UNL A   1      43.532  33.109  31.244  1.00  0.00     0.058 A 
ATOM     39  C   UNL A   1      43.793  34.236  30.444  1.00  0.00     0.135 A 
ATOM     40  C   UNL A   1      43.322  33.321  32.616  1.00  0.00     0.135 A 
ATOM     41  F   UNL A   1      44.022  34.093  29.129  1.00  0.00    -0.206 F 
ATOM     42  C   UNL A   1      43.903  35.510  30.992  1.00  0.00     0.059 A 
ATOM     43  C   UNL A   1      43.389  34.591  33.180  1.00  0.00     0.059 A 
ATOM     44  F   UNL A   1      43.067  32.283  33.429  1.00  0.00    -0.206 F 
ATOM     45  C   UNL A   1      43.705  35.677  32.363  1.00  0.00     0.060 A 
BRANCH  45  46
ATOM     46  S   UNL A   1      43.893  37.329  33.063  1.00  0.00     0.124 S 
ATOM     47  O   UNL A   1      43.778  38.165  31.871  1.00  0.00    -0.237 OA
ATOM     48  O   UNL A   1      42.774  37.401  33.997  1.00  0.00    -0.237 OA
ATOM     49  O   UNL A   1      45.218  37.292  33.676  1.00  0.00    -0.744 OA
ENDBRANCH  45  46
ENDBRANCH  24  38
BRANCH  25  50
ATOM     50  C   UNL A   1      42.751  23.827  27.591  1.00  0.00     0.058 A 
ATOM     51  C   UNL A   1      42.574  22.772  28.497  1.00  0.00     0.135 A 
ATOM     52  C   UNL A   1      42.725  23.526  26.220  1.00  0.00     0.135 A 
ATOM     53  F   UNL A   1      42.605  23.009  29.817  1.00  0.00    -0.206 F 
ATOM     54  C   UNL A   1      42.356  21.468  28.062  1.00  0.00     0.059 A 
ATOM     55  C   UNL A   1      42.488  22.234  25.761  1.00  0.00     0.059 A 
ATOM     56  F   UNL A   1      42.883  24.503  25.313  1.00  0.00    -0.206 F 
ATOM     57  C   UNL A   1      42.296  21.213  26.691  1.00  0.00     0.060 A 
BRANCH  57  58
ATOM     58  S   UNL A   1      41.897  19.538  26.148  1.00  0.00     0.124 S 
ATOM     59  O   UNL A   1      42.278  18.749  27.313  1.00  0.00    -0.237 OA
ATOM     60  O   UNL A   1      40.465  19.640  25.886  1.00  0.00    -0.237 OA
ATOM     61  O   UNL A   1      42.731  19.359  24.963  1.00  0.00    -0.744 OA
ENDBRANCH  57  58
ENDBRANCH  25  50
BRANCH  37  62
ATOM     62  C   UNL A   1      48.118  27.669  29.857  1.00  0.00     0.058 A 
ATOM     63  C   UNL A   1      49.026  27.997  28.838  1.00  0.00     0.135 A 
ATOM     64  C   UNL A   1      48.630  27.068  31.020  1.00  0.00     0.135 A 
ATOM     65  F   UNL A   1      48.592  28.570  27.704  1.00  0.00    -0.206 F 
ATOM     66  C   UNL A   1      50.381  27.698  28.946  1.00  0.00     0.059 A 
ATOM     67  C   UNL A   1      49.985  26.791  31.164  1.00  0.00     0.059 A 
ATOM     68  F   UNL A   1      47.809  26.749  32.034  1.00  0.00    -0.206 F 
ATOM     69  C   UNL A   1      50.850  27.089  30.112  1.00  0.00     0.060 A 
BRANCH  69  70
ATOM     70  S   UNL A   1      52.607  26.695  30.230  1.00  0.00     0.124 S 
ATOM     71  O   UNL A   1      52.597  25.598  31.193  1.00  0.00    -0.237 OA
ATOM     72  O   UNL A   1      52.938  26.329  28.857  1.00  0.00    -0.237 OA
ATOM     73  O   UNL A   1      53.205  27.940  30.704  1.00  0.00    -0.744 OA
ENDBRANCH  69  70
ENDBRANCH  37  62
ENDBRANCH  11  12
ENDBRANCH   4   6
ENDBRANCH   1   2
BRANCH   1  74
ATOM     74  C   UNL A   1      35.634  33.446  29.385  1.00  0.00     0.042 C 
BRANCH  74  75
ATOM     75  C   UNL A   1      34.576  33.481  30.475  1.00  0.00     0.118 C 
BRANCH  75  76
ATOM     76  N   UNL A   1      34.584  34.730  31.220  1.00  0.00    -0.352 N 
ATOM     77  C   UNL A   1      35.332  35.065  32.318  1.00  0.00     0.255 C 
ATOM     78  H   UNL A   1      33.970  35.426  30.892  1.00  0.00     0.163 HD
ATOM     79  O   UNL A   1      35.153  36.137  32.892  1.00  0.00    -0.269 OA
BRANCH  77  80
ATOM     80  C   UNL A   1      36.314  34.108  32.861  1.00  0.00     0.081 A 
ATOM     81  C   UNL A   1      37.610  34.143  32.334  1.00  0.00     0.020 A 
ATOM     82  C   UNL A   1      35.996  33.187  33.861  1.00  0.00     0.130 A 
ATOM     83  C   UNL A   1      38.589  33.277  32.828  1.00  0.00     0.028 A 
ATOM     84  C   UNL A   1      36.973  32.327  34.354  1.00  0.00     0.073 A 
ATOM     85  C   UNL A   1      38.276  32.346  33.828  1.00  0.00     0.054 A 
BRANCH  82  86
ATOM     86  O   UNL A   1      34.730  33.127  34.377  1.00  0.00    -0.507 OA
ATOM     87  H   UNL A   1      34.332  33.897  34.732  1.00  0.00     0.293 HD
ENDBRANCH  82  86
BRANCH  85  88
ATOM     88  N   UNL A   1      39.261  31.438  34.319  1.00  0.00    -0.261 N 
ATOM     89  C   UNL A   1      39.466  30.218  33.676  1.00  0.00     0.270 C 
ATOM     90  C   UNL A   1      40.061  31.692  35.428  1.00  0.00     0.152 C 
ATOM     91  O   UNL A   1      38.867  29.769  32.710  1.00  0.00    -0.268 OA
ATOM     92  C   UNL A   1      40.604  29.494  34.311  1.00  0.00     0.081 C 
ATOM     93  S   UNL A   1      41.246  30.409  35.611  1.00  0.00    -0.054 SA
ATOM     94  S   UNL A   1      39.972  32.917  36.567  1.00  0.00    -0.051 S 
ATOM     95  C   UNL A   1      41.055  28.318  33.853  1.00  0.00     0.027 C 
BRANCH  95  96
ATOM     96  C   UNL A   1      42.154  27.566  34.408  1.00  0.00    -0.016 C 
ATOM     97  C   UNL A   1      43.449  27.852  34.298  1.00  0.00     0.005 A 
ATOM     98  C   UNL A   1      41.956  26.318  35.222  1.00  0.00     0.179 C 
ATOM     99  C   UNL A   1      44.218  28.875  33.664  1.00  0.00     0.011 A 
ATOM    100  C   UNL A   1      44.085  26.781  35.084  1.00  0.00     0.065 A 
ATOM    101  N   UNL A   1      43.318  25.882  35.623  1.00  0.00    -0.280 NA
ATOM    102  C   UNL A   1      45.555  28.854  33.801  1.00  0.00     0.001 A 
ATOM    103  C   UNL A   1      45.557  26.831  35.197  1.00  0.00     0.028 A 
ATOM    104  C   UNL A   1      46.222  27.824  34.581  1.00  0.00     0.002 A 
ENDBRANCH  95  96
ENDBRANCH  85  88
ENDBRANCH  77  80
ENDBRANCH  75  76
ENDBRANCH  74  75
ENDBRANCH   1  74
TORSDOF 16
ENDMDL
MODEL 2
REMARK VINA RESULT:     -10.5      3.303     11.096
REMARK SMILES O=C(NCCCNC(=O)c1ccc(N2C(=O)/C(=C/C3=c4ccccc4=NC3)SC2=S)cc1O)c1ccc(-c2c3nc(c(-c4c(F)cc(S(=O)(=O)[O-])cc4F)c4ccc([nH]4)c(-c4c(F)cc(S(=O)(=O)[O-])cc4F)c4nc(c(-c5c(F)cc(S(=O)(=O)[O-])cc5F)c5ccc2[nH]5)C=C4)C=C3)cc1
REMARK SMILES IDX 4 1 3 2 1 3 2 4 34 6 35 7 99 8 36 9 98 10 37 11 38 12 39 13
REMARK SMILES IDX 92 14 40 15 97 16 91 17 93 18 41 19 96 20 90 21 89 22 42 24
REMARK SMILES IDX 76 25 55 26 75 27 56 28 59 29 74 30 94 31 57 32 58 33 73 35
REMARK SMILES IDX 95 36 60 37 43 38 44 39 53 40 45 41 46 42 52 43 54 44 47 45
REMARK SMILES IDX 48 46 49 47 50 48 51 49 77 50 78 51 87 52 79 53 80 54 86 55
REMARK SMILES IDX 88 56 81 57 82 58 83 59 84 60 85 61 61 62 62 63 71 64 63 65
REMARK SMILES IDX 64 66 70 67 72 68 65 69 66 70 67 71 68 72 69 73 5 74 6 75
REMARK SMILES IDX 7 76 8 77 9 79 10 80 11 81 32 82 12 83 31 84 13 85 33 86
REMARK SMILES IDX 14 88 15 89 29 90 16 91 17 92 28 93 30 94 18 95 19 96 20 97
REMARK SMILES IDX 27 98 21 99 25 100 26 101 22 102 24 103 23 104
REMARK H PARENT 3 5 93 23 59 34 7 78 33 87
REMARK Flexibility Score: inf
ROOT
ATOM      1  C   UNL A   1      40.753  21.544  27.270  1.00  0.00     0.118 C 
ENDROOT
BRANCH   1   2
ATOM      2  N   UNL A   1      39.771  21.847  26.241  1.00  0.00    -0.352 N 
ATOM      3  O   UNL A   1      38.049  22.908  25.270  1.00  0.00    -0.269 OA
ATOM      4  C   UNL A   1      38.988  22.958  26.061  1.00  0.00     0.251 C 
ATOM      5  H   UNL A   1      39.649  21.142  25.564  1.00  0.00     0.163 HD
BRANCH   4   6
ATOM      6  C   UNL A   1      39.262  24.209  26.805  1.00  0.00     0.039 A 
ATOM      7  C   UNL A   1      40.073  25.184  26.215  1.00  0.00     0.014 A 
ATOM      8  C   UNL A   1      38.795  24.391  28.109  1.00  0.00     0.014 A 
ATOM      9  C   UNL A   1      40.403  26.341  26.927  1.00  0.00     0.010 A 
ATOM     10  C   UNL A   1      39.040  25.583  28.780  1.00  0.00     0.010 A 
ATOM     11  C   UNL A   1      39.885  26.548  28.214  1.00  0.00    -0.014 A 
BRANCH  11  12
ATOM     12  C   UNL A   1      40.312  27.690  29.059  1.00  0.00     0.031 A 
ATOM     13  C   UNL A   1      41.646  27.621  29.756  1.00  0.00     0.074 A 
ATOM     14  C   UNL A   1      39.508  28.752  29.240  1.00  0.00     0.049 A 
ATOM     15  N   UNL A   1      42.159  28.422  30.653  1.00  0.00    -0.248 NA
ATOM     16  C   UNL A   1      42.505  26.475  29.412  1.00  0.00     0.031 C 
ATOM     17  C   UNL A   1      38.204  28.946  28.607  1.00  0.00     0.029 A 
ATOM     18  N   UNL A   1      39.674  29.868  30.020  1.00  0.00    -0.354 N 
ATOM     19  C   UNL A   1      43.389  27.869  30.991  1.00  0.00     0.074 A 
ATOM     20  C   UNL A   1      43.510  26.627  30.259  1.00  0.00     0.031 C 
ATOM     21  C   UNL A   1      37.700  30.127  29.001  1.00  0.00     0.029 A 
ATOM     22  C   UNL A   1      38.620  30.746  29.954  1.00  0.00     0.049 A 
ATOM     23  H   UNL A   1      40.472  30.026  30.573  1.00  0.00     0.167 HD
ATOM     24  C   UNL A   1      44.347  28.361  31.813  1.00  0.00     0.037 A 
ATOM     25  C   UNL A   1      38.417  31.912  30.596  1.00  0.00     0.037 A 
ATOM     26  C   UNL A   1      44.223  29.602  32.532  1.00  0.00     0.049 A 
ATOM     27  C   UNL A   1      39.457  32.409  31.562  1.00  0.00     0.074 A 
ATOM     28  C   UNL A   1      45.129  30.197  33.391  1.00  0.00     0.029 A 
ATOM     29  N   UNL A   1      43.119  30.443  32.473  1.00  0.00    -0.354 N 
ATOM     30  N   UNL A   1      40.608  31.870  31.888  1.00  0.00    -0.248 NA
ATOM     31  C   UNL A   1      39.166  33.673  32.250  1.00  0.00     0.031 C 
ATOM     32  C   UNL A   1      44.556  31.374  33.885  1.00  0.00     0.029 A 
ATOM     33  C   UNL A   1      43.313  31.542  33.294  1.00  0.00     0.049 A 
ATOM     34  H   UNL A   1      42.316  30.281  31.927  1.00  0.00     0.167 HD
ATOM     35  C   UNL A   1      41.188  32.736  32.809  1.00  0.00     0.074 A 
ATOM     36  C   UNL A   1      40.267  33.845  32.969  1.00  0.00     0.031 C 
ATOM     37  C   UNL A   1      42.373  32.625  33.463  1.00  0.00     0.037 A 
BRANCH  24  38
ATOM     38  C   UNL A   1      45.600  27.540  31.971  1.00  0.00     0.058 A 
ATOM     39  C   UNL A   1      45.755  26.626  33.028  1.00  0.00     0.135 A 
ATOM     40  C   UNL A   1      46.674  27.690  31.079  1.00  0.00     0.135 A 
ATOM     41  F   UNL A   1      44.769  26.456  33.923  1.00  0.00    -0.206 F 
ATOM     42  C   UNL A   1      46.946  25.938  33.229  1.00  0.00     0.059 A 
ATOM     43  C   UNL A   1      47.862  26.984  31.239  1.00  0.00     0.059 A 
ATOM     44  F   UNL A   1      46.584  28.547  30.050  1.00  0.00    -0.206 F 
ATOM     45  C   UNL A   1      47.998  26.128  32.332  1.00  0.00     0.060 A 
BRANCH  45  46
ATOM     46  S   UNL A   1      49.551  25.259  32.632  1.00  0.00     0.124 S 
ATOM     47  O   UNL A   1      49.110  24.166  33.494  1.00  0.00    -0.237 OA
ATOM     48  O   UNL A   1      49.959  24.878  31.284  1.00  0.00    -0.237 OA
ATOM     49  O   UNL A   1      50.387  26.267  33.276  1.00  0.00    -0.744 OA
ENDBRANCH  45  46
ENDBRANCH  24  38
BRANCH  25  50
ATOM     50  C   UNL A   1      37.192  32.701  30.303  1.00  0.00     0.058 A 
ATOM     51  C   UNL A   1      37.175  33.612  29.237  1.00  0.00     0.135 A 
ATOM     52  C   UNL A   1      36.002  32.513  31.024  1.00  0.00     0.135 A 
ATOM     53  F   UNL A   1      38.292  33.836  28.529  1.00  0.00    -0.206 F 
ATOM     54  C   UNL A   1      36.017  34.296  28.882  1.00  0.00     0.059 A 
ATOM     55  C   UNL A   1      34.826  33.168  30.674  1.00  0.00     0.059 A 
ATOM     56  F   UNL A   1      35.965  31.646  32.048  1.00  0.00    -0.206 F 
ATOM     57  C   UNL A   1      34.842  34.052  29.595  1.00  0.00     0.060 A 
BRANCH  57  58
ATOM     58  S   UNL A   1      33.322  34.859  29.046  1.00  0.00     0.124 S 
ATOM     59  O   UNL A   1      33.834  36.100  28.477  1.00  0.00    -0.237 OA
ATOM     60  O   UNL A   1      32.795  33.889  28.092  1.00  0.00    -0.237 OA
ATOM     61  O   UNL A   1      32.551  34.999  30.277  1.00  0.00    -0.744 OA
ENDBRANCH  57  58
ENDBRANCH  25  50
BRANCH  37  62
ATOM     62  C   UNL A   1      42.736  33.735  34.413  1.00  0.00     0.058 A 
ATOM     63  C   UNL A   1      42.464  33.647  35.788  1.00  0.00     0.135 A 
ATOM     64  C   UNL A   1      43.379  34.896  33.948  1.00  0.00     0.135 A 
ATOM     65  F   UNL A   1      41.850  32.562  36.286  1.00  0.00    -0.206 F 
ATOM     66  C   UNL A   1      42.772  34.686  36.660  1.00  0.00     0.059 A 
ATOM     67  C   UNL A   1      43.726  35.933  34.807  1.00  0.00     0.059 A 
ATOM     68  F   UNL A   1      43.679  35.027  32.646  1.00  0.00    -0.206 F 
ATOM     69  C   UNL A   1      43.399  35.829  36.158  1.00  0.00     0.060 A 
BRANCH  69  70
ATOM     70  S   UNL A   1      43.778  37.174  37.300  1.00  0.00     0.124 S 
ATOM     71  O   UNL A   1      44.068  38.268  36.377  1.00  0.00    -0.237 OA
ATOM     72  O   UNL A   1      42.539  37.297  38.060  1.00  0.00    -0.237 OA
ATOM     73  O   UNL A   1      44.923  36.670  38.053  1.00  0.00    -0.744 OA
ENDBRANCH  69  70
ENDBRANCH  37  62
ENDBRANCH  11  12
ENDBRANCH   4   6
ENDBRANCH   1   2
BRANCH   1  74
ATOM     74  C   UNL A   1      41.900  20.698  26.742  1.00  0.00     0.042 C 
BRANCH  74  75
ATOM     75  C   UNL A   1      42.845  21.452  25.821  1.00  0.00     0.118 C 
BRANCH  75  76
ATOM     76  N   UNL A   1      44.146  20.812  25.712  1.00  0.00    -0.352 N 
ATOM     77  C   UNL A   1      45.385  21.395  25.680  1.00  0.00     0.255 C 
ATOM     78  H   UNL A   1      44.133  19.829  25.652  1.00  0.00     0.163 HD
ATOM     79  O   UNL A   1      46.390  20.715  25.489  1.00  0.00    -0.269 OA
BRANCH  77  80
ATOM     80  C   UNL A   1      45.515  22.859  25.807  1.00  0.00     0.081 A 
ATOM     81  C   UNL A   1      45.420  23.407  27.091  1.00  0.00     0.020 A 
ATOM     82  C   UNL A   1      45.721  23.696  24.708  1.00  0.00     0.130 A 
ATOM     83  C   UNL A   1      45.561  24.785  27.275  1.00  0.00     0.028 A 
ATOM     84  C   UNL A   1      45.864  25.068  24.893  1.00  0.00     0.073 A 
ATOM     85  C   UNL A   1      45.763  25.632  26.176  1.00  0.00     0.054 A 
BRANCH  82  86
ATOM     86  O   UNL A   1      45.799  23.180  23.443  1.00  0.00    -0.507 OA
ATOM     87  H   UNL A   1      45.803  22.251  23.316  1.00  0.00     0.293 HD
ENDBRANCH  82  86
BRANCH  85  88
ATOM     88  N   UNL A   1      45.879  27.043  26.350  1.00  0.00    -0.261 N 
ATOM     89  C   UNL A   1      44.732  27.833  26.422  1.00  0.00     0.270 C 
ATOM     90  C   UNL A   1      47.094  27.710  26.462  1.00  0.00     0.152 C 
ATOM     91  O   UNL A   1      43.568  27.476  26.321  1.00  0.00    -0.268 OA
ATOM     92  C   UNL A   1      45.107  29.248  26.701  1.00  0.00     0.081 C 
ATOM     93  S   UNL A   1      46.810  29.406  26.821  1.00  0.00    -0.054 SA
ATOM     94  S   UNL A   1      48.657  27.159  26.215  1.00  0.00    -0.051 S 
ATOM     95  C   UNL A   1      44.194  30.214  26.878  1.00  0.00     0.027 C 
BRANCH  95  96
ATOM     96  C   UNL A   1      44.481  31.599  27.161  1.00  0.00    -0.016 C 
ATOM     97  C   UNL A   1      44.898  32.105  28.319  1.00  0.00     0.005 A 
ATOM     98  C   UNL A   1      44.344  32.684  26.129  1.00  0.00     0.179 C 
ATOM     99  C   UNL A   1      45.195  31.581  29.614  1.00  0.00     0.011 A 
ATOM    100  C   UNL A   1      45.060  33.536  28.007  1.00  0.00     0.065 A 
ATOM    101  N   UNL A   1      44.761  33.937  26.809  1.00  0.00    -0.280 NA
ATOM    102  C   UNL A   1      45.639  32.423  30.563  1.00  0.00     0.001 A 
ATOM    103  C   UNL A   1      45.561  34.396  29.100  1.00  0.00     0.028 A 
ATOM    104  C   UNL A   1      45.827  33.839  30.294  1.00  0.00     0.002 A 
ENDBRANCH  95  96
ENDBRANCH  85  88
ENDBRANCH  77  80
ENDBRANCH  75  76
ENDBRANCH  74  75
ENDBRANCH   1  74
TORSDOF 16
ENDMDL
MODEL 3
REMARK VINA RESULT:     -10.3      3.346     11.115
REMARK SMILES O=C(NCCCNC(=O)c1ccc(N2C(=O)/C(=C/C3=c4ccccc4=NC3)SC2=S)cc1O)c1ccc(-c2c3nc(c(-c4c(F)cc(S(=O)(=O)[O-])cc4F)c4ccc([nH]4)c(-c4c(F)cc(S(=O)(=O)[O-])cc4F)c4nc(c(-c5c(F)cc(S(=O)(=O)[O-])cc5F)c5ccc2[nH]5)C=C4)C=C3)cc1
REMARK SMILES IDX 4 1 3 2 1 3 2 4 34 6 35 7 99 8 36 9 98 10 37 11 38 12 39 13
REMARK SMILES IDX 92 14 40 15 97 16 91 17 93 18 41 19 96 20 90 21 89 22 42 24
REMARK SMILES IDX 76 25 55 26 75 27 56 28 59 29 74 30 94 31 57 32 58 33 73 35
REMARK SMILES IDX 95 36 60 37 43 38 44 39 53 40 45 41 46 42 52 43 54 44 47 45
REMARK SMILES IDX 48 46 49 47 50 48 51 49 77 50 78 51 87 52 79 53 80 54 86 55
REMARK SMILES IDX 88 56 81 57 82 58 83 59 84 60 85 61 61 62 62 63 71 64 63 65
REMARK SMILES IDX 64 66 70 67 72 68 65 69 66 70 67 71 68 72 69 73 5 74 6 75
REMARK SMILES IDX 7 76 8 77 9 79 10 80 11 81 32 82 12 83 31 84 13 85 33 86
REMARK SMILES IDX 14 88 15 89 29 90 16 91 17 92 28 93 30 94 18 95 19 96 20 97
REMARK SMILES IDX 27 98 21 99 25 100 26 101 22 102 24 103 23 104
REMARK H PARENT 3 5 93 23 59 34 7 78 33 87
REMARK Flexibility Score: inf
ROOT
ATOM      1  C   UNL A   1      41.117  21.758  27.510  1.00  0.00     0.118 C 
ENDROOT
BRANCH   1   2
ATOM      2  N   UNL A   1      40.067  21.994  26.531  1.00  0.00    -0.352 N 
ATOM      3  O   UNL A   1      38.249  22.958  25.636  1.00  0.00    -0.269 OA
ATOM      4  C   UNL A   1      39.228  23.067  26.371  1.00  0.00     0.251 C 
ATOM      5  H   UNL A   1      39.938  21.268  25.878  1.00  0.00     0.163 HD
BRANCH   4   6
ATOM      6  C   UNL A   1      39.490  24.346  27.069  1.00  0.00     0.039 A 
ATOM      7  C   UNL A   1      40.274  25.316  26.436  1.00  0.00     0.014 A 
ATOM      8  C   UNL A   1      39.038  24.562  28.373  1.00  0.00     0.014 A 
ATOM      9  C   UNL A   1      40.593  26.501  27.106  1.00  0.00     0.010 A 
ATOM     10  C   UNL A   1      39.270  25.780  29.001  1.00  0.00     0.010 A 
ATOM     11  C   UNL A   1      40.090  26.741  28.393  1.00  0.00    -0.014 A 
BRANCH  11  12
ATOM     12  C   UNL A   1      40.507  27.918  29.193  1.00  0.00     0.031 A 
ATOM     13  C   UNL A   1      41.858  27.902  29.859  1.00  0.00     0.074 A 
ATOM     14  C   UNL A   1      39.681  28.964  29.362  1.00  0.00     0.049 A 
ATOM     15  N   UNL A   1      42.371  28.742  30.721  1.00  0.00    -0.248 NA
ATOM     16  C   UNL A   1      42.737  26.767  29.528  1.00  0.00     0.031 C 
ATOM     17  C   UNL A   1      38.359  29.108  28.756  1.00  0.00     0.029 A 
ATOM     18  N   UNL A   1      39.837  30.107  30.105  1.00  0.00    -0.354 N 
ATOM     19  C   UNL A   1      43.623  28.229  31.045  1.00  0.00     0.074 A 
ATOM     20  C   UNL A   1      43.758  26.969  30.347  1.00  0.00     0.031 C 
ATOM     21  C   UNL A   1      37.835  30.287  29.127  1.00  0.00     0.029 A 
ATOM     22  C   UNL A   1      38.760  30.957  30.039  1.00  0.00     0.049 A 
ATOM     23  H   UNL A   1      40.644  30.300  30.634  1.00  0.00     0.167 HD
ATOM     24  C   UNL A   1      44.587  28.768  31.829  1.00  0.00     0.037 A 
ATOM     25  C   UNL A   1      38.543  32.135  30.652  1.00  0.00     0.037 A 
ATOM     26  C   UNL A   1      44.449  30.026  32.514  1.00  0.00     0.049 A 
ATOM     27  C   UNL A   1      39.593  32.686  31.578  1.00  0.00     0.074 A 
ATOM     28  C   UNL A   1      45.359  30.669  33.334  1.00  0.00     0.029 A 
ATOM     29  N   UNL A   1      43.323  30.838  32.458  1.00  0.00    -0.354 N 
ATOM     30  N   UNL A   1      40.764  32.185  31.892  1.00  0.00    -0.248 NA
ATOM     31  C   UNL A   1      39.286  33.963  32.235  1.00  0.00     0.031 C 
ATOM     32  C   UNL A   1      44.768  31.846  33.807  1.00  0.00     0.029 A 
ATOM     33  C   UNL A   1      43.508  31.965  33.242  1.00  0.00     0.049 A 
ATOM     34  H   UNL A   1      42.512  30.641  31.936  1.00  0.00     0.167 HD
ATOM     35  C   UNL A   1      41.344  33.092  32.773  1.00  0.00     0.074 A 
ATOM     36  C   UNL A   1      40.399  34.183  32.923  1.00  0.00     0.031 C 
ATOM     37  C   UNL A   1      42.545  33.030  33.401  1.00  0.00     0.037 A 
BRANCH  24  38
ATOM     38  C   UNL A   1      45.863  27.983  31.981  1.00  0.00     0.058 A 
ATOM     39  C   UNL A   1      47.040  28.351  31.305  1.00  0.00     0.135 A 
ATOM     40  C   UNL A   1      45.907  26.830  32.781  1.00  0.00     0.135 A 
ATOM     41  F   UNL A   1      47.053  29.432  30.509  1.00  0.00    -0.206 F 
ATOM     42  C   UNL A   1      48.192  27.574  31.370  1.00  0.00     0.059 A 
ATOM     43  C   UNL A   1      47.059  26.058  32.891  1.00  0.00     0.059 A 
ATOM     44  F   UNL A   1      44.814  26.430  33.451  1.00  0.00    -0.206 F 
ATOM     45  C   UNL A   1      48.190  26.425  32.161  1.00  0.00     0.060 A 
BRANCH  45  46
ATOM     46  S   UNL A   1      49.679  25.406  32.200  1.00  0.00     0.124 S 
ATOM     47  O   UNL A   1      49.852  25.089  30.785  1.00  0.00    -0.237 OA
ATOM     48  O   UNL A   1      50.665  26.318  32.770  1.00  0.00    -0.237 OA
ATOM     49  O   UNL A   1      49.302  24.282  33.052  1.00  0.00    -0.744 OA
ENDBRANCH  45  46
ENDBRANCH  24  38
BRANCH  25  50
ATOM     50  C   UNL A   1      37.292  32.886  30.366  1.00  0.00     0.058 A 
ATOM     51  C   UNL A   1      37.208  33.720  29.241  1.00  0.00     0.135 A 
ATOM     52  C   UNL A   1      36.142  32.732  31.155  1.00  0.00     0.135 A 
ATOM     53  F   UNL A   1      38.286  33.909  28.465  1.00  0.00    -0.206 F 
ATOM     54  C   UNL A   1      36.023  34.361  28.897  1.00  0.00     0.059 A 
ATOM     55  C   UNL A   1      34.939  33.345  30.819  1.00  0.00     0.059 A 
ATOM     56  F   UNL A   1      36.169  31.939  32.238  1.00  0.00    -0.206 F 
ATOM     57  C   UNL A   1      34.888  34.152  29.682  1.00  0.00     0.060 A 
BRANCH  57  58
ATOM     58  S   UNL A   1      33.331  34.898  29.154  1.00  0.00     0.124 S 
ATOM     59  O   UNL A   1      32.881  33.956  28.136  1.00  0.00    -0.237 OA
ATOM     60  O   UNL A   1      32.566  34.910  30.396  1.00  0.00    -0.237 OA
ATOM     61  O   UNL A   1      33.735  36.212  28.663  1.00  0.00    -0.744 OA
ENDBRANCH  57  58
ENDBRANCH  25  50
BRANCH  37  62
ATOM     62  C   UNL A   1      42.903  34.176  34.310  1.00  0.00     0.058 A 
ATOM     63  C   UNL A   1      42.624  34.140  35.685  1.00  0.00     0.135 A 
ATOM     64  C   UNL A   1      43.546  35.319  33.803  1.00  0.00     0.135 A 
ATOM     65  F   UNL A   1      42.009  33.074  36.222  1.00  0.00    -0.206 F 
ATOM     66  C   UNL A   1      42.927  35.213  36.518  1.00  0.00     0.059 A 
ATOM     67  C   UNL A   1      43.888  36.389  34.623  1.00  0.00     0.059 A 
ATOM     68  F   UNL A   1      43.853  35.401  32.499  1.00  0.00    -0.206 F 
ATOM     69  C   UNL A   1      43.554  36.336  35.976  1.00  0.00     0.060 A 
BRANCH  69  70
ATOM     70  S   UNL A   1      43.927  37.725  37.067  1.00  0.00     0.124 S 
ATOM     71  O   UNL A   1      42.777  37.708  37.966  1.00  0.00    -0.237 OA
ATOM     72  O   UNL A   1      45.199  37.325  37.658  1.00  0.00    -0.237 OA
ATOM     73  O   UNL A   1      43.994  38.865  36.157  1.00  0.00    -0.744 OA
ENDBRANCH  69  70
ENDBRANCH  37  62
ENDBRANCH  11  12
ENDBRANCH   4   6
ENDBRANCH   1   2
BRANCH   1  74
ATOM     74  C   UNL A   1      42.186  20.810  26.991  1.00  0.00     0.042 C 
BRANCH  74  75
ATOM     75  C   UNL A   1      42.847  21.276  25.705  1.00  0.00     0.118 C 
BRANCH  75  76
ATOM     76  N   UNL A   1      44.166  20.695  25.513  1.00  0.00    -0.352 N 
ATOM     77  C   UNL A   1      45.386  21.320  25.531  1.00  0.00     0.255 C 
ATOM     78  H   UNL A   1      44.185  19.724  25.349  1.00  0.00     0.163 HD
ATOM     79  O   UNL A   1      46.410  20.698  25.258  1.00  0.00    -0.269 OA
BRANCH  77  80
ATOM     80  C   UNL A   1      45.470  22.765  25.813  1.00  0.00     0.081 A 
ATOM     81  C   UNL A   1      45.222  23.183  27.125  1.00  0.00     0.020 A 
ATOM     82  C   UNL A   1      45.779  23.708  24.830  1.00  0.00     0.130 A 
ATOM     83  C   UNL A   1      45.313  24.538  27.456  1.00  0.00     0.028 A 
ATOM     84  C   UNL A   1      45.872  25.057  25.162  1.00  0.00     0.073 A 
ATOM     85  C   UNL A   1      45.618  25.491  26.474  1.00  0.00     0.054 A 
BRANCH  82  86
ATOM     86  O   UNL A   1      46.008  23.320  23.538  1.00  0.00    -0.507 OA
ATOM     87  H   UNL A   1      45.716  22.480  23.243  1.00  0.00     0.293 HD
ENDBRANCH  82  86
BRANCH  85  88
ATOM     88  N   UNL A   1      45.684  26.880  26.795  1.00  0.00    -0.261 N 
ATOM     89  C   UNL A   1      44.552  27.681  26.658  1.00  0.00     0.270 C 
ATOM     90  C   UNL A   1      46.835  27.511  27.255  1.00  0.00     0.152 C 
ATOM     91  O   UNL A   1      43.448  27.357  26.247  1.00  0.00    -0.268 OA
ATOM     92  C   UNL A   1      44.844  29.060  27.143  1.00  0.00     0.081 C 
ATOM     93  S   UNL A   1      46.467  29.174  27.684  1.00  0.00    -0.054 SA
ATOM     94  S   UNL A   1      48.412  26.954  27.345  1.00  0.00    -0.051 S 
ATOM     95  C   UNL A   1      43.913  30.023  27.180  1.00  0.00     0.027 C 
BRANCH  95  96
ATOM     96  C   UNL A   1      44.119  31.373  27.645  1.00  0.00    -0.016 C 
ATOM     97  C   UNL A   1      44.183  32.471  26.897  1.00  0.00     0.005 A 
ATOM     98  C   UNL A   1      44.284  31.715  29.100  1.00  0.00     0.179 C 
ATOM     99  C   UNL A   1      44.099  32.761  25.501  1.00  0.00     0.011 A 
ATOM    100  C   UNL A   1      44.361  33.536  27.900  1.00  0.00     0.065 A 
ATOM    101  N   UNL A   1      44.437  33.192  29.149  1.00  0.00    -0.280 NA
ATOM    102  C   UNL A   1      44.180  34.043  25.103  1.00  0.00     0.001 A 
ATOM    103  C   UNL A   1      44.431  34.920  27.385  1.00  0.00     0.028 A 
ATOM    104  C   UNL A   1      44.341  35.126  26.060  1.00  0.00     0.002 A 
ENDBRANCH  95  96
ENDBRANCH  85  88
ENDBRANCH  77  80
ENDBRANCH  75  76
ENDBRANCH  74  75
ENDBRANCH   1  74
TORSDOF 16
ENDMDL
