MODEL 1
REMARK VINA RESULT:     -12.4      0.000      0.000
REMARK SMILES Cc1c(NCc2ccc(-c3ccc(Cl)cc3)o2)cccc1C(=O)NCCCNC(=O)c1ccc(-c2c3nc(c(-c4c(F)cc(S(=O)(=O)[O-])cc4F)c4ccc([nH]4)c(-c4c(F)cc(S(=O)(=O)[O-])cc4F)c4nc(c(-c5c(F)cc(S(=O)(=O)[O-])cc5F)c5ccc2[nH]5)C=C4)C=C3)cc1
REMARK SMILES IDX 25 1 24 2 22 3 23 4 21 6 1 7 2 8 3 9 18 10 20 11 19 12 4 13
REMARK SMILES IDX 5 15 6 16 7 17 17 18 8 19 9 20 10 21 11 22 16 23 12 24 15 25
REMARK SMILES IDX 13 26 14 27 26 28 27 29 28 30 29 31 30 33 31 34 32 35 96 36
REMARK SMILES IDX 33 37 95 38 34 39 35 40 36 41 89 42 37 43 94 44 88 45 90 46
REMARK SMILES IDX 38 47 93 48 87 49 86 50 39 52 73 53 52 54 72 55 53 56 56 57
REMARK SMILES IDX 71 58 91 59 54 60 55 61 70 63 92 64 57 65 40 66 41 67 50 68
REMARK SMILES IDX 42 69 43 70 49 71 51 72 44 73 45 74 46 75 47 76 48 77 74 78
REMARK SMILES IDX 75 79 84 80 76 81 77 82 83 83 85 84 78 85 79 86 80 87 81 88
REMARK SMILES IDX 82 89 58 90 59 91 68 92 60 93 61 94 67 95 69 96 62 97 63 98
REMARK SMILES IDX 64 99 65 100 66 101
REMARK H PARENT 24 5 4 14 28 32 90 51 56 62
REMARK Flexibility Score: inf
ROOT
ATOM      1  C   UNL A   1      31.724  31.204  26.480  1.00  0.00     0.118 C 
ENDROOT
BRANCH   1   2
ATOM      2  N   UNL A   1      32.917  30.305  26.511  1.00  0.00    -0.352 N 
ATOM      3  C   UNL A   1      33.292  29.063  26.019  1.00  0.00     0.251 C 
ATOM      4  O   UNL A   1      34.472  28.710  25.982  1.00  0.00    -0.269 OA
ATOM      5  H   UNL A   1      33.647  30.711  27.032  1.00  0.00     0.163 HD
BRANCH   3   6
ATOM      6  C   UNL A   1      32.297  28.088  25.517  1.00  0.00     0.044 A 
ATOM      7  C   UNL A   1      32.459  29.009  23.184  1.00  0.00     0.047 C 
ATOM      8  C   UNL A   1      32.112  27.906  24.150  1.00  0.00    -0.015 A 
ATOM      9  C   UNL A   1      31.463  26.749  23.692  1.00  0.00     0.038 A 
ATOM     10  C   UNL A   1      30.652  26.045  24.586  1.00  0.00     0.026 A 
ATOM     11  C   UNL A   1      31.474  27.387  26.411  1.00  0.00     0.014 A 
ATOM     12  C   UNL A   1      30.609  26.400  25.937  1.00  0.00     0.003 A 
BRANCH   9  13
ATOM     13  N   UNL A   1      31.683  26.358  22.390  1.00  0.00    -0.378 N 
ATOM     14  H   UNL A   1      30.942  26.503  21.758  1.00  0.00     0.161 HD
BRANCH  13  15
ATOM     15  C   UNL A   1      32.878  25.758  21.854  1.00  0.00     0.188 C 
BRANCH  15  16
ATOM     16  C   UNL A   1      33.263  24.505  22.560  1.00  0.00     0.123 A 
ATOM     17  C   UNL A   1      32.625  23.307  22.801  1.00  0.00     0.048 A 
ATOM     18  O   UNL A   1      34.513  24.476  23.098  1.00  0.00    -0.459 OA
ATOM     19  C   UNL A   1      33.553  22.472  23.455  1.00  0.00     0.051 A 
ATOM     20  C   UNL A   1      34.672  23.245  23.657  1.00  0.00     0.134 A 
BRANCH  20  21
ATOM     21  C   UNL A   1      35.912  23.035  24.368  1.00  0.00     0.017 A 
ATOM     22  C   UNL A   1      36.639  21.852  24.211  1.00  0.00     0.013 A 
ATOM     23  C   UNL A   1      36.352  24.006  25.277  1.00  0.00     0.013 A 
ATOM     24  C   UNL A   1      37.795  21.637  24.964  1.00  0.00     0.021 A 
ATOM     25  C   UNL A   1      37.498  23.788  26.040  1.00  0.00     0.021 A 
ATOM     26  C   UNL A   1      38.212  22.602  25.881  1.00  0.00     0.041 A 
ATOM     27  Cl  UNL A   1      39.617  22.325  26.835  1.00  0.00    -0.084 Cl
ENDBRANCH  20  21
ENDBRANCH  15  16
ENDBRANCH  13  15
ENDBRANCH   9  13
ENDBRANCH   3   6
ENDBRANCH   1   2
BRANCH   1  28
ATOM     28  C   UNL A   1      31.800  32.706  27.140  1.00  0.00     0.042 C 
BRANCH  28  29
ATOM     29  C   UNL A   1      33.241  33.244  27.579  1.00  0.00     0.118 C 
BRANCH  29  30
ATOM     30  N   UNL A   1      33.973  33.019  28.961  1.00  0.00    -0.352 N 
ATOM     31  C   UNL A   1      35.236  32.447  29.436  1.00  0.00     0.251 C 
ATOM     32  H   UNL A   1      33.431  33.357  29.710  1.00  0.00     0.163 HD
ATOM     33  O   UNL A   1      35.980  33.289  29.974  1.00  0.00    -0.269 OA
BRANCH  31  34
ATOM     34  C   UNL A   1      35.837  30.974  29.489  1.00  0.00     0.039 A 
ATOM     35  C   UNL A   1      36.261  30.385  30.726  1.00  0.00     0.014 A 
ATOM     36  C   UNL A   1      36.097  30.149  28.404  1.00  0.00     0.014 A 
ATOM     37  C   UNL A   1      37.360  29.427  30.770  1.00  0.00     0.010 A 
ATOM     38  C   UNL A   1      37.184  29.213  28.439  1.00  0.00     0.010 A 
ATOM     39  C   UNL A   1      37.992  29.044  29.575  1.00  0.00    -0.014 A 
BRANCH  39  40
ATOM     40  C   UNL A   1      39.498  28.781  29.417  1.00  0.00     0.031 A 
ATOM     41  C   UNL A   1      39.993  27.470  29.012  1.00  0.00     0.074 A 
ATOM     42  C   UNL A   1      40.548  29.665  29.441  1.00  0.00     0.049 A 
ATOM     43  N   UNL A   1      40.953  26.826  29.596  1.00  0.00    -0.248 NA
ATOM     44  C   UNL A   1      39.487  26.853  27.802  1.00  0.00     0.031 C 
ATOM     45  C   UNL A   1      41.987  29.556  29.127  1.00  0.00     0.029 A 
ATOM     46  N   UNL A   1      40.520  31.015  29.705  1.00  0.00    -0.354 N 
ATOM     47  C   UNL A   1      41.395  25.913  28.664  1.00  0.00     0.074 A 
ATOM     48  C   UNL A   1      40.328  25.825  27.682  1.00  0.00     0.031 C 
ATOM     49  C   UNL A   1      42.649  30.639  29.607  1.00  0.00     0.029 A 
ATOM     50  C   UNL A   1      41.689  31.478  30.297  1.00  0.00     0.049 A 
ATOM     51  H   UNL A   1      39.752  31.594  29.496  1.00  0.00     0.167 HD
ATOM     52  C   UNL A   1      42.708  25.529  28.590  1.00  0.00     0.037 A 
ATOM     53  C   UNL A   1      41.645  31.928  31.595  1.00  0.00     0.037 A 
ATOM     54  C   UNL A   1      43.589  26.393  29.402  1.00  0.00     0.049 A 
ATOM     55  C   UNL A   1      42.305  30.910  32.489  1.00  0.00     0.074 A 
ATOM     56  C   UNL A   1      44.579  27.319  29.094  1.00  0.00     0.029 A 
ATOM     57  N   UNL A   1      43.322  26.597  30.746  1.00  0.00    -0.354 N 
ATOM     58  N   UNL A   1      43.091  29.980  32.034  1.00  0.00    -0.248 NA
ATOM     59  C   UNL A   1      42.067  30.779  33.924  1.00  0.00     0.031 C 
ATOM     60  C   UNL A   1      44.909  28.055  30.272  1.00  0.00     0.029 A 
ATOM     61  C   UNL A   1      44.137  27.567  31.309  1.00  0.00     0.049 A 
ATOM     62  H   UNL A   1      42.630  26.106  31.246  1.00  0.00     0.167 HD
ATOM     63  C   UNL A   1      43.325  29.057  33.005  1.00  0.00     0.074 A 
ATOM     64  C   UNL A   1      42.712  29.628  34.193  1.00  0.00     0.031 C 
ATOM     65  C   UNL A   1      43.963  27.883  32.723  1.00  0.00     0.037 A 
BRANCH  52  66
ATOM     66  C   UNL A   1      43.221  24.561  27.529  1.00  0.00     0.058 A 
ATOM     67  C   UNL A   1      43.069  23.164  27.651  1.00  0.00     0.135 A 
ATOM     68  C   UNL A   1      43.825  24.969  26.318  1.00  0.00     0.135 A 
ATOM     69  F   UNL A   1      42.374  22.617  28.656  1.00  0.00    -0.206 F 
ATOM     70  C   UNL A   1      43.582  22.256  26.719  1.00  0.00     0.059 A 
ATOM     71  C   UNL A   1      44.419  24.084  25.413  1.00  0.00     0.059 A 
ATOM     72  F   UNL A   1      43.789  26.247  25.913  1.00  0.00    -0.206 F 
ATOM     73  C   UNL A   1      44.283  22.723  25.617  1.00  0.00     0.060 A 
BRANCH  73  74
ATOM     74  S   UNL A   1      44.911  21.545  24.407  1.00  0.00     0.124 S 
ATOM     75  O   UNL A   1      46.338  21.516  24.710  1.00  0.00    -0.237 OA
ATOM     76  O   UNL A   1      44.165  20.339  24.746  1.00  0.00    -0.237 OA
ATOM     77  O   UNL A   1      44.563  22.153  23.125  1.00  0.00    -0.744 OA
ENDBRANCH  73  74
ENDBRANCH  52  66
BRANCH  53  78
ATOM     78  C   UNL A   1      40.400  32.764  32.001  1.00  0.00     0.058 A 
ATOM     79  C   UNL A   1      39.799  32.333  33.198  1.00  0.00     0.135 A 
ATOM     80  C   UNL A   1      40.654  34.122  31.991  1.00  0.00     0.135 A 
ATOM     81  F   UNL A   1      38.927  31.319  33.177  1.00  0.00    -0.206 F 
ATOM     82  C   UNL A   1      40.157  32.884  34.431  1.00  0.00     0.059 A 
ATOM     83  C   UNL A   1      41.049  34.671  33.215  1.00  0.00     0.059 A 
ATOM     84  F   UNL A   1      41.045  34.727  30.855  1.00  0.00    -0.206 F 
ATOM     85  C   UNL A   1      40.998  33.978  34.409  1.00  0.00     0.060 A 
BRANCH  85  86
ATOM     86  S   UNL A   1      42.353  34.235  35.842  1.00  0.00     0.124 S 
ATOM     87  O   UNL A   1      42.011  35.594  36.220  1.00  0.00    -0.237 OA
ATOM     88  O   UNL A   1      42.055  33.289  36.882  1.00  0.00    -0.237 OA
ATOM     89  O   UNL A   1      43.671  34.092  35.240  1.00  0.00    -0.744 OA
ENDBRANCH  85  86
ENDBRANCH  53  78
BRANCH  65  90
ATOM     90  C   UNL A   1      44.433  26.911  33.768  1.00  0.00     0.058 A 
ATOM     91  C   UNL A   1      45.793  26.635  33.984  1.00  0.00     0.135 A 
ATOM     92  C   UNL A   1      43.526  26.114  34.503  1.00  0.00     0.135 A 
ATOM     93  F   UNL A   1      46.749  27.202  33.230  1.00  0.00    -0.206 F 
ATOM     94  C   UNL A   1      46.224  25.732  34.953  1.00  0.00     0.059 A 
ATOM     95  C   UNL A   1      43.931  25.174  35.440  1.00  0.00     0.059 A 
ATOM     96  F   UNL A   1      42.200  26.205  34.348  1.00  0.00    -0.206 F 
ATOM     97  C   UNL A   1      45.283  25.019  35.687  1.00  0.00     0.060 A 
BRANCH  97  98
ATOM     98  S   UNL A   1      45.835  23.863  36.946  1.00  0.00     0.124 S 
ATOM     99  O   UNL A   1      45.321  24.468  38.172  1.00  0.00    -0.237 OA
ATOM    100  O   UNL A   1      45.172  22.635  36.519  1.00  0.00    -0.237 OA
ATOM    101  O   UNL A   1      47.288  23.874  36.809  1.00  0.00    -0.744 OA
ENDBRANCH  97  98
ENDBRANCH  65  90
ENDBRANCH  39  40
ENDBRANCH  31  34
ENDBRANCH  29  30
ENDBRANCH  28  29
ENDBRANCH   1  28
TORSDOF 17
ENDMDL
MODEL 2
REMARK VINA RESULT:     -12.1      2.422      3.231
REMARK SMILES Cc1c(NCc2ccc(-c3ccc(Cl)cc3)o2)cccc1C(=O)NCCCNC(=O)c1ccc(-c2c3nc(c(-c4c(F)cc(S(=O)(=O)[O-])cc4F)c4ccc([nH]4)c(-c4c(F)cc(S(=O)(=O)[O-])cc4F)c4nc(c(-c5c(F)cc(S(=O)(=O)[O-])cc5F)c5ccc2[nH]5)C=C4)C=C3)cc1
REMARK SMILES IDX 25 1 24 2 22 3 23 4 21 6 1 7 2 8 3 9 18 10 20 11 19 12 4 13
REMARK SMILES IDX 5 15 6 16 7 17 17 18 8 19 9 20 10 21 11 22 16 23 12 24 15 25
REMARK SMILES IDX 13 26 14 27 26 28 27 29 28 30 29 31 30 33 31 34 32 35 96 36
REMARK SMILES IDX 33 37 95 38 34 39 35 40 36 41 89 42 37 43 94 44 88 45 90 46
REMARK SMILES IDX 38 47 93 48 87 49 86 50 39 52 73 53 52 54 72 55 53 56 56 57
REMARK SMILES IDX 71 58 91 59 54 60 55 61 70 63 92 64 57 65 40 66 41 67 50 68
REMARK SMILES IDX 42 69 43 70 49 71 51 72 44 73 45 74 46 75 47 76 48 77 74 78
REMARK SMILES IDX 75 79 84 80 76 81 77 82 83 83 85 84 78 85 79 86 80 87 81 88
REMARK SMILES IDX 82 89 58 90 59 91 68 92 60 93 61 94 67 95 69 96 62 97 63 98
REMARK SMILES IDX 64 99 65 100 66 101
REMARK H PARENT 24 5 4 14 28 32 90 51 56 62
REMARK Flexibility Score: inf
ROOT
ATOM      1  C   UNL A   1      30.998  29.999  24.841  1.00  0.00     0.118 C 
ENDROOT
BRANCH   1   2
ATOM      2  N   UNL A   1      31.098  29.199  23.583  1.00  0.00    -0.352 N 
ATOM      3  C   UNL A   1      30.939  27.881  23.179  1.00  0.00     0.251 C 
ATOM      4  O   UNL A   1      30.816  27.579  21.990  1.00  0.00    -0.269 OA
ATOM      5  H   UNL A   1      31.350  29.772  22.823  1.00  0.00     0.163 HD
BRANCH   3   6
ATOM      6  C   UNL A   1      30.917  26.763  24.148  1.00  0.00     0.044 A 
ATOM      7  C   UNL A   1      33.157  25.936  23.364  1.00  0.00     0.047 C 
ATOM      8  C   UNL A   1      32.066  26.020  24.400  1.00  0.00    -0.015 A 
ATOM      9  C   UNL A   1      32.136  25.234  25.560  1.00  0.00     0.038 A 
ATOM     10  C   UNL A   1      30.942  24.869  26.188  1.00  0.00     0.026 A 
ATOM     11  C   UNL A   1      29.717  26.387  24.772  1.00  0.00     0.014 A 
ATOM     12  C   UNL A   1      29.723  25.398  25.757  1.00  0.00     0.003 A 
BRANCH   9  13
ATOM     13  N   UNL A   1      33.383  24.885  26.030  1.00  0.00    -0.378 N 
ATOM     14  H   UNL A   1      33.959  25.623  26.334  1.00  0.00     0.161 HD
BRANCH  13  15
ATOM     15  C   UNL A   1      33.934  23.558  26.124  1.00  0.00     0.188 C 
BRANCH  15  16
ATOM     16  C   UNL A   1      35.323  23.469  25.596  1.00  0.00     0.123 A 
ATOM     17  C   UNL A   1      35.860  23.193  24.356  1.00  0.00     0.048 A 
ATOM     18  O   UNL A   1      36.324  23.713  26.486  1.00  0.00    -0.459 OA
ATOM     19  C   UNL A   1      37.257  23.347  24.470  1.00  0.00     0.051 A 
ATOM     20  C   UNL A   1      37.495  23.616  25.798  1.00  0.00     0.134 A 
BRANCH  20  21
ATOM     21  C   UNL A   1      38.698  23.754  26.586  1.00  0.00     0.017 A 
ATOM     22  C   UNL A   1      39.030  24.974  27.182  1.00  0.00     0.013 A 
ATOM     23  C   UNL A   1      39.572  22.666  26.696  1.00  0.00     0.013 A 
ATOM     24  C   UNL A   1      40.234  25.106  27.877  1.00  0.00     0.021 A 
ATOM     25  C   UNL A   1      40.781  22.800  27.376  1.00  0.00     0.021 A 
ATOM     26  C   UNL A   1      41.107  24.022  27.961  1.00  0.00     0.041 A 
ATOM     27  Cl  UNL A   1      42.606  24.193  28.787  1.00  0.00    -0.084 Cl
ENDBRANCH  20  21
ENDBRANCH  15  16
ENDBRANCH  13  15
ENDBRANCH   9  13
ENDBRANCH   3   6
ENDBRANCH   1   2
BRANCH   1  28
ATOM     28  C   UNL A   1      32.294  30.139  25.840  1.00  0.00     0.042 C 
BRANCH  28  29
ATOM     29  C   UNL A   1      32.271  31.323  26.914  1.00  0.00     0.118 C 
BRANCH  29  30
ATOM     30  N   UNL A   1      33.441  31.775  27.875  1.00  0.00    -0.352 N 
ATOM     31  C   UNL A   1      34.900  31.645  27.939  1.00  0.00     0.251 C 
ATOM     32  H   UNL A   1      33.095  32.286  28.642  1.00  0.00     0.163 HD
ATOM     33  O   UNL A   1      35.490  32.739  27.849  1.00  0.00    -0.269 OA
BRANCH  31  34
ATOM     34  C   UNL A   1      35.896  30.427  28.178  1.00  0.00     0.039 A 
ATOM     35  C   UNL A   1      36.154  29.922  29.496  1.00  0.00     0.014 A 
ATOM     36  C   UNL A   1      36.668  29.790  27.216  1.00  0.00     0.014 A 
ATOM     37  C   UNL A   1      37.447  29.346  29.845  1.00  0.00     0.010 A 
ATOM     38  C   UNL A   1      37.946  29.233  27.555  1.00  0.00     0.010 A 
ATOM     39  C   UNL A   1      38.449  29.250  28.865  1.00  0.00    -0.014 A 
BRANCH  39  40
ATOM     40  C   UNL A   1      39.950  29.472  29.110  1.00  0.00     0.031 A 
ATOM     41  C   UNL A   1      40.952  28.686  28.397  1.00  0.00     0.074 A 
ATOM     42  C   UNL A   1      40.584  30.458  29.824  1.00  0.00     0.049 A 
ATOM     43  N   UNL A   1      41.963  28.096  28.950  1.00  0.00    -0.248 NA
ATOM     44  C   UNL A   1      40.925  28.631  26.949  1.00  0.00     0.031 C 
ATOM     45  C   UNL A   1      41.994  30.869  29.976  1.00  0.00     0.029 A 
ATOM     46  N   UNL A   1      40.020  31.458  30.583  1.00  0.00    -0.354 N 
ATOM     47  C   UNL A   1      42.863  27.888  27.927  1.00  0.00     0.074 A 
ATOM     48  C   UNL A   1      42.090  28.030  26.706  1.00  0.00     0.031 C 
ATOM     49  C   UNL A   1      42.121  31.707  31.036  1.00  0.00     0.029 A 
ATOM     50  C   UNL A   1      40.816  31.844  31.653  1.00  0.00     0.049 A 
ATOM     51  H   UNL A   1      39.142  31.859  30.387  1.00  0.00     0.167 HD
ATOM     52  C   UNL A   1      44.216  27.920  28.135  1.00  0.00     0.037 A 
ATOM     53  C   UNL A   1      40.386  31.582  32.932  1.00  0.00     0.037 A 
ATOM     54  C   UNL A   1      44.566  28.466  29.462  1.00  0.00     0.049 A 
ATOM     55  C   UNL A   1      41.205  30.455  33.504  1.00  0.00     0.074 A 
ATOM     56  C   UNL A   1      45.187  29.635  29.889  1.00  0.00     0.029 A 
ATOM     57  N   UNL A   1      44.014  27.922  30.610  1.00  0.00    -0.354 N 
ATOM     58  N   UNL A   1      42.343  30.085  32.996  1.00  0.00    -0.248 NA
ATOM     59  C   UNL A   1      40.786  29.591  34.605  1.00  0.00     0.031 C 
ATOM     60  C   UNL A   1      45.015  29.762  31.300  1.00  0.00     0.029 A 
ATOM     61  C   UNL A   1      44.307  28.662  31.744  1.00  0.00     0.049 A 
ATOM     62  H   UNL A   1      43.472  27.099  30.618  1.00  0.00     0.167 HD
ATOM     63  C   UNL A   1      42.725  28.895  33.533  1.00  0.00     0.074 A 
ATOM     64  C   UNL A   1      41.750  28.651  34.582  1.00  0.00     0.031 C 
ATOM     65  C   UNL A   1      43.786  28.201  33.027  1.00  0.00     0.037 A 
BRANCH  52  66
ATOM     66  C   UNL A   1      45.224  27.746  27.003  1.00  0.00     0.058 A 
ATOM     67  C   UNL A   1      45.581  26.475  26.505  1.00  0.00     0.135 A 
ATOM     68  C   UNL A   1      45.832  28.821  26.317  1.00  0.00     0.135 A 
ATOM     69  F   UNL A   1      44.976  25.357  26.929  1.00  0.00    -0.206 F 
ATOM     70  C   UNL A   1      46.544  26.288  25.507  1.00  0.00     0.059 A 
ATOM     71  C   UNL A   1      46.855  28.662  25.378  1.00  0.00     0.059 A 
ATOM     72  F   UNL A   1      45.395  30.082  26.464  1.00  0.00    -0.206 F 
ATOM     73  C   UNL A   1      47.199  27.386  24.970  1.00  0.00     0.060 A 
BRANCH  73  74
ATOM     74  S   UNL A   1      48.415  27.136  23.664  1.00  0.00     0.124 S 
ATOM     75  O   UNL A   1      48.188  25.745  23.287  1.00  0.00    -0.237 OA
ATOM     76  O   UNL A   1      48.009  28.135  22.680  1.00  0.00    -0.237 OA
ATOM     77  O   UNL A   1      49.689  27.398  24.327  1.00  0.00    -0.744 OA
ENDBRANCH  73  74
ENDBRANCH  52  66
BRANCH  53  78
ATOM     78  C   UNL A   1      38.872  31.786  33.213  1.00  0.00     0.058 A 
ATOM     79  C   UNL A   1      38.341  30.863  34.134  1.00  0.00     0.135 A 
ATOM     80  C   UNL A   1      38.569  33.095  33.537  1.00  0.00     0.135 A 
ATOM     81  F   UNL A   1      37.951  29.655  33.713  1.00  0.00    -0.206 F 
ATOM     82  C   UNL A   1      38.293  31.145  35.501  1.00  0.00     0.059 A 
ATOM     83  C   UNL A   1      38.556  33.390  34.904  1.00  0.00     0.059 A 
ATOM     84  F   UNL A   1      38.832  34.084  32.664  1.00  0.00    -0.206 F 
ATOM     85  C   UNL A   1      38.630  32.426  35.890  1.00  0.00     0.060 A 
BRANCH  85  86
ATOM     86  S   UNL A   1      39.580  32.739  37.609  1.00  0.00     0.124 S 
ATOM     87  O   UNL A   1      40.758  31.931  37.354  1.00  0.00    -0.237 OA
ATOM     88  O   UNL A   1      39.885  34.142  37.675  1.00  0.00    -0.237 OA
ATOM     89  O   UNL A   1      38.731  32.243  38.684  1.00  0.00    -0.744 OA
ENDBRANCH  85  86
ENDBRANCH  53  78
BRANCH  65  90
ATOM     90  C   UNL A   1      44.389  26.992  33.686  1.00  0.00     0.058 A 
ATOM     91  C   UNL A   1      45.172  27.078  34.848  1.00  0.00     0.135 A 
ATOM     92  C   UNL A   1      44.317  25.710  33.093  1.00  0.00     0.135 A 
ATOM     93  F   UNL A   1      45.458  28.263  35.411  1.00  0.00    -0.206 F 
ATOM     94  C   UNL A   1      45.730  25.955  35.454  1.00  0.00     0.059 A 
ATOM     95  C   UNL A   1      44.904  24.584  33.652  1.00  0.00     0.059 A 
ATOM     96  F   UNL A   1      43.674  25.485  31.941  1.00  0.00    -0.206 F 
ATOM     97  C   UNL A   1      45.575  24.709  34.855  1.00  0.00     0.060 A 
BRANCH  97  98
ATOM     98  S   UNL A   1      46.284  23.258  35.640  1.00  0.00     0.124 S 
ATOM     99  O   UNL A   1      45.095  22.512  36.045  1.00  0.00    -0.237 OA
ATOM    100  O   UNL A   1      47.049  22.680  34.539  1.00  0.00    -0.237 OA
ATOM    101  O   UNL A   1      47.074  23.810  36.735  1.00  0.00    -0.744 OA
ENDBRANCH  97  98
ENDBRANCH  65  90
ENDBRANCH  39  40
ENDBRANCH  31  34
ENDBRANCH  29  30
ENDBRANCH  28  29
ENDBRANCH   1  28
TORSDOF 17
ENDMDL
MODEL 3
REMARK VINA RESULT:     -12.1      5.201      8.980
REMARK SMILES Cc1c(NCc2ccc(-c3ccc(Cl)cc3)o2)cccc1C(=O)NCCCNC(=O)c1ccc(-c2c3nc(c(-c4c(F)cc(S(=O)(=O)[O-])cc4F)c4ccc([nH]4)c(-c4c(F)cc(S(=O)(=O)[O-])cc4F)c4nc(c(-c5c(F)cc(S(=O)(=O)[O-])cc5F)c5ccc2[nH]5)C=C4)C=C3)cc1
REMARK SMILES IDX 25 1 24 2 22 3 23 4 21 6 1 7 2 8 3 9 18 10 20 11 19 12 4 13
REMARK SMILES IDX 5 15 6 16 7 17 17 18 8 19 9 20 10 21 11 22 16 23 12 24 15 25
REMARK SMILES IDX 13 26 14 27 26 28 27 29 28 30 29 31 30 33 31 34 32 35 96 36
REMARK SMILES IDX 33 37 95 38 34 39 35 40 36 41 89 42 37 43 94 44 88 45 90 46
REMARK SMILES IDX 38 47 93 48 87 49 86 50 39 52 73 53 52 54 72 55 53 56 56 57
REMARK SMILES IDX 71 58 91 59 54 60 55 61 70 63 92 64 57 65 40 66 41 67 50 68
REMARK SMILES IDX 42 69 43 70 49 71 51 72 44 73 45 74 46 75 47 76 48 77 74 78
REMARK SMILES IDX 75 79 84 80 76 81 77 82 83 83 85 84 78 85 79 86 80 87 81 88
REMARK SMILES IDX 82 89 58 90 59 91 68 92 60 93 61 94 67 95 69 96 62 97 63 98
REMARK SMILES IDX 64 99 65 100 66 101
REMARK H PARENT 24 5 4 14 28 32 90 51 56 62
REMARK Flexibility Score: inf
ROOT
ATOM      1  C   UNL A   1      33.795  30.164  27.337  1.00  0.00     0.118 C 
ENDROOT
BRANCH   1   2
ATOM      2  N   UNL A   1      32.602  29.330  27.677  1.00  0.00    -0.352 N 
ATOM      3  C   UNL A   1      31.741  28.447  27.041  1.00  0.00     0.251 C 
ATOM      4  O   UNL A   1      31.006  27.689  27.678  1.00  0.00    -0.269 OA
ATOM      5  H   UNL A   1      32.357  29.440  28.624  1.00  0.00     0.163 HD
BRANCH   3   6
ATOM      6  C   UNL A   1      31.648  28.369  25.566  1.00  0.00     0.044 A 
ATOM      7  C   UNL A   1      33.428  26.597  25.472  1.00  0.00     0.047 C 
ATOM      8  C   UNL A   1      32.252  27.325  24.874  1.00  0.00    -0.015 A 
ATOM      9  C   UNL A   1      31.855  27.054  23.555  1.00  0.00     0.038 A 
ATOM     10  C   UNL A   1      31.213  28.065  22.834  1.00  0.00     0.026 A 
ATOM     11  C   UNL A   1      31.014  29.388  24.839  1.00  0.00     0.014 A 
ATOM     12  C   UNL A   1      30.845  29.258  23.459  1.00  0.00     0.003 A 
BRANCH   9  13
ATOM     13  N   UNL A   1      32.099  25.795  23.053  1.00  0.00    -0.378 N 
ATOM     14  H   UNL A   1      33.011  25.623  22.723  1.00  0.00     0.161 HD
BRANCH  13  15
ATOM     15  C   UNL A   1      31.165  24.703  22.957  1.00  0.00     0.188 C 
BRANCH  15  16
ATOM     16  C   UNL A   1      31.421  23.632  23.957  1.00  0.00     0.123 A 
ATOM     17  C   UNL A   1      31.315  23.558  25.330  1.00  0.00     0.048 A 
ATOM     18  O   UNL A   1      31.850  22.437  23.466  1.00  0.00    -0.459 OA
ATOM     19  C   UNL A   1      31.622  22.231  25.695  1.00  0.00     0.051 A 
ATOM     20  C   UNL A   1      31.989  21.600  24.531  1.00  0.00     0.134 A 
BRANCH  20  21
ATOM     21  C   UNL A   1      32.526  20.292  24.233  1.00  0.00     0.017 A 
ATOM     22  C   UNL A   1      33.572  19.757  24.990  1.00  0.00     0.013 A 
ATOM     23  C   UNL A   1      32.033  19.584  23.130  1.00  0.00     0.013 A 
ATOM     24  C   UNL A   1      34.127  18.524  24.640  1.00  0.00     0.021 A 
ATOM     25  C   UNL A   1      32.595  18.361  22.770  1.00  0.00     0.021 A 
ATOM     26  C   UNL A   1      33.642  17.838  23.526  1.00  0.00     0.041 A 
ATOM     27  Cl  UNL A   1      34.347  16.336  23.073  1.00  0.00    -0.084 Cl
ENDBRANCH  20  21
ENDBRANCH  15  16
ENDBRANCH  13  15
ENDBRANCH   9  13
ENDBRANCH   3   6
ENDBRANCH   1   2
BRANCH   1  28
ATOM     28  C   UNL A   1      35.224  29.450  26.956  1.00  0.00     0.042 C 
BRANCH  28  29
ATOM     29  C   UNL A   1      36.422  29.594  28.005  1.00  0.00     0.118 C 
BRANCH  29  30
ATOM     30  N   UNL A   1      37.881  28.998  27.890  1.00  0.00    -0.352 N 
ATOM     31  C   UNL A   1      38.737  28.078  28.646  1.00  0.00     0.251 C 
ATOM     32  H   UNL A   1      38.342  29.338  27.090  1.00  0.00     0.163 HD
ATOM     33  O   UNL A   1      39.017  27.043  28.012  1.00  0.00    -0.269 OA
BRANCH  31  34
ATOM     34  C   UNL A   1      39.454  28.143  30.066  1.00  0.00     0.039 A 
ATOM     35  C   UNL A   1      38.700  28.301  31.276  1.00  0.00     0.014 A 
ATOM     36  C   UNL A   1      40.821  28.145  30.300  1.00  0.00     0.014 A 
ATOM     37  C   UNL A   1      39.254  29.008  32.424  1.00  0.00     0.010 A 
ATOM     38  C   UNL A   1      41.370  28.849  31.423  1.00  0.00     0.010 A 
ATOM     39  C   UNL A   1      40.564  29.514  32.360  1.00  0.00    -0.014 A 
BRANCH  39  40
ATOM     40  C   UNL A   1      41.028  30.846  32.969  1.00  0.00     0.031 A 
ATOM     41  C   UNL A   1      42.097  30.886  33.960  1.00  0.00     0.074 A 
ATOM     42  C   UNL A   1      40.701  32.131  32.615  1.00  0.00     0.049 A 
ATOM     43  N   UNL A   1      42.047  31.534  35.080  1.00  0.00    -0.248 NA
ATOM     44  C   UNL A   1      43.375  30.269  33.664  1.00  0.00     0.031 C 
ATOM     45  C   UNL A   1      41.212  33.462  33.000  1.00  0.00     0.029 A 
ATOM     46  N   UNL A   1      39.793  32.551  31.669  1.00  0.00    -0.354 N 
ATOM     47  C   UNL A   1      43.361  31.690  35.466  1.00  0.00     0.074 A 
ATOM     48  C   UNL A   1      44.105  30.715  34.688  1.00  0.00     0.031 C 
ATOM     49  C   UNL A   1      40.344  34.425  32.599  1.00  0.00     0.029 A 
ATOM     50  C   UNL A   1      39.207  33.771  31.982  1.00  0.00     0.049 A 
ATOM     51  H   UNL A   1      39.580  32.038  30.856  1.00  0.00     0.167 HD
ATOM     52  C   UNL A   1      43.788  32.796  36.153  1.00  0.00     0.037 A 
ATOM     53  C   UNL A   1      37.866  33.809  32.280  1.00  0.00     0.037 A 
ATOM     54  C   UNL A   1      42.776  33.871  36.168  1.00  0.00     0.049 A 
ATOM     55  C   UNL A   1      37.700  34.031  33.761  1.00  0.00     0.074 A 
ATOM     56  C   UNL A   1      42.703  35.134  35.589  1.00  0.00     0.029 A 
ATOM     57  N   UNL A   1      41.490  33.614  36.614  1.00  0.00    -0.354 N 
ATOM     58  N   UNL A   1      38.658  34.478  34.517  1.00  0.00    -0.248 NA
ATOM     59  C   UNL A   1      36.508  33.681  34.530  1.00  0.00     0.031 C 
ATOM     60  C   UNL A   1      41.370  35.627  35.719  1.00  0.00     0.029 A 
ATOM     61  C   UNL A   1      40.628  34.677  36.394  1.00  0.00     0.049 A 
ATOM     62  H   UNL A   1      41.218  32.769  37.040  1.00  0.00     0.167 HD
ATOM     63  C   UNL A   1      38.323  34.327  35.826  1.00  0.00     0.074 A 
ATOM     64  C   UNL A   1      36.941  33.879  35.790  1.00  0.00     0.031 C 
ATOM     65  C   UNL A   1      39.238  34.541  36.817  1.00  0.00     0.037 A 
BRANCH  52  66
ATOM     66  C   UNL A   1      45.249  33.008  36.538  1.00  0.00     0.058 A 
ATOM     67  C   UNL A   1      45.798  32.470  37.722  1.00  0.00     0.135 A 
ATOM     68  C   UNL A   1      46.185  33.692  35.731  1.00  0.00     0.135 A 
ATOM     69  F   UNL A   1      45.093  31.658  38.519  1.00  0.00    -0.206 F 
ATOM     70  C   UNL A   1      47.119  32.700  38.123  1.00  0.00     0.059 A 
ATOM     71  C   UNL A   1      47.482  34.006  36.145  1.00  0.00     0.059 A 
ATOM     72  F   UNL A   1      45.909  34.013  34.457  1.00  0.00    -0.206 F 
ATOM     73  C   UNL A   1      47.946  33.495  37.344  1.00  0.00     0.060 A 
BRANCH  73  74
ATOM     74  S   UNL A   1      49.654  33.757  37.855  1.00  0.00     0.124 S 
ATOM     75  O   UNL A   1      50.025  34.954  37.106  1.00  0.00    -0.237 OA
ATOM     76  O   UNL A   1      49.514  33.928  39.297  1.00  0.00    -0.237 OA
ATOM     77  O   UNL A   1      50.329  32.531  37.437  1.00  0.00    -0.744 OA
ENDBRANCH  73  74
ENDBRANCH  52  66
BRANCH  53  78
ATOM     78  C   UNL A   1      36.936  32.903  31.427  1.00  0.00     0.058 A 
ATOM     79  C   UNL A   1      35.867  32.349  32.156  1.00  0.00     0.135 A 
ATOM     80  C   UNL A   1      36.522  33.523  30.263  1.00  0.00     0.135 A 
ATOM     81  F   UNL A   1      36.057  31.233  32.868  1.00  0.00    -0.206 F 
ATOM     82  C   UNL A   1      34.627  32.988  32.226  1.00  0.00     0.059 A 
ATOM     83  C   UNL A   1      35.298  34.195  30.341  1.00  0.00     0.059 A 
ATOM     84  F   UNL A   1      37.429  33.933  29.358  1.00  0.00    -0.206 F 
ATOM     85  C   UNL A   1      34.442  34.092  31.419  1.00  0.00     0.060 A 
BRANCH  85  86
ATOM     86  S   UNL A   1      33.336  35.622  32.044  1.00  0.00     0.124 S 
ATOM     87  O   UNL A   1      34.237  36.138  33.058  1.00  0.00    -0.237 OA
ATOM     88  O   UNL A   1      33.194  36.523  30.933  1.00  0.00    -0.237 OA
ATOM     89  O   UNL A   1      32.087  35.086  32.565  1.00  0.00    -0.744 OA
ENDBRANCH  85  86
ENDBRANCH  53  78
BRANCH  65  90
ATOM     90  C   UNL A   1      38.894  34.592  38.280  1.00  0.00     0.058 A 
ATOM     91  C   UNL A   1      39.099  35.740  39.063  1.00  0.00     0.135 A 
ATOM     92  C   UNL A   1      38.472  33.441  38.984  1.00  0.00     0.135 A 
ATOM     93  F   UNL A   1      39.657  36.847  38.548  1.00  0.00    -0.206 F 
ATOM     94  C   UNL A   1      38.781  35.780  40.418  1.00  0.00     0.059 A 
ATOM     95  C   UNL A   1      38.194  33.445  40.343  1.00  0.00     0.059 A 
ATOM     96  F   UNL A   1      38.310  32.253  38.389  1.00  0.00    -0.206 F 
ATOM     97  C   UNL A   1      38.313  34.630  41.045  1.00  0.00     0.060 A 
BRANCH  97  98
ATOM     98  S   UNL A   1      37.890  34.684  42.789  1.00  0.00     0.124 S 
ATOM     99  O   UNL A   1      38.603  33.524  43.318  1.00  0.00    -0.237 OA
ATOM    100  O   UNL A   1      38.425  35.986  43.174  1.00  0.00    -0.237 OA
ATOM    101  O   UNL A   1      36.435  34.575  42.794  1.00  0.00    -0.744 OA
ENDBRANCH  97  98
ENDBRANCH  65  90
ENDBRANCH  39  40
ENDBRANCH  31  34
ENDBRANCH  29  30
ENDBRANCH  28  29
ENDBRANCH   1  28
TORSDOF 17
ENDMDL
