MODEL 1
REMARK VINA RESULT:     -11.9      0.000      0.000
REMARK SMILES O=C(NCCCNC(=O)c1cn(C2CN(C(=O)Nc3ccsc3)C2)nn1)c1ccc(-c2c3nc(c(-c4c(F)cc(S(=O)(=O)[O-])cc4F)c4ccc([nH]4)c(-c4c(F)cc(S(=O)(=O)[O-])cc4F)c4nc(c(-c5c(F)cc(S(=O)(=O)[O-])cc5F)c5ccc2[nH]5)C=C4)C=C3)cc1
REMARK SMILES IDX 4 1 3 2 1 3 2 4 27 6 28 7 92 8 29 9 91 10 30 11 31 12 32 13
REMARK SMILES IDX 85 14 33 15 90 16 84 17 86 18 34 19 89 20 83 21 82 22 35 24
REMARK SMILES IDX 69 25 48 26 68 27 49 28 52 29 67 30 87 31 50 32 51 33 66 35
REMARK SMILES IDX 88 36 53 37 36 38 37 39 46 40 38 41 39 42 45 43 47 44 40 45
REMARK SMILES IDX 41 46 42 47 43 48 44 49 70 50 71 51 80 52 72 53 73 54 79 55
REMARK SMILES IDX 81 56 74 57 75 58 76 59 77 60 78 61 54 62 55 63 64 64 56 65
REMARK SMILES IDX 57 66 63 67 65 68 58 69 59 70 60 71 61 72 62 73 5 74 6 75
REMARK SMILES IDX 7 76 8 77 9 79 10 80 11 81 26 82 12 83 25 84 13 85 14 86
REMARK SMILES IDX 24 87 15 88 16 89 17 90 18 91 19 93 20 94 23 95 21 96 22 97
REMARK H PARENT 3 5 86 23 52 34 7 78 18 92
REMARK Flexibility Score: inf
ROOT
ATOM      1  C   UNL A   1      34.918  33.731  29.006  1.00  0.00     0.118 C 
ENDROOT
BRANCH   1   2
ATOM      2  N   UNL A   1      34.489  32.571  28.253  1.00  0.00    -0.352 N 
ATOM      3  O   UNL A   1      34.200  30.538  27.479  1.00  0.00    -0.269 OA
ATOM      4  C   UNL A   1      34.970  31.308  28.061  1.00  0.00     0.251 C 
ATOM      5  H   UNL A   1      33.651  32.732  27.762  1.00  0.00     0.163 HD
BRANCH   4   6
ATOM      6  C   UNL A   1      36.333  30.826  28.419  1.00  0.00     0.039 A 
ATOM      7  C   UNL A   1      37.358  31.583  28.990  1.00  0.00     0.014 A 
ATOM      8  C   UNL A   1      36.601  29.483  28.083  1.00  0.00     0.014 A 
ATOM      9  C   UNL A   1      38.638  31.042  29.130  1.00  0.00     0.010 A 
ATOM     10  C   UNL A   1      37.871  28.939  28.225  1.00  0.00     0.010 A 
ATOM     11  C   UNL A   1      38.903  29.734  28.708  1.00  0.00    -0.014 A 
BRANCH  11  12
ATOM     12  C   UNL A   1      40.236  29.170  28.928  1.00  0.00     0.031 A 
ATOM     13  C   UNL A   1      40.600  29.006  30.369  1.00  0.00     0.074 A 
ATOM     14  C   UNL A   1      41.005  28.670  27.935  1.00  0.00     0.049 A 
ATOM     15  N   UNL A   1      41.579  29.545  31.019  1.00  0.00    -0.248 NA
ATOM     16  C   UNL A   1      39.675  28.241  31.225  1.00  0.00     0.031 C 
ATOM     17  C   UNL A   1      40.652  28.492  26.523  1.00  0.00     0.029 A 
ATOM     18  N   UNL A   1      42.250  28.117  27.999  1.00  0.00    -0.354 N 
ATOM     19  C   UNL A   1      41.520  29.022  32.313  1.00  0.00     0.074 A 
ATOM     20  C   UNL A   1      40.247  28.363  32.422  1.00  0.00     0.031 C 
ATOM     21  C   UNL A   1      41.554  27.673  25.931  1.00  0.00     0.029 A 
ATOM     22  C   UNL A   1      42.619  27.379  26.876  1.00  0.00     0.049 A 
ATOM     23  H   UNL A   1      42.843  28.230  28.777  1.00  0.00     0.167 HD
ATOM     24  C   UNL A   1      42.614  28.992  33.127  1.00  0.00     0.037 A 
ATOM     25  C   UNL A   1      43.689  26.546  26.754  1.00  0.00     0.037 A 
ATOM     26  C   UNL A   1      43.623  29.913  32.674  1.00  0.00     0.049 A 
ATOM     27  C   UNL A   1      44.654  26.920  27.820  1.00  0.00     0.074 A 
ATOM     28  C   UNL A   1      43.681  31.281  32.498  1.00  0.00     0.029 A 
ATOM     29  N   UNL A   1      44.691  29.403  31.977  1.00  0.00    -0.354 N 
ATOM     30  N   UNL A   1      45.280  28.065  27.864  1.00  0.00    -0.248 NA
ATOM     31  C   UNL A   1      44.558  26.210  29.087  1.00  0.00     0.031 C 
ATOM     32  C   UNL A   1      44.451  31.465  31.314  1.00  0.00     0.029 A 
ATOM     33  C   UNL A   1      44.876  30.207  30.883  1.00  0.00     0.049 A 
ATOM     34  H   UNL A   1      45.222  28.610  32.218  1.00  0.00     0.167 HD
ATOM     35  C   UNL A   1      45.278  28.418  29.206  1.00  0.00     0.074 A 
ATOM     36  C   UNL A   1      44.874  27.206  29.918  1.00  0.00     0.031 C 
ATOM     37  C   UNL A   1      45.329  29.724  29.598  1.00  0.00     0.037 A 
BRANCH  24  38
ATOM     38  C   UNL A   1      42.928  27.881  34.108  1.00  0.00     0.058 A 
ATOM     39  C   UNL A   1      42.998  28.178  35.488  1.00  0.00     0.135 A 
ATOM     40  C   UNL A   1      43.454  26.625  33.733  1.00  0.00     0.135 A 
ATOM     41  F   UNL A   1      42.521  29.339  35.964  1.00  0.00    -0.206 F 
ATOM     42  C   UNL A   1      43.634  27.339  36.403  1.00  0.00     0.059 A 
ATOM     43  C   UNL A   1      44.046  25.750  34.640  1.00  0.00     0.059 A 
ATOM     44  F   UNL A   1      43.509  26.220  32.460  1.00  0.00    -0.206 F 
ATOM     45  C   UNL A   1      44.175  26.135  35.963  1.00  0.00     0.060 A 
BRANCH  45  46
ATOM     46  S   UNL A   1      45.104  25.109  37.116  1.00  0.00     0.124 S 
ATOM     47  O   UNL A   1      46.443  25.672  36.992  1.00  0.00    -0.237 OA
ATOM     48  O   UNL A   1      44.413  25.368  38.374  1.00  0.00    -0.237 OA
ATOM     49  O   UNL A   1      44.932  23.762  36.579  1.00  0.00    -0.744 OA
ENDBRANCH  45  46
ENDBRANCH  24  38
BRANCH  25  50
ATOM     50  C   UNL A   1      43.753  25.228  26.055  1.00  0.00     0.058 A 
ATOM     51  C   UNL A   1      44.784  24.915  25.147  1.00  0.00     0.135 A 
ATOM     52  C   UNL A   1      42.965  24.140  26.484  1.00  0.00     0.135 A 
ATOM     53  F   UNL A   1      45.606  25.880  24.704  1.00  0.00    -0.206 F 
ATOM     54  C   UNL A   1      45.042  23.603  24.723  1.00  0.00     0.059 A 
ATOM     55  C   UNL A   1      43.197  22.828  26.069  1.00  0.00     0.059 A 
ATOM     56  F   UNL A   1      41.997  24.308  27.396  1.00  0.00    -0.206 F 
ATOM     57  C   UNL A   1      44.251  22.560  25.205  1.00  0.00     0.060 A 
BRANCH  57  58
ATOM     58  S   UNL A   1      44.669  20.847  24.793  1.00  0.00     0.124 S 
ATOM     59  O   UNL A   1      44.711  20.888  23.335  1.00  0.00    -0.237 OA
ATOM     60  O   UNL A   1      45.953  20.671  25.462  1.00  0.00    -0.237 OA
ATOM     61  O   UNL A   1      43.563  20.082  25.363  1.00  0.00    -0.744 OA
ENDBRANCH  57  58
ENDBRANCH  25  50
BRANCH  37  62
ATOM     62  C   UNL A   1      45.665  30.777  28.575  1.00  0.00     0.058 A 
ATOM     63  C   UNL A   1      44.726  31.390  27.724  1.00  0.00     0.135 A 
ATOM     64  C   UNL A   1      46.956  31.324  28.602  1.00  0.00     0.135 A 
ATOM     65  F   UNL A   1      43.447  30.989  27.705  1.00  0.00    -0.206 F 
ATOM     66  C   UNL A   1      45.064  32.487  26.929  1.00  0.00     0.059 A 
ATOM     67  C   UNL A   1      47.306  32.435  27.842  1.00  0.00     0.059 A 
ATOM     68  F   UNL A   1      47.880  30.818  29.437  1.00  0.00    -0.206 F 
ATOM     69  C   UNL A   1      46.355  33.009  27.003  1.00  0.00     0.060 A 
BRANCH  69  70
ATOM     70  S   UNL A   1      46.760  34.500  26.067  1.00  0.00     0.124 S 
ATOM     71  O   UNL A   1      45.724  34.509  25.040  1.00  0.00    -0.237 OA
ATOM     72  O   UNL A   1      46.660  35.547  27.081  1.00  0.00    -0.237 OA
ATOM     73  O   UNL A   1      48.116  34.243  25.585  1.00  0.00    -0.744 OA
ENDBRANCH  69  70
ENDBRANCH  37  62
ENDBRANCH  11  12
ENDBRANCH   4   6
ENDBRANCH   1   2
BRANCH   1  74
ATOM     74  C   UNL A   1      34.397  35.058  28.464  1.00  0.00     0.042 C 
BRANCH  74  75
ATOM     75  C   UNL A   1      32.981  35.411  28.914  1.00  0.00     0.118 C 
BRANCH  75  76
ATOM     76  N   UNL A   1      32.917  36.647  29.679  1.00  0.00    -0.351 N 
ATOM     77  C   UNL A   1      33.144  36.869  31.015  1.00  0.00     0.273 C 
ATOM     78  H   UNL A   1      32.675  37.448  29.160  1.00  0.00     0.163 HD
ATOM     79  O   UNL A   1      32.875  37.985  31.479  1.00  0.00    -0.267 OA
BRANCH  77  80
ATOM     80  C   UNL A   1      33.690  35.802  31.830  1.00  0.00     0.170 A 
ATOM     81  C   UNL A   1      34.984  35.652  32.290  1.00  0.00     0.145 A 
ATOM     82  N   UNL A   1      32.930  34.769  32.317  1.00  0.00    -0.125 NA
ATOM     83  N   UNL A   1      34.970  34.454  32.939  1.00  0.00    -0.245 N 
ATOM     84  N   UNL A   1      33.726  33.945  32.983  1.00  0.00    -0.066 NA
BRANCH  83  85
ATOM     85  C   UNL A   1      36.048  33.822  33.624  1.00  0.00     0.148 C 
ATOM     86  C   UNL A   1      36.036  32.281  33.690  1.00  0.00     0.150 C 
ATOM     87  C   UNL A   1      37.274  33.638  32.699  1.00  0.00     0.150 C 
ATOM     88  N   UNL A   1      37.471  32.400  33.417  1.00  0.00    -0.320 N 
ATOM     89  C   UNL A   1      38.418  31.437  33.511  1.00  0.00     0.322 C 
ATOM     90  O   UNL A   1      38.147  30.321  33.960  1.00  0.00    -0.248 OA
ATOM     91  N   UNL A   1      39.660  31.626  32.992  1.00  0.00    -0.307 N 
ATOM     92  H   UNL A   1      40.158  30.795  32.815  1.00  0.00     0.171 HD
BRANCH  91  93
ATOM     93  C   UNL A   1      40.345  32.783  32.672  1.00  0.00     0.053 A 
ATOM     94  C   UNL A   1      40.594  33.321  31.377  1.00  0.00     0.038 A 
ATOM     95  C   UNL A   1      40.824  33.623  33.655  1.00  0.00     0.091 A 
ATOM     96  C   UNL A   1      41.442  34.408  31.414  1.00  0.00     0.067 A 
ATOM     97  S   UNL A   1      41.788  34.887  33.016  1.00  0.00    -0.150 S 
ENDBRANCH  91  93
ENDBRANCH  83  85
ENDBRANCH  77  80
ENDBRANCH  75  76
ENDBRANCH  74  75
ENDBRANCH   1  74
TORSDOF 15
ENDMDL
MODEL 2
REMARK VINA RESULT:     -11.8      4.752     11.364
REMARK SMILES O=C(NCCCNC(=O)c1cn(C2CN(C(=O)Nc3ccsc3)C2)nn1)c1ccc(-c2c3nc(c(-c4c(F)cc(S(=O)(=O)[O-])cc4F)c4ccc([nH]4)c(-c4c(F)cc(S(=O)(=O)[O-])cc4F)c4nc(c(-c5c(F)cc(S(=O)(=O)[O-])cc5F)c5ccc2[nH]5)C=C4)C=C3)cc1
REMARK SMILES IDX 4 1 3 2 1 3 2 4 27 6 28 7 92 8 29 9 91 10 30 11 31 12 32 13
REMARK SMILES IDX 85 14 33 15 90 16 84 17 86 18 34 19 89 20 83 21 82 22 35 24
REMARK SMILES IDX 69 25 48 26 68 27 49 28 52 29 67 30 87 31 50 32 51 33 66 35
REMARK SMILES IDX 88 36 53 37 36 38 37 39 46 40 38 41 39 42 45 43 47 44 40 45
REMARK SMILES IDX 41 46 42 47 43 48 44 49 70 50 71 51 80 52 72 53 73 54 79 55
REMARK SMILES IDX 81 56 74 57 75 58 76 59 77 60 78 61 54 62 55 63 64 64 56 65
REMARK SMILES IDX 57 66 63 67 65 68 58 69 59 70 60 71 61 72 62 73 5 74 6 75
REMARK SMILES IDX 7 76 8 77 9 79 10 80 11 81 26 82 12 83 25 84 13 85 14 86
REMARK SMILES IDX 24 87 15 88 16 89 17 90 18 91 19 93 20 94 23 95 21 96 22 97
REMARK H PARENT 3 5 86 23 52 34 7 78 18 92
REMARK Flexibility Score: inf
ROOT
ATOM      1  C   UNL A   1      37.392  22.318  25.343  1.00  0.00     0.118 C 
ENDROOT
BRANCH   1   2
ATOM      2  N   UNL A   1      38.761  21.871  25.496  1.00  0.00    -0.352 N 
ATOM      3  O   UNL A   1      40.798  21.502  26.223  1.00  0.00    -0.269 OA
ATOM      4  C   UNL A   1      39.834  22.273  26.238  1.00  0.00     0.251 C 
ATOM      5  H   UNL A   1      38.966  21.093  24.930  1.00  0.00     0.163 HD
BRANCH   4   6
ATOM      6  C   UNL A   1      39.956  23.561  26.976  1.00  0.00     0.039 A 
ATOM      7  C   UNL A   1      39.086  24.650  26.895  1.00  0.00     0.014 A 
ATOM      8  C   UNL A   1      41.106  23.682  27.783  1.00  0.00     0.014 A 
ATOM      9  C   UNL A   1      39.406  25.855  27.523  1.00  0.00     0.010 A 
ATOM     10  C   UNL A   1      41.426  24.877  28.414  1.00  0.00     0.010 A 
ATOM     11  C   UNL A   1      40.597  25.980  28.248  1.00  0.00    -0.014 A 
BRANCH  11  12
ATOM     12  C   UNL A   1      40.876  27.233  28.952  1.00  0.00     0.031 A 
ATOM     13  C   UNL A   1      42.002  28.024  28.367  1.00  0.00     0.074 A 
ATOM     14  C   UNL A   1      40.083  27.730  29.927  1.00  0.00     0.049 A 
ATOM     15  N   UNL A   1      43.114  28.377  28.924  1.00  0.00    -0.248 NA
ATOM     16  C   UNL A   1      41.931  28.357  26.932  1.00  0.00     0.031 C 
ATOM     17  C   UNL A   1      38.791  27.215  30.392  1.00  0.00     0.029 A 
ATOM     18  N   UNL A   1      40.221  28.876  30.656  1.00  0.00    -0.354 N 
ATOM     19  C   UNL A   1      43.792  29.155  27.982  1.00  0.00     0.074 A 
ATOM     20  C   UNL A   1      43.098  28.970  26.737  1.00  0.00     0.031 C 
ATOM     21  C   UNL A   1      38.170  28.158  31.138  1.00  0.00     0.029 A 
ATOM     22  C   UNL A   1      39.068  29.285  31.321  1.00  0.00     0.049 A 
ATOM     23  H   UNL A   1      41.069  29.374  30.707  1.00  0.00     0.167 HD
ATOM     24  C   UNL A   1      44.746  30.057  28.348  1.00  0.00     0.037 A 
ATOM     25  C   UNL A   1      38.851  30.485  31.928  1.00  0.00     0.037 A 
ATOM     26  C   UNL A   1      45.239  29.783  29.672  1.00  0.00     0.049 A 
ATOM     27  C   UNL A   1      40.185  31.088  32.187  1.00  0.00     0.074 A 
ATOM     28  C   UNL A   1      45.890  28.719  30.266  1.00  0.00     0.029 A 
ATOM     29  N   UNL A   1      44.763  30.551  30.706  1.00  0.00    -0.354 N 
ATOM     30  N   UNL A   1      41.060  30.586  33.016  1.00  0.00    -0.248 NA
ATOM     31  C   UNL A   1      40.724  31.978  31.171  1.00  0.00     0.031 C 
ATOM     32  C   UNL A   1      45.334  28.637  31.575  1.00  0.00     0.029 A 
ATOM     33  C   UNL A   1      44.437  29.696  31.725  1.00  0.00     0.049 A 
ATOM     34  H   UNL A   1      44.674  31.531  30.713  1.00  0.00     0.167 HD
ATOM     35  C   UNL A   1      42.282  30.746  32.379  1.00  0.00     0.074 A 
ATOM     36  C   UNL A   1      42.018  31.666  31.274  1.00  0.00     0.031 C 
ATOM     37  C   UNL A   1      43.329  29.908  32.630  1.00  0.00     0.037 A 
BRANCH  24  38
ATOM     38  C   UNL A   1      44.974  31.393  27.670  1.00  0.00     0.058 A 
ATOM     39  C   UNL A   1      46.173  31.608  26.955  1.00  0.00     0.135 A 
ATOM     40  C   UNL A   1      44.219  32.554  27.944  1.00  0.00     0.135 A 
ATOM     41  F   UNL A   1      46.971  30.578  26.628  1.00  0.00    -0.206 F 
ATOM     42  C   UNL A   1      46.634  32.884  26.630  1.00  0.00     0.059 A 
ATOM     43  C   UNL A   1      44.635  33.832  27.583  1.00  0.00     0.059 A 
ATOM     44  F   UNL A   1      43.088  32.523  28.657  1.00  0.00    -0.206 F 
ATOM     45  C   UNL A   1      45.865  33.993  26.969  1.00  0.00     0.060 A 
BRANCH  45  46
ATOM     46  S   UNL A   1      46.513  35.646  26.664  1.00  0.00     0.124 S 
ATOM     47  O   UNL A   1      45.285  36.407  26.469  1.00  0.00    -0.237 OA
ATOM     48  O   UNL A   1      47.244  35.914  27.898  1.00  0.00    -0.237 OA
ATOM     49  O   UNL A   1      47.343  35.467  25.476  1.00  0.00    -0.744 OA
ENDBRANCH  45  46
ENDBRANCH  24  38
BRANCH  25  50
ATOM     50  C   UNL A   1      37.599  31.300  31.934  1.00  0.00     0.058 A 
ATOM     51  C   UNL A   1      36.954  31.666  33.131  1.00  0.00     0.135 A 
ATOM     52  C   UNL A   1      37.172  31.981  30.775  1.00  0.00     0.135 A 
ATOM     53  F   UNL A   1      37.313  31.093  34.291  1.00  0.00    -0.206 F 
ATOM     54  C   UNL A   1      35.976  32.670  33.183  1.00  0.00     0.059 A 
ATOM     55  C   UNL A   1      36.196  32.978  30.801  1.00  0.00     0.059 A 
ATOM     56  F   UNL A   1      37.760  31.762  29.590  1.00  0.00    -0.206 F 
ATOM     57  C   UNL A   1      35.615  33.335  32.011  1.00  0.00     0.060 A 
BRANCH  57  58
ATOM     58  S   UNL A   1      34.473  34.739  32.087  1.00  0.00     0.124 S 
ATOM     59  O   UNL A   1      33.337  34.166  32.800  1.00  0.00    -0.237 OA
ATOM     60  O   UNL A   1      35.250  35.732  32.819  1.00  0.00    -0.237 OA
ATOM     61  O   UNL A   1      34.231  35.054  30.681  1.00  0.00    -0.744 OA
ENDBRANCH  57  58
ENDBRANCH  25  50
BRANCH  37  62
ATOM     62  C   UNL A   1      43.244  28.970  33.805  1.00  0.00     0.058 A 
ATOM     63  C   UNL A   1      43.511  29.335  35.137  1.00  0.00     0.135 A 
ATOM     64  C   UNL A   1      42.675  27.706  33.590  1.00  0.00     0.135 A 
ATOM     65  F   UNL A   1      43.968  30.559  35.439  1.00  0.00    -0.206 F 
ATOM     66  C   UNL A   1      43.236  28.475  36.203  1.00  0.00     0.059 A 
ATOM     67  C   UNL A   1      42.365  26.846  34.637  1.00  0.00     0.059 A 
ATOM     68  F   UNL A   1      42.345  27.323  32.345  1.00  0.00    -0.206 F 
ATOM     69  C   UNL A   1      42.653  27.235  35.943  1.00  0.00     0.060 A 
BRANCH  69  70
ATOM     70  S   UNL A   1      42.187  26.171  37.326  1.00  0.00     0.124 S 
ATOM     71  O   UNL A   1      43.196  26.506  38.325  1.00  0.00    -0.237 OA
ATOM     72  O   UNL A   1      40.827  26.616  37.622  1.00  0.00    -0.237 OA
ATOM     73  O   UNL A   1      42.282  24.824  36.768  1.00  0.00    -0.744 OA
ENDBRANCH  69  70
ENDBRANCH  37  62
ENDBRANCH  11  12
ENDBRANCH   4   6
ENDBRANCH   1   2
BRANCH   1  74
ATOM     74  C   UNL A   1      36.357  21.202  25.423  1.00  0.00     0.042 C 
BRANCH  74  75
ATOM     75  C   UNL A   1      35.129  21.539  26.267  1.00  0.00     0.118 C 
BRANCH  75  76
ATOM     76  N   UNL A   1      34.005  20.648  26.021  1.00  0.00    -0.351 N 
ATOM     77  C   UNL A   1      32.928  20.798  25.182  1.00  0.00     0.273 C 
ATOM     78  H   UNL A   1      34.019  19.808  26.535  1.00  0.00     0.163 HD
ATOM     79  O   UNL A   1      32.007  19.973  25.257  1.00  0.00    -0.267 OA
BRANCH  77  80
ATOM     80  C   UNL A   1      32.907  21.901  24.244  1.00  0.00     0.170 A 
ATOM     81  C   UNL A   1      32.874  23.256  24.515  1.00  0.00     0.145 A 
ATOM     82  N   UNL A   1      32.971  21.728  22.884  1.00  0.00    -0.125 NA
ATOM     83  N   UNL A   1      32.794  23.839  23.285  1.00  0.00    -0.245 N 
ATOM     84  N   UNL A   1      32.888  22.920  22.309  1.00  0.00    -0.066 NA
BRANCH  83  85
ATOM     85  C   UNL A   1      32.753  25.231  22.983  1.00  0.00     0.148 C 
ATOM     86  C   UNL A   1      31.537  25.745  22.186  1.00  0.00     0.150 C 
ATOM     87  C   UNL A   1      32.158  26.045  24.156  1.00  0.00     0.150 C 
ATOM     88  N   UNL A   1      31.579  26.872  23.122  1.00  0.00    -0.320 N 
ATOM     89  C   UNL A   1      30.919  28.051  23.034  1.00  0.00     0.322 C 
ATOM     90  O   UNL A   1      30.251  28.332  22.037  1.00  0.00    -0.248 OA
ATOM     91  N   UNL A   1      30.862  28.900  24.094  1.00  0.00    -0.307 N 
ATOM     92  H   UNL A   1      30.120  29.547  24.059  1.00  0.00     0.171 HD
BRANCH  91  93
ATOM     93  C   UNL A   1      31.668  29.014  25.211  1.00  0.00     0.053 A 
ATOM     94  C   UNL A   1      31.458  28.448  26.502  1.00  0.00     0.038 A 
ATOM     95  C   UNL A   1      32.876  29.675  25.155  1.00  0.00     0.091 A 
ATOM     96  C   UNL A   1      32.380  28.890  27.426  1.00  0.00     0.067 A 
ATOM     97  S   UNL A   1      33.600  29.839  26.699  1.00  0.00    -0.150 S 
ENDBRANCH  91  93
ENDBRANCH  83  85
ENDBRANCH  77  80
ENDBRANCH  75  76
ENDBRANCH  74  75
ENDBRANCH   1  74
TORSDOF 15
ENDMDL
MODEL 3
REMARK VINA RESULT:     -11.8      0.930      1.141
REMARK SMILES O=C(NCCCNC(=O)c1cn(C2CN(C(=O)Nc3ccsc3)C2)nn1)c1ccc(-c2c3nc(c(-c4c(F)cc(S(=O)(=O)[O-])cc4F)c4ccc([nH]4)c(-c4c(F)cc(S(=O)(=O)[O-])cc4F)c4nc(c(-c5c(F)cc(S(=O)(=O)[O-])cc5F)c5ccc2[nH]5)C=C4)C=C3)cc1
REMARK SMILES IDX 4 1 3 2 1 3 2 4 27 6 28 7 92 8 29 9 91 10 30 11 31 12 32 13
REMARK SMILES IDX 85 14 33 15 90 16 84 17 86 18 34 19 89 20 83 21 82 22 35 24
REMARK SMILES IDX 69 25 48 26 68 27 49 28 52 29 67 30 87 31 50 32 51 33 66 35
REMARK SMILES IDX 88 36 53 37 36 38 37 39 46 40 38 41 39 42 45 43 47 44 40 45
REMARK SMILES IDX 41 46 42 47 43 48 44 49 70 50 71 51 80 52 72 53 73 54 79 55
REMARK SMILES IDX 81 56 74 57 75 58 76 59 77 60 78 61 54 62 55 63 64 64 56 65
REMARK SMILES IDX 57 66 63 67 65 68 58 69 59 70 60 71 61 72 62 73 5 74 6 75
REMARK SMILES IDX 7 76 8 77 9 79 10 80 11 81 26 82 12 83 25 84 13 85 14 86
REMARK SMILES IDX 24 87 15 88 16 89 17 90 18 91 19 93 20 94 23 95 21 96 22 97
REMARK H PARENT 3 5 86 23 52 34 7 78 18 92
REMARK Flexibility Score: inf
ROOT
ATOM      1  C   UNL A   1      34.737  33.664  29.161  1.00  0.00     0.118 C 
ENDROOT
BRANCH   1   2
ATOM      2  N   UNL A   1      34.391  32.577  28.270  1.00  0.00    -0.352 N 
ATOM      3  O   UNL A   1      34.220  30.629  27.273  1.00  0.00    -0.269 OA
ATOM      4  C   UNL A   1      34.930  31.358  27.971  1.00  0.00     0.251 C 
ATOM      5  H   UNL A   1      33.571  32.760  27.756  1.00  0.00     0.163 HD
BRANCH   4   6
ATOM      6  C   UNL A   1      36.292  30.888  28.346  1.00  0.00     0.039 A 
ATOM      7  C   UNL A   1      37.304  31.655  28.927  1.00  0.00     0.014 A 
ATOM      8  C   UNL A   1      36.575  29.547  28.016  1.00  0.00     0.014 A 
ATOM      9  C   UNL A   1      38.587  31.125  29.083  1.00  0.00     0.010 A 
ATOM     10  C   UNL A   1      37.848  29.014  28.174  1.00  0.00     0.010 A 
ATOM     11  C   UNL A   1      38.868  29.818  28.667  1.00  0.00    -0.014 A 
BRANCH  11  12
ATOM     12  C   UNL A   1      40.203  29.265  28.903  1.00  0.00     0.031 A 
ATOM     13  C   UNL A   1      40.563  29.135  30.349  1.00  0.00     0.074 A 
ATOM     14  C   UNL A   1      40.977  28.747  27.924  1.00  0.00     0.049 A 
ATOM     15  N   UNL A   1      41.537  29.693  30.990  1.00  0.00    -0.248 NA
ATOM     16  C   UNL A   1      39.639  28.385  31.219  1.00  0.00     0.031 C 
ATOM     17  C   UNL A   1      40.630  28.535  26.515  1.00  0.00     0.029 A 
ATOM     18  N   UNL A   1      42.225  28.201  28.004  1.00  0.00    -0.354 N 
ATOM     19  C   UNL A   1      41.477  29.200  32.295  1.00  0.00     0.074 A 
ATOM     20  C   UNL A   1      40.207  28.537  32.415  1.00  0.00     0.031 C 
ATOM     21  C   UNL A   1      41.537  27.708  25.945  1.00  0.00     0.029 A 
ATOM     22  C   UNL A   1      42.600  27.440  26.899  1.00  0.00     0.049 A 
ATOM     23  H   UNL A   1      42.814  28.334  28.781  1.00  0.00     0.167 HD
ATOM     24  C   UNL A   1      42.568  29.192  33.112  1.00  0.00     0.037 A 
ATOM     25  C   UNL A   1      43.674  26.610  26.799  1.00  0.00     0.037 A 
ATOM     26  C   UNL A   1      43.574  30.108  32.642  1.00  0.00     0.049 A 
ATOM     27  C   UNL A   1      44.634  27.012  27.859  1.00  0.00     0.074 A 
ATOM     28  C   UNL A   1      43.627  31.472  32.436  1.00  0.00     0.029 A 
ATOM     29  N   UNL A   1      44.647  29.587  31.959  1.00  0.00    -0.354 N 
ATOM     30  N   UNL A   1      45.255  28.160  27.880  1.00  0.00    -0.248 NA
ATOM     31  C   UNL A   1      44.537  26.330  29.141  1.00  0.00     0.031 C 
ATOM     32  C   UNL A   1      44.400  31.633  31.250  1.00  0.00     0.029 A 
ATOM     33  C   UNL A   1      44.832  30.367  30.849  1.00  0.00     0.049 A 
ATOM     34  H   UNL A   1      45.181  28.803  32.220  1.00  0.00     0.167 HD
ATOM     35  C   UNL A   1      45.247  28.544  29.213  1.00  0.00     0.074 A 
ATOM     36  C   UNL A   1      44.847  27.345  29.951  1.00  0.00     0.031 C 
ATOM     37  C   UNL A   1      45.291  29.858  29.576  1.00  0.00     0.037 A 
BRANCH  24  38
ATOM     38  C   UNL A   1      42.884  28.105  34.119  1.00  0.00     0.058 A 
ATOM     39  C   UNL A   1      42.933  28.430  35.493  1.00  0.00     0.135 A 
ATOM     40  C   UNL A   1      43.433  26.849  33.776  1.00  0.00     0.135 A 
ATOM     41  F   UNL A   1      42.433  29.593  35.940  1.00  0.00    -0.206 F 
ATOM     42  C   UNL A   1      43.568  27.618  36.434  1.00  0.00     0.059 A 
ATOM     43  C   UNL A   1      44.024  26.001  34.707  1.00  0.00     0.059 A 
ATOM     44  F   UNL A   1      43.509  26.421  32.511  1.00  0.00    -0.206 F 
ATOM     45  C   UNL A   1      44.130  26.413  36.024  1.00  0.00     0.060 A 
BRANCH  45  46
ATOM     46  S   UNL A   1      45.059  25.422  37.208  1.00  0.00     0.124 S 
ATOM     47  O   UNL A   1      46.432  25.757  36.853  1.00  0.00    -0.237 OA
ATOM     48  O   UNL A   1      44.579  25.948  38.482  1.00  0.00    -0.237 OA
ATOM     49  O   UNL A   1      44.640  24.057  36.903  1.00  0.00    -0.744 OA
ENDBRANCH  45  46
ENDBRANCH  24  38
BRANCH  25  50
ATOM     50  C   UNL A   1      43.747  25.276  26.129  1.00  0.00     0.058 A 
ATOM     51  C   UNL A   1      44.770  24.956  25.215  1.00  0.00     0.135 A 
ATOM     52  C   UNL A   1      42.979  24.189  26.595  1.00  0.00     0.135 A 
ATOM     53  F   UNL A   1      45.572  25.921  24.739  1.00  0.00    -0.206 F 
ATOM     54  C   UNL A   1      45.039  23.638  24.818  1.00  0.00     0.059 A 
ATOM     55  C   UNL A   1      43.224  22.871  26.208  1.00  0.00     0.059 A 
ATOM     56  F   UNL A   1      42.022  24.365  27.517  1.00  0.00    -0.206 F 
ATOM     57  C   UNL A   1      44.269  22.597  25.336  1.00  0.00     0.060 A 
BRANCH  57  58
ATOM     58  S   UNL A   1      44.705  20.880  24.957  1.00  0.00     0.124 S 
ATOM     59  O   UNL A   1      46.057  20.785  25.499  1.00  0.00    -0.237 OA
ATOM     60  O   UNL A   1      43.678  20.133  25.674  1.00  0.00    -0.237 OA
ATOM     61  O   UNL A   1      44.612  20.820  23.500  1.00  0.00    -0.744 OA
ENDBRANCH  57  58
ENDBRANCH  25  50
BRANCH  37  62
ATOM     62  C   UNL A   1      45.625  30.889  28.530  1.00  0.00     0.058 A 
ATOM     63  C   UNL A   1      44.688  31.472  27.657  1.00  0.00     0.135 A 
ATOM     64  C   UNL A   1      46.910  31.450  28.555  1.00  0.00     0.135 A 
ATOM     65  F   UNL A   1      43.413  31.058  27.638  1.00  0.00    -0.206 F 
ATOM     66  C   UNL A   1      45.021  32.553  26.839  1.00  0.00     0.059 A 
ATOM     67  C   UNL A   1      47.255  32.546  27.772  1.00  0.00     0.059 A 
ATOM     68  F   UNL A   1      47.832  30.974  29.410  1.00  0.00    -0.206 F 
ATOM     69  C   UNL A   1      46.306  33.090  26.911  1.00  0.00     0.060 A 
BRANCH  69  70
ATOM     70  S   UNL A   1      46.704  34.562  25.943  1.00  0.00     0.124 S 
ATOM     71  O   UNL A   1      45.677  34.536  24.907  1.00  0.00    -0.237 OA
ATOM     72  O   UNL A   1      46.585  35.632  26.930  1.00  0.00    -0.237 OA
ATOM     73  O   UNL A   1      48.067  34.307  25.478  1.00  0.00    -0.744 OA
ENDBRANCH  69  70
ENDBRANCH  37  62
ENDBRANCH  11  12
ENDBRANCH   4   6
ENDBRANCH   1   2
BRANCH   1  74
ATOM     74  C   UNL A   1      34.488  35.052  28.583  1.00  0.00     0.042 C 
BRANCH  74  75
ATOM     75  C   UNL A   1      33.100  35.618  28.876  1.00  0.00     0.118 C 
BRANCH  75  76
ATOM     76  N   UNL A   1      33.137  36.851  29.648  1.00  0.00    -0.351 N 
ATOM     77  C   UNL A   1      33.216  37.038  31.006  1.00  0.00     0.273 C 
ATOM     78  H   UNL A   1      33.102  37.679  29.114  1.00  0.00     0.163 HD
ATOM     79  O   UNL A   1      33.073  38.187  31.449  1.00  0.00    -0.267 OA
BRANCH  77  80
ATOM     80  C   UNL A   1      33.465  35.900  31.867  1.00  0.00     0.170 A 
ATOM     81  C   UNL A   1      34.628  35.569  32.535  1.00  0.00     0.145 A 
ATOM     82  N   UNL A   1      32.499  34.978  32.185  1.00  0.00    -0.125 NA
ATOM     83  N   UNL A   1      34.341  34.379  33.134  1.00  0.00    -0.245 N 
ATOM     84  N   UNL A   1      33.051  34.046  32.950  1.00  0.00    -0.066 NA
BRANCH  83  85
ATOM     85  C   UNL A   1      35.190  33.598  33.971  1.00  0.00     0.148 C 
ATOM     86  C   UNL A   1      35.835  32.344  33.348  1.00  0.00     0.150 C 
ATOM     87  C   UNL A   1      36.629  34.163  33.996  1.00  0.00     0.150 C 
ATOM     88  N   UNL A   1      37.035  32.777  34.070  1.00  0.00    -0.320 N 
ATOM     89  C   UNL A   1      38.174  32.077  34.287  1.00  0.00     0.322 C 
ATOM     90  O   UNL A   1      38.266  30.895  33.951  1.00  0.00    -0.248 OA
ATOM     91  N   UNL A   1      39.291  32.691  34.757  1.00  0.00    -0.307 N 
ATOM     92  H   UNL A   1      40.129  32.205  34.579  1.00  0.00     0.171 HD
BRANCH  91  93
ATOM     93  C   UNL A   1      39.455  33.878  35.445  1.00  0.00     0.053 A 
ATOM     94  C   UNL A   1      39.873  35.138  34.928  1.00  0.00     0.038 A 
ATOM     95  C   UNL A   1      39.136  33.978  36.783  1.00  0.00     0.091 A 
ATOM     96  C   UNL A   1      40.079  36.072  35.920  1.00  0.00     0.067 A 
ATOM     97  S   UNL A   1      39.594  35.488  37.450  1.00  0.00    -0.150 S 
ENDBRANCH  91  93
ENDBRANCH  83  85
ENDBRANCH  77  80
ENDBRANCH  75  76
ENDBRANCH  74  75
ENDBRANCH   1  74
TORSDOF 15
ENDMDL
