MODEL 1
REMARK VINA RESULT:     -11.8      0.000      0.000
REMARK SMILES CC(C)[C@@](C)(CC(=O)N[C@H]1CCCC1(C)C)C(=O)NCCCNC(=O)c1ccc(-c2c3nc(c(-c4c(F)cc(S(=O)(=O)[O-])cc4F)c4ccc([nH]4)c(-c4c(F)cc(S(=O)(=O)[O-])cc4F)c4nc(c(-c5c(F)cc(S(=O)(=O)[O-])cc5F)c5ccc2[nH]5)C=C4)C=C3)cc1
REMARK SMILES IDX 21 1 20 2 19 3 17 4 18 5 4 7 5 8 2 9 1 10 3 11 6 12 7 13
REMARK SMILES IDX 8 14 9 15 10 17 11 18 14 19 12 20 13 21 15 22 16 23 22 24
REMARK SMILES IDX 23 25 24 26 25 28 26 29 27 30 91 31 28 32 90 33 29 34 30 35
REMARK SMILES IDX 31 36 84 37 32 38 89 39 83 40 85 41 33 42 88 43 82 44 81 45
REMARK SMILES IDX 34 47 68 48 47 49 67 50 48 51 51 52 66 53 86 54 49 55 50 56
REMARK SMILES IDX 65 58 87 59 52 60 35 61 36 62 45 63 37 64 38 65 44 66 46 67
REMARK SMILES IDX 39 68 40 69 41 70 42 71 43 72 69 73 70 74 79 75 71 76 72 77
REMARK SMILES IDX 78 78 80 79 73 80 74 81 75 82 76 83 77 84 53 85 54 86 63 87
REMARK SMILES IDX 55 88 56 89 62 90 64 91 57 92 58 93 59 94 60 95 61 96
REMARK H PARENT 19 6 9 16 23 27 85 46 51 57
REMARK Flexibility Score: inf
ROOT
ATOM      1  C   UNL A   1      37.385  23.293  25.583  1.00  0.00     0.042 C 
ENDROOT
BRANCH   1   2
ATOM      2  C   UNL A   1      35.944  23.786  25.546  1.00  0.00     0.117 C 
BRANCH   2   3
ATOM      3  N   UNL A   1      35.446  23.821  24.181  1.00  0.00    -0.356 N 
ATOM      4  C   UNL A   1      34.398  23.241  23.548  1.00  0.00     0.226 C 
ATOM      5  O   UNL A   1      34.331  23.488  22.340  1.00  0.00    -0.274 OA
ATOM      6  H   UNL A   1      35.988  24.391  23.588  1.00  0.00     0.163 HD
BRANCH   4   7
ATOM      7  C   UNL A   1      33.294  22.457  24.296  1.00  0.00     0.057 C 
ATOM      8  C   UNL A   1      31.975  22.811  23.517  1.00  0.00     0.022 C 
BRANCH   7   9
ATOM      9  C   UNL A   1      33.608  20.905  24.242  1.00  0.00    -0.002 C 
ATOM     10  C   UNL A   1      34.877  20.448  24.985  1.00  0.00     0.008 C 
ATOM     11  C   UNL A   1      32.464  19.969  24.683  1.00  0.00     0.008 C 
ENDBRANCH   7   9
BRANCH   7  12
ATOM     12  C   UNL A   1      33.103  22.970  25.757  1.00  0.00     0.116 C 
BRANCH  12  13
ATOM     13  C   UNL A   1      32.152  24.075  26.123  1.00  0.00     0.221 C 
ATOM     14  O   UNL A   1      31.060  23.813  26.632  1.00  0.00    -0.275 OA
ATOM     15  N   UNL A   1      32.572  25.372  26.151  1.00  0.00    -0.353 N 
ATOM     16  H   UNL A   1      32.627  25.771  27.050  1.00  0.00     0.163 HD
BRANCH  15  17
ATOM     17  C   UNL A   1      32.954  26.270  25.048  1.00  0.00     0.087 C 
ATOM     18  C   UNL A   1      31.734  26.332  24.091  1.00  0.00     0.025 C 
ATOM     19  C   UNL A   1      33.200  27.796  25.295  1.00  0.00    -0.015 C 
ATOM     20  C   UNL A   1      30.877  27.494  24.593  1.00  0.00     0.003 C 
ATOM     21  C   UNL A   1      31.777  28.340  25.485  1.00  0.00     0.008 C 
ATOM     22  C   UNL A   1      34.056  28.276  26.462  1.00  0.00     0.013 C 
ATOM     23  C   UNL A   1      33.858  28.404  24.024  1.00  0.00     0.013 C 
ENDBRANCH  15  17
ENDBRANCH  12  13
ENDBRANCH   7  12
ENDBRANCH   4   7
ENDBRANCH   2   3
ENDBRANCH   1   2
BRANCH   1  24
ATOM     24  C   UNL A   1      38.303  24.189  26.405  1.00  0.00     0.118 C 
BRANCH  24  25
ATOM     25  N   UNL A   1      39.715  23.877  26.200  1.00  0.00    -0.352 N 
ATOM     26  C   UNL A   1      40.810  24.598  26.607  1.00  0.00     0.251 C 
ATOM     27  H   UNL A   1      39.906  23.046  25.709  1.00  0.00     0.163 HD
ATOM     28  O   UNL A   1      41.935  24.320  26.207  1.00  0.00    -0.269 OA
BRANCH  26  29
ATOM     29  C   UNL A   1      40.585  25.727  27.524  1.00  0.00     0.039 A 
ATOM     30  C   UNL A   1      39.680  25.591  28.578  1.00  0.00     0.014 A 
ATOM     31  C   UNL A   1      41.366  26.877  27.385  1.00  0.00     0.014 A 
ATOM     32  C   UNL A   1      39.605  26.595  29.541  1.00  0.00     0.010 A 
ATOM     33  C   UNL A   1      41.352  27.828  28.390  1.00  0.00     0.010 A 
ATOM     34  C   UNL A   1      40.467  27.700  29.473  1.00  0.00    -0.014 A 
BRANCH  34  35
ATOM     35  C   UNL A   1      40.462  28.776  30.493  1.00  0.00     0.031 A 
ATOM     36  C   UNL A   1      41.366  28.643  31.686  1.00  0.00     0.074 A 
ATOM     37  C   UNL A   1      39.566  29.776  30.417  1.00  0.00     0.049 A 
ATOM     38  N   UNL A   1      41.377  29.329  32.798  1.00  0.00    -0.248 NA
ATOM     39  C   UNL A   1      42.357  27.554  31.637  1.00  0.00     0.031 C 
ATOM     40  C   UNL A   1      38.604  29.973  29.331  1.00  0.00     0.029 A 
ATOM     41  N   UNL A   1      39.292  30.795  31.293  1.00  0.00    -0.354 N 
ATOM     42  C   UNL A   1      42.339  28.725  33.597  1.00  0.00     0.074 A 
ATOM     43  C   UNL A   1      42.852  27.589  32.863  1.00  0.00     0.031 C 
ATOM     44  C   UNL A   1      37.845  31.047  29.607  1.00  0.00     0.029 A 
ATOM     45  C   UNL A   1      38.235  31.585  30.907  1.00  0.00     0.049 A 
ATOM     46  H   UNL A   1      39.804  30.948  32.120  1.00  0.00     0.167 HD
ATOM     47  C   UNL A   1      42.769  29.096  34.826  1.00  0.00     0.037 A 
ATOM     48  C   UNL A   1      37.633  32.610  31.541  1.00  0.00     0.037 A 
ATOM     49  C   UNL A   1      42.276  30.253  35.523  1.00  0.00     0.049 A 
ATOM     50  C   UNL A   1      38.148  33.037  32.888  1.00  0.00     0.074 A 
ATOM     51  C   UNL A   1      42.688  30.766  36.738  1.00  0.00     0.029 A 
ATOM     52  N   UNL A   1      41.259  31.076  35.060  1.00  0.00    -0.354 N 
ATOM     53  N   UNL A   1      39.101  32.495  33.611  1.00  0.00    -0.248 NA
ATOM     54  C   UNL A   1      37.521  34.213  33.503  1.00  0.00     0.031 C 
ATOM     55  C   UNL A   1      41.896  31.883  37.026  1.00  0.00     0.029 A 
ATOM     56  C   UNL A   1      41.022  32.092  35.969  1.00  0.00     0.049 A 
ATOM     57  H   UNL A   1      40.778  30.956  34.209  1.00  0.00     0.167 HD
ATOM     58  C   UNL A   1      39.205  33.280  34.754  1.00  0.00     0.074 A 
ATOM     59  C   UNL A   1      38.218  34.334  34.625  1.00  0.00     0.031 C 
ATOM     60  C   UNL A   1      40.046  33.143  35.809  1.00  0.00     0.037 A 
BRANCH  47  61
ATOM     61  C   UNL A   1      43.814  28.232  35.478  1.00  0.00     0.058 A 
ATOM     62  C   UNL A   1      45.180  28.377  35.190  1.00  0.00     0.135 A 
ATOM     63  C   UNL A   1      43.440  27.222  36.379  1.00  0.00     0.135 A 
ATOM     64  F   UNL A   1      45.592  29.318  34.324  1.00  0.00    -0.206 F 
ATOM     65  C   UNL A   1      46.133  27.513  35.719  1.00  0.00     0.059 A 
ATOM     66  C   UNL A   1      44.380  26.367  36.948  1.00  0.00     0.059 A 
ATOM     67  F   UNL A   1      42.149  27.040  36.696  1.00  0.00    -0.206 F 
ATOM     68  C   UNL A   1      45.721  26.504  36.590  1.00  0.00     0.060 A 
BRANCH  68  69
ATOM     69  S   UNL A   1      46.959  25.360  37.233  1.00  0.00     0.124 S 
ATOM     70  O   UNL A   1      46.556  24.109  36.598  1.00  0.00    -0.237 OA
ATOM     71  O   UNL A   1      48.208  25.941  36.748  1.00  0.00    -0.237 OA
ATOM     72  O   UNL A   1      46.762  25.423  38.677  1.00  0.00    -0.744 OA
ENDBRANCH  68  69
ENDBRANCH  47  61
BRANCH  48  73
ATOM     73  C   UNL A   1      36.496  33.305  30.884  1.00  0.00     0.058 A 
ATOM     74  C   UNL A   1      35.194  33.195  31.393  1.00  0.00     0.135 A 
ATOM     75  C   UNL A   1      36.699  34.154  29.784  1.00  0.00     0.135 A 
ATOM     76  F   UNL A   1      34.949  32.392  32.439  1.00  0.00    -0.206 F 
ATOM     77  C   UNL A   1      34.134  33.910  30.842  1.00  0.00     0.059 A 
ATOM     78  C   UNL A   1      35.658  34.894  29.229  1.00  0.00     0.059 A 
ATOM     79  F   UNL A   1      37.929  34.306  29.271  1.00  0.00    -0.206 F 
ATOM     80  C   UNL A   1      34.378  34.765  29.766  1.00  0.00     0.060 A 
BRANCH  80  81
ATOM     81  S   UNL A   1      33.014  35.761  29.127  1.00  0.00     0.124 S 
ATOM     82  O   UNL A   1      32.364  34.824  28.219  1.00  0.00    -0.237 OA
ATOM     83  O   UNL A   1      32.276  36.087  30.343  1.00  0.00    -0.237 OA
ATOM     84  O   UNL A   1      33.690  36.889  28.493  1.00  0.00    -0.744 OA
ENDBRANCH  80  81
ENDBRANCH  48  73
BRANCH  60  85
ATOM     85  C   UNL A   1      39.981  34.179  36.894  1.00  0.00     0.058 A 
ATOM     86  C   UNL A   1      40.635  35.413  36.776  1.00  0.00     0.135 A 
ATOM     87  C   UNL A   1      39.155  33.974  38.011  1.00  0.00     0.135 A 
ATOM     88  F   UNL A   1      41.442  35.654  35.731  1.00  0.00    -0.206 F 
ATOM     89  C   UNL A   1      40.470  36.413  37.729  1.00  0.00     0.059 A 
ATOM     90  C   UNL A   1      38.957  34.969  38.964  1.00  0.00     0.059 A 
ATOM     91  F   UNL A   1      38.501  32.812  38.164  1.00  0.00    -0.206 F 
ATOM     92  C   UNL A   1      39.619  36.185  38.813  1.00  0.00     0.060 A 
BRANCH  92  93
ATOM     93  S   UNL A   1      39.344  37.522  39.995  1.00  0.00     0.124 S 
ATOM     94  O   UNL A   1      38.322  38.312  39.313  1.00  0.00    -0.237 OA
ATOM     95  O   UNL A   1      38.900  36.802  41.184  1.00  0.00    -0.237 OA
ATOM     96  O   UNL A   1      40.656  38.154  40.105  1.00  0.00    -0.744 OA
ENDBRANCH  92  93
ENDBRANCH  60  85
ENDBRANCH  34  35
ENDBRANCH  26  29
ENDBRANCH  24  25
ENDBRANCH   1  24
TORSDOF 17
ENDMDL
MODEL 2
REMARK VINA RESULT:     -11.6      6.471     12.046
REMARK SMILES CC(C)[C@@](C)(CC(=O)N[C@H]1CCCC1(C)C)C(=O)NCCCNC(=O)c1ccc(-c2c3nc(c(-c4c(F)cc(S(=O)(=O)[O-])cc4F)c4ccc([nH]4)c(-c4c(F)cc(S(=O)(=O)[O-])cc4F)c4nc(c(-c5c(F)cc(S(=O)(=O)[O-])cc5F)c5ccc2[nH]5)C=C4)C=C3)cc1
REMARK SMILES IDX 21 1 20 2 19 3 17 4 18 5 4 7 5 8 2 9 1 10 3 11 6 12 7 13
REMARK SMILES IDX 8 14 9 15 10 17 11 18 14 19 12 20 13 21 15 22 16 23 22 24
REMARK SMILES IDX 23 25 24 26 25 28 26 29 27 30 91 31 28 32 90 33 29 34 30 35
REMARK SMILES IDX 31 36 84 37 32 38 89 39 83 40 85 41 33 42 88 43 82 44 81 45
REMARK SMILES IDX 34 47 68 48 47 49 67 50 48 51 51 52 66 53 86 54 49 55 50 56
REMARK SMILES IDX 65 58 87 59 52 60 35 61 36 62 45 63 37 64 38 65 44 66 46 67
REMARK SMILES IDX 39 68 40 69 41 70 42 71 43 72 69 73 70 74 79 75 71 76 72 77
REMARK SMILES IDX 78 78 80 79 73 80 74 81 75 82 76 83 77 84 53 85 54 86 63 87
REMARK SMILES IDX 55 88 56 89 62 90 64 91 57 92 58 93 59 94 60 95 61 96
REMARK H PARENT 19 6 9 16 23 27 85 46 51 57
REMARK Flexibility Score: inf
ROOT
ATOM      1  C   UNL A   1      33.703  29.222  27.074  1.00  0.00     0.042 C 
ENDROOT
BRANCH   1   2
ATOM      2  C   UNL A   1      33.592  28.147  26.000  1.00  0.00     0.117 C 
BRANCH   2   3
ATOM      3  N   UNL A   1      32.675  27.098  26.414  1.00  0.00    -0.356 N 
ATOM      4  C   UNL A   1      31.645  26.459  25.809  1.00  0.00     0.226 C 
ATOM      5  O   UNL A   1      31.066  25.634  26.522  1.00  0.00    -0.274 OA
ATOM      6  H   UNL A   1      32.838  26.785  27.333  1.00  0.00     0.163 HD
BRANCH   4   7
ATOM      7  C   UNL A   1      31.313  26.633  24.308  1.00  0.00     0.057 C 
ATOM      8  C   UNL A   1      30.531  25.323  23.931  1.00  0.00     0.022 C 
BRANCH   7   9
ATOM      9  C   UNL A   1      30.421  27.928  24.104  1.00  0.00    -0.002 C 
ATOM     10  C   UNL A   1      31.142  29.158  23.523  1.00  0.00     0.008 C 
ATOM     11  C   UNL A   1      29.127  27.733  23.287  1.00  0.00     0.008 C 
ENDBRANCH   7   9
BRANCH   7  12
ATOM     12  C   UNL A   1      32.599  26.658  23.426  1.00  0.00     0.116 C 
BRANCH  12  13
ATOM     13  C   UNL A   1      33.292  25.412  22.947  1.00  0.00     0.221 C 
ATOM     14  O   UNL A   1      33.248  25.094  21.756  1.00  0.00    -0.275 OA
ATOM     15  N   UNL A   1      34.188  24.765  23.745  1.00  0.00    -0.353 N 
ATOM     16  H   UNL A   1      35.125  24.825  23.449  1.00  0.00     0.163 HD
BRANCH  15  17
ATOM     17  C   UNL A   1      33.974  23.991  24.980  1.00  0.00     0.087 C 
ATOM     18  C   UNL A   1      32.987  22.851  24.615  1.00  0.00     0.025 C 
ATOM     19  C   UNL A   1      35.135  23.167  25.630  1.00  0.00    -0.015 C 
ATOM     20  C   UNL A   1      33.861  21.680  24.164  1.00  0.00     0.003 C 
ATOM     21  C   UNL A   1      35.265  21.964  24.684  1.00  0.00     0.008 C 
ATOM     22  C   UNL A   1      36.519  23.776  25.823  1.00  0.00     0.013 C 
ATOM     23  C   UNL A   1      34.685  22.709  27.046  1.00  0.00     0.013 C 
ENDBRANCH  15  17
ENDBRANCH  12  13
ENDBRANCH   7  12
ENDBRANCH   4   7
ENDBRANCH   2   3
ENDBRANCH   1   2
BRANCH   1  24
ATOM     24  C   UNL A   1      35.097  29.318  27.683  1.00  0.00     0.118 C 
BRANCH  24  25
ATOM     25  N   UNL A   1      35.180  30.337  28.726  1.00  0.00    -0.352 N 
ATOM     26  C   UNL A   1      36.238  30.617  29.554  1.00  0.00     0.251 C 
ATOM     27  H   UNL A   1      34.377  30.893  28.850  1.00  0.00     0.163 HD
ATOM     28  O   UNL A   1      36.109  31.373  30.511  1.00  0.00    -0.269 OA
BRANCH  26  29
ATOM     29  C   UNL A   1      37.525  29.965  29.267  1.00  0.00     0.039 A 
ATOM     30  C   UNL A   1      37.998  29.920  27.955  1.00  0.00     0.014 A 
ATOM     31  C   UNL A   1      38.300  29.500  30.332  1.00  0.00     0.014 A 
ATOM     32  C   UNL A   1      39.293  29.462  27.716  1.00  0.00     0.010 A 
ATOM     33  C   UNL A   1      39.614  29.131  30.100  1.00  0.00     0.010 A 
ATOM     34  C   UNL A   1      40.120  29.101  28.791  1.00  0.00    -0.014 A 
BRANCH  34  35
ATOM     35  C   UNL A   1      41.519  28.649  28.600  1.00  0.00     0.031 A 
ATOM     36  C   UNL A   1      42.614  29.678  28.584  1.00  0.00     0.074 A 
ATOM     37  C   UNL A   1      41.780  27.362  28.309  1.00  0.00     0.049 A 
ATOM     38  N   UNL A   1      43.862  29.555  28.219  1.00  0.00    -0.248 NA
ATOM     39  C   UNL A   1      42.233  31.044  28.983  1.00  0.00     0.031 C 
ATOM     40  C   UNL A   1      40.788  26.288  28.245  1.00  0.00     0.029 A 
ATOM     41  N   UNL A   1      42.959  26.746  27.974  1.00  0.00    -0.354 N 
ATOM     42  C   UNL A   1      44.401  30.832  28.299  1.00  0.00     0.074 A 
ATOM     43  C   UNL A   1      43.332  31.722  28.696  1.00  0.00     0.031 C 
ATOM     44  C   UNL A   1      41.399  25.146  27.892  1.00  0.00     0.029 A 
ATOM     45  C   UNL A   1      42.815  25.416  27.659  1.00  0.00     0.049 A 
ATOM     46  H   UNL A   1      43.827  27.213  27.960  1.00  0.00     0.167 HD
ATOM     47  C   UNL A   1      45.677  31.225  28.078  1.00  0.00     0.037 A 
ATOM     48  C   UNL A   1      43.718  24.522  27.209  1.00  0.00     0.037 A 
ATOM     49  C   UNL A   1      46.736  30.319  27.722  1.00  0.00     0.049 A 
ATOM     50  C   UNL A   1      45.142  24.963  27.008  1.00  0.00     0.074 A 
ATOM     51  C   UNL A   1      48.078  30.591  27.545  1.00  0.00     0.029 A 
ATOM     52  N   UNL A   1      46.565  28.961  27.492  1.00  0.00    -0.354 N 
ATOM     53  N   UNL A   1      45.656  26.164  27.144  1.00  0.00    -0.248 NA
ATOM     54  C   UNL A   1      46.110  23.937  26.603  1.00  0.00     0.031 C 
ATOM     55  C   UNL A   1      48.716  29.402  27.174  1.00  0.00     0.029 A 
ATOM     56  C   UNL A   1      47.777  28.380  27.165  1.00  0.00     0.049 A 
ATOM     57  H   UNL A   1      45.707  28.481  27.553  1.00  0.00     0.167 HD
ATOM     58  C   UNL A   1      47.012  26.032  26.868  1.00  0.00     0.074 A 
ATOM     59  C   UNL A   1      47.238  24.634  26.557  1.00  0.00     0.031 C 
ATOM     60  C   UNL A   1      47.981  26.980  26.878  1.00  0.00     0.037 A 
BRANCH  47  61
ATOM     61  C   UNL A   1      45.977  32.693  28.211  1.00  0.00     0.058 A 
ATOM     62  C   UNL A   1      46.388  33.257  29.430  1.00  0.00     0.135 A 
ATOM     63  C   UNL A   1      45.819  33.554  27.113  1.00  0.00     0.135 A 
ATOM     64  F   UNL A   1      46.542  32.482  30.516  1.00  0.00    -0.206 F 
ATOM     65  C   UNL A   1      46.570  34.628  29.573  1.00  0.00     0.059 A 
ATOM     66  C   UNL A   1      46.029  34.926  27.225  1.00  0.00     0.059 A 
ATOM     67  F   UNL A   1      45.434  33.070  25.922  1.00  0.00    -0.206 F 
ATOM     68  C   UNL A   1      46.377  35.456  28.467  1.00  0.00     0.060 A 
BRANCH  68  69
ATOM     69  S   UNL A   1      46.569  37.238  28.677  1.00  0.00     0.124 S 
ATOM     70  O   UNL A   1      46.855  37.662  27.310  1.00  0.00    -0.237 OA
ATOM     71  O   UNL A   1      45.267  37.636  29.203  1.00  0.00    -0.237 OA
ATOM     72  O   UNL A   1      47.681  37.351  29.615  1.00  0.00    -0.744 OA
ENDBRANCH  68  69
ENDBRANCH  47  61
BRANCH  48  73
ATOM     73  C   UNL A   1      43.290  23.123  26.950  1.00  0.00     0.058 A 
ATOM     74  C   UNL A   1      43.210  22.626  25.642  1.00  0.00     0.135 A 
ATOM     75  C   UNL A   1      43.030  22.234  28.005  1.00  0.00     0.135 A 
ATOM     76  F   UNL A   1      43.445  23.439  24.600  1.00  0.00    -0.206 F 
ATOM     77  C   UNL A   1      42.896  21.294  25.386  1.00  0.00     0.059 A 
ATOM     78  C   UNL A   1      42.733  20.893  27.775  1.00  0.00     0.059 A 
ATOM     79  F   UNL A   1      43.110  22.657  29.276  1.00  0.00    -0.206 F 
ATOM     80  C   UNL A   1      42.670  20.432  26.461  1.00  0.00     0.060 A 
BRANCH  80  81
ATOM     81  S   UNL A   1      42.363  18.685  26.119  1.00  0.00     0.124 S 
ATOM     82  O   UNL A   1      43.309  18.426  25.039  1.00  0.00    -0.237 OA
ATOM     83  O   UNL A   1      42.674  18.063  27.402  1.00  0.00    -0.237 OA
ATOM     84  O   UNL A   1      40.953  18.658  25.744  1.00  0.00    -0.744 OA
ENDBRANCH  80  81
ENDBRANCH  48  73
BRANCH  60  85
ATOM     85  C   UNL A   1      49.389  26.545  26.592  1.00  0.00     0.058 A 
ATOM     86  C   UNL A   1      49.929  26.595  25.299  1.00  0.00     0.135 A 
ATOM     87  C   UNL A   1      50.242  26.188  27.650  1.00  0.00     0.135 A 
ATOM     88  F   UNL A   1      49.153  26.924  24.254  1.00  0.00    -0.206 F 
ATOM     89  C   UNL A   1      51.269  26.308  25.064  1.00  0.00     0.059 A 
ATOM     90  C   UNL A   1      51.590  25.919  27.440  1.00  0.00     0.059 A 
ATOM     91  F   UNL A   1      49.773  26.134  28.907  1.00  0.00    -0.206 F 
ATOM     92  C   UNL A   1      52.094  25.983  26.142  1.00  0.00     0.060 A 
BRANCH  92  93
ATOM     93  S   UNL A   1      53.851  25.699  25.835  1.00  0.00     0.124 S 
ATOM     94  O   UNL A   1      53.806  24.716  24.757  1.00  0.00    -0.237 OA
ATOM     95  O   UNL A   1      54.322  27.028  25.461  1.00  0.00    -0.237 OA
ATOM     96  O   UNL A   1      54.344  25.203  27.117  1.00  0.00    -0.744 OA
ENDBRANCH  92  93
ENDBRANCH  60  85
ENDBRANCH  34  35
ENDBRANCH  26  29
ENDBRANCH  24  25
ENDBRANCH   1  24
TORSDOF 17
ENDMDL
MODEL 3
REMARK VINA RESULT:     -11.4      2.282      2.916
REMARK SMILES CC(C)[C@@](C)(CC(=O)N[C@H]1CCCC1(C)C)C(=O)NCCCNC(=O)c1ccc(-c2c3nc(c(-c4c(F)cc(S(=O)(=O)[O-])cc4F)c4ccc([nH]4)c(-c4c(F)cc(S(=O)(=O)[O-])cc4F)c4nc(c(-c5c(F)cc(S(=O)(=O)[O-])cc5F)c5ccc2[nH]5)C=C4)C=C3)cc1
REMARK SMILES IDX 21 1 20 2 19 3 17 4 18 5 4 7 5 8 2 9 1 10 3 11 6 12 7 13
REMARK SMILES IDX 8 14 9 15 10 17 11 18 14 19 12 20 13 21 15 22 16 23 22 24
REMARK SMILES IDX 23 25 24 26 25 28 26 29 27 30 91 31 28 32 90 33 29 34 30 35
REMARK SMILES IDX 31 36 84 37 32 38 89 39 83 40 85 41 33 42 88 43 82 44 81 45
REMARK SMILES IDX 34 47 68 48 47 49 67 50 48 51 51 52 66 53 86 54 49 55 50 56
REMARK SMILES IDX 65 58 87 59 52 60 35 61 36 62 45 63 37 64 38 65 44 66 46 67
REMARK SMILES IDX 39 68 40 69 41 70 42 71 43 72 69 73 70 74 79 75 71 76 72 77
REMARK SMILES IDX 78 78 80 79 73 80 74 81 75 82 76 83 77 84 53 85 54 86 63 87
REMARK SMILES IDX 55 88 56 89 62 90 64 91 57 92 58 93 59 94 60 95 61 96
REMARK H PARENT 19 6 9 16 23 27 85 46 51 57
REMARK Flexibility Score: inf
ROOT
ATOM      1  C   UNL A   1      36.211  23.413  24.257  1.00  0.00     0.042 C 
ENDROOT
BRANCH   1   2
ATOM      2  C   UNL A   1      35.077  24.409  24.048  1.00  0.00     0.117 C 
BRANCH   2   3
ATOM      3  N   UNL A   1      33.914  23.753  23.474  1.00  0.00    -0.356 N 
ATOM      4  C   UNL A   1      32.915  22.994  23.987  1.00  0.00     0.226 C 
ATOM      5  O   UNL A   1      32.113  22.572  23.149  1.00  0.00    -0.274 OA
ATOM      6  H   UNL A   1      33.835  23.890  22.502  1.00  0.00     0.163 HD
BRANCH   4   7
ATOM      7  C   UNL A   1      32.708  22.793  25.507  1.00  0.00     0.057 C 
ATOM      8  C   UNL A   1      31.259  22.194  25.623  1.00  0.00     0.022 C 
BRANCH   7   9
ATOM      9  C   UNL A   1      33.803  21.794  26.069  1.00  0.00    -0.002 C 
ATOM     10  C   UNL A   1      33.950  21.748  27.601  1.00  0.00     0.008 C 
ATOM     11  C   UNL A   1      33.698  20.335  25.580  1.00  0.00     0.008 C 
ENDBRANCH   7   9
BRANCH   7  12
ATOM     12  C   UNL A   1      32.697  24.149  26.278  1.00  0.00     0.116 C 
BRANCH  12  13
ATOM     13  C   UNL A   1      31.605  25.172  26.125  1.00  0.00     0.221 C 
ATOM     14  O   UNL A   1      30.493  24.974  26.621  1.00  0.00    -0.275 OA
ATOM     15  N   UNL A   1      31.888  26.428  25.679  1.00  0.00    -0.353 N 
ATOM     16  H   UNL A   1      31.801  27.138  26.357  1.00  0.00     0.163 HD
BRANCH  15  17
ATOM     17  C   UNL A   1      32.302  26.892  24.344  1.00  0.00     0.087 C 
ATOM     18  C   UNL A   1      31.217  26.396  23.353  1.00  0.00     0.025 C 
ATOM     19  C   UNL A   1      32.337  28.417  23.991  1.00  0.00    -0.015 C 
ATOM     20  C   UNL A   1      30.173  27.512  23.294  1.00  0.00     0.003 C 
ATOM     21  C   UNL A   1      30.847  28.762  23.847  1.00  0.00     0.008 C 
ATOM     22  C   UNL A   1      32.975  29.429  24.936  1.00  0.00     0.013 C 
ATOM     23  C   UNL A   1      33.078  28.594  22.635  1.00  0.00     0.013 C 
ENDBRANCH  15  17
ENDBRANCH  12  13
ENDBRANCH   7  12
ENDBRANCH   4   7
ENDBRANCH   2   3
ENDBRANCH   1   2
BRANCH   1  24
ATOM     24  C   UNL A   1      37.036  23.700  25.506  1.00  0.00     0.118 C 
BRANCH  24  25
ATOM     25  N   UNL A   1      38.212  22.839  25.606  1.00  0.00    -0.352 N 
ATOM     26  C   UNL A   1      39.445  23.145  26.126  1.00  0.00     0.251 C 
ATOM     27  H   UNL A   1      38.107  21.924  25.257  1.00  0.00     0.163 HD
ATOM     28  O   UNL A   1      40.399  22.390  25.978  1.00  0.00    -0.269 OA
BRANCH  26  29
ATOM     29  C   UNL A   1      39.587  24.418  26.849  1.00  0.00     0.039 A 
ATOM     30  C   UNL A   1      39.026  24.557  28.119  1.00  0.00     0.014 A 
ATOM     31  C   UNL A   1      40.375  25.428  26.292  1.00  0.00     0.014 A 
ATOM     32  C   UNL A   1      39.315  25.697  28.868  1.00  0.00     0.010 A 
ATOM     33  C   UNL A   1      40.731  26.514  27.072  1.00  0.00     0.010 A 
ATOM     34  C   UNL A   1      40.199  26.663  28.364  1.00  0.00    -0.014 A 
BRANCH  34  35
ATOM     35  C   UNL A   1      40.576  27.873  29.133  1.00  0.00     0.031 A 
ATOM     36  C   UNL A   1      41.841  27.847  29.942  1.00  0.00     0.074 A 
ATOM     37  C   UNL A   1      39.731  28.916  29.210  1.00  0.00     0.049 A 
ATOM     38  N   UNL A   1      42.259  28.684  30.854  1.00  0.00    -0.248 NA
ATOM     39  C   UNL A   1      42.729  26.690  29.732  1.00  0.00     0.031 C 
ATOM     40  C   UNL A   1      38.451  29.026  28.508  1.00  0.00     0.029 A 
ATOM     41  N   UNL A   1      39.805  30.070  29.948  1.00  0.00    -0.354 N 
ATOM     42  C   UNL A   1      43.429  28.131  31.358  1.00  0.00     0.074 A 
ATOM     43  C   UNL A   1      43.627  26.865  30.687  1.00  0.00     0.031 C 
ATOM     44  C   UNL A   1      37.861  30.182  28.850  1.00  0.00     0.029 A 
ATOM     45  C   UNL A   1      38.696  30.873  29.829  1.00  0.00     0.049 A 
ATOM     46  H   UNL A   1      40.580  30.302  30.510  1.00  0.00     0.167 HD
ATOM     47  C   UNL A   1      44.274  28.643  32.284  1.00  0.00     0.037 A 
ATOM     48  C   UNL A   1      38.378  32.022  30.457  1.00  0.00     0.037 A 
ATOM     49  C   UNL A   1      44.082  29.923  32.911  1.00  0.00     0.049 A 
ATOM     50  C   UNL A   1      39.345  32.600  31.453  1.00  0.00     0.074 A 
ATOM     51  C   UNL A   1      44.907  30.575  33.807  1.00  0.00     0.029 A 
ATOM     52  N   UNL A   1      42.984  30.746  32.701  1.00  0.00    -0.354 N 
ATOM     53  N   UNL A   1      40.480  32.098  31.879  1.00  0.00    -0.248 NA
ATOM     54  C   UNL A   1      38.999  33.897  32.047  1.00  0.00     0.031 C 
ATOM     55  C   UNL A   1      44.291  31.779  34.166  1.00  0.00     0.029 A 
ATOM     56  C   UNL A   1      43.104  31.897  33.458  1.00  0.00     0.049 A 
ATOM     57  H   UNL A   1      42.230  30.540  32.102  1.00  0.00     0.167 HD
ATOM     58  C   UNL A   1      40.998  33.030  32.771  1.00  0.00     0.074 A 
ATOM     59  C   UNL A   1      40.051  34.127  32.823  1.00  0.00     0.031 C 
ATOM     60  C   UNL A   1      42.155  32.985  33.477  1.00  0.00     0.037 A 
BRANCH  47  61
ATOM     61  C   UNL A   1      45.465  27.807  32.665  1.00  0.00     0.058 A 
ATOM     62  C   UNL A   1      46.675  27.875  31.957  1.00  0.00     0.135 A 
ATOM     63  C   UNL A   1      45.383  26.899  33.733  1.00  0.00     0.135 A 
ATOM     64  F   UNL A   1      46.803  28.716  30.918  1.00  0.00    -0.206 F 
ATOM     65  C   UNL A   1      47.740  27.031  32.251  1.00  0.00     0.059 A 
ATOM     66  C   UNL A   1      46.449  26.067  34.067  1.00  0.00     0.059 A 
ATOM     67  F   UNL A   1      44.253  26.794  34.449  1.00  0.00    -0.206 F 
ATOM     68  C   UNL A   1      47.613  26.122  33.301  1.00  0.00     0.060 A 
BRANCH  68  69
ATOM     69  S   UNL A   1      48.984  24.999  33.643  1.00  0.00     0.124 S 
ATOM     70  O   UNL A   1      48.276  23.814  34.117  1.00  0.00    -0.237 OA
ATOM     71  O   UNL A   1      49.622  24.873  32.335  1.00  0.00    -0.237 OA
ATOM     72  O   UNL A   1      49.763  25.710  34.650  1.00  0.00    -0.744 OA
ENDBRANCH  68  69
ENDBRANCH  47  61
BRANCH  48  73
ATOM     73  C   UNL A   1      37.095  32.698  30.130  1.00  0.00     0.058 A 
ATOM     74  C   UNL A   1      35.951  32.489  30.914  1.00  0.00     0.135 A 
ATOM     75  C   UNL A   1      37.008  33.625  29.080  1.00  0.00     0.135 A 
ATOM     76  F   UNL A   1      35.984  31.609  31.926  1.00  0.00    -0.206 F 
ATOM     77  C   UNL A   1      34.768  33.182  30.675  1.00  0.00     0.059 A 
ATOM     78  C   UNL A   1      35.841  34.344  28.834  1.00  0.00     0.059 A 
ATOM     79  F   UNL A   1      38.080  33.873  28.311  1.00  0.00    -0.206 F 
ATOM     80  C   UNL A   1      34.726  34.115  29.638  1.00  0.00     0.060 A 
BRANCH  80  81
ATOM     81  S   UNL A   1      33.216  35.079  29.403  1.00  0.00     0.124 S 
ATOM     82  O   UNL A   1      32.631  35.040  30.738  1.00  0.00    -0.237 OA
ATOM     83  O   UNL A   1      33.742  36.372  28.974  1.00  0.00    -0.237 OA
ATOM     84  O   UNL A   1      32.497  34.333  28.375  1.00  0.00    -0.744 OA
ENDBRANCH  80  81
ENDBRANCH  48  73
BRANCH  60  85
ATOM     85  C   UNL A   1      42.500  34.170  34.334  1.00  0.00     0.058 A 
ATOM     86  C   UNL A   1      42.188  34.208  35.700  1.00  0.00     0.135 A 
ATOM     87  C   UNL A   1      43.258  35.225  33.800  1.00  0.00     0.135 A 
ATOM     88  F   UNL A   1      41.459  33.226  36.255  1.00  0.00    -0.206 F 
ATOM     89  C   UNL A   1      42.619  35.252  36.511  1.00  0.00     0.059 A 
ATOM     90  C   UNL A   1      43.718  36.267  34.597  1.00  0.00     0.059 A 
ATOM     91  F   UNL A   1      43.589  35.229  32.499  1.00  0.00    -0.206 F 
ATOM     92  C   UNL A   1      43.393  36.271  35.952  1.00  0.00     0.060 A 
BRANCH  92  93
ATOM     93  S   UNL A   1      44.021  37.575  37.033  1.00  0.00     0.124 S 
ATOM     94  O   UNL A   1      44.158  38.690  36.100  1.00  0.00    -0.237 OA
ATOM     95  O   UNL A   1      42.953  37.703  38.020  1.00  0.00    -0.237 OA
ATOM     96  O   UNL A   1      45.273  37.022  37.541  1.00  0.00    -0.744 OA
ENDBRANCH  92  93
ENDBRANCH  60  85
ENDBRANCH  34  35
ENDBRANCH  26  29
ENDBRANCH  24  25
ENDBRANCH   1  24
TORSDOF 17
ENDMDL
