MODEL 1
REMARK VINA RESULT:     -13.4      0.000      0.000
REMARK SMILES O=C(Cn1c(=O)c2c3c(sc2n(Cc2ccc(Cl)cc2Cl)c1=O)CCCC3)NCCCNC(=O)c1ccc(-c2c3nc(c(-c4c(F)cc(S(=O)(=O)[O-])cc4F)c4ccc([nH]4)c(-c4c(F)cc(S(=O)(=O)[O-])cc4F)c4nc(c(-c5c(F)cc(S(=O)(=O)[O-])cc5F)c5ccc2[nH]5)C=C4)C=C3)cc1
REMARK SMILES IDX 30 1 29 2 28 3 1 4 2 5 3 7 4 8 5 9 22 10 6 11 7 12 12 13
REMARK SMILES IDX 23 14 8 15 11 16 9 17 27 18 10 19 24 20 26 21 25 22 13 23
REMARK SMILES IDX 14 24 15 25 20 26 16 27 19 28 21 29 17 30 18 31 31 32 32 33
REMARK SMILES IDX 33 34 34 36 35 37 36 38 100 39 37 40 99 41 38 42 39 43 40 44
REMARK SMILES IDX 93 45 41 46 98 47 92 48 94 49 42 50 97 51 91 52 90 53 43 55
REMARK SMILES IDX 77 56 56 57 76 58 57 59 60 60 75 61 95 62 58 63 59 64 74 66
REMARK SMILES IDX 96 67 61 68 44 69 45 70 54 71 46 72 47 73 53 74 55 75 48 76
REMARK SMILES IDX 49 77 50 78 51 79 52 80 78 81 79 82 88 83 80 84 81 85 87 86
REMARK SMILES IDX 89 87 82 88 83 89 84 90 85 91 86 92 62 93 63 94 72 95 64 96
REMARK SMILES IDX 65 97 71 98 73 99 66 100 67 101 68 102 69 103 70 104
REMARK H PARENT 28 6 32 35 94 54 60 65
REMARK Flexibility Score: inf
ROOT
ATOM      1  C   UNL A   1      46.564  20.238  36.064  1.00  0.00     0.042 C 
ENDROOT
BRANCH   1   2
ATOM      2  C   UNL A   1      46.347  20.101  37.581  1.00  0.00     0.117 C 
BRANCH   2   3
ATOM      3  N   UNL A   1      46.446  18.738  38.083  1.00  0.00    -0.354 N 
ATOM      4  O   UNL A   1      45.661  19.215  40.188  1.00  0.00    -0.273 OA
ATOM      5  C   UNL A   1      46.026  18.387  39.355  1.00  0.00     0.240 C 
ATOM      6  H   UNL A   1      46.824  18.041  37.498  1.00  0.00     0.163 HD
BRANCH   5   7
ATOM      7  C   UNL A   1      46.092  16.891  39.686  1.00  0.00     0.230 C 
BRANCH   7   8
ATOM      8  N   UNL A   1      45.725  16.656  41.084  1.00  0.00    -0.250 N 
ATOM      9  C   UNL A   1      46.735  16.832  42.031  1.00  0.00     0.265 A 
ATOM     10  C   UNL A   1      44.409  16.247  41.355  1.00  0.00     0.332 A 
ATOM     11  O   UNL A   1      47.919  17.052  41.747  1.00  0.00    -0.268 OA
ATOM     12  C   UNL A   1      46.298  16.732  43.402  1.00  0.00     0.079 A 
ATOM     13  N   UNL A   1      44.042  16.054  42.691  1.00  0.00    -0.280 N 
ATOM     14  O   UNL A   1      43.607  16.089  40.431  1.00  0.00    -0.247 OA
ATOM     15  C   UNL A   1      47.037  16.890  44.631  1.00  0.00    -0.019 A 
ATOM     16  C   UNL A   1      44.991  16.391  43.647  1.00  0.00     0.113 A 
ATOM     17  C   UNL A   1      46.219  16.678  45.725  1.00  0.00     0.011 A 
ATOM     18  C   UNL A   1      48.500  17.178  44.806  1.00  0.00     0.037 C 
ATOM     19  S   UNL A   1      44.606  16.471  45.284  1.00  0.00    -0.122 S 
ATOM     20  C   UNL A   1      46.635  16.667  47.159  1.00  0.00     0.047 C 
ATOM     21  C   UNL A   1      48.836  17.549  46.265  1.00  0.00     0.005 C 
ATOM     22  C   UNL A   1      48.162  16.598  47.266  1.00  0.00     0.006 C 
BRANCH  13  23
ATOM     23  C   UNL A   1      42.683  15.530  43.001  1.00  0.00     0.165 C 
BRANCH  23  24
ATOM     24  C   UNL A   1      42.616  14.006  43.040  1.00  0.00    -0.009 A 
ATOM     25  C   UNL A   1      43.300  13.326  44.066  1.00  0.00     0.008 A 
ATOM     26  C   UNL A   1      41.888  13.225  42.119  1.00  0.00     0.047 A 
ATOM     27  C   UNL A   1      43.177  11.940  44.221  1.00  0.00     0.021 A 
ATOM     28  C   UNL A   1      41.685  11.857  42.334  1.00  0.00     0.041 A 
ATOM     29  Cl  UNL A   1      41.308  13.842  40.609  1.00  0.00    -0.084 Cl
ATOM     30  C   UNL A   1      42.327  11.222  43.388  1.00  0.00     0.042 A 
ATOM     31  Cl  UNL A   1      42.097   9.535  43.634  1.00  0.00    -0.084 Cl
ENDBRANCH  23  24
ENDBRANCH  13  23
ENDBRANCH   7   8
ENDBRANCH   5   7
ENDBRANCH   2   3
ENDBRANCH   1   2
BRANCH   1  32
ATOM     32  C   UNL A   1      45.518  21.083  35.305  1.00  0.00     0.118 C 
BRANCH  32  33
ATOM     33  N   UNL A   1      45.025  22.182  36.124  1.00  0.00    -0.352 N 
ATOM     34  C   UNL A   1      44.841  23.527  35.935  1.00  0.00     0.251 C 
ATOM     35  H   UNL A   1      44.762  21.889  37.027  1.00  0.00     0.163 HD
ATOM     36  O   UNL A   1      44.593  24.180  36.953  1.00  0.00    -0.269 OA
BRANCH  34  37
ATOM     37  C   UNL A   1      44.912  24.255  34.637  1.00  0.00     0.039 A 
ATOM     38  C   UNL A   1      45.747  25.390  34.595  1.00  0.00     0.014 A 
ATOM     39  C   UNL A   1      44.103  23.993  33.533  1.00  0.00     0.014 A 
ATOM     40  C   UNL A   1      45.812  26.224  33.469  1.00  0.00     0.010 A 
ATOM     41  C   UNL A   1      44.166  24.838  32.402  1.00  0.00     0.010 A 
ATOM     42  C   UNL A   1      45.038  25.948  32.342  1.00  0.00    -0.014 A 
BRANCH  42  43
ATOM     43  C   UNL A   1      45.340  26.682  31.074  1.00  0.00     0.031 A 
ATOM     44  C   UNL A   1      45.381  25.798  29.881  1.00  0.00     0.074 A 
ATOM     45  C   UNL A   1      45.098  27.988  30.795  1.00  0.00     0.049 A 
ATOM     46  N   UNL A   1      44.267  25.446  29.321  1.00  0.00    -0.248 NA
ATOM     47  C   UNL A   1      46.538  25.059  29.395  1.00  0.00     0.031 C 
ATOM     48  C   UNL A   1      44.126  28.821  31.508  1.00  0.00     0.029 A 
ATOM     49  N   UNL A   1      45.482  28.776  29.716  1.00  0.00    -0.354 N 
ATOM     50  C   UNL A   1      44.532  24.411  28.454  1.00  0.00     0.074 A 
ATOM     51  C   UNL A   1      45.965  24.213  28.517  1.00  0.00     0.031 C 
ATOM     52  C   UNL A   1      43.888  29.934  30.781  1.00  0.00     0.029 A 
ATOM     53  C   UNL A   1      44.795  29.988  29.630  1.00  0.00     0.049 A 
ATOM     54  H   UNL A   1      46.175  28.504  29.072  1.00  0.00     0.167 HD
ATOM     55  C   UNL A   1      43.525  23.832  27.747  1.00  0.00     0.037 A 
ATOM     56  C   UNL A   1      44.518  30.700  28.500  1.00  0.00     0.037 A 
ATOM     57  C   UNL A   1      42.206  24.418  27.892  1.00  0.00     0.049 A 
ATOM     58  C   UNL A   1      43.541  29.828  27.764  1.00  0.00     0.074 A 
ATOM     59  C   UNL A   1      40.883  24.032  27.974  1.00  0.00     0.029 A 
ATOM     60  N   UNL A   1      42.180  25.780  27.980  1.00  0.00    -0.354 N 
ATOM     61  N   UNL A   1      42.261  29.737  28.008  1.00  0.00    -0.248 NA
ATOM     62  C   UNL A   1      44.064  28.820  26.828  1.00  0.00     0.031 C 
ATOM     63  C   UNL A   1      40.085  25.232  28.009  1.00  0.00     0.029 A 
ATOM     64  C   UNL A   1      40.933  26.321  27.894  1.00  0.00     0.049 A 
ATOM     65  H   UNL A   1      42.992  26.325  28.096  1.00  0.00     0.167 HD
ATOM     66  C   UNL A   1      41.888  28.518  27.458  1.00  0.00     0.074 A 
ATOM     67  C   UNL A   1      42.979  28.088  26.610  1.00  0.00     0.031 C 
ATOM     68  C   UNL A   1      40.854  27.762  27.927  1.00  0.00     0.037 A 
BRANCH  55  69
ATOM     69  C   UNL A   1      43.764  22.856  26.663  1.00  0.00     0.058 A 
ATOM     70  C   UNL A   1      43.294  21.545  26.851  1.00  0.00     0.135 A 
ATOM     71  C   UNL A   1      44.564  23.117  25.549  1.00  0.00     0.135 A 
ATOM     72  F   UNL A   1      42.508  21.256  27.902  1.00  0.00    -0.206 F 
ATOM     73  C   UNL A   1      43.641  20.514  25.989  1.00  0.00     0.059 A 
ATOM     74  C   UNL A   1      44.922  22.099  24.664  1.00  0.00     0.059 A 
ATOM     75  F   UNL A   1      45.038  24.354  25.330  1.00  0.00    -0.206 F 
ATOM     76  C   UNL A   1      44.472  20.798  24.906  1.00  0.00     0.060 A 
BRANCH  76  77
ATOM     77  S   UNL A   1      44.969  19.426  23.843  1.00  0.00     0.124 S 
ATOM     78  O   UNL A   1      46.421  19.440  23.989  1.00  0.00    -0.237 OA
ATOM     79  O   UNL A   1      44.276  18.300  24.461  1.00  0.00    -0.237 OA
ATOM     80  O   UNL A   1      44.469  19.818  22.528  1.00  0.00    -0.744 OA
ENDBRANCH  76  77
ENDBRANCH  55  69
BRANCH  56  81
ATOM     81  C   UNL A   1      45.606  31.457  27.789  1.00  0.00     0.058 A 
ATOM     82  C   UNL A   1      45.351  32.763  27.321  1.00  0.00     0.135 A 
ATOM     83  C   UNL A   1      46.875  30.939  27.465  1.00  0.00     0.135 A 
ATOM     84  F   UNL A   1      44.123  33.292  27.431  1.00  0.00    -0.206 F 
ATOM     85  C   UNL A   1      46.335  33.551  26.715  1.00  0.00     0.059 A 
ATOM     86  C   UNL A   1      47.888  31.718  26.899  1.00  0.00     0.059 A 
ATOM     87  F   UNL A   1      47.180  29.655  27.686  1.00  0.00    -0.206 F 
ATOM     88  C   UNL A   1      47.617  33.035  26.554  1.00  0.00     0.060 A 
BRANCH  88  89
ATOM     89  S   UNL A   1      48.932  34.120  25.961  1.00  0.00     0.124 S 
ATOM     90  O   UNL A   1      49.970  33.167  25.585  1.00  0.00    -0.237 OA
ATOM     91  O   UNL A   1      48.275  34.813  24.857  1.00  0.00    -0.237 OA
ATOM     92  O   UNL A   1      49.233  34.954  27.122  1.00  0.00    -0.744 OA
ENDBRANCH  88  89
ENDBRANCH  56  81
BRANCH  68  93
ATOM     93  C   UNL A   1      39.754  28.481  28.607  1.00  0.00     0.058 A 
ATOM     94  C   UNL A   1      39.642  28.392  30.003  1.00  0.00     0.135 A 
ATOM     95  C   UNL A   1      38.861  29.314  27.923  1.00  0.00     0.135 A 
ATOM     96  F   UNL A   1      40.495  27.627  30.706  1.00  0.00    -0.206 F 
ATOM     97  C   UNL A   1      38.695  29.123  30.704  1.00  0.00     0.059 A 
ATOM     98  C   UNL A   1      37.908  30.065  28.606  1.00  0.00     0.059 A 
ATOM     99  F   UNL A   1      38.915  29.425  26.585  1.00  0.00    -0.206 F 
ATOM    100  C   UNL A   1      37.842  29.972  29.998  1.00  0.00     0.060 A 
BRANCH 100 101
ATOM    101  S   UNL A   1      36.715  31.015  30.942  1.00  0.00     0.124 S 
ATOM    102  O   UNL A   1      35.731  31.394  29.933  1.00  0.00    -0.237 OA
ATOM    103  O   UNL A   1      36.242  30.097  31.975  1.00  0.00    -0.237 OA
ATOM    104  O   UNL A   1      37.570  32.097  31.422  1.00  0.00    -0.744 OA
ENDBRANCH 100 101
ENDBRANCH  68  93
ENDBRANCH  42  43
ENDBRANCH  34  37
ENDBRANCH  32  33
ENDBRANCH   1  32
TORSDOF 16
ENDMDL
MODEL 2
REMARK VINA RESULT:     -12.5      6.834     10.820
REMARK SMILES O=C(Cn1c(=O)c2c3c(sc2n(Cc2ccc(Cl)cc2Cl)c1=O)CCCC3)NCCCNC(=O)c1ccc(-c2c3nc(c(-c4c(F)cc(S(=O)(=O)[O-])cc4F)c4ccc([nH]4)c(-c4c(F)cc(S(=O)(=O)[O-])cc4F)c4nc(c(-c5c(F)cc(S(=O)(=O)[O-])cc5F)c5ccc2[nH]5)C=C4)C=C3)cc1
REMARK SMILES IDX 30 1 29 2 28 3 1 4 2 5 3 7 4 8 5 9 22 10 6 11 7 12 12 13
REMARK SMILES IDX 23 14 8 15 11 16 9 17 27 18 10 19 24 20 26 21 25 22 13 23
REMARK SMILES IDX 14 24 15 25 20 26 16 27 19 28 21 29 17 30 18 31 31 32 32 33
REMARK SMILES IDX 33 34 34 36 35 37 36 38 100 39 37 40 99 41 38 42 39 43 40 44
REMARK SMILES IDX 93 45 41 46 98 47 92 48 94 49 42 50 97 51 91 52 90 53 43 55
REMARK SMILES IDX 77 56 56 57 76 58 57 59 60 60 75 61 95 62 58 63 59 64 74 66
REMARK SMILES IDX 96 67 61 68 44 69 45 70 54 71 46 72 47 73 53 74 55 75 48 76
REMARK SMILES IDX 49 77 50 78 51 79 52 80 78 81 79 82 88 83 80 84 81 85 87 86
REMARK SMILES IDX 89 87 82 88 83 89 84 90 85 91 86 92 62 93 63 94 72 95 64 96
REMARK SMILES IDX 65 97 71 98 73 99 66 100 67 101 68 102 69 103 70 104
REMARK H PARENT 28 6 32 35 94 54 60 65
REMARK Flexibility Score: inf
ROOT
ATOM      1  C   UNL A   1      42.363  25.526  37.742  1.00  0.00     0.042 C 
ENDROOT
BRANCH   1   2
ATOM      2  C   UNL A   1      41.760  26.430  36.653  1.00  0.00     0.117 C 
BRANCH   2   3
ATOM      3  N   UNL A   1      42.522  27.641  36.385  1.00  0.00    -0.354 N 
ATOM      4  O   UNL A   1      40.692  28.991  36.058  1.00  0.00    -0.273 OA
ATOM      5  C   UNL A   1      41.911  28.864  36.166  1.00  0.00     0.240 C 
ATOM      6  H   UNL A   1      43.505  27.589  36.359  1.00  0.00     0.163 HD
BRANCH   5   7
ATOM      7  C   UNL A   1      42.858  30.061  36.014  1.00  0.00     0.230 C 
BRANCH   7   8
ATOM      8  N   UNL A   1      42.100  31.312  35.941  1.00  0.00    -0.250 N 
ATOM      9  C   UNL A   1      41.823  31.945  37.152  1.00  0.00     0.265 A 
ATOM     10  C   UNL A   1      41.690  31.753  34.672  1.00  0.00     0.332 A 
ATOM     11  O   UNL A   1      42.074  31.455  38.261  1.00  0.00    -0.268 OA
ATOM     12  C   UNL A   1      41.203  33.240  37.027  1.00  0.00     0.079 A 
ATOM     13  N   UNL A   1      40.994  32.964  34.590  1.00  0.00    -0.280 N 
ATOM     14  O   UNL A   1      41.961  31.091  33.667  1.00  0.00    -0.247 OA
ATOM     15  C   UNL A   1      40.811  34.190  38.039  1.00  0.00    -0.019 A 
ATOM     16  C   UNL A   1      40.864  33.682  35.772  1.00  0.00     0.113 A 
ATOM     17  C   UNL A   1      40.220  35.301  37.467  1.00  0.00     0.011 A 
ATOM     18  C   UNL A   1      40.923  34.058  39.531  1.00  0.00     0.037 C 
ATOM     19  S   UNL A   1      40.298  35.268  35.784  1.00  0.00    -0.122 S 
ATOM     20  C   UNL A   1      39.609  36.456  38.189  1.00  0.00     0.047 C 
ATOM     21  C   UNL A   1      40.654  35.401  40.242  1.00  0.00     0.005 C 
ATOM     22  C   UNL A   1      39.418  36.113  39.670  1.00  0.00     0.006 C 
BRANCH  13  23
ATOM     23  C   UNL A   1      40.465  33.409  33.271  1.00  0.00     0.165 C 
BRANCH  23  24
ATOM     24  C   UNL A   1      41.546  33.936  32.331  1.00  0.00    -0.009 A 
ATOM     25  C   UNL A   1      42.295  35.062  32.726  1.00  0.00     0.008 A 
ATOM     26  C   UNL A   1      41.865  33.350  31.089  1.00  0.00     0.047 A 
ATOM     27  C   UNL A   1      43.376  35.515  31.961  1.00  0.00     0.021 A 
ATOM     28  C   UNL A   1      43.006  33.740  30.378  1.00  0.00     0.041 A 
ATOM     29  Cl  UNL A   1      40.829  32.219  30.286  1.00  0.00    -0.084 Cl
ATOM     30  C   UNL A   1      43.759  34.819  30.820  1.00  0.00     0.042 A 
ATOM     31  Cl  UNL A   1      45.145  35.314  29.930  1.00  0.00    -0.084 Cl
ENDBRANCH  23  24
ENDBRANCH  13  23
ENDBRANCH   7   8
ENDBRANCH   5   7
ENDBRANCH   2   3
ENDBRANCH   1   2
BRANCH   1  32
ATOM     32  C   UNL A   1      43.894  25.330  37.689  1.00  0.00     0.118 C 
BRANCH  32  33
ATOM     33  N   UNL A   1      44.246  24.051  37.088  1.00  0.00    -0.352 N 
ATOM     34  C   UNL A   1      44.445  23.602  35.808  1.00  0.00     0.251 C 
ATOM     35  H   UNL A   1      44.369  23.340  37.759  1.00  0.00     0.163 HD
ATOM     36  O   UNL A   1      44.527  22.377  35.679  1.00  0.00    -0.269 OA
BRANCH  34  37
ATOM     37  C   UNL A   1      44.568  24.444  34.585  1.00  0.00     0.039 A 
ATOM     38  C   UNL A   1      45.872  24.824  34.210  1.00  0.00     0.014 A 
ATOM     39  C   UNL A   1      43.495  25.006  33.895  1.00  0.00     0.014 A 
ATOM     40  C   UNL A   1      46.112  25.708  33.147  1.00  0.00     0.010 A 
ATOM     41  C   UNL A   1      43.739  25.900  32.829  1.00  0.00     0.010 A 
ATOM     42  C   UNL A   1      45.049  26.244  32.422  1.00  0.00    -0.014 A 
BRANCH  42  43
ATOM     43  C   UNL A   1      45.346  26.946  31.135  1.00  0.00     0.031 A 
ATOM     44  C   UNL A   1      45.392  26.032  29.966  1.00  0.00     0.074 A 
ATOM     45  C   UNL A   1      45.096  28.243  30.823  1.00  0.00     0.049 A 
ATOM     46  N   UNL A   1      44.281  25.658  29.414  1.00  0.00    -0.248 NA
ATOM     47  C   UNL A   1      46.555  25.287  29.499  1.00  0.00     0.031 C 
ATOM     48  C   UNL A   1      44.118  29.088  31.513  1.00  0.00     0.029 A 
ATOM     49  N   UNL A   1      45.475  29.005  29.723  1.00  0.00    -0.354 N 
ATOM     50  C   UNL A   1      44.553  24.603  28.575  1.00  0.00     0.074 A 
ATOM     51  C   UNL A   1      45.987  24.416  28.643  1.00  0.00     0.031 C 
ATOM     52  C   UNL A   1      43.874  30.180  30.757  1.00  0.00     0.029 A 
ATOM     53  C   UNL A   1      44.780  30.210  29.606  1.00  0.00     0.049 A 
ATOM     54  H   UNL A   1      46.170  28.721  29.086  1.00  0.00     0.167 HD
ATOM     55  C   UNL A   1      43.550  24.000  27.883  1.00  0.00     0.037 A 
ATOM     56  C   UNL A   1      44.499  30.891  28.457  1.00  0.00     0.037 A 
ATOM     57  C   UNL A   1      42.227  24.581  28.013  1.00  0.00     0.049 A 
ATOM     58  C   UNL A   1      43.528  29.994  27.745  1.00  0.00     0.074 A 
ATOM     59  C   UNL A   1      40.907  24.188  28.105  1.00  0.00     0.029 A 
ATOM     60  N   UNL A   1      42.192  25.944  28.066  1.00  0.00    -0.354 N 
ATOM     61  N   UNL A   1      42.248  29.901  27.990  1.00  0.00    -0.248 NA
ATOM     62  C   UNL A   1      44.057  28.965  26.835  1.00  0.00     0.031 C 
ATOM     63  C   UNL A   1      40.101  25.383  28.109  1.00  0.00     0.029 A 
ATOM     64  C   UNL A   1      40.942  26.475  27.966  1.00  0.00     0.049 A 
ATOM     65  H   UNL A   1      43.001  26.498  28.167  1.00  0.00     0.167 HD
ATOM     66  C   UNL A   1      41.883  28.666  27.473  1.00  0.00     0.074 A 
ATOM     67  C   UNL A   1      42.977  28.220  26.636  1.00  0.00     0.031 C 
ATOM     68  C   UNL A   1      40.854  27.916  27.961  1.00  0.00     0.037 A 
BRANCH  55  69
ATOM     69  C   UNL A   1      43.795  22.997  26.825  1.00  0.00     0.058 A 
ATOM     70  C   UNL A   1      43.308  21.695  27.034  1.00  0.00     0.135 A 
ATOM     71  C   UNL A   1      44.615  23.225  25.718  1.00  0.00     0.135 A 
ATOM     72  F   UNL A   1      42.503  21.439  28.079  1.00  0.00    -0.206 F 
ATOM     73  C   UNL A   1      43.657  20.642  26.202  1.00  0.00     0.059 A 
ATOM     74  C   UNL A   1      44.976  22.184  24.862  1.00  0.00     0.059 A 
ATOM     75  F   UNL A   1      45.106  24.451  25.480  1.00  0.00    -0.206 F 
ATOM     76  C   UNL A   1      44.508  20.893  25.126  1.00  0.00     0.060 A 
BRANCH  76  77
ATOM     77  S   UNL A   1      45.007  19.492  24.101  1.00  0.00     0.124 S 
ATOM     78  O   UNL A   1      46.461  19.541  24.209  1.00  0.00    -0.237 OA
ATOM     79  O   UNL A   1      44.353  18.376  24.778  1.00  0.00    -0.237 OA
ATOM     80  O   UNL A   1      44.466  19.825  22.786  1.00  0.00    -0.744 OA
ENDBRANCH  76  77
ENDBRANCH  55  69
BRANCH  56  81
ATOM     81  C   UNL A   1      45.582  31.636  27.727  1.00  0.00     0.058 A 
ATOM     82  C   UNL A   1      45.308  32.912  27.192  1.00  0.00     0.135 A 
ATOM     83  C   UNL A   1      46.866  31.131  27.447  1.00  0.00     0.135 A 
ATOM     84  F   UNL A   1      44.067  33.420  27.258  1.00  0.00    -0.206 F 
ATOM     85  C   UNL A   1      46.284  33.691  26.564  1.00  0.00     0.059 A 
ATOM     86  C   UNL A   1      47.872  31.903  26.860  1.00  0.00     0.059 A 
ATOM     87  F   UNL A   1      47.194  29.865  27.735  1.00  0.00    -0.206 F 
ATOM     88  C   UNL A   1      47.580  33.195  26.447  1.00  0.00     0.060 A 
BRANCH  88  89
ATOM     89  S   UNL A   1      48.882  34.279  25.822  1.00  0.00     0.124 S 
ATOM     90  O   UNL A   1      48.192  35.005  24.762  1.00  0.00    -0.237 OA
ATOM     91  O   UNL A   1      49.221  35.057  27.009  1.00  0.00    -0.237 OA
ATOM     92  O   UNL A   1      49.915  33.346  25.378  1.00  0.00    -0.744 OA
ENDBRANCH  88  89
ENDBRANCH  56  81
BRANCH  68  93
ATOM     93  C   UNL A   1      39.749  28.645  28.622  1.00  0.00     0.058 A 
ATOM     94  C   UNL A   1      39.630  28.581  30.019  1.00  0.00     0.135 A 
ATOM     95  C   UNL A   1      38.858  29.464  27.918  1.00  0.00     0.135 A 
ATOM     96  F   UNL A   1      40.480  27.831  30.740  1.00  0.00    -0.206 F 
ATOM     97  C   UNL A   1      38.678  29.323  30.701  1.00  0.00     0.059 A 
ATOM     98  C   UNL A   1      37.900  30.225  28.582  1.00  0.00     0.059 A 
ATOM     99  F   UNL A   1      38.919  29.550  26.579  1.00  0.00    -0.206 F 
ATOM    100  C   UNL A   1      37.828  30.158  29.976  1.00  0.00     0.060 A 
BRANCH 100 101
ATOM    101  S   UNL A   1      36.694  31.216  30.895  1.00  0.00     0.124 S 
ATOM    102  O   UNL A   1      35.702  31.557  29.880  1.00  0.00    -0.237 OA
ATOM    103  O   UNL A   1      36.234  30.324  31.955  1.00  0.00    -0.237 OA
ATOM    104  O   UNL A   1      37.540  32.320  31.340  1.00  0.00    -0.744 OA
ENDBRANCH 100 101
ENDBRANCH  68  93
ENDBRANCH  42  43
ENDBRANCH  34  37
ENDBRANCH  32  33
ENDBRANCH   1  32
TORSDOF 16
ENDMDL
MODEL 3
REMARK VINA RESULT:     -12.4      2.178      3.758
REMARK SMILES O=C(Cn1c(=O)c2c3c(sc2n(Cc2ccc(Cl)cc2Cl)c1=O)CCCC3)NCCCNC(=O)c1ccc(-c2c3nc(c(-c4c(F)cc(S(=O)(=O)[O-])cc4F)c4ccc([nH]4)c(-c4c(F)cc(S(=O)(=O)[O-])cc4F)c4nc(c(-c5c(F)cc(S(=O)(=O)[O-])cc5F)c5ccc2[nH]5)C=C4)C=C3)cc1
REMARK SMILES IDX 30 1 29 2 28 3 1 4 2 5 3 7 4 8 5 9 22 10 6 11 7 12 12 13
REMARK SMILES IDX 23 14 8 15 11 16 9 17 27 18 10 19 24 20 26 21 25 22 13 23
REMARK SMILES IDX 14 24 15 25 20 26 16 27 19 28 21 29 17 30 18 31 31 32 32 33
REMARK SMILES IDX 33 34 34 36 35 37 36 38 100 39 37 40 99 41 38 42 39 43 40 44
REMARK SMILES IDX 93 45 41 46 98 47 92 48 94 49 42 50 97 51 91 52 90 53 43 55
REMARK SMILES IDX 77 56 56 57 76 58 57 59 60 60 75 61 95 62 58 63 59 64 74 66
REMARK SMILES IDX 96 67 61 68 44 69 45 70 54 71 46 72 47 73 53 74 55 75 48 76
REMARK SMILES IDX 49 77 50 78 51 79 52 80 78 81 79 82 88 83 80 84 81 85 87 86
REMARK SMILES IDX 89 87 82 88 83 89 84 90 85 91 86 92 62 93 63 94 72 95 64 96
REMARK SMILES IDX 65 97 71 98 73 99 66 100 67 101 68 102 69 103 70 104
REMARK H PARENT 28 6 32 35 94 54 60 65
REMARK Flexibility Score: inf
ROOT
ATOM      1  C   UNL A   1      45.993  23.379  37.920  1.00  0.00     0.042 C 
ENDROOT
BRANCH   1   2
ATOM      2  C   UNL A   1      45.874  22.776  39.331  1.00  0.00     0.117 C 
BRANCH   2   3
ATOM      3  N   UNL A   1      46.379  21.416  39.449  1.00  0.00    -0.354 N 
ATOM      4  O   UNL A   1      45.066  20.843  41.246  1.00  0.00    -0.273 OA
ATOM      5  C   UNL A   1      45.877  20.521  40.379  1.00  0.00     0.240 C 
ATOM      6  H   UNL A   1      47.101  21.121  38.848  1.00  0.00     0.163 HD
BRANCH   5   7
ATOM      7  C   UNL A   1      46.437  19.095  40.297  1.00  0.00     0.230 C 
BRANCH   7   8
ATOM      8  N   UNL A   1      45.995  18.300  41.444  1.00  0.00    -0.250 N 
ATOM      9  C   UNL A   1      44.880  17.486  41.247  1.00  0.00     0.265 A 
ATOM     10  C   UNL A   1      46.702  18.445  42.649  1.00  0.00     0.332 A 
ATOM     11  O   UNL A   1      44.194  17.491  40.217  1.00  0.00    -0.268 OA
ATOM     12  C   UNL A   1      44.565  16.616  42.353  1.00  0.00     0.079 A 
ATOM     13  N   UNL A   1      46.307  17.663  43.741  1.00  0.00    -0.280 N 
ATOM     14  O   UNL A   1      47.655  19.224  42.720  1.00  0.00    -0.247 OA
ATOM     15  C   UNL A   1      43.527  15.625  42.497  1.00  0.00    -0.019 A 
ATOM     16  C   UNL A   1      45.308  16.729  43.502  1.00  0.00     0.113 A 
ATOM     17  C   UNL A   1      43.577  15.040  43.748  1.00  0.00     0.011 A 
ATOM     18  C   UNL A   1      42.454  15.254  41.513  1.00  0.00     0.037 C 
ATOM     19  S   UNL A   1      44.920  15.543  44.633  1.00  0.00    -0.122 S 
ATOM     20  C   UNL A   1      42.618  14.038  44.301  1.00  0.00     0.047 C 
ATOM     21  C   UNL A   1      41.721  13.963  41.933  1.00  0.00     0.005 C 
ATOM     22  C   UNL A   1      41.362  13.968  43.427  1.00  0.00     0.006 C 
BRANCH  13  23
ATOM     23  C   UNL A   1      46.977  17.864  45.056  1.00  0.00     0.165 C 
BRANCH  23  24
ATOM     24  C   UNL A   1      46.634  19.197  45.714  1.00  0.00    -0.009 A 
ATOM     25  C   UNL A   1      45.279  19.512  45.935  1.00  0.00     0.008 A 
ATOM     26  C   UNL A   1      47.595  20.137  46.140  1.00  0.00     0.047 A 
ATOM     27  C   UNL A   1      44.912  20.665  46.639  1.00  0.00     0.021 A 
ATOM     28  C   UNL A   1      47.232  21.233  46.930  1.00  0.00     0.041 A 
ATOM     29  Cl  UNL A   1      49.248  20.095  45.626  1.00  0.00    -0.084 Cl
ATOM     30  C   UNL A   1      45.891  21.490  47.180  1.00  0.00     0.042 A 
ATOM     31  Cl  UNL A   1      45.446  22.854  48.129  1.00  0.00    -0.084 Cl
ENDBRANCH  23  24
ENDBRANCH  13  23
ENDBRANCH   7   8
ENDBRANCH   5   7
ENDBRANCH   2   3
ENDBRANCH   1   2
BRANCH   1  32
ATOM     32  C   UNL A   1      44.991  24.503  37.578  1.00  0.00     0.118 C 
BRANCH  32  33
ATOM     33  N   UNL A   1      43.791  23.972  36.945  1.00  0.00    -0.352 N 
ATOM     34  C   UNL A   1      43.122  24.218  35.774  1.00  0.00     0.251 C 
ATOM     35  H   UNL A   1      43.358  23.272  37.486  1.00  0.00     0.163 HD
ATOM     36  O   UNL A   1      42.003  23.705  35.681  1.00  0.00    -0.269 OA
BRANCH  34  37
ATOM     37  C   UNL A   1      43.616  25.033  34.629  1.00  0.00     0.039 A 
ATOM     38  C   UNL A   1      43.907  24.336  33.438  1.00  0.00     0.014 A 
ATOM     39  C   UNL A   1      43.958  26.381  34.701  1.00  0.00     0.014 A 
ATOM     40  C   UNL A   1      44.485  24.970  32.328  1.00  0.00     0.010 A 
ATOM     41  C   UNL A   1      44.545  27.017  33.584  1.00  0.00     0.010 A 
ATOM     42  C   UNL A   1      44.793  26.329  32.374  1.00  0.00    -0.014 A 
BRANCH  42  43
ATOM     43  C   UNL A   1      45.138  27.025  31.095  1.00  0.00     0.031 A 
ATOM     44  C   UNL A   1      45.218  26.106  29.931  1.00  0.00     0.074 A 
ATOM     45  C   UNL A   1      44.907  28.322  30.770  1.00  0.00     0.049 A 
ATOM     46  N   UNL A   1      44.123  25.738  29.344  1.00  0.00    -0.248 NA
ATOM     47  C   UNL A   1      46.391  25.352  29.507  1.00  0.00     0.031 C 
ATOM     48  C   UNL A   1      43.912  29.176  31.424  1.00  0.00     0.029 A 
ATOM     49  N   UNL A   1      45.328  29.077  29.681  1.00  0.00    -0.354 N 
ATOM     50  C   UNL A   1      44.417  24.677  28.518  1.00  0.00     0.074 A 
ATOM     51  C   UNL A   1      45.846  24.481  28.636  1.00  0.00     0.031 C 
ATOM     52  C   UNL A   1      43.700  30.267  30.656  1.00  0.00     0.029 A 
ATOM     53  C   UNL A   1      44.646  30.287  29.536  1.00  0.00     0.049 A 
ATOM     54  H   UNL A   1      46.042  28.787  29.069  1.00  0.00     0.167 HD
ATOM     55  C   UNL A   1      43.433  24.078  27.794  1.00  0.00     0.037 A 
ATOM     56  C   UNL A   1      44.407  30.965  28.376  1.00  0.00     0.037 A 
ATOM     57  C   UNL A   1      42.111  24.668  27.877  1.00  0.00     0.049 A 
ATOM     58  C   UNL A   1      43.455  30.071  27.634  1.00  0.00     0.074 A 
ATOM     59  C   UNL A   1      40.786  24.284  27.926  1.00  0.00     0.029 A 
ATOM     60  N   UNL A   1      42.083  26.032  27.924  1.00  0.00    -0.354 N 
ATOM     61  N   UNL A   1      42.167  29.987  27.837  1.00  0.00    -0.248 NA
ATOM     62  C   UNL A   1      44.009  29.036  26.747  1.00  0.00     0.031 C 
ATOM     63  C   UNL A   1      39.988  25.484  27.899  1.00  0.00     0.029 A 
ATOM     64  C   UNL A   1      40.840  26.570  27.780  1.00  0.00     0.049 A 
ATOM     65  H   UNL A   1      42.892  26.580  28.051  1.00  0.00     0.167 HD
ATOM     66  C   UNL A   1      41.812  28.753  27.312  1.00  0.00     0.074 A 
ATOM     67  C   UNL A   1      42.931  28.297  26.514  1.00  0.00     0.031 C 
ATOM     68  C   UNL A   1      40.763  28.011  27.767  1.00  0.00     0.037 A 
BRANCH  55  69
ATOM     69  C   UNL A   1      43.707  23.069  26.749  1.00  0.00     0.058 A 
ATOM     70  C   UNL A   1      43.215  21.769  26.951  1.00  0.00     0.135 A 
ATOM     71  C   UNL A   1      44.558  23.292  25.664  1.00  0.00     0.135 A 
ATOM     72  F   UNL A   1      42.382  21.517  27.976  1.00  0.00    -0.206 F 
ATOM     73  C   UNL A   1      43.588  20.711  26.135  1.00  0.00     0.059 A 
ATOM     74  C   UNL A   1      44.943  22.246  24.824  1.00  0.00     0.059 A 
ATOM     75  F   UNL A   1      45.055  24.517  25.433  1.00  0.00    -0.206 F 
ATOM     76  C   UNL A   1      44.467  20.957  25.081  1.00  0.00     0.060 A 
BRANCH  76  77
ATOM     77  S   UNL A   1      44.995  19.551  24.078  1.00  0.00     0.124 S 
ATOM     78  O   UNL A   1      44.510  19.924  22.754  1.00  0.00    -0.237 OA
ATOM     79  O   UNL A   1      46.443  19.578  24.260  1.00  0.00    -0.237 OA
ATOM     80  O   UNL A   1      44.312  18.418  24.698  1.00  0.00    -0.744 OA
ENDBRANCH  76  77
ENDBRANCH  55  69
BRANCH  56  81
ATOM     81  C   UNL A   1      45.520  31.700  27.680  1.00  0.00     0.058 A 
ATOM     82  C   UNL A   1      45.287  32.998  27.179  1.00  0.00     0.135 A 
ATOM     83  C   UNL A   1      46.793  31.168  27.401  1.00  0.00     0.135 A 
ATOM     84  F   UNL A   1      44.060  33.538  27.245  1.00  0.00    -0.206 F 
ATOM     85  C   UNL A   1      46.292  33.767  26.585  1.00  0.00     0.059 A 
ATOM     86  C   UNL A   1      47.827  31.928  26.848  1.00  0.00     0.059 A 
ATOM     87  F   UNL A   1      47.083  29.886  27.656  1.00  0.00    -0.206 F 
ATOM     88  C   UNL A   1      47.575  33.239  26.470  1.00  0.00     0.060 A 
BRANCH  88  89
ATOM     89  S   UNL A   1      48.914  34.304  25.891  1.00  0.00     0.124 S 
ATOM     90  O   UNL A   1      49.864  33.337  25.355  1.00  0.00    -0.237 OA
ATOM     91  O   UNL A   1      48.230  35.137  24.906  1.00  0.00    -0.237 OA
ATOM     92  O   UNL A   1      49.339  35.002  27.102  1.00  0.00    -0.744 OA
ENDBRANCH  88  89
ENDBRANCH  56  81
BRANCH  68  93
ATOM     93  C   UNL A   1      39.640  28.750  28.387  1.00  0.00     0.058 A 
ATOM     94  C   UNL A   1      39.486  28.708  29.782  1.00  0.00     0.135 A 
ATOM     95  C   UNL A   1      38.767  29.556  27.648  1.00  0.00     0.135 A 
ATOM     96  F   UNL A   1      40.317  27.971  30.537  1.00  0.00    -0.206 F 
ATOM     97  C   UNL A   1      38.516  29.461  30.428  1.00  0.00     0.059 A 
ATOM     98  C   UNL A   1      37.793  30.328  28.275  1.00  0.00     0.059 A 
ATOM     99  F   UNL A   1      38.862  29.621  26.310  1.00  0.00    -0.206 F 
ATOM    100  C   UNL A   1      37.684  30.283  29.667  1.00  0.00     0.060 A 
BRANCH 100 101
ATOM    101  S   UNL A   1      36.527  31.355  30.540  1.00  0.00     0.124 S 
ATOM    102  O   UNL A   1      37.399  32.426  31.012  1.00  0.00    -0.237 OA
ATOM    103  O   UNL A   1      35.591  31.721  29.481  1.00  0.00    -0.237 OA
ATOM    104  O   UNL A   1      35.977  30.491  31.580  1.00  0.00    -0.744 OA
ENDBRANCH 100 101
ENDBRANCH  68  93
ENDBRANCH  42  43
ENDBRANCH  34  37
ENDBRANCH  32  33
ENDBRANCH   1  32
TORSDOF 16
ENDMDL
