MODEL 1
REMARK VINA RESULT:     -10.6      0.000      0.000
REMARK SMILES C[N@H+]1C[C@@H](Oc2cccc3cccnc23)C[C@H]1C(=O)NCCCNC(=O)c1ccc(-c2c3nc(c(-c4c(F)cc(S(=O)(=O)[O-])cc4F)c4ccc([nH]4)c(-c4c(F)cc(S(=O)(=O)[O-])cc4F)c4nc(c(-c5c(F)cc(S(=O)(=O)[O-])cc5F)c5ccc2[nH]5)C=C4)C=C3)cc1
REMARK SMILES IDX 22 1 21 2 20 3 18 4 19 5 17 7 1 8 2 9 3 10 4 12 16 13 5 14
REMARK SMILES IDX 6 15 7 16 15 17 8 18 10 19 14 20 9 21 11 22 13 23 12 24
REMARK SMILES IDX 23 25 24 26 25 27 26 29 27 30 28 31 92 32 29 33 91 34 30 35
REMARK SMILES IDX 31 36 32 37 85 38 33 39 90 40 84 41 86 42 34 43 89 44 83 45
REMARK SMILES IDX 82 46 35 48 69 49 48 50 68 51 49 52 52 53 67 54 87 55 50 56
REMARK SMILES IDX 51 57 66 59 88 60 53 61 36 62 37 63 46 64 38 65 39 66 45 67
REMARK SMILES IDX 47 68 40 69 41 70 42 71 43 72 44 73 70 74 71 75 80 76 72 77
REMARK SMILES IDX 73 78 79 79 81 80 74 81 75 82 76 83 77 84 78 85 54 86 55 87
REMARK SMILES IDX 64 88 56 89 57 90 63 91 65 92 58 93 59 94 60 95 61 96 62 97
REMARK H PARENT 20 6 2 11 24 28 86 47 52 58
REMARK Flexibility Score: inf
ROOT
ATOM      1  C   UNL A   1      34.145  34.412  28.472  1.00  0.00     0.042 C 
ENDROOT
BRANCH   1   2
ATOM      2  C   UNL A   1      33.897  34.436  29.972  1.00  0.00     0.118 C 
BRANCH   2   3
ATOM      3  N   UNL A   1      34.132  33.198  30.667  1.00  0.00    -0.351 N 
ATOM      4  C   UNL A   1      35.066  32.896  31.610  1.00  0.00     0.278 C 
ATOM      5  O   UNL A   1      34.781  31.939  32.346  1.00  0.00    -0.268 OA
ATOM      6  H   UNL A   1      33.527  32.460  30.425  1.00  0.00     0.163 HD
BRANCH   4   7
ATOM      7  C   UNL A   1      36.393  33.658  31.860  1.00  0.00     0.278 C 
ATOM      8  C   UNL A   1      35.310  35.393  33.266  1.00  0.00     0.333 C 
ATOM      9  N   UNL A   1      36.469  34.581  32.991  1.00  0.00    -0.324 N 
ATOM     10  C   UNL A   1      37.195  33.976  34.103  1.00  0.00     0.308 C 
ATOM     11  H   UNL A   1      37.050  35.367  32.701  1.00  0.00     0.348 HD
ATOM     12  C   UNL A   1      38.153  32.965  33.428  1.00  0.00     0.234 C 
ATOM     13  C   UNL A   1      37.635  32.788  31.992  1.00  0.00     0.126 C 
BRANCH  12  14
ATOM     14  O   UNL A   1      38.551  31.828  34.216  1.00  0.00    -0.482 OA
BRANCH  14  15
ATOM     15  C   UNL A   1      38.706  30.570  33.686  1.00  0.00     0.146 A 
ATOM     16  C   UNL A   1      37.592  29.826  33.279  1.00  0.00     0.049 A 
ATOM     17  C   UNL A   1      40.008  30.103  33.416  1.00  0.00     0.112 A 
ATOM     18  C   UNL A   1      37.737  28.541  32.762  1.00  0.00     0.005 A 
ATOM     19  C   UNL A   1      40.137  28.820  32.823  1.00  0.00     0.004 A 
ATOM     20  N   UNL A   1      41.109  30.833  33.715  1.00  0.00    -0.252 NA
ATOM     21  C   UNL A   1      39.010  28.035  32.541  1.00  0.00     0.010 A 
ATOM     22  C   UNL A   1      41.413  28.340  32.512  1.00  0.00     0.012 A 
ATOM     23  C   UNL A   1      42.327  30.337  33.393  1.00  0.00     0.112 A 
ATOM     24  C   UNL A   1      42.529  29.113  32.791  1.00  0.00     0.021 A 
ENDBRANCH  14  15
ENDBRANCH  12  14
ENDBRANCH   4   7
ENDBRANCH   2   3
ENDBRANCH   1   2
BRANCH   1  25
ATOM     25  C   UNL A   1      34.890  33.172  28.004  1.00  0.00     0.118 C 
BRANCH  25  26
ATOM     26  N   UNL A   1      34.017  32.011  27.854  1.00  0.00    -0.352 N 
ATOM     27  C   UNL A   1      34.311  30.670  27.856  1.00  0.00     0.251 C 
ATOM     28  H   UNL A   1      33.063  32.224  27.733  1.00  0.00     0.163 HD
ATOM     29  O   UNL A   1      33.441  29.845  27.599  1.00  0.00    -0.269 OA
BRANCH  27  30
ATOM     30  C   UNL A   1      35.678  30.215  28.169  1.00  0.00     0.039 A 
ATOM     31  C   UNL A   1      36.005  29.869  29.485  1.00  0.00     0.014 A 
ATOM     32  C   UNL A   1      36.645  30.178  27.166  1.00  0.00     0.014 A 
ATOM     33  C   UNL A   1      37.301  29.447  29.787  1.00  0.00     0.010 A 
ATOM     34  C   UNL A   1      37.907  29.684  27.448  1.00  0.00     0.010 A 
ATOM     35  C   UNL A   1      38.254  29.342  28.765  1.00  0.00    -0.014 A 
BRANCH  35  36
ATOM     36  C   UNL A   1      39.666  28.990  29.024  1.00  0.00     0.031 A 
ATOM     37  C   UNL A   1      40.597  30.085  29.462  1.00  0.00     0.074 A 
ATOM     38  C   UNL A   1      40.125  27.761  28.731  1.00  0.00     0.049 A 
ATOM     39  N   UNL A   1      41.902  30.116  29.467  1.00  0.00    -0.248 NA
ATOM     40  C   UNL A   1      39.960  31.341  29.896  1.00  0.00     0.031 C 
ATOM     41  C   UNL A   1      39.308  26.637  28.272  1.00  0.00     0.029 A 
ATOM     42  N   UNL A   1      41.403  27.267  28.736  1.00  0.00    -0.354 N 
ATOM     43  C   UNL A   1      42.242  31.412  29.839  1.00  0.00     0.074 A 
ATOM     44  C   UNL A   1      41.007  32.141  30.024  1.00  0.00     0.031 C 
ATOM     45  C   UNL A   1      40.108  25.586  28.028  1.00  0.00     0.029 A 
ATOM     46  C   UNL A   1      41.493  25.977  28.273  1.00  0.00     0.049 A 
ATOM     47  H   UNL A   1      42.182  27.786  29.043  1.00  0.00     0.167 HD
ATOM     48  C   UNL A   1      43.477  31.939  30.016  1.00  0.00     0.037 A 
ATOM     49  C   UNL A   1      42.578  25.212  28.045  1.00  0.00     0.037 A 
ATOM     50  C   UNL A   1      44.686  31.175  29.878  1.00  0.00     0.049 A 
ATOM     51  C   UNL A   1      43.938  25.788  28.324  1.00  0.00     0.074 A 
ATOM     52  C   UNL A   1      45.992  31.574  30.091  1.00  0.00     0.029 A 
ATOM     53  N   UNL A   1      44.729  29.837  29.504  1.00  0.00    -0.354 N 
ATOM     54  N   UNL A   1      44.253  27.009  28.692  1.00  0.00    -0.248 NA
ATOM     55  C   UNL A   1      45.087  24.889  28.166  1.00  0.00     0.031 C 
ATOM     56  C   UNL A   1      46.828  30.479  29.832  1.00  0.00     0.029 A 
ATOM     57  C   UNL A   1      46.039  29.392  29.486  1.00  0.00     0.049 A 
ATOM     58  H   UNL A   1      43.943  29.287  29.285  1.00  0.00     0.167 HD
ATOM     59  C   UNL A   1      45.636  27.024  28.822  1.00  0.00     0.074 A 
ATOM     60  C   UNL A   1      46.094  25.684  28.506  1.00  0.00     0.031 C 
ATOM     61  C   UNL A   1      46.455  28.047  29.170  1.00  0.00     0.037 A 
BRANCH  48  62
ATOM     62  C   UNL A   1      43.556  33.402  30.358  1.00  0.00     0.058 A 
ATOM     63  C   UNL A   1      43.500  34.398  29.369  1.00  0.00     0.135 A 
ATOM     64  C   UNL A   1      43.736  33.814  31.688  1.00  0.00     0.135 A 
ATOM     65  F   UNL A   1      43.348  34.060  28.079  1.00  0.00    -0.206 F 
ATOM     66  C   UNL A   1      43.680  35.743  29.677  1.00  0.00     0.059 A 
ATOM     67  C   UNL A   1      43.887  35.157  32.023  1.00  0.00     0.059 A 
ATOM     68  F   UNL A   1      43.796  32.907  32.676  1.00  0.00    -0.206 F 
ATOM     69  C   UNL A   1      43.886  36.112  31.007  1.00  0.00     0.060 A 
BRANCH  69  70
ATOM     70  S   UNL A   1      44.166  37.853  31.392  1.00  0.00     0.124 S 
ATOM     71  O   UNL A   1      45.618  37.886  31.541  1.00  0.00    -0.237 OA
ATOM     72  O   UNL A   1      43.637  38.529  30.211  1.00  0.00    -0.237 OA
ATOM     73  O   UNL A   1      43.403  38.054  32.619  1.00  0.00    -0.744 OA
ENDBRANCH  69  70
ENDBRANCH  48  62
BRANCH  49  74
ATOM     74  C   UNL A   1      42.400  23.820  27.557  1.00  0.00     0.058 A 
ATOM     75  C   UNL A   1      42.365  23.546  26.183  1.00  0.00     0.135 A 
ATOM     76  C   UNL A   1      42.350  22.734  28.445  1.00  0.00     0.135 A 
ATOM     77  F   UNL A   1      42.406  24.552  25.297  1.00  0.00    -0.206 F 
ATOM     78  C   UNL A   1      42.296  22.241  25.702  1.00  0.00     0.059 A 
ATOM     79  C   UNL A   1      42.298  21.420  27.987  1.00  0.00     0.059 A 
ATOM     80  F   UNL A   1      42.400  22.946  29.769  1.00  0.00    -0.206 F 
ATOM     81  C   UNL A   1      42.274  21.184  26.613  1.00  0.00     0.060 A 
BRANCH  81  82
ATOM     82  S   UNL A   1      42.295  19.493  25.976  1.00  0.00     0.124 S 
ATOM     83  O   UNL A   1      40.899  19.302  25.600  1.00  0.00    -0.237 OA
ATOM     84  O   UNL A   1      43.245  19.593  24.872  1.00  0.00    -0.237 OA
ATOM     85  O   UNL A   1      42.756  18.711  27.119  1.00  0.00    -0.744 OA
ENDBRANCH  81  82
ENDBRANCH  49  74
BRANCH  61  86
ATOM     86  C   UNL A   1      47.923  27.748  29.250  1.00  0.00     0.058 A 
ATOM     87  C   UNL A   1      48.482  27.113  30.368  1.00  0.00     0.135 A 
ATOM     88  C   UNL A   1      48.766  28.049  28.168  1.00  0.00     0.135 A 
ATOM     89  F   UNL A   1      47.715  26.811  31.427  1.00  0.00    -0.206 F 
ATOM     90  C   UNL A   1      49.834  26.799  30.419  1.00  0.00     0.059 A 
ATOM     91  C   UNL A   1      50.118  27.726  28.190  1.00  0.00     0.059 A 
ATOM     92  F   UNL A   1      48.273  28.648  27.072  1.00  0.00    -0.206 F 
ATOM     93  C   UNL A   1      50.645  27.109  29.325  1.00  0.00     0.060 A 
BRANCH  93  94
ATOM     94  S   UNL A   1      52.393  26.664  29.384  1.00  0.00     0.124 S 
ATOM     95  O   UNL A   1      52.523  25.827  28.196  1.00  0.00    -0.237 OA
ATOM     96  O   UNL A   1      53.051  27.966  29.318  1.00  0.00    -0.237 OA
ATOM     97  O   UNL A   1      52.522  25.968  30.661  1.00  0.00    -0.744 OA
ENDBRANCH  93  94
ENDBRANCH  61  86
ENDBRANCH  35  36
ENDBRANCH  27  30
ENDBRANCH  25  26
ENDBRANCH   1  25
TORSDOF 15
ENDMDL
MODEL 2
REMARK VINA RESULT:     -10.5      3.576      6.296
REMARK SMILES C[N@H+]1C[C@@H](Oc2cccc3cccnc23)C[C@H]1C(=O)NCCCNC(=O)c1ccc(-c2c3nc(c(-c4c(F)cc(S(=O)(=O)[O-])cc4F)c4ccc([nH]4)c(-c4c(F)cc(S(=O)(=O)[O-])cc4F)c4nc(c(-c5c(F)cc(S(=O)(=O)[O-])cc5F)c5ccc2[nH]5)C=C4)C=C3)cc1
REMARK SMILES IDX 22 1 21 2 20 3 18 4 19 5 17 7 1 8 2 9 3 10 4 12 16 13 5 14
REMARK SMILES IDX 6 15 7 16 15 17 8 18 10 19 14 20 9 21 11 22 13 23 12 24
REMARK SMILES IDX 23 25 24 26 25 27 26 29 27 30 28 31 92 32 29 33 91 34 30 35
REMARK SMILES IDX 31 36 32 37 85 38 33 39 90 40 84 41 86 42 34 43 89 44 83 45
REMARK SMILES IDX 82 46 35 48 69 49 48 50 68 51 49 52 52 53 67 54 87 55 50 56
REMARK SMILES IDX 51 57 66 59 88 60 53 61 36 62 37 63 46 64 38 65 39 66 45 67
REMARK SMILES IDX 47 68 40 69 41 70 42 71 43 72 44 73 70 74 71 75 80 76 72 77
REMARK SMILES IDX 73 78 79 79 81 80 74 81 75 82 76 83 77 84 78 85 54 86 55 87
REMARK SMILES IDX 64 88 56 89 57 90 63 91 65 92 58 93 59 94 60 95 61 96 62 97
REMARK H PARENT 20 6 2 11 24 28 86 47 52 58
REMARK Flexibility Score: inf
ROOT
ATOM      1  C   UNL A   1      33.558  28.406  25.782  1.00  0.00     0.042 C 
ENDROOT
BRANCH   1   2
ATOM      2  C   UNL A   1      32.176  27.865  25.453  1.00  0.00     0.118 C 
BRANCH   2   3
ATOM      3  N   UNL A   1      31.430  28.604  24.470  1.00  0.00    -0.351 N 
ATOM      4  C   UNL A   1      31.019  28.227  23.228  1.00  0.00     0.278 C 
ATOM      5  O   UNL A   1      30.047  28.855  22.781  1.00  0.00    -0.268 OA
ATOM      6  H   UNL A   1      31.179  29.518  24.735  1.00  0.00     0.163 HD
BRANCH   4   7
ATOM      7  C   UNL A   1      31.619  27.079  22.375  1.00  0.00     0.278 C 
ATOM      8  C   UNL A   1      33.765  28.269  22.006  1.00  0.00     0.333 C 
ATOM      9  N   UNL A   1      33.068  27.021  22.199  1.00  0.00    -0.324 N 
ATOM     10  C   UNL A   1      33.654  26.004  23.066  1.00  0.00     0.308 C 
ATOM     11  H   UNL A   1      33.243  26.684  21.252  1.00  0.00     0.348 HD
ATOM     12  C   UNL A   1      32.517  24.973  23.267  1.00  0.00     0.234 C 
ATOM     13  C   UNL A   1      31.229  25.671  22.804  1.00  0.00     0.126 C 
BRANCH  12  14
ATOM     14  O   UNL A   1      32.547  24.208  24.486  1.00  0.00    -0.482 OA
BRANCH  14  15
ATOM     15  C   UNL A   1      33.625  23.444  24.860  1.00  0.00     0.146 A 
ATOM     16  C   UNL A   1      34.695  24.014  25.561  1.00  0.00     0.049 A 
ATOM     17  C   UNL A   1      33.568  22.049  24.667  1.00  0.00     0.112 A 
ATOM     18  C   UNL A   1      35.801  23.253  25.926  1.00  0.00     0.005 A 
ATOM     19  C   UNL A   1      34.675  21.278  25.109  1.00  0.00     0.004 A 
ATOM     20  N   UNL A   1      32.509  21.450  24.072  1.00  0.00    -0.252 NA
ATOM     21  C   UNL A   1      35.795  21.885  25.692  1.00  0.00     0.010 A 
ATOM     22  C   UNL A   1      34.637  19.888  24.961  1.00  0.00     0.012 A 
ATOM     23  C   UNL A   1      32.507  20.100  23.953  1.00  0.00     0.112 A 
ATOM     24  C   UNL A   1      33.531  19.284  24.383  1.00  0.00     0.021 A 
ENDBRANCH  14  15
ENDBRANCH  12  14
ENDBRANCH   4   7
ENDBRANCH   2   3
ENDBRANCH   1   2
BRANCH   1  25
ATOM     25  C   UNL A   1      33.814  28.538  27.274  1.00  0.00     0.118 C 
BRANCH  25  26
ATOM     26  N   UNL A   1      33.725  29.918  27.743  1.00  0.00    -0.352 N 
ATOM     27  C   UNL A   1      34.652  30.702  28.386  1.00  0.00     0.251 C 
ATOM     28  H   UNL A   1      32.861  30.359  27.570  1.00  0.00     0.163 HD
ATOM     29  O   UNL A   1      34.342  31.812  28.802  1.00  0.00    -0.269 OA
BRANCH  27  30
ATOM     30  C   UNL A   1      36.028  30.210  28.577  1.00  0.00     0.039 A 
ATOM     31  C   UNL A   1      36.418  29.720  29.828  1.00  0.00     0.014 A 
ATOM     32  C   UNL A   1      36.943  30.281  27.527  1.00  0.00     0.014 A 
ATOM     33  C   UNL A   1      37.724  29.262  30.016  1.00  0.00     0.010 A 
ATOM     34  C   UNL A   1      38.214  29.754  27.689  1.00  0.00     0.010 A 
ATOM     35  C   UNL A   1      38.623  29.268  28.941  1.00  0.00    -0.014 A 
BRANCH  35  36
ATOM     36  C   UNL A   1      40.043  28.884  29.087  1.00  0.00     0.031 A 
ATOM     37  C   UNL A   1      41.031  29.960  29.437  1.00  0.00     0.074 A 
ATOM     38  C   UNL A   1      40.448  27.642  28.768  1.00  0.00     0.049 A 
ATOM     39  N   UNL A   1      42.333  29.960  29.336  1.00  0.00    -0.248 NA
ATOM     40  C   UNL A   1      40.462  31.233  29.910  1.00  0.00     0.031 C 
ATOM     41  C   UNL A   1      39.571  26.535  28.387  1.00  0.00     0.029 A 
ATOM     42  N   UNL A   1      41.711  27.119  28.674  1.00  0.00    -0.354 N 
ATOM     43  C   UNL A   1      42.732  31.250  29.667  1.00  0.00     0.074 A 
ATOM     44  C   UNL A   1      41.533  32.010  29.945  1.00  0.00     0.031 C 
ATOM     45  C   UNL A   1      40.324  25.463  28.089  1.00  0.00     0.029 A 
ATOM     46  C   UNL A   1      41.733  25.824  28.216  1.00  0.00     0.049 A 
ATOM     47  H   UNL A   1      42.523  27.621  28.912  1.00  0.00     0.167 HD
ATOM     48  C   UNL A   1      43.989  31.749  29.738  1.00  0.00     0.037 A 
ATOM     49  C   UNL A   1      42.777  25.031  27.907  1.00  0.00     0.037 A 
ATOM     50  C   UNL A   1      45.165  30.955  29.508  1.00  0.00     0.049 A 
ATOM     51  C   UNL A   1      44.168  25.577  28.070  1.00  0.00     0.074 A 
ATOM     52  C   UNL A   1      46.493  31.325  29.610  1.00  0.00     0.029 A 
ATOM     53  N   UNL A   1      45.147  29.614  29.145  1.00  0.00    -0.354 N 
ATOM     54  N   UNL A   1      44.541  26.793  28.399  1.00  0.00    -0.248 NA
ATOM     55  C   UNL A   1      45.280  24.650  27.826  1.00  0.00     0.031 C 
ATOM     56  C   UNL A   1      47.280  30.209  29.294  1.00  0.00     0.029 A 
ATOM     57  C   UNL A   1      46.440  29.138  29.023  1.00  0.00     0.049 A 
ATOM     58  H   UNL A   1      44.333  29.081  28.995  1.00  0.00     0.167 HD
ATOM     59  C   UNL A   1      45.929  26.775  28.416  1.00  0.00     0.074 A 
ATOM     60  C   UNL A   1      46.330  25.423  28.075  1.00  0.00     0.031 C 
ATOM     61  C   UNL A   1      46.798  27.781  28.687  1.00  0.00     0.037 A 
BRANCH  48  62
ATOM     62  C   UNL A   1      44.129  33.212  30.059  1.00  0.00     0.058 A 
ATOM     63  C   UNL A   1      44.270  33.670  31.379  1.00  0.00     0.135 A 
ATOM     64  C   UNL A   1      44.076  34.174  29.037  1.00  0.00     0.135 A 
ATOM     65  F   UNL A   1      44.308  32.796  32.397  1.00  0.00    -0.206 F 
ATOM     66  C   UNL A   1      44.293  35.028  31.681  1.00  0.00     0.059 A 
ATOM     67  C   UNL A   1      44.128  35.538  29.314  1.00  0.00     0.059 A 
ATOM     68  F   UNL A   1      43.942  33.795  27.756  1.00  0.00    -0.206 F 
ATOM     69  C   UNL A   1      44.208  35.956  30.642  1.00  0.00     0.060 A 
BRANCH  69  70
ATOM     70  S   UNL A   1      44.190  37.715  31.046  1.00  0.00     0.124 S 
ATOM     71  O   UNL A   1      43.375  38.252  29.960  1.00  0.00    -0.237 OA
ATOM     72  O   UNL A   1      43.570  37.731  32.367  1.00  0.00    -0.237 OA
ATOM     73  O   UNL A   1      45.601  38.083  31.015  1.00  0.00    -0.744 OA
ENDBRANCH  69  70
ENDBRANCH  48  62
BRANCH  49  74
ATOM     74  C   UNL A   1      42.529  23.641  27.448  1.00  0.00     0.058 A 
ATOM     75  C   UNL A   1      42.535  23.329  26.082  1.00  0.00     0.135 A 
ATOM     76  C   UNL A   1      42.367  22.586  28.361  1.00  0.00     0.135 A 
ATOM     77  F   UNL A   1      42.681  24.305  25.172  1.00  0.00    -0.206 F 
ATOM     78  C   UNL A   1      42.399  22.019  25.632  1.00  0.00     0.059 A 
ATOM     79  C   UNL A   1      42.247  21.266  27.936  1.00  0.00     0.059 A 
ATOM     80  F   UNL A   1      42.373  22.833  29.680  1.00  0.00    -0.206 F 
ATOM     81  C   UNL A   1      42.267  20.993  26.568  1.00  0.00     0.060 A 
BRANCH  81  82
ATOM     82  S   UNL A   1      42.202  19.286  25.977  1.00  0.00     0.124 S 
ATOM     83  O   UNL A   1      40.787  19.137  25.659  1.00  0.00    -0.237 OA
ATOM     84  O   UNL A   1      43.113  19.322  24.837  1.00  0.00    -0.237 OA
ATOM     85  O   UNL A   1      42.678  18.517  27.123  1.00  0.00    -0.744 OA
ENDBRANCH  81  82
ENDBRANCH  49  74
BRANCH  61  86
ATOM     86  C   UNL A   1      48.260  27.448  28.649  1.00  0.00     0.058 A 
ATOM     87  C   UNL A   1      49.002  27.541  27.463  1.00  0.00     0.135 A 
ATOM     88  C   UNL A   1      48.935  27.090  29.827  1.00  0.00     0.135 A 
ATOM     89  F   UNL A   1      48.397  27.875  26.312  1.00  0.00    -0.206 F 
ATOM     90  C   UNL A   1      50.365  27.274  27.441  1.00  0.00     0.059 A 
ATOM     91  C   UNL A   1      50.302  26.837  29.831  1.00  0.00     0.059 A 
ATOM     92  F   UNL A   1      48.268  26.998  30.988  1.00  0.00    -0.206 F 
ATOM     93  C   UNL A   1      51.007  26.923  28.630  1.00  0.00     0.060 A 
BRANCH  93  94
ATOM     94  S   UNL A   1      52.785  26.613  28.600  1.00  0.00     0.124 S 
ATOM     95  O   UNL A   1      53.315  27.965  28.464  1.00  0.00    -0.237 OA
ATOM     96  O   UNL A   1      53.014  25.969  29.891  1.00  0.00    -0.237 OA
ATOM     97  O   UNL A   1      52.958  25.749  27.437  1.00  0.00    -0.744 OA
ENDBRANCH  93  94
ENDBRANCH  61  86
ENDBRANCH  35  36
ENDBRANCH  27  30
ENDBRANCH  25  26
ENDBRANCH   1  25
TORSDOF 15
ENDMDL
MODEL 3
REMARK VINA RESULT:     -10.4      3.442      6.098
REMARK SMILES C[N@H+]1C[C@@H](Oc2cccc3cccnc23)C[C@H]1C(=O)NCCCNC(=O)c1ccc(-c2c3nc(c(-c4c(F)cc(S(=O)(=O)[O-])cc4F)c4ccc([nH]4)c(-c4c(F)cc(S(=O)(=O)[O-])cc4F)c4nc(c(-c5c(F)cc(S(=O)(=O)[O-])cc5F)c5ccc2[nH]5)C=C4)C=C3)cc1
REMARK SMILES IDX 22 1 21 2 20 3 18 4 19 5 17 7 1 8 2 9 3 10 4 12 16 13 5 14
REMARK SMILES IDX 6 15 7 16 15 17 8 18 10 19 14 20 9 21 11 22 13 23 12 24
REMARK SMILES IDX 23 25 24 26 25 27 26 29 27 30 28 31 92 32 29 33 91 34 30 35
REMARK SMILES IDX 31 36 32 37 85 38 33 39 90 40 84 41 86 42 34 43 89 44 83 45
REMARK SMILES IDX 82 46 35 48 69 49 48 50 68 51 49 52 52 53 67 54 87 55 50 56
REMARK SMILES IDX 51 57 66 59 88 60 53 61 36 62 37 63 46 64 38 65 39 66 45 67
REMARK SMILES IDX 47 68 40 69 41 70 42 71 43 72 44 73 70 74 71 75 80 76 72 77
REMARK SMILES IDX 73 78 79 79 81 80 74 81 75 82 76 83 77 84 78 85 54 86 55 87
REMARK SMILES IDX 64 88 56 89 57 90 63 91 65 92 58 93 59 94 60 95 61 96 62 97
REMARK H PARENT 20 6 2 11 24 28 86 47 52 58
REMARK Flexibility Score: inf
ROOT
ATOM      1  C   UNL A   1      33.073  27.474  25.573  1.00  0.00     0.042 C 
ENDROOT
BRANCH   1   2
ATOM      2  C   UNL A   1      31.931  26.505  25.837  1.00  0.00     0.118 C 
BRANCH   2   3
ATOM      3  N   UNL A   1      30.694  26.793  25.162  1.00  0.00    -0.351 N 
ATOM      4  C   UNL A   1      29.984  26.029  24.287  1.00  0.00     0.278 C 
ATOM      5  O   UNL A   1      28.778  26.307  24.203  1.00  0.00    -0.268 OA
ATOM      6  H   UNL A   1      30.303  27.674  25.362  1.00  0.00     0.163 HD
BRANCH   4   7
ATOM      7  C   UNL A   1      30.536  24.845  23.450  1.00  0.00     0.278 C 
ATOM      8  C   UNL A   1      31.563  26.327  21.746  1.00  0.00     0.333 C 
ATOM      9  N   UNL A   1      31.618  25.100  22.502  1.00  0.00    -0.324 N 
ATOM     10  C   UNL A   1      32.897  24.654  23.045  1.00  0.00     0.308 C 
ATOM     11  H   UNL A   1      31.458  24.501  21.693  1.00  0.00     0.348 HD
ATOM     12  C   UNL A   1      32.519  23.512  24.019  1.00  0.00     0.234 C 
ATOM     13  C   UNL A   1      31.006  23.639  24.252  1.00  0.00     0.126 C 
BRANCH  12  14
ATOM     14  O   UNL A   1      33.419  23.276  25.118  1.00  0.00    -0.482 OA
BRANCH  14  15
ATOM     15  C   UNL A   1      34.327  22.245  25.130  1.00  0.00     0.146 A 
ATOM     16  C   UNL A   1      33.955  20.963  24.707  1.00  0.00     0.049 A 
ATOM     17  C   UNL A   1      35.675  22.530  25.429  1.00  0.00     0.112 A 
ATOM     18  C   UNL A   1      34.861  19.907  24.737  1.00  0.00     0.005 A 
ATOM     19  C   UNL A   1      36.599  21.455  25.385  1.00  0.00     0.004 A 
ATOM     20  N   UNL A   1      36.088  23.777  25.756  1.00  0.00    -0.252 NA
ATOM     21  C   UNL A   1      36.182  20.151  25.084  1.00  0.00     0.010 A 
ATOM     22  C   UNL A   1      37.950  21.710  25.644  1.00  0.00     0.012 A 
ATOM     23  C   UNL A   1      37.405  23.985  25.995  1.00  0.00     0.112 A 
ATOM     24  C   UNL A   1      38.366  22.997  25.944  1.00  0.00     0.021 A 
ENDBRANCH  14  15
ENDBRANCH  12  14
ENDBRANCH   4   7
ENDBRANCH   2   3
ENDBRANCH   1   2
BRANCH   1  25
ATOM     25  C   UNL A   1      33.785  27.925  26.838  1.00  0.00     0.118 C 
BRANCH  25  26
ATOM     26  N   UNL A   1      33.500  29.316  27.180  1.00  0.00    -0.352 N 
ATOM     27  C   UNL A   1      34.279  30.255  27.812  1.00  0.00     0.251 C 
ATOM     28  H   UNL A   1      32.606  29.633  26.915  1.00  0.00     0.163 HD
ATOM     29  O   UNL A   1      33.811  31.348  28.111  1.00  0.00    -0.269 OA
BRANCH  27  30
ATOM     30  C   UNL A   1      35.685  29.951  28.133  1.00  0.00     0.039 A 
ATOM     31  C   UNL A   1      36.663  30.081  27.140  1.00  0.00     0.014 A 
ATOM     32  C   UNL A   1      36.024  29.491  29.405  1.00  0.00     0.014 A 
ATOM     33  C   UNL A   1      37.995  29.786  27.438  1.00  0.00     0.010 A 
ATOM     34  C   UNL A   1      37.354  29.274  29.723  1.00  0.00     0.010 A 
ATOM     35  C   UNL A   1      38.346  29.391  28.736  1.00  0.00    -0.014 A 
BRANCH  35  36
ATOM     36  C   UNL A   1      39.717  28.976  29.100  1.00  0.00     0.031 A 
ATOM     37  C   UNL A   1      40.650  30.023  29.640  1.00  0.00     0.074 A 
ATOM     38  C   UNL A   1      40.151  27.736  28.815  1.00  0.00     0.049 A 
ATOM     39  N   UNL A   1      41.950  30.001  29.753  1.00  0.00    -0.248 NA
ATOM     40  C   UNL A   1      40.029  31.294  30.051  1.00  0.00     0.031 C 
ATOM     41  C   UNL A   1      39.332  26.657  28.263  1.00  0.00     0.029 A 
ATOM     42  N   UNL A   1      41.404  27.191  28.913  1.00  0.00    -0.354 N 
ATOM     43  C   UNL A   1      42.308  31.274  30.184  1.00  0.00     0.074 A 
ATOM     44  C   UNL A   1      41.091  32.048  30.285  1.00  0.00     0.031 C 
ATOM     45  C   UNL A   1      40.108  25.579  28.059  1.00  0.00     0.029 A 
ATOM     46  C   UNL A   1      41.482  25.909  28.426  1.00  0.00     0.049 A 
ATOM     47  H   UNL A   1      42.174  27.671  29.296  1.00  0.00     0.167 HD
ATOM     48  C   UNL A   1      43.543  31.747  30.475  1.00  0.00     0.037 A 
ATOM     49  C   UNL A   1      42.552  25.106  28.269  1.00  0.00     0.037 A 
ATOM     50  C   UNL A   1      44.730  30.937  30.417  1.00  0.00     0.049 A 
ATOM     51  C   UNL A   1      43.905  25.620  28.674  1.00  0.00     0.074 A 
ATOM     52  C   UNL A   1      46.028  31.277  30.747  1.00  0.00     0.029 A 
ATOM     53  N   UNL A   1      44.752  29.606  30.015  1.00  0.00    -0.354 N 
ATOM     54  N   UNL A   1      44.236  26.819  29.096  1.00  0.00    -0.248 NA
ATOM     55  C   UNL A   1      45.028  24.678  28.588  1.00  0.00     0.031 C 
ATOM     56  C   UNL A   1      46.840  30.156  30.530  1.00  0.00     0.029 A 
ATOM     57  C   UNL A   1      46.040  29.109  30.093  1.00  0.00     0.049 A 
ATOM     58  H   UNL A   1      43.966  29.093  29.719  1.00  0.00     0.167 HD
ATOM     59  C   UNL A   1      45.602  26.774  29.340  1.00  0.00     0.074 A 
ATOM     60  C   UNL A   1      46.033  25.424  29.029  1.00  0.00     0.031 C 
ATOM     61  C   UNL A   1      46.429  27.756  29.779  1.00  0.00     0.037 A 
BRANCH  48  62
ATOM     62  C   UNL A   1      43.650  33.197  30.858  1.00  0.00     0.058 A 
ATOM     63  C   UNL A   1      43.944  34.194  29.913  1.00  0.00     0.135 A 
ATOM     64  C   UNL A   1      43.503  33.592  32.197  1.00  0.00     0.135 A 
ATOM     65  F   UNL A   1      44.114  33.870  28.621  1.00  0.00    -0.206 F 
ATOM     66  C   UNL A   1      44.147  35.518  30.288  1.00  0.00     0.059 A 
ATOM     67  C   UNL A   1      43.671  34.918  32.591  1.00  0.00     0.059 A 
ATOM     68  F   UNL A   1      43.221  32.684  33.145  1.00  0.00    -0.206 F 
ATOM     69  C   UNL A   1      44.021  35.868  31.633  1.00  0.00     0.060 A 
BRANCH  69  70
ATOM     70  S   UNL A   1      44.332  37.579  32.118  1.00  0.00     0.124 S 
ATOM     71  O   UNL A   1      45.776  37.559  32.334  1.00  0.00    -0.237 OA
ATOM     72  O   UNL A   1      43.880  38.328  30.950  1.00  0.00    -0.237 OA
ATOM     73  O   UNL A   1      43.519  37.743  33.318  1.00  0.00    -0.744 OA
ENDBRANCH  69  70
ENDBRANCH  48  62
BRANCH  49  74
ATOM     74  C   UNL A   1      42.362  23.733  27.734  1.00  0.00     0.058 A 
ATOM     75  C   UNL A   1      42.299  23.509  26.352  1.00  0.00     0.135 A 
ATOM     76  C   UNL A   1      42.326  22.615  28.582  1.00  0.00     0.135 A 
ATOM     77  F   UNL A   1      42.324  24.548  25.502  1.00  0.00    -0.206 F 
ATOM     78  C   UNL A   1      42.217  22.224  25.825  1.00  0.00     0.059 A 
ATOM     79  C   UNL A   1      42.262  21.319  28.078  1.00  0.00     0.059 A 
ATOM     80  F   UNL A   1      42.402  22.778  29.912  1.00  0.00    -0.206 F 
ATOM     81  C   UNL A   1      42.210  21.134  26.696  1.00  0.00     0.060 A 
BRANCH  81  82
ATOM     82  S   UNL A   1      42.215  19.467  25.997  1.00  0.00     0.124 S 
ATOM     83  O   UNL A   1      40.806  19.279  25.673  1.00  0.00    -0.237 OA
ATOM     84  O   UNL A   1      43.117  19.615  24.859  1.00  0.00    -0.237 OA
ATOM     85  O   UNL A   1      42.729  18.648  27.090  1.00  0.00    -0.744 OA
ENDBRANCH  81  82
ENDBRANCH  49  74
BRANCH  61  86
ATOM     86  C   UNL A   1      47.873  27.396  29.971  1.00  0.00     0.058 A 
ATOM     87  C   UNL A   1      48.792  27.466  28.915  1.00  0.00     0.135 A 
ATOM     88  C   UNL A   1      48.349  27.033  31.242  1.00  0.00     0.135 A 
ATOM     89  F   UNL A   1      48.380  27.803  27.683  1.00  0.00    -0.206 F 
ATOM     90  C   UNL A   1      50.137  27.174  29.107  1.00  0.00     0.059 A 
ATOM     91  C   UNL A   1      49.693  26.756  31.460  1.00  0.00     0.059 A 
ATOM     92  F   UNL A   1      47.507  26.962  32.285  1.00  0.00    -0.206 F 
ATOM     93  C   UNL A   1      50.578  26.820  30.384  1.00  0.00     0.060 A 
BRANCH  93  94
ATOM     94  S   UNL A   1      52.333  26.477  30.633  1.00  0.00     0.124 S 
ATOM     95  O   UNL A   1      52.284  25.215  31.362  1.00  0.00    -0.237 OA
ATOM     96  O   UNL A   1      52.836  26.400  29.264  1.00  0.00    -0.237 OA
ATOM     97  O   UNL A   1      52.797  27.630  31.399  1.00  0.00    -0.744 OA
ENDBRANCH  93  94
ENDBRANCH  61  86
ENDBRANCH  35  36
ENDBRANCH  27  30
ENDBRANCH  25  26
ENDBRANCH   1  25
TORSDOF 15
ENDMDL
