MODEL 1
REMARK VINA RESULT:     -12.5      0.000      0.000
REMARK SMILES O=C(NCCCNC(=O)[C@@H]1CS[C@H](c2ncc(-c3ccccc3)s2)[NH2+]1)c1ccc(-c2c3nc(c(-c4c(F)cc(S(=O)(=O)[O-])cc4F)c4ccc([nH]4)c(-c4c(F)cc(S(=O)(=O)[O-])cc4F)c4nc(c(-c5c(F)cc(S(=O)(=O)[O-])cc5F)c5ccc2[nH]5)C=C4)C=C3)cc1
REMARK SMILES IDX 4 1 3 2 1 3 2 4 26 6 27 7 91 8 28 9 90 10 29 11 30 12 31 13
REMARK SMILES IDX 84 14 32 15 89 16 83 17 85 18 33 19 88 20 82 21 81 22 34 24
REMARK SMILES IDX 68 25 47 26 67 27 48 28 51 29 66 30 86 31 49 32 50 33 65 35
REMARK SMILES IDX 87 36 52 37 35 38 36 39 45 40 37 41 38 42 44 43 46 44 39 45
REMARK SMILES IDX 40 46 41 47 42 48 43 49 69 50 70 51 79 52 71 53 72 54 78 55
REMARK SMILES IDX 80 56 73 57 74 58 75 59 76 60 77 61 53 62 54 63 63 64 55 65
REMARK SMILES IDX 56 66 62 67 64 68 57 69 58 70 59 71 60 72 61 73 5 74 6 75
REMARK SMILES IDX 7 76 8 77 9 79 10 80 11 81 25 82 12 83 13 84 14 87 15 88
REMARK SMILES IDX 24 89 16 90 17 91 18 92 19 93 23 94 20 95 22 96 21 97
REMARK H PARENT 3 5 85 23 51 34 7 78 25 85 25 86
REMARK Flexibility Score: inf
ROOT
ATOM      1  C   UNL A   1      35.198  29.395  27.669  1.00  0.00     0.118 C 
ENDROOT
BRANCH   1   2
ATOM      2  N   UNL A   1      35.271  30.219  28.865  1.00  0.00    -0.352 N 
ATOM      3  O   UNL A   1      36.084  30.973  30.817  1.00  0.00    -0.269 OA
ATOM      4  C   UNL A   1      36.308  30.416  29.741  1.00  0.00     0.251 C 
ATOM      5  H   UNL A   1      34.446  30.712  29.080  1.00  0.00     0.163 HD
BRANCH   4   6
ATOM      6  C   UNL A   1      37.678  29.965  29.414  1.00  0.00     0.039 A 
ATOM      7  C   UNL A   1      38.141  29.957  28.096  1.00  0.00     0.014 A 
ATOM      8  C   UNL A   1      38.541  29.606  30.455  1.00  0.00     0.014 A 
ATOM      9  C   UNL A   1      39.415  29.478  27.806  1.00  0.00     0.010 A 
ATOM     10  C   UNL A   1      39.848  29.203  30.171  1.00  0.00     0.010 A 
ATOM     11  C   UNL A   1      40.290  29.116  28.841  1.00  0.00    -0.014 A 
BRANCH  11  12
ATOM     12  C   UNL A   1      41.689  28.727  28.525  1.00  0.00     0.031 A 
ATOM     13  C   UNL A   1      42.793  29.745  28.511  1.00  0.00     0.074 A 
ATOM     14  C   UNL A   1      41.951  27.439  28.229  1.00  0.00     0.049 A 
ATOM     15  N   UNL A   1      44.060  29.581  28.228  1.00  0.00    -0.248 NA
ATOM     16  C   UNL A   1      42.428  31.128  28.848  1.00  0.00     0.031 C 
ATOM     17  C   UNL A   1      40.952  26.368  28.184  1.00  0.00     0.029 A 
ATOM     18  N   UNL A   1      43.126  26.811  27.906  1.00  0.00    -0.354 N 
ATOM     19  C   UNL A   1      44.641  30.839  28.331  1.00  0.00     0.074 A 
ATOM     20  C   UNL A   1      43.581  31.762  28.680  1.00  0.00     0.031 C 
ATOM     21  C   UNL A   1      41.558  25.215  27.866  1.00  0.00     0.029 A 
ATOM     22  C   UNL A   1      42.975  25.473  27.630  1.00  0.00     0.049 A 
ATOM     23  H   UNL A   1      43.995  27.273  27.874  1.00  0.00     0.167 HD
ATOM     24  C   UNL A   1      45.940  31.188  28.157  1.00  0.00     0.037 A 
ATOM     25  C   UNL A   1      43.864  24.558  27.203  1.00  0.00     0.037 A 
ATOM     26  C   UNL A   1      46.985  30.257  27.815  1.00  0.00     0.049 A 
ATOM     27  C   UNL A   1      45.294  24.967  27.004  1.00  0.00     0.074 A 
ATOM     28  C   UNL A   1      48.340  30.502  27.668  1.00  0.00     0.029 A 
ATOM     29  N   UNL A   1      46.793  28.908  27.549  1.00  0.00    -0.354 N 
ATOM     30  N   UNL A   1      45.838  26.150  27.165  1.00  0.00    -0.248 NA
ATOM     31  C   UNL A   1      46.232  23.925  26.567  1.00  0.00     0.031 C 
ATOM     32  C   UNL A   1      48.957  29.312  27.265  1.00  0.00     0.029 A 
ATOM     33  C   UNL A   1      47.998  28.314  27.211  1.00  0.00     0.049 A 
ATOM     34  H   UNL A   1      45.927  28.442  27.595  1.00  0.00     0.167 HD
ATOM     35  C   UNL A   1      47.185  25.993  26.864  1.00  0.00     0.074 A 
ATOM     36  C   UNL A   1      47.375  24.596  26.523  1.00  0.00     0.031 C 
ATOM     37  C   UNL A   1      48.172  26.922  26.870  1.00  0.00     0.037 A 
BRANCH  24  38
ATOM     38  C   UNL A   1      46.295  32.644  28.304  1.00  0.00     0.058 A 
ATOM     39  C   UNL A   1      46.230  33.538  27.223  1.00  0.00     0.135 A 
ATOM     40  C   UNL A   1      46.694  33.156  29.550  1.00  0.00     0.135 A 
ATOM     41  F   UNL A   1      45.863  33.104  26.007  1.00  0.00    -0.206 F 
ATOM     42  C   UNL A   1      46.589  34.876  27.361  1.00  0.00     0.059 A 
ATOM     43  C   UNL A   1      47.032  34.496  29.718  1.00  0.00     0.059 A 
ATOM     44  F   UNL A   1      46.769  32.349  30.619  1.00  0.00    -0.206 F 
ATOM     45  C   UNL A   1      46.998  35.343  28.611  1.00  0.00     0.060 A 
BRANCH  45  46
ATOM     46  S   UNL A   1      47.496  37.072  28.768  1.00  0.00     0.124 S 
ATOM     47  O   UNL A   1      47.506  37.240  30.218  1.00  0.00    -0.237 OA
ATOM     48  O   UNL A   1      48.805  37.081  28.122  1.00  0.00    -0.237 OA
ATOM     49  O   UNL A   1      46.445  37.795  28.060  1.00  0.00    -0.744 OA
ENDBRANCH  45  46
ENDBRANCH  24  38
BRANCH  25  50
ATOM     50  C   UNL A   1      43.402  23.172  26.928  1.00  0.00     0.058 A 
ATOM     51  C   UNL A   1      43.316  22.680  25.620  1.00  0.00     0.135 A 
ATOM     52  C   UNL A   1      43.111  22.290  27.983  1.00  0.00     0.135 A 
ATOM     53  F   UNL A   1      43.581  23.487  24.580  1.00  0.00    -0.206 F 
ATOM     54  C   UNL A   1      42.965  21.358  25.363  1.00  0.00     0.059 A 
ATOM     55  C   UNL A   1      42.782  20.959  27.752  1.00  0.00     0.059 A 
ATOM     56  F   UNL A   1      43.198  22.710  29.254  1.00  0.00    -0.206 F 
ATOM     57  C   UNL A   1      42.709  20.503  26.437  1.00  0.00     0.060 A 
BRANCH  57  58
ATOM     58  S   UNL A   1      42.346  18.767  26.096  1.00  0.00     0.124 S 
ATOM     59  O   UNL A   1      42.615  18.151  27.390  1.00  0.00    -0.237 OA
ATOM     60  O   UNL A   1      40.943  18.822  25.695  1.00  0.00    -0.237 OA
ATOM     61  O   UNL A   1      43.282  18.431  25.028  1.00  0.00    -0.744 OA
ENDBRANCH  57  58
ENDBRANCH  25  50
BRANCH  37  62
ATOM     62  C   UNL A   1      49.559  26.460  26.517  1.00  0.00     0.058 A 
ATOM     63  C   UNL A   1      50.057  26.556  25.209  1.00  0.00     0.135 A 
ATOM     64  C   UNL A   1      50.423  25.979  27.516  1.00  0.00     0.135 A 
ATOM     65  F   UNL A   1      49.269  26.998  24.217  1.00  0.00    -0.206 F 
ATOM     66  C   UNL A   1      51.361  26.182  24.900  1.00  0.00     0.059 A 
ATOM     67  C   UNL A   1      51.737  25.624  27.234  1.00  0.00     0.059 A 
ATOM     68  F   UNL A   1      49.996  25.872  28.785  1.00  0.00    -0.206 F 
ATOM     69  C   UNL A   1      52.196  25.723  25.921  1.00  0.00     0.060 A 
BRANCH  69  70
ATOM     70  S   UNL A   1      53.903  25.295  25.518  1.00  0.00     0.124 S 
ATOM     71  O   UNL A   1      54.494  25.161  26.845  1.00  0.00    -0.237 OA
ATOM     72  O   UNL A   1      53.745  24.054  24.766  1.00  0.00    -0.237 OA
ATOM     73  O   UNL A   1      54.364  26.439  24.738  1.00  0.00    -0.744 OA
ENDBRANCH  69  70
ENDBRANCH  37  62
ENDBRANCH  11  12
ENDBRANCH   4   6
ENDBRANCH   1   2
BRANCH   1  74
ATOM     74  C   UNL A   1      33.763  29.037  27.293  1.00  0.00     0.042 C 
BRANCH  74  75
ATOM     75  C   UNL A   1      33.207  29.842  26.122  1.00  0.00     0.118 C 
BRANCH  75  76
ATOM     76  N   UNL A   1      33.761  29.419  24.852  1.00  0.00    -0.351 N 
ATOM     77  C   UNL A   1      33.212  28.990  23.690  1.00  0.00     0.279 C 
ATOM     78  H   UNL A   1      34.745  29.452  24.827  1.00  0.00     0.163 HD
ATOM     79  O   UNL A   1      34.023  28.838  22.765  1.00  0.00    -0.268 OA
BRANCH  77  80
ATOM     80  C   UNL A   1      31.687  28.805  23.455  1.00  0.00     0.284 C 
ATOM     81  C   UNL A   1      30.872  28.041  24.498  1.00  0.00     0.151 C 
ATOM     82  N   UNL A   1      31.485  28.195  22.093  1.00  0.00    -0.319 N 
ATOM     83  S   UNL A   1      29.676  27.092  23.546  1.00  0.00    -0.085 SA
ATOM     84  C   UNL A   1      30.898  26.852  22.229  1.00  0.00     0.303 C 
ATOM     85  H   UNL A   1      32.384  28.125  21.616  1.00  0.00     0.348 HD
ATOM     86  H   UNL A   1      30.853  28.784  21.550  1.00  0.00     0.348 HD
BRANCH  84  87
ATOM     87  C   UNL A   1      31.870  25.719  22.553  1.00  0.00     0.162 A 
ATOM     88  N   UNL A   1      33.151  25.723  22.222  1.00  0.00    -0.242 NA
ATOM     89  S   UNL A   1      31.380  24.323  23.446  1.00  0.00    -0.112 S 
ATOM     90  C   UNL A   1      33.753  24.540  22.609  1.00  0.00     0.132 A 
ATOM     91  C   UNL A   1      32.932  23.633  23.243  1.00  0.00     0.055 A 
BRANCH  91  92
ATOM     92  C   UNL A   1      33.219  22.291  23.730  1.00  0.00    -0.007 A 
ATOM     93  C   UNL A   1      34.353  22.049  24.519  1.00  0.00     0.009 A 
ATOM     94  C   UNL A   1      32.356  21.229  23.435  1.00  0.00     0.009 A 
ATOM     95  C   UNL A   1      34.621  20.765  24.999  1.00  0.00     0.001 A 
ATOM     96  C   UNL A   1      32.629  19.944  23.910  1.00  0.00     0.001 A 
ATOM     97  C   UNL A   1      33.759  19.714  24.692  1.00  0.00     0.000 A 
ENDBRANCH  91  92
ENDBRANCH  84  87
ENDBRANCH  77  80
ENDBRANCH  75  76
ENDBRANCH  74  75
ENDBRANCH   1  74
TORSDOF 15
ENDMDL
MODEL 2
REMARK VINA RESULT:     -12.4      0.513      1.590
REMARK SMILES O=C(NCCCNC(=O)[C@@H]1CS[C@H](c2ncc(-c3ccccc3)s2)[NH2+]1)c1ccc(-c2c3nc(c(-c4c(F)cc(S(=O)(=O)[O-])cc4F)c4ccc([nH]4)c(-c4c(F)cc(S(=O)(=O)[O-])cc4F)c4nc(c(-c5c(F)cc(S(=O)(=O)[O-])cc5F)c5ccc2[nH]5)C=C4)C=C3)cc1
REMARK SMILES IDX 4 1 3 2 1 3 2 4 26 6 27 7 91 8 28 9 90 10 29 11 30 12 31 13
REMARK SMILES IDX 84 14 32 15 89 16 83 17 85 18 33 19 88 20 82 21 81 22 34 24
REMARK SMILES IDX 68 25 47 26 67 27 48 28 51 29 66 30 86 31 49 32 50 33 65 35
REMARK SMILES IDX 87 36 52 37 35 38 36 39 45 40 37 41 38 42 44 43 46 44 39 45
REMARK SMILES IDX 40 46 41 47 42 48 43 49 69 50 70 51 79 52 71 53 72 54 78 55
REMARK SMILES IDX 80 56 73 57 74 58 75 59 76 60 77 61 53 62 54 63 63 64 55 65
REMARK SMILES IDX 56 66 62 67 64 68 57 69 58 70 59 71 60 72 61 73 5 74 6 75
REMARK SMILES IDX 7 76 8 77 9 79 10 80 11 81 25 82 12 83 13 84 14 87 15 88
REMARK SMILES IDX 24 89 16 90 17 91 18 92 19 93 23 94 20 95 22 96 21 97
REMARK H PARENT 3 5 85 23 51 34 7 78 25 85 25 86
REMARK Flexibility Score: inf
ROOT
ATOM      1  C   UNL A   1      35.288  30.693  27.801  1.00  0.00     0.118 C 
ENDROOT
BRANCH   1   2
ATOM      2  N   UNL A   1      35.284  30.975  29.228  1.00  0.00    -0.352 N 
ATOM      3  O   UNL A   1      35.919  30.814  31.374  1.00  0.00    -0.269 OA
ATOM      4  C   UNL A   1      36.224  30.696  30.187  1.00  0.00     0.251 C 
ATOM      5  H   UNL A   1      34.480  31.439  29.556  1.00  0.00     0.163 HD
BRANCH   4   6
ATOM      6  C   UNL A   1      37.585  30.251  29.814  1.00  0.00     0.039 A 
ATOM      7  C   UNL A   1      37.985  30.192  28.477  1.00  0.00     0.014 A 
ATOM      8  C   UNL A   1      38.502  29.953  30.828  1.00  0.00     0.014 A 
ATOM      9  C   UNL A   1      39.252  29.719  28.148  1.00  0.00     0.010 A 
ATOM     10  C   UNL A   1      39.801  29.556  30.498  1.00  0.00     0.010 A 
ATOM     11  C   UNL A   1      40.181  29.417  29.155  1.00  0.00    -0.014 A 
BRANCH  11  12
ATOM     12  C   UNL A   1      41.569  29.036  28.788  1.00  0.00     0.031 A 
ATOM     13  C   UNL A   1      42.674  30.054  28.766  1.00  0.00     0.074 A 
ATOM     14  C   UNL A   1      41.822  27.755  28.456  1.00  0.00     0.049 A 
ATOM     15  N   UNL A   1      43.931  29.897  28.442  1.00  0.00    -0.248 NA
ATOM     16  C   UNL A   1      42.319  31.429  29.145  1.00  0.00     0.031 C 
ATOM     17  C   UNL A   1      40.822  26.685  28.415  1.00  0.00     0.029 A 
ATOM     18  N   UNL A   1      42.987  27.134  28.084  1.00  0.00    -0.354 N 
ATOM     19  C   UNL A   1      44.516  31.152  28.557  1.00  0.00     0.074 A 
ATOM     20  C   UNL A   1      43.467  32.067  28.958  1.00  0.00     0.031 C 
ATOM     21  C   UNL A   1      41.417  25.540  28.053  1.00  0.00     0.029 A 
ATOM     22  C   UNL A   1      42.827  25.803  27.782  1.00  0.00     0.049 A 
ATOM     23  H   UNL A   1      43.855  27.597  28.037  1.00  0.00     0.167 HD
ATOM     24  C   UNL A   1      45.809  31.505  28.353  1.00  0.00     0.037 A 
ATOM     25  C   UNL A   1      43.703  24.898  27.308  1.00  0.00     0.037 A 
ATOM     26  C   UNL A   1      46.844  30.582  27.960  1.00  0.00     0.049 A 
ATOM     27  C   UNL A   1      45.127  25.312  27.077  1.00  0.00     0.074 A 
ATOM     28  C   UNL A   1      48.194  30.830  27.779  1.00  0.00     0.029 A 
ATOM     29  N   UNL A   1      46.644  29.239  27.668  1.00  0.00    -0.354 N 
ATOM     30  N   UNL A   1      45.676  26.491  27.249  1.00  0.00    -0.248 NA
ATOM     31  C   UNL A   1      46.051  24.280  26.589  1.00  0.00     0.031 C 
ATOM     32  C   UNL A   1      48.799  29.651  27.331  1.00  0.00     0.029 A 
ATOM     33  C   UNL A   1      47.838  28.653  27.282  1.00  0.00     0.049 A 
ATOM     34  H   UNL A   1      45.779  28.773  27.729  1.00  0.00     0.167 HD
ATOM     35  C   UNL A   1      47.014  26.341  26.905  1.00  0.00     0.074 A 
ATOM     36  C   UNL A   1      47.192  24.952  26.526  1.00  0.00     0.031 C 
ATOM     37  C   UNL A   1      48.001  27.269  26.904  1.00  0.00     0.037 A 
BRANCH  24  38
ATOM     38  C   UNL A   1      46.169  32.957  28.523  1.00  0.00     0.058 A 
ATOM     39  C   UNL A   1      46.583  33.481  29.759  1.00  0.00     0.135 A 
ATOM     40  C   UNL A   1      46.112  33.837  27.429  1.00  0.00     0.135 A 
ATOM     41  F   UNL A   1      46.648  32.690  30.841  1.00  0.00    -0.206 F 
ATOM     42  C   UNL A   1      46.884  34.831  29.913  1.00  0.00     0.059 A 
ATOM     43  C   UNL A   1      46.436  35.185  27.554  1.00  0.00     0.059 A 
ATOM     44  F   UNL A   1      45.730  33.390  26.223  1.00  0.00    -0.206 F 
ATOM     45  C   UNL A   1      46.799  35.677  28.806  1.00  0.00     0.060 A 
BRANCH  45  46
ATOM     46  S   UNL A   1      47.157  37.433  29.030  1.00  0.00     0.124 S 
ATOM     47  O   UNL A   1      47.070  37.922  27.657  1.00  0.00    -0.237 OA
ATOM     48  O   UNL A   1      46.086  37.861  29.924  1.00  0.00    -0.237 OA
ATOM     49  O   UNL A   1      48.495  37.436  29.612  1.00  0.00    -0.744 OA
ENDBRANCH  45  46
ENDBRANCH  24  38
BRANCH  25  50
ATOM     50  C   UNL A   1      43.232  23.519  27.015  1.00  0.00     0.058 A 
ATOM     51  C   UNL A   1      43.015  23.089  25.700  1.00  0.00     0.135 A 
ATOM     52  C   UNL A   1      43.065  22.582  28.049  1.00  0.00     0.135 A 
ATOM     53  F   UNL A   1      43.159  23.949  24.680  1.00  0.00    -0.206 F 
ATOM     54  C   UNL A   1      42.656  21.774  25.416  1.00  0.00     0.059 A 
ATOM     55  C   UNL A   1      42.731  21.258  27.789  1.00  0.00     0.059 A 
ATOM     56  F   UNL A   1      43.280  22.943  29.324  1.00  0.00    -0.206 F 
ATOM     57  C   UNL A   1      42.526  20.865  26.468  1.00  0.00     0.060 A 
BRANCH  57  58
ATOM     58  S   UNL A   1      42.150  19.141  26.081  1.00  0.00     0.124 S 
ATOM     59  O   UNL A   1      40.718  19.205  25.815  1.00  0.00    -0.237 OA
ATOM     60  O   UNL A   1      43.004  18.895  24.923  1.00  0.00    -0.237 OA
ATOM     61  O   UNL A   1      42.537  18.432  27.296  1.00  0.00    -0.744 OA
ENDBRANCH  57  58
ENDBRANCH  25  50
BRANCH  37  62
ATOM     62  C   UNL A   1      49.376  26.816  26.500  1.00  0.00     0.058 A 
ATOM     63  C   UNL A   1      50.245  26.199  27.413  1.00  0.00     0.135 A 
ATOM     64  C   UNL A   1      49.802  26.938  25.167  1.00  0.00     0.135 A 
ATOM     65  F   UNL A   1      49.892  26.067  28.700  1.00  0.00    -0.206 F 
ATOM     66  C   UNL A   1      51.494  25.727  27.019  1.00  0.00     0.059 A 
ATOM     67  C   UNL A   1      51.034  26.451  24.747  1.00  0.00     0.059 A 
ATOM     68  F   UNL A   1      49.004  27.516  24.254  1.00  0.00    -0.206 F 
ATOM     69  C   UNL A   1      51.877  25.852  25.683  1.00  0.00     0.060 A 
BRANCH  69  70
ATOM     70  S   UNL A   1      53.476  25.184  25.173  1.00  0.00     0.124 S 
ATOM     71  O   UNL A   1      53.271  23.752  25.364  1.00  0.00    -0.237 OA
ATOM     72  O   UNL A   1      53.573  25.631  23.786  1.00  0.00    -0.237 OA
ATOM     73  O   UNL A   1      54.416  25.813  26.095  1.00  0.00    -0.744 OA
ENDBRANCH  69  70
ENDBRANCH  37  62
ENDBRANCH  11  12
ENDBRANCH   4   6
ENDBRANCH   1   2
BRANCH   1  74
ATOM     74  C   UNL A   1      34.498  29.435  27.452  1.00  0.00     0.042 C 
BRANCH  74  75
ATOM     75  C   UNL A   1      33.496  29.623  26.316  1.00  0.00     0.118 C 
BRANCH  75  76
ATOM     76  N   UNL A   1      34.030  29.202  25.037  1.00  0.00    -0.351 N 
ATOM     77  C   UNL A   1      33.461  28.831  23.864  1.00  0.00     0.279 C 
ATOM     78  H   UNL A   1      35.014  29.181  25.014  1.00  0.00     0.163 HD
ATOM     79  O   UNL A   1      34.264  28.658  22.936  1.00  0.00    -0.268 OA
BRANCH  77  80
ATOM     80  C   UNL A   1      31.929  28.735  23.624  1.00  0.00     0.284 C 
ATOM     81  C   UNL A   1      31.077  27.953  24.624  1.00  0.00     0.151 C 
ATOM     82  N   UNL A   1      31.696  28.215  22.230  1.00  0.00    -0.319 N 
ATOM     83  S   UNL A   1      29.836  27.120  23.624  1.00  0.00    -0.085 SA
ATOM     84  C   UNL A   1      31.044  26.896  22.290  1.00  0.00     0.303 C 
ATOM     85  H   UNL A   1      32.591  28.128  21.747  1.00  0.00     0.348 HD
ATOM     86  H   UNL A   1      31.094  28.864  21.723  1.00  0.00     0.348 HD
BRANCH  84  87
ATOM     87  C   UNL A   1      31.960  25.700  22.546  1.00  0.00     0.162 A 
ATOM     88  N   UNL A   1      33.211  25.620  22.125  1.00  0.00    -0.242 NA
ATOM     89  S   UNL A   1      31.443  24.337  23.475  1.00  0.00    -0.112 S 
ATOM     90  C   UNL A   1      33.760  24.399  22.470  1.00  0.00     0.132 A 
ATOM     91  C   UNL A   1      32.927  23.546  23.162  1.00  0.00     0.055 A 
BRANCH  91  92
ATOM     92  C   UNL A   1      33.159  22.187  23.631  1.00  0.00    -0.007 A 
ATOM     93  C   UNL A   1      32.275  21.155  23.282  1.00  0.00     0.009 A 
ATOM     94  C   UNL A   1      34.278  21.889  24.418  1.00  0.00     0.009 A 
ATOM     95  C   UNL A   1      32.505  19.849  23.719  1.00  0.00     0.001 A 
ATOM     96  C   UNL A   1      34.502  20.582  24.859  1.00  0.00     0.001 A 
ATOM     97  C   UNL A   1      33.617  19.565  24.508  1.00  0.00     0.000 A 
ENDBRANCH  91  92
ENDBRANCH  84  87
ENDBRANCH  77  80
ENDBRANCH  75  76
ENDBRANCH  74  75
ENDBRANCH   1  74
TORSDOF 15
ENDMDL
MODEL 3
REMARK VINA RESULT:     -12.4      6.781     12.359
REMARK SMILES O=C(NCCCNC(=O)[C@@H]1CS[C@H](c2ncc(-c3ccccc3)s2)[NH2+]1)c1ccc(-c2c3nc(c(-c4c(F)cc(S(=O)(=O)[O-])cc4F)c4ccc([nH]4)c(-c4c(F)cc(S(=O)(=O)[O-])cc4F)c4nc(c(-c5c(F)cc(S(=O)(=O)[O-])cc5F)c5ccc2[nH]5)C=C4)C=C3)cc1
REMARK SMILES IDX 4 1 3 2 1 3 2 4 26 6 27 7 91 8 28 9 90 10 29 11 30 12 31 13
REMARK SMILES IDX 84 14 32 15 89 16 83 17 85 18 33 19 88 20 82 21 81 22 34 24
REMARK SMILES IDX 68 25 47 26 67 27 48 28 51 29 66 30 86 31 49 32 50 33 65 35
REMARK SMILES IDX 87 36 52 37 35 38 36 39 45 40 37 41 38 42 44 43 46 44 39 45
REMARK SMILES IDX 40 46 41 47 42 48 43 49 69 50 70 51 79 52 71 53 72 54 78 55
REMARK SMILES IDX 80 56 73 57 74 58 75 59 76 60 77 61 53 62 54 63 63 64 55 65
REMARK SMILES IDX 56 66 62 67 64 68 57 69 58 70 59 71 60 72 61 73 5 74 6 75
REMARK SMILES IDX 7 76 8 77 9 79 10 80 11 81 25 82 12 83 13 84 14 87 15 88
REMARK SMILES IDX 24 89 16 90 17 91 18 92 19 93 23 94 20 95 22 96 21 97
REMARK H PARENT 3 5 85 23 51 34 7 78 25 85 25 86
REMARK Flexibility Score: inf
ROOT
ATOM      1  C   UNL A   1      38.449  24.128  26.631  1.00  0.00     0.118 C 
ENDROOT
BRANCH   1   2
ATOM      2  N   UNL A   1      39.816  24.114  26.136  1.00  0.00    -0.352 N 
ATOM      3  O   UNL A   1      41.876  24.899  25.716  1.00  0.00    -0.269 OA
ATOM      4  C   UNL A   1      40.868  24.948  26.421  1.00  0.00     0.251 C 
ATOM      5  H   UNL A   1      40.018  23.393  25.496  1.00  0.00     0.163 HD
BRANCH   4   6
ATOM      6  C   UNL A   1      40.801  25.900  27.550  1.00  0.00     0.039 A 
ATOM      7  C   UNL A   1      41.704  26.962  27.657  1.00  0.00     0.014 A 
ATOM      8  C   UNL A   1      39.770  25.769  28.487  1.00  0.00     0.014 A 
ATOM      9  C   UNL A   1      41.654  27.813  28.756  1.00  0.00     0.010 A 
ATOM     10  C   UNL A   1      39.672  26.674  29.548  1.00  0.00     0.010 A 
ATOM     11  C   UNL A   1      40.625  27.692  29.702  1.00  0.00    -0.014 A 
BRANCH  11  12
ATOM     12  C   UNL A   1      40.512  28.686  30.801  1.00  0.00     0.031 A 
ATOM     13  C   UNL A   1      41.367  28.585  32.031  1.00  0.00     0.074 A 
ATOM     14  C   UNL A   1      39.608  29.679  30.683  1.00  0.00     0.049 A 
ATOM     15  N   UNL A   1      41.375  29.349  33.093  1.00  0.00    -0.248 NA
ATOM     16  C   UNL A   1      42.332  27.477  32.082  1.00  0.00     0.031 C 
ATOM     17  C   UNL A   1      38.703  29.860  29.545  1.00  0.00     0.029 A 
ATOM     18  N   UNL A   1      39.295  30.715  31.525  1.00  0.00    -0.354 N 
ATOM     19  C   UNL A   1      42.326  28.807  33.948  1.00  0.00     0.074 A 
ATOM     20  C   UNL A   1      42.858  27.632  33.290  1.00  0.00     0.031 C 
ATOM     21  C   UNL A   1      37.948  30.947  29.753  1.00  0.00     0.029 A 
ATOM     22  C   UNL A   1      38.272  31.508  31.061  1.00  0.00     0.049 A 
ATOM     23  H   UNL A   1      39.757  30.876  32.379  1.00  0.00     0.167 HD
ATOM     24  C   UNL A   1      42.722  29.253  35.166  1.00  0.00     0.037 A 
ATOM     25  C   UNL A   1      37.641  32.550  31.631  1.00  0.00     0.037 A 
ATOM     26  C   UNL A   1      42.187  30.428  35.806  1.00  0.00     0.049 A 
ATOM     27  C   UNL A   1      38.085  33.021  32.986  1.00  0.00     0.074 A 
ATOM     28  C   UNL A   1      42.558  30.993  37.014  1.00  0.00     0.029 A 
ATOM     29  N   UNL A   1      41.156  31.209  35.302  1.00  0.00    -0.354 N 
ATOM     30  N   UNL A   1      39.029  32.531  33.754  1.00  0.00    -0.248 NA
ATOM     31  C   UNL A   1      37.385  34.181  33.552  1.00  0.00     0.031 C 
ATOM     32  C   UNL A   1      41.718  32.084  37.263  1.00  0.00     0.029 A 
ATOM     33  C   UNL A   1      40.858  32.233  36.186  1.00  0.00     0.049 A 
ATOM     34  H   UNL A   1      40.703  31.058  34.441  1.00  0.00     0.167 HD
ATOM     35  C   UNL A   1      39.047  33.332  34.890  1.00  0.00     0.074 A 
ATOM     36  C   UNL A   1      38.027  34.345  34.700  1.00  0.00     0.031 C 
ATOM     37  C   UNL A   1      39.837  33.234  35.987  1.00  0.00     0.037 A 
BRANCH  24  38
ATOM     38  C   UNL A   1      43.763  28.448  35.897  1.00  0.00     0.058 A 
ATOM     39  C   UNL A   1      43.418  27.397  36.762  1.00  0.00     0.135 A 
ATOM     40  C   UNL A   1      45.129  28.725  35.720  1.00  0.00     0.135 A 
ATOM     41  F   UNL A   1      42.129  27.093  36.976  1.00  0.00    -0.206 F 
ATOM     42  C   UNL A   1      44.387  26.679  37.457  1.00  0.00     0.059 A 
ATOM     43  C   UNL A   1      46.116  28.002  36.384  1.00  0.00     0.059 A 
ATOM     44  F   UNL A   1      45.517  29.715  34.901  1.00  0.00    -0.206 F 
ATOM     45  C   UNL A   1      45.733  26.995  37.268  1.00  0.00     0.060 A 
BRANCH  45  46
ATOM     46  S   UNL A   1      46.977  26.079  38.204  1.00  0.00     0.124 S 
ATOM     47  O   UNL A   1      47.670  25.360  37.139  1.00  0.00    -0.237 OA
ATOM     48  O   UNL A   1      47.738  27.147  38.845  1.00  0.00    -0.237 OA
ATOM     49  O   UNL A   1      46.183  25.251  39.106  1.00  0.00    -0.744 OA
ENDBRANCH  45  46
ENDBRANCH  24  38
BRANCH  25  50
ATOM     50  C   UNL A   1      36.513  33.196  30.910  1.00  0.00     0.058 A 
ATOM     51  C   UNL A   1      35.191  33.048  31.347  1.00  0.00     0.135 A 
ATOM     52  C   UNL A   1      36.752  34.040  29.812  1.00  0.00     0.135 A 
ATOM     53  F   UNL A   1      34.913  32.250  32.390  1.00  0.00    -0.206 F 
ATOM     54  C   UNL A   1      34.142  33.719  30.725  1.00  0.00     0.059 A 
ATOM     55  C   UNL A   1      35.724  34.739  29.190  1.00  0.00     0.059 A 
ATOM     56  F   UNL A   1      38.005  34.227  29.369  1.00  0.00    -0.206 F 
ATOM     57  C   UNL A   1      34.421  34.570  29.654  1.00  0.00     0.060 A 
BRANCH  57  58
ATOM     58  S   UNL A   1      33.065  35.507  28.915  1.00  0.00     0.124 S 
ATOM     59  O   UNL A   1      32.418  34.489  28.095  1.00  0.00    -0.237 OA
ATOM     60  O   UNL A   1      32.320  35.946  30.091  1.00  0.00    -0.237 OA
ATOM     61  O   UNL A   1      33.749  36.568  28.183  1.00  0.00    -0.744 OA
ENDBRANCH  57  58
ENDBRANCH  25  50
BRANCH  37  62
ATOM     62  C   UNL A   1      39.650  34.263  37.067  1.00  0.00     0.058 A 
ATOM     63  C   UNL A   1      38.878  33.999  38.209  1.00  0.00     0.135 A 
ATOM     64  C   UNL A   1      40.308  35.501  36.990  1.00  0.00     0.135 A 
ATOM     65  F   UNL A   1      38.220  32.836  38.326  1.00  0.00    -0.206 F 
ATOM     66  C   UNL A   1      38.757  34.933  39.233  1.00  0.00     0.059 A 
ATOM     67  C   UNL A   1      40.222  36.439  38.014  1.00  0.00     0.059 A 
ATOM     68  F   UNL A   1      41.063  35.800  35.920  1.00  0.00    -0.206 F 
ATOM     69  C   UNL A   1      39.438  36.147  39.130  1.00  0.00     0.060 A 
BRANCH  69  70
ATOM     70  S   UNL A   1      39.319  37.327  40.492  1.00  0.00     0.124 S 
ATOM     71  O   UNL A   1      40.695  37.800  40.592  1.00  0.00    -0.237 OA
ATOM     72  O   UNL A   1      38.351  38.295  39.983  1.00  0.00    -0.237 OA
ATOM     73  O   UNL A   1      38.852  36.511  41.608  1.00  0.00    -0.744 OA
ENDBRANCH  69  70
ENDBRANCH  37  62
ENDBRANCH  11  12
ENDBRANCH   4   6
ENDBRANCH   1   2
BRANCH   1  74
ATOM     74  C   UNL A   1      37.444  23.658  25.583  1.00  0.00     0.042 C 
BRANCH  74  75
ATOM     75  C   UNL A   1      36.781  22.323  25.911  1.00  0.00     0.118 C 
BRANCH  75  76
ATOM     76  N   UNL A   1      35.680  22.469  26.841  1.00  0.00    -0.351 N 
ATOM     77  C   UNL A   1      34.398  22.030  26.848  1.00  0.00     0.279 C 
ATOM     78  H   UNL A   1      35.912  23.000  27.637  1.00  0.00     0.163 HD
ATOM     79  O   UNL A   1      33.784  22.255  27.900  1.00  0.00    -0.268 OA
BRANCH  77  80
ATOM     80  C   UNL A   1      33.748  21.202  25.705  1.00  0.00     0.284 C 
ATOM     81  C   UNL A   1      33.934  21.672  24.262  1.00  0.00     0.151 C 
ATOM     82  N   UNL A   1      32.282  21.037  26.010  1.00  0.00    -0.319 N 
ATOM     83  S   UNL A   1      32.361  21.333  23.458  1.00  0.00    -0.085 SA
ATOM     84  C   UNL A   1      31.478  21.732  24.991  1.00  0.00     0.303 C 
ATOM     85  H   UNL A   1      32.081  21.433  26.928  1.00  0.00     0.348 HD
ATOM     86  H   UNL A   1      32.046  20.044  26.003  1.00  0.00     0.348 HD
BRANCH  84  87
ATOM     87  C   UNL A   1      31.311  23.240  25.175  1.00  0.00     0.162 A 
ATOM     88  N   UNL A   1      31.392  23.859  26.341  1.00  0.00    -0.242 NA
ATOM     89  S   UNL A   1      31.045  24.299  23.836  1.00  0.00    -0.112 S 
ATOM     90  C   UNL A   1      31.148  25.211  26.190  1.00  0.00     0.132 A 
ATOM     91  C   UNL A   1      30.885  25.627  24.902  1.00  0.00     0.055 A 
BRANCH  91  92
ATOM     92  C   UNL A   1      30.542  26.950  24.398  1.00  0.00    -0.007 A 
ATOM     93  C   UNL A   1      29.454  27.119  23.529  1.00  0.00     0.009 A 
ATOM     94  C   UNL A   1      31.282  28.072  24.790  1.00  0.00     0.009 A 
ATOM     95  C   UNL A   1      29.116  28.388  23.056  1.00  0.00     0.001 A 
ATOM     96  C   UNL A   1      30.946  29.341  24.311  1.00  0.00     0.001 A 
ATOM     97  C   UNL A   1      29.863  29.498  23.447  1.00  0.00     0.000 A 
ENDBRANCH  91  92
ENDBRANCH  84  87
ENDBRANCH  77  80
ENDBRANCH  75  76
ENDBRANCH  74  75
ENDBRANCH   1  74
TORSDOF 15
ENDMDL
