MODEL 1
REMARK VINA RESULT:     -12.8      0.000      0.000
REMARK SMILES O=C(Cn1c2ccccc2c(=O)c2ccccc21)N[C@@H](Cc1ccccc1)C(=O)NCCCNC(=O)c1ccc(-c2c3nc(c(-c4c(F)cc(S(=O)(=O)[O-])cc4F)c4ccc([nH]4)c(-c4c(F)cc(S(=O)(=O)[O-])cc4F)c4nc(c(-c5c(F)cc(S(=O)(=O)[O-])cc5F)c5ccc2[nH]5)C=C4)C=C3)cc1
REMARK SMILES IDX 32 1 31 2 30 3 28 4 29 5 20 7 19 8 1 9 2 10 3 12 4 13 5 14
REMARK SMILES IDX 18 15 6 16 10 17 13 18 17 19 7 20 9 21 11 22 14 23 16 24
REMARK SMILES IDX 8 25 12 26 15 27 21 28 22 29 23 30 27 31 24 32 26 33 25 34
REMARK SMILES IDX 33 35 34 36 35 37 36 39 37 40 38 41 102 42 39 43 101 44
REMARK SMILES IDX 40 45 41 46 42 47 95 48 43 49 100 50 94 51 96 52 44 53 99 54
REMARK SMILES IDX 93 55 92 56 45 58 79 59 58 60 78 61 59 62 62 63 77 64 97 65
REMARK SMILES IDX 60 66 61 67 76 69 98 70 63 71 46 72 47 73 56 74 48 75 49 76
REMARK SMILES IDX 55 77 57 78 50 79 51 80 52 81 53 82 54 83 80 84 81 85 90 86
REMARK SMILES IDX 82 87 83 88 89 89 91 90 84 91 85 92 86 93 87 94 88 95 64 96
REMARK SMILES IDX 65 97 74 98 66 99 67 100 73 101 75 102 68 103 69 104 70 105
REMARK SMILES IDX 71 106 72 107
REMARK H PARENT 30 6 19 11 34 38 96 57 62 68
REMARK Flexibility Score: inf
ROOT
ATOM      1  C   UNL A   1      32.512  28.628  26.835  1.00  0.00     0.042 C 
ENDROOT
BRANCH   1   2
ATOM      2  C   UNL A   1      32.312  28.690  25.340  1.00  0.00     0.117 C 
BRANCH   2   3
ATOM      3  N   UNL A   1      33.508  28.917  24.558  1.00  0.00    -0.354 N 
ATOM      4  C   UNL A   1      33.940  28.267  23.437  1.00  0.00     0.242 C 
ATOM      5  O   UNL A   1      34.709  28.889  22.696  1.00  0.00    -0.273 OA
ATOM      6  H   UNL A   1      34.093  29.642  24.880  1.00  0.00     0.163 HD
BRANCH   4   7
ATOM      7  C   UNL A   1      33.439  26.855  23.045  1.00  0.00     0.175 C 
BRANCH   7   8
ATOM      8  N   UNL A   1      33.374  25.938  24.198  1.00  0.00    -0.342 N 
ATOM      9  O   UNL A   1      34.520  24.261  23.144  1.00  0.00    -0.273 OA
ATOM     10  C   UNL A   1      34.030  24.722  24.176  1.00  0.00     0.240 C 
ATOM     11  H   UNL A   1      32.854  26.196  24.994  1.00  0.00     0.164 HD
BRANCH  10  12
ATOM     12  C   UNL A   1      34.080  23.938  25.485  1.00  0.00     0.222 C 
BRANCH  12  13
ATOM     13  N   UNL A   1      34.826  22.646  25.557  1.00  0.00    -0.331 N 
ATOM     14  C   UNL A   1      36.237  22.805  25.770  1.00  0.00     0.053 A 
ATOM     15  C   UNL A   1      34.270  21.372  25.338  1.00  0.00     0.053 A 
ATOM     16  C   UNL A   1      36.823  23.979  26.281  1.00  0.00     0.027 A 
ATOM     17  C   UNL A   1      37.112  21.734  25.507  1.00  0.00     0.046 A 
ATOM     18  C   UNL A   1      35.105  20.297  24.962  1.00  0.00     0.046 A 
ATOM     19  C   UNL A   1      32.922  21.041  25.517  1.00  0.00     0.027 A 
ATOM     20  C   UNL A   1      38.201  24.066  26.531  1.00  0.00     0.002 A 
ATOM     21  C   UNL A   1      38.491  21.815  25.755  1.00  0.00     0.014 A 
ATOM     22  C   UNL A   1      36.567  20.489  24.944  1.00  0.00     0.197 A 
ATOM     23  C   UNL A   1      34.607  19.024  24.634  1.00  0.00     0.014 A 
ATOM     24  C   UNL A   1      32.411  19.771  25.195  1.00  0.00     0.002 A 
ATOM     25  C   UNL A   1      39.034  22.984  26.276  1.00  0.00     0.001 A 
ATOM     26  O   UNL A   1      37.302  19.614  24.501  1.00  0.00    -0.288 OA
ATOM     27  C   UNL A   1      33.248  18.769  24.726  1.00  0.00     0.001 A 
ENDBRANCH  12  13
ENDBRANCH  10  12
ENDBRANCH   7   8
BRANCH   7  28
ATOM     28  C   UNL A   1      32.218  26.837  22.096  1.00  0.00     0.070 C 
BRANCH  28  29
ATOM     29  C   UNL A   1      30.878  27.235  22.667  1.00  0.00    -0.045 A 
ATOM     30  C   UNL A   1      30.313  28.481  22.359  1.00  0.00     0.004 A 
ATOM     31  C   UNL A   1      30.139  26.325  23.441  1.00  0.00     0.004 A 
ATOM     32  C   UNL A   1      28.998  28.771  22.732  1.00  0.00     0.000 A 
ATOM     33  C   UNL A   1      28.829  26.625  23.825  1.00  0.00     0.000 A 
ATOM     34  C   UNL A   1      28.251  27.837  23.449  1.00  0.00     0.000 A 
ENDBRANCH  28  29
ENDBRANCH   7  28
ENDBRANCH   4   7
ENDBRANCH   2   3
ENDBRANCH   1   2
BRANCH   1  35
ATOM     35  C   UNL A   1      33.935  28.930  27.262  1.00  0.00     0.118 C 
BRANCH  35  36
ATOM     36  N   UNL A   1      34.065  30.210  27.959  1.00  0.00    -0.352 N 
ATOM     37  C   UNL A   1      35.110  30.754  28.677  1.00  0.00     0.251 C 
ATOM     38  H   UNL A   1      33.266  30.783  27.908  1.00  0.00     0.163 HD
ATOM     39  O   UNL A   1      34.931  31.782  29.317  1.00  0.00    -0.269 OA
BRANCH  37  40
ATOM     40  C   UNL A   1      36.424  30.073  28.709  1.00  0.00     0.039 A 
ATOM     41  C   UNL A   1      36.856  29.427  29.861  1.00  0.00     0.014 A 
ATOM     42  C   UNL A   1      37.259  30.121  27.587  1.00  0.00     0.014 A 
ATOM     43  C   UNL A   1      38.196  29.098  29.996  1.00  0.00     0.010 A 
ATOM     44  C   UNL A   1      38.571  29.641  27.677  1.00  0.00     0.010 A 
ATOM     45  C   UNL A   1      39.078  29.203  28.910  1.00  0.00    -0.014 A 
BRANCH  45  46
ATOM     46  C   UNL A   1      40.518  28.886  29.124  1.00  0.00     0.031 A 
ATOM     47  C   UNL A   1      41.092  27.558  28.696  1.00  0.00     0.074 A 
ATOM     48  C   UNL A   1      41.335  29.847  29.602  1.00  0.00     0.049 A 
ATOM     49  N   UNL A   1      42.333  27.143  28.744  1.00  0.00    -0.248 NA
ATOM     50  C   UNL A   1      40.155  26.557  28.160  1.00  0.00     0.031 C 
ATOM     51  C   UNL A   1      40.903  31.177  30.040  1.00  0.00     0.029 A 
ATOM     52  N   UNL A   1      42.699  29.883  29.744  1.00  0.00    -0.354 N 
ATOM     53  C   UNL A   1      42.321  25.836  28.269  1.00  0.00     0.074 A 
ATOM     54  C   UNL A   1      40.944  25.507  27.978  1.00  0.00     0.031 C 
ATOM     55  C   UNL A   1      41.981  31.928  30.299  1.00  0.00     0.029 A 
ATOM     56  C   UNL A   1      43.179  31.113  30.130  1.00  0.00     0.049 A 
ATOM     57  H   UNL A   1      43.280  29.104  29.584  1.00  0.00     0.167 HD
ATOM     58  C   UNL A   1      43.364  24.994  28.071  1.00  0.00     0.037 A 
ATOM     59  C   UNL A   1      44.439  31.542  30.334  1.00  0.00     0.037 A 
ATOM     60  C   UNL A   1      44.739  25.344  28.313  1.00  0.00     0.049 A 
ATOM     61  C   UNL A   1      45.574  30.581  30.146  1.00  0.00     0.074 A 
ATOM     62  C   UNL A   1      45.870  24.571  28.117  1.00  0.00     0.029 A 
ATOM     63  N   UNL A   1      45.171  26.570  28.796  1.00  0.00    -0.354 N 
ATOM     64  N   UNL A   1      45.540  29.346  29.706  1.00  0.00    -0.248 NA
ATOM     65  C   UNL A   1      46.916  31.056  30.511  1.00  0.00     0.031 C 
ATOM     66  C   UNL A   1      46.983  25.316  28.519  1.00  0.00     0.029 A 
ATOM     67  C   UNL A   1      46.549  26.566  28.934  1.00  0.00     0.049 A 
ATOM     68  H   UNL A   1      44.585  27.332  29.010  1.00  0.00     0.167 HD
ATOM     69  C   UNL A   1      46.851  28.891  29.753  1.00  0.00     0.074 A 
ATOM     70  C   UNL A   1      47.660  29.992  30.236  1.00  0.00     0.031 C 
ATOM     71  C   UNL A   1      47.336  27.666  29.434  1.00  0.00     0.037 A 
BRANCH  58  72
ATOM     72  C   UNL A   1      43.058  23.607  27.576  1.00  0.00     0.058 A 
ATOM     73  C   UNL A   1      42.670  22.579  28.449  1.00  0.00     0.135 A 
ATOM     74  C   UNL A   1      43.129  23.307  26.205  1.00  0.00     0.135 A 
ATOM     75  F   UNL A   1      42.597  22.805  29.771  1.00  0.00    -0.206 F 
ATOM     76  C   UNL A   1      42.397  21.295  27.987  1.00  0.00     0.059 A 
ATOM     77  C   UNL A   1      42.835  22.036  25.716  1.00  0.00     0.059 A 
ATOM     78  F   UNL A   1      43.490  24.253  25.324  1.00  0.00    -0.206 F 
ATOM     79  C   UNL A   1      42.488  21.032  26.619  1.00  0.00     0.060 A 
BRANCH  79  80
ATOM     80  S   UNL A   1      42.148  19.356  26.042  1.00  0.00     0.124 S 
ATOM     81  O   UNL A   1      42.562  18.562  27.194  1.00  0.00    -0.237 OA
ATOM     82  O   UNL A   1      40.712  19.398  25.787  1.00  0.00    -0.237 OA
ATOM     83  O   UNL A   1      42.990  19.225  24.856  1.00  0.00    -0.744 OA
ENDBRANCH  79  80
ENDBRANCH  58  72
BRANCH  59  84
ATOM     84  C   UNL A   1      44.672  32.952  30.746  1.00  0.00     0.058 A 
ATOM     85  C   UNL A   1      44.907  33.951  29.790  1.00  0.00     0.135 A 
ATOM     86  C   UNL A   1      44.590  33.339  32.093  1.00  0.00     0.135 A 
ATOM     87  F   UNL A   1      45.004  33.630  28.492  1.00  0.00    -0.206 F 
ATOM     88  C   UNL A   1      45.037  35.288  30.156  1.00  0.00     0.059 A 
ATOM     89  C   UNL A   1      44.692  34.670  32.479  1.00  0.00     0.059 A 
ATOM     90  F   UNL A   1      44.354  32.420  33.042  1.00  0.00    -0.206 F 
ATOM     91  C   UNL A   1      44.915  35.639  31.502  1.00  0.00     0.060 A 
BRANCH  91  92
ATOM     92  S   UNL A   1      44.991  37.387  31.952  1.00  0.00     0.124 S 
ATOM     93  O   UNL A   1      44.807  37.326  33.397  1.00  0.00    -0.237 OA
ATOM     94  O   UNL A   1      46.324  37.763  31.492  1.00  0.00    -0.237 OA
ATOM     95  O   UNL A   1      43.887  37.976  31.198  1.00  0.00    -0.744 OA
ENDBRANCH  91  92
ENDBRANCH  59  84
BRANCH  71  96
ATOM     96  C   UNL A   1      48.805  27.429  29.626  1.00  0.00     0.058 A 
ATOM     97  C   UNL A   1      49.727  27.781  28.629  1.00  0.00     0.135 A 
ATOM     98  C   UNL A   1      49.304  26.952  30.848  1.00  0.00     0.135 A 
ATOM     99  F   UNL A   1      49.299  28.231  27.439  1.00  0.00    -0.206 F 
ATOM    100  C   UNL A   1      51.097  27.678  28.840  1.00  0.00     0.059 A 
ATOM    101  C   UNL A   1      50.671  26.859  31.089  1.00  0.00     0.059 A 
ATOM    102  F   UNL A   1      48.460  26.609  31.835  1.00  0.00    -0.206 F 
ATOM    103  C   UNL A   1      51.560  27.228  30.079  1.00  0.00     0.060 A 
BRANCH 103 104
ATOM    104  S   UNL A   1      53.342  27.183  30.366  1.00  0.00     0.124 S 
ATOM    105  O   UNL A   1      53.498  25.910  31.061  1.00  0.00    -0.237 OA
ATOM    106  O   UNL A   1      53.876  27.235  29.009  1.00  0.00    -0.237 OA
ATOM    107  O   UNL A   1      53.586  28.373  31.176  1.00  0.00    -0.744 OA
ENDBRANCH 103 104
ENDBRANCH  71  96
ENDBRANCH  45  46
ENDBRANCH  37  40
ENDBRANCH  35  36
ENDBRANCH   1  35
TORSDOF 18
ENDMDL
MODEL 2
REMARK VINA RESULT:     -12.5      1.348      2.349
REMARK SMILES O=C(Cn1c2ccccc2c(=O)c2ccccc21)N[C@@H](Cc1ccccc1)C(=O)NCCCNC(=O)c1ccc(-c2c3nc(c(-c4c(F)cc(S(=O)(=O)[O-])cc4F)c4ccc([nH]4)c(-c4c(F)cc(S(=O)(=O)[O-])cc4F)c4nc(c(-c5c(F)cc(S(=O)(=O)[O-])cc5F)c5ccc2[nH]5)C=C4)C=C3)cc1
REMARK SMILES IDX 32 1 31 2 30 3 28 4 29 5 20 7 19 8 1 9 2 10 3 12 4 13 5 14
REMARK SMILES IDX 18 15 6 16 10 17 13 18 17 19 7 20 9 21 11 22 14 23 16 24
REMARK SMILES IDX 8 25 12 26 15 27 21 28 22 29 23 30 27 31 24 32 26 33 25 34
REMARK SMILES IDX 33 35 34 36 35 37 36 39 37 40 38 41 102 42 39 43 101 44
REMARK SMILES IDX 40 45 41 46 42 47 95 48 43 49 100 50 94 51 96 52 44 53 99 54
REMARK SMILES IDX 93 55 92 56 45 58 79 59 58 60 78 61 59 62 62 63 77 64 97 65
REMARK SMILES IDX 60 66 61 67 76 69 98 70 63 71 46 72 47 73 56 74 48 75 49 76
REMARK SMILES IDX 55 77 57 78 50 79 51 80 52 81 53 82 54 83 80 84 81 85 90 86
REMARK SMILES IDX 82 87 83 88 89 89 91 90 84 91 85 92 86 93 87 94 88 95 64 96
REMARK SMILES IDX 65 97 74 98 66 99 67 100 73 101 75 102 68 103 69 104 70 105
REMARK SMILES IDX 71 106 72 107
REMARK H PARENT 30 6 19 11 34 38 96 57 62 68
REMARK Flexibility Score: inf
ROOT
ATOM      1  C   UNL A   1      32.014  28.392  27.120  1.00  0.00     0.042 C 
ENDROOT
BRANCH   1   2
ATOM      2  C   UNL A   1      31.646  27.956  25.722  1.00  0.00     0.117 C 
BRANCH   2   3
ATOM      3  N   UNL A   1      32.578  28.336  24.683  1.00  0.00    -0.354 N 
ATOM      4  C   UNL A   1      32.385  28.390  23.332  1.00  0.00     0.242 C 
ATOM      5  O   UNL A   1      33.126  29.147  22.695  1.00  0.00    -0.273 OA
ATOM      6  H   UNL A   1      33.477  28.593  24.994  1.00  0.00     0.163 HD
BRANCH   4   7
ATOM      7  C   UNL A   1      31.247  27.619  22.618  1.00  0.00     0.175 C 
BRANCH   7   8
ATOM      8  N   UNL A   1      31.454  26.159  22.640  1.00  0.00    -0.342 N 
ATOM      9  O   UNL A   1      33.378  26.244  21.403  1.00  0.00    -0.273 OA
ATOM     10  C   UNL A   1      32.593  25.595  22.098  1.00  0.00     0.240 C 
ATOM     11  H   UNL A   1      30.770  25.578  23.046  1.00  0.00     0.164 HD
BRANCH  10  12
ATOM     12  C   UNL A   1      32.819  24.107  22.353  1.00  0.00     0.222 C 
BRANCH  12  13
ATOM     13  N   UNL A   1      33.122  23.620  23.732  1.00  0.00    -0.331 N 
ATOM     14  C   UNL A   1      34.434  23.052  23.867  1.00  0.00     0.053 A 
ATOM     15  C   UNL A   1      32.212  23.597  24.805  1.00  0.00     0.053 A 
ATOM     16  C   UNL A   1      35.487  23.292  22.964  1.00  0.00     0.027 A 
ATOM     17  C   UNL A   1      34.736  22.240  24.977  1.00  0.00     0.046 A 
ATOM     18  C   UNL A   1      32.425  22.711  25.885  1.00  0.00     0.046 A 
ATOM     19  C   UNL A   1      31.102  24.438  24.938  1.00  0.00     0.027 A 
ATOM     20  C   UNL A   1      36.771  22.764  23.172  1.00  0.00     0.002 A 
ATOM     21  C   UNL A   1      36.018  21.709  25.191  1.00  0.00     0.014 A 
ATOM     22  C   UNL A   1      33.672  21.927  25.943  1.00  0.00     0.197 A 
ATOM     23  C   UNL A   1      31.509  22.565  26.941  1.00  0.00     0.014 A 
ATOM     24  C   UNL A   1      30.179  24.305  25.990  1.00  0.00     0.002 A 
ATOM     25  C   UNL A   1      37.039  21.980  24.287  1.00  0.00     0.001 A 
ATOM     26  O   UNL A   1      33.821  21.062  26.799  1.00  0.00    -0.288 OA
ATOM     27  C   UNL A   1      30.366  23.349  26.979  1.00  0.00     0.001 A 
ENDBRANCH  12  13
ENDBRANCH  10  12
ENDBRANCH   7   8
BRANCH   7  28
ATOM     28  C   UNL A   1      29.818  28.106  22.958  1.00  0.00     0.070 C 
BRANCH  28  29
ATOM     29  C   UNL A   1      29.510  29.570  22.761  1.00  0.00    -0.045 A 
ATOM     30  C   UNL A   1      29.152  30.060  21.496  1.00  0.00     0.004 A 
ATOM     31  C   UNL A   1      29.488  30.444  23.860  1.00  0.00     0.004 A 
ATOM     32  C   UNL A   1      28.687  31.369  21.352  1.00  0.00     0.000 A 
ATOM     33  C   UNL A   1      29.035  31.758  23.710  1.00  0.00     0.000 A 
ATOM     34  C   UNL A   1      28.612  32.212  22.461  1.00  0.00     0.000 A 
ENDBRANCH  28  29
ENDBRANCH   7  28
ENDBRANCH   4   7
ENDBRANCH   2   3
ENDBRANCH   1   2
BRANCH   1  35
ATOM     35  C   UNL A   1      33.452  28.854  27.243  1.00  0.00     0.118 C 
BRANCH  35  36
ATOM     36  N   UNL A   1      33.575  30.201  27.802  1.00  0.00    -0.352 N 
ATOM     37  C   UNL A   1      34.620  30.825  28.453  1.00  0.00     0.251 C 
ATOM     38  H   UNL A   1      32.772  30.760  27.695  1.00  0.00     0.163 HD
ATOM     39  O   UNL A   1      34.436  31.913  28.983  1.00  0.00    -0.269 OA
BRANCH  37  40
ATOM     40  C   UNL A   1      35.939  30.160  28.550  1.00  0.00     0.039 A 
ATOM     41  C   UNL A   1      36.358  29.594  29.748  1.00  0.00     0.014 A 
ATOM     42  C   UNL A   1      36.791  30.142  27.440  1.00  0.00     0.014 A 
ATOM     43  C   UNL A   1      37.699  29.288  29.925  1.00  0.00     0.010 A 
ATOM     44  C   UNL A   1      38.106  29.682  27.581  1.00  0.00     0.010 A 
ATOM     45  C   UNL A   1      38.597  29.330  28.847  1.00  0.00    -0.014 A 
BRANCH  45  46
ATOM     46  C   UNL A   1      40.035  29.042  29.104  1.00  0.00     0.031 A 
ATOM     47  C   UNL A   1      40.648  27.725  28.695  1.00  0.00     0.074 A 
ATOM     48  C   UNL A   1      40.820  30.020  29.603  1.00  0.00     0.049 A 
ATOM     49  N   UNL A   1      41.895  27.334  28.780  1.00  0.00    -0.248 NA
ATOM     50  C   UNL A   1      39.747  26.705  28.134  1.00  0.00     0.031 C 
ATOM     51  C   UNL A   1      40.349  31.341  30.027  1.00  0.00     0.029 A 
ATOM     52  N   UNL A   1      42.178  30.082  29.785  1.00  0.00    -0.354 N 
ATOM     53  C   UNL A   1      41.923  26.027  28.307  1.00  0.00     0.074 A 
ATOM     54  C   UNL A   1      40.561  25.671  27.977  1.00  0.00     0.031 C 
ATOM     55  C   UNL A   1      41.405  32.114  30.315  1.00  0.00     0.029 A 
ATOM     56  C   UNL A   1      42.622  31.321  30.183  1.00  0.00     0.049 A 
ATOM     57  H   UNL A   1      42.778  29.314  29.643  1.00  0.00     0.167 HD
ATOM     58  C   UNL A   1      42.986  25.205  28.141  1.00  0.00     0.037 A 
ATOM     59  C   UNL A   1      43.867  31.776  30.422  1.00  0.00     0.037 A 
ATOM     60  C   UNL A   1      44.347  25.583  28.423  1.00  0.00     0.049 A 
ATOM     61  C   UNL A   1      45.026  30.837  30.269  1.00  0.00     0.074 A 
ATOM     62  C   UNL A   1      45.499  24.832  28.260  1.00  0.00     0.029 A 
ATOM     63  N   UNL A   1      44.741  26.817  28.916  1.00  0.00    -0.354 N 
ATOM     64  N   UNL A   1      45.029  29.600  29.831  1.00  0.00    -0.248 NA
ATOM     65  C   UNL A   1      46.347  31.338  30.672  1.00  0.00     0.031 C 
ATOM     66  C   UNL A   1      46.584  25.599  28.694  1.00  0.00     0.029 A 
ATOM     67  C   UNL A   1      46.114  26.840  29.093  1.00  0.00     0.049 A 
ATOM     68  H   UNL A   1      44.134  27.568  29.111  1.00  0.00     0.167 HD
ATOM     69  C   UNL A   1      46.347  29.172  29.916  1.00  0.00     0.074 A 
ATOM     70  C   UNL A   1      47.119  30.289  30.420  1.00  0.00     0.031 C 
ATOM     71  C   UNL A   1      46.864  27.956  29.613  1.00  0.00     0.037 A 
BRANCH  58  72
ATOM     72  C   UNL A   1      42.722  23.812  27.640  1.00  0.00     0.058 A 
ATOM     73  C   UNL A   1      42.544  22.731  28.518  1.00  0.00     0.135 A 
ATOM     74  C   UNL A   1      42.619  23.557  26.262  1.00  0.00     0.135 A 
ATOM     75  F   UNL A   1      42.644  22.914  29.845  1.00  0.00    -0.206 F 
ATOM     76  C   UNL A   1      42.310  21.443  28.049  1.00  0.00     0.059 A 
ATOM     77  C   UNL A   1      42.359  22.280  25.770  1.00  0.00     0.059 A 
ATOM     78  F   UNL A   1      42.776  24.553  25.376  1.00  0.00    -0.206 F 
ATOM     79  C   UNL A   1      42.224  21.226  26.672  1.00  0.00     0.060 A 
BRANCH  79  80
ATOM     80  S   UNL A   1      41.938  19.544  26.083  1.00  0.00     0.124 S 
ATOM     81  O   UNL A   1      42.799  19.497  24.906  1.00  0.00    -0.237 OA
ATOM     82  O   UNL A   1      42.374  18.736  27.218  1.00  0.00    -0.237 OA
ATOM     83  O   UNL A   1      40.503  19.516  25.812  1.00  0.00    -0.744 OA
ENDBRANCH  79  80
ENDBRANCH  58  72
BRANCH  59  84
ATOM     84  C   UNL A   1      44.060  33.190  30.838  1.00  0.00     0.058 A 
ATOM     85  C   UNL A   1      44.091  33.544  32.195  1.00  0.00     0.135 A 
ATOM     86  C   UNL A   1      44.291  34.201  29.892  1.00  0.00     0.135 A 
ATOM     87  F   UNL A   1      43.866  32.616  33.136  1.00  0.00    -0.206 F 
ATOM     88  C   UNL A   1      44.361  34.849  32.599  1.00  0.00     0.059 A 
ATOM     89  C   UNL A   1      44.587  35.505  30.271  1.00  0.00     0.059 A 
ATOM     90  F   UNL A   1      44.284  33.909  28.581  1.00  0.00    -0.206 F 
ATOM     91  C   UNL A   1      44.620  35.820  31.629  1.00  0.00     0.060 A 
BRANCH  91  92
ATOM     92  S   UNL A   1      45.062  37.486  32.168  1.00  0.00     0.124 S 
ATOM     93  O   UNL A   1      43.900  37.855  32.967  1.00  0.00    -0.237 OA
ATOM     94  O   UNL A   1      46.299  37.250  32.908  1.00  0.00    -0.237 OA
ATOM     95  O   UNL A   1      45.223  38.214  30.912  1.00  0.00    -0.744 OA
ENDBRANCH  91  92
ENDBRANCH  59  84
BRANCH  71  96
ATOM     96  C   UNL A   1      48.332  27.749  29.849  1.00  0.00     0.058 A 
ATOM     97  C   UNL A   1      48.792  27.141  31.027  1.00  0.00     0.135 A 
ATOM     98  C   UNL A   1      49.272  28.057  28.853  1.00  0.00     0.135 A 
ATOM     99  F   UNL A   1      47.934  26.838  32.013  1.00  0.00    -0.206 F 
ATOM    100  C   UNL A   1      50.136  26.835  31.206  1.00  0.00     0.059 A 
ATOM    101  C   UNL A   1      50.618  27.741  29.003  1.00  0.00     0.059 A 
ATOM    102  F   UNL A   1      48.878  28.633  27.707  1.00  0.00    -0.206 F 
ATOM    103  C   UNL A   1      51.041  27.127  30.182  1.00  0.00     0.060 A 
BRANCH 103 104
ATOM    104  S   UNL A   1      52.767  26.643  30.396  1.00  0.00     0.124 S 
ATOM    105  O   UNL A   1      53.374  27.897  30.831  1.00  0.00    -0.237 OA
ATOM    106  O   UNL A   1      52.673  25.599  31.410  1.00  0.00    -0.237 OA
ATOM    107  O   UNL A   1      53.159  26.186  29.066  1.00  0.00    -0.744 OA
ENDBRANCH 103 104
ENDBRANCH  71  96
ENDBRANCH  45  46
ENDBRANCH  37  40
ENDBRANCH  35  36
ENDBRANCH   1  35
TORSDOF 18
ENDMDL
MODEL 3
REMARK VINA RESULT:     -12.5      5.184     10.458
REMARK SMILES O=C(Cn1c2ccccc2c(=O)c2ccccc21)N[C@@H](Cc1ccccc1)C(=O)NCCCNC(=O)c1ccc(-c2c3nc(c(-c4c(F)cc(S(=O)(=O)[O-])cc4F)c4ccc([nH]4)c(-c4c(F)cc(S(=O)(=O)[O-])cc4F)c4nc(c(-c5c(F)cc(S(=O)(=O)[O-])cc5F)c5ccc2[nH]5)C=C4)C=C3)cc1
REMARK SMILES IDX 32 1 31 2 30 3 28 4 29 5 20 7 19 8 1 9 2 10 3 12 4 13 5 14
REMARK SMILES IDX 18 15 6 16 10 17 13 18 17 19 7 20 9 21 11 22 14 23 16 24
REMARK SMILES IDX 8 25 12 26 15 27 21 28 22 29 23 30 27 31 24 32 26 33 25 34
REMARK SMILES IDX 33 35 34 36 35 37 36 39 37 40 38 41 102 42 39 43 101 44
REMARK SMILES IDX 40 45 41 46 42 47 95 48 43 49 100 50 94 51 96 52 44 53 99 54
REMARK SMILES IDX 93 55 92 56 45 58 79 59 58 60 78 61 59 62 62 63 77 64 97 65
REMARK SMILES IDX 60 66 61 67 76 69 98 70 63 71 46 72 47 73 56 74 48 75 49 76
REMARK SMILES IDX 55 77 57 78 50 79 51 80 52 81 53 82 54 83 80 84 81 85 90 86
REMARK SMILES IDX 82 87 83 88 89 89 91 90 84 91 85 92 86 93 87 94 88 95 64 96
REMARK SMILES IDX 65 97 74 98 66 99 67 100 73 101 75 102 68 103 69 104 70 105
REMARK SMILES IDX 71 106 72 107
REMARK H PARENT 30 6 19 11 34 38 96 57 62 68
REMARK Flexibility Score: inf
ROOT
ATOM      1  C   UNL A   1      37.840  22.864  26.072  1.00  0.00     0.042 C 
ENDROOT
BRANCH   1   2
ATOM      2  C   UNL A   1      36.465  23.171  25.530  1.00  0.00     0.117 C 
BRANCH   2   3
ATOM      3  N   UNL A   1      36.219  22.745  24.170  1.00  0.00    -0.354 N 
ATOM      4  C   UNL A   1      35.189  23.078  23.336  1.00  0.00     0.242 C 
ATOM      5  O   UNL A   1      35.403  22.978  22.123  1.00  0.00    -0.273 OA
ATOM      6  H   UNL A   1      36.888  22.128  23.792  1.00  0.00     0.163 HD
BRANCH   4   7
ATOM      7  C   UNL A   1      33.841  23.636  23.855  1.00  0.00     0.175 C 
BRANCH   7   8
ATOM      8  N   UNL A   1      33.699  25.083  23.614  1.00  0.00    -0.342 N 
ATOM      9  O   UNL A   1      34.064  25.654  25.800  1.00  0.00    -0.273 OA
ATOM     10  C   UNL A   1      33.931  25.998  24.624  1.00  0.00     0.240 C 
ATOM     11  H   UNL A   1      33.434  25.403  22.720  1.00  0.00     0.164 HD
BRANCH  10  12
ATOM     12  C   UNL A   1      33.966  27.472  24.230  1.00  0.00     0.222 C 
BRANCH  12  13
ATOM     13  N   UNL A   1      33.082  28.455  24.926  1.00  0.00    -0.331 N 
ATOM     14  C   UNL A   1      31.804  28.628  24.296  1.00  0.00     0.053 A 
ATOM     15  C   UNL A   1      33.454  29.243  26.031  1.00  0.00     0.053 A 
ATOM     16  C   UNL A   1      31.244  27.703  23.395  1.00  0.00     0.027 A 
ATOM     17  C   UNL A   1      31.016  29.753  24.606  1.00  0.00     0.046 A 
ATOM     18  C   UNL A   1      32.756  30.439  26.306  1.00  0.00     0.046 A 
ATOM     19  C   UNL A   1      34.455  28.914  26.953  1.00  0.00     0.027 A 
ATOM     20  C   UNL A   1      29.962  27.885  22.853  1.00  0.00     0.002 A 
ATOM     21  C   UNL A   1      29.733  29.941  24.067  1.00  0.00     0.014 A 
ATOM     22  C   UNL A   1      31.555  30.773  25.519  1.00  0.00     0.197 A 
ATOM     23  C   UNL A   1      33.133  31.322  27.333  1.00  0.00     0.014 A 
ATOM     24  C   UNL A   1      34.840  29.787  27.986  1.00  0.00     0.002 A 
ATOM     25  C   UNL A   1      29.204  28.998  23.194  1.00  0.00     0.001 A 
ATOM     26  O   UNL A   1      31.008  31.862  25.653  1.00  0.00    -0.288 OA
ATOM     27  C   UNL A   1      34.199  31.005  28.160  1.00  0.00     0.001 A 
ENDBRANCH  12  13
ENDBRANCH  10  12
ENDBRANCH   7   8
BRANCH   7  28
ATOM     28  C   UNL A   1      32.605  22.769  23.518  1.00  0.00     0.070 C 
BRANCH  28  29
ATOM     29  C   UNL A   1      32.597  21.339  24.002  1.00  0.00    -0.045 A 
ATOM     30  C   UNL A   1      32.298  20.289  23.121  1.00  0.00     0.004 A 
ATOM     31  C   UNL A   1      32.977  21.034  25.320  1.00  0.00     0.004 A 
ATOM     32  C   UNL A   1      32.473  18.962  23.521  1.00  0.00     0.000 A 
ATOM     33  C   UNL A   1      33.137  19.705  25.720  1.00  0.00     0.000 A 
ATOM     34  C   UNL A   1      32.909  18.671  24.813  1.00  0.00     0.000 A 
ENDBRANCH  28  29
ENDBRANCH   7  28
ENDBRANCH   4   7
ENDBRANCH   2   3
ENDBRANCH   1   2
BRANCH   1  35
ATOM     35  C   UNL A   1      38.541  24.078  26.649  1.00  0.00     0.118 C 
BRANCH  35  36
ATOM     36  N   UNL A   1      39.647  24.551  25.816  1.00  0.00    -0.352 N 
ATOM     37  C   UNL A   1      40.603  25.521  26.037  1.00  0.00     0.251 C 
ATOM     38  H   UNL A   1      39.723  24.098  24.946  1.00  0.00     0.163 HD
ATOM     39  O   UNL A   1      41.338  25.863  25.120  1.00  0.00    -0.269 OA
BRANCH  37  40
ATOM     40  C   UNL A   1      40.706  26.177  27.361  1.00  0.00     0.039 A 
ATOM     41  C   UNL A   1      39.878  25.787  28.407  1.00  0.00     0.014 A 
ATOM     42  C   UNL A   1      41.609  27.228  27.547  1.00  0.00     0.014 A 
ATOM     43  C   UNL A   1      39.741  26.613  29.512  1.00  0.00     0.010 A 
ATOM     44  C   UNL A   1      41.578  27.969  28.735  1.00  0.00     0.010 A 
ATOM     45  C   UNL A   1      40.583  27.720  29.694  1.00  0.00    -0.014 A 
BRANCH  45  46
ATOM     46  C   UNL A   1      40.359  28.605  30.871  1.00  0.00     0.031 A 
ATOM     47  C   UNL A   1      41.301  28.583  32.049  1.00  0.00     0.074 A 
ATOM     48  C   UNL A   1      39.363  29.515  30.825  1.00  0.00     0.049 A 
ATOM     49  N   UNL A   1      41.294  29.332  33.124  1.00  0.00    -0.248 NA
ATOM     50  C   UNL A   1      42.382  27.584  32.033  1.00  0.00     0.031 C 
ATOM     51  C   UNL A   1      38.392  29.643  29.736  1.00  0.00     0.029 A 
ATOM     52  N   UNL A   1      39.037  30.539  31.678  1.00  0.00    -0.354 N 
ATOM     53  C   UNL A   1      42.347  28.883  33.913  1.00  0.00     0.074 A 
ATOM     54  C   UNL A   1      42.947  27.766  33.218  1.00  0.00     0.031 C 
ATOM     55  C   UNL A   1      37.652  30.743  29.932  1.00  0.00     0.029 A 
ATOM     56  C   UNL A   1      38.035  31.351  31.202  1.00  0.00     0.049 A 
ATOM     57  H   UNL A   1      39.478  30.679  32.546  1.00  0.00     0.167 HD
ATOM     58  C   UNL A   1      42.789  29.368  35.098  1.00  0.00     0.037 A 
ATOM     59  C   UNL A   1      37.476  32.459  31.725  1.00  0.00     0.037 A 
ATOM     60  C   UNL A   1      42.220  30.513  35.761  1.00  0.00     0.049 A 
ATOM     61  C   UNL A   1      37.956  32.956  33.056  1.00  0.00     0.074 A 
ATOM     62  C   UNL A   1      42.615  31.101  36.950  1.00  0.00     0.029 A 
ATOM     63  N   UNL A   1      41.143  31.248  35.290  1.00  0.00    -0.354 N 
ATOM     64  N   UNL A   1      38.946  32.510  33.791  1.00  0.00    -0.248 NA
ATOM     65  C   UNL A   1      37.225  34.086  33.647  1.00  0.00     0.031 C 
ATOM     66  C   UNL A   1      41.751  32.166  37.218  1.00  0.00     0.029 A 
ATOM     67  C   UNL A   1      40.838  32.265  36.178  1.00  0.00     0.049 A 
ATOM     68  H   UNL A   1      40.665  31.072  34.446  1.00  0.00     0.167 HD
ATOM     69  C   UNL A   1      38.950  33.294  34.937  1.00  0.00     0.074 A 
ATOM     70  C   UNL A   1      37.883  34.263  34.786  1.00  0.00     0.031 C 
ATOM     71  C   UNL A   1      39.760  33.210  36.020  1.00  0.00     0.037 A 
BRANCH  58  72
ATOM     72  C   UNL A   1      43.939  28.659  35.760  1.00  0.00     0.058 A 
ATOM     73  C   UNL A   1      43.735  27.599  36.658  1.00  0.00     0.135 A 
ATOM     74  C   UNL A   1      45.264  29.026  35.472  1.00  0.00     0.135 A 
ATOM     75  F   UNL A   1      42.489  27.214  36.979  1.00  0.00    -0.206 F 
ATOM     76  C   UNL A   1      44.801  26.953  37.274  1.00  0.00     0.059 A 
ATOM     77  C   UNL A   1      46.348  28.376  36.057  1.00  0.00     0.059 A 
ATOM     78  F   UNL A   1      45.517  30.030  34.617  1.00  0.00    -0.206 F 
ATOM     79  C   UNL A   1      46.105  27.352  36.971  1.00  0.00     0.060 A 
BRANCH  79  80
ATOM     80  S   UNL A   1      47.474  26.513  37.796  1.00  0.00     0.124 S 
ATOM     81  O   UNL A   1      47.432  25.198  37.164  1.00  0.00    -0.237 OA
ATOM     82  O   UNL A   1      48.615  27.350  37.437  1.00  0.00    -0.237 OA
ATOM     83  O   UNL A   1      47.096  26.544  39.206  1.00  0.00    -0.744 OA
ENDBRANCH  79  80
ENDBRANCH  58  72
BRANCH  59  84
ATOM     84  C   UNL A   1      36.397  33.156  30.976  1.00  0.00     0.058 A 
ATOM     85  C   UNL A   1      35.067  33.105  31.416  1.00  0.00     0.135 A 
ATOM     86  C   UNL A   1      36.686  33.944  29.851  1.00  0.00     0.135 A 
ATOM     87  F   UNL A   1      34.739  32.357  32.480  1.00  0.00    -0.206 F 
ATOM     88  C   UNL A   1      34.062  33.826  30.776  1.00  0.00     0.059 A 
ATOM     89  C   UNL A   1      35.705  34.692  29.210  1.00  0.00     0.059 A 
ATOM     90  F   UNL A   1      37.947  34.034  29.399  1.00  0.00    -0.206 F 
ATOM     91  C   UNL A   1      34.394  34.627  29.681  1.00  0.00     0.060 A 
BRANCH  91  92
ATOM     92  S   UNL A   1      33.100  35.631  28.919  1.00  0.00     0.124 S 
ATOM     93  O   UNL A   1      32.477  34.671  28.016  1.00  0.00    -0.237 OA
ATOM     94  O   UNL A   1      32.304  36.032  30.075  1.00  0.00    -0.237 OA
ATOM     95  O   UNL A   1      33.847  36.710  28.278  1.00  0.00    -0.744 OA
ENDBRANCH  91  92
ENDBRANCH  59  84
BRANCH  71  96
ATOM     96  C   UNL A   1      39.511  34.164  37.150  1.00  0.00     0.058 A 
ATOM     97  C   UNL A   1      38.814  33.754  38.297  1.00  0.00     0.135 A 
ATOM     98  C   UNL A   1      40.060  35.455  37.137  1.00  0.00     0.135 A 
ATOM     99  F   UNL A   1      38.260  32.533  38.353  1.00  0.00    -0.206 F 
ATOM    100  C   UNL A   1      38.678  34.590  39.399  1.00  0.00     0.059 A 
ATOM    101  C   UNL A   1      39.954  36.302  38.236  1.00  0.00     0.059 A 
ATOM    102  F   UNL A   1      40.740  35.890  36.064  1.00  0.00    -0.206 F 
ATOM    103  C   UNL A   1      39.264  35.858  39.365  1.00  0.00     0.060 A 
BRANCH 103 104
ATOM    104  S   UNL A   1      39.153  36.896  40.838  1.00  0.00     0.124 S 
ATOM    105  O   UNL A   1      38.348  36.064  41.726  1.00  0.00    -0.237 OA
ATOM    106  O   UNL A   1      40.555  37.052  41.213  1.00  0.00    -0.237 OA
ATOM    107  O   UNL A   1      38.501  38.108  40.351  1.00  0.00    -0.744 OA
ENDBRANCH 103 104
ENDBRANCH  71  96
ENDBRANCH  45  46
ENDBRANCH  37  40
ENDBRANCH  35  36
ENDBRANCH   1  35
TORSDOF 18
ENDMDL
