MODEL 1
REMARK VINA RESULT:     -13.1      0.000      0.000
REMARK SMILES CCc1ccc2c(CC(=O)NCCCNC(=O)c3ccc(-c4c5nc(c(-c6c(F)cc(S(=O)(=O)[O-])cc6F)c6ccc([nH]6)c(-c6c(F)cc(S(=O)(=O)[O-])cc6F)c6nc(c(-c7c(F)cc(S(=O)(=O)[O-])cc7F)c7ccc4[nH]7)C=C6)C=C5)cc3)c(C(=O)c3cc(C)ccn3)[nH]c2c1
REMARK SMILES IDX 13 1 12 2 11 3 9 4 10 5 8 7 7 8 3 9 4 10 96 11 5 12 95 13
REMARK SMILES IDX 6 14 94 15 84 16 2 18 1 19 85 20 86 21 87 22 88 23 93 24
REMARK SMILES IDX 89 25 92 26 90 27 91 28 14 29 15 30 16 31 17 33 18 34 19 35
REMARK SMILES IDX 83 36 20 37 82 38 21 39 22 40 23 41 76 42 24 43 81 44 75 45
REMARK SMILES IDX 77 46 25 47 80 48 74 49 73 50 26 52 60 53 39 54 59 55 40 56
REMARK SMILES IDX 43 57 58 58 78 59 41 60 42 61 57 63 79 64 44 65 27 66 28 67
REMARK SMILES IDX 37 68 29 69 30 70 36 71 38 72 31 73 32 74 33 75 34 76 35 77
REMARK SMILES IDX 61 78 62 79 71 80 63 81 64 82 70 83 72 84 65 85 66 86 67 87
REMARK SMILES IDX 68 88 69 89 45 90 46 91 55 92 47 93 48 94 54 95 56 96 49 97
REMARK SMILES IDX 50 98 51 99 52 100 53 101
REMARK H PARENT 11 6 94 17 15 32 77 51 43 62
REMARK Flexibility Score: inf
ROOT
ATOM      1  C   UNL A   1      37.310  23.364  25.477  1.00  0.00     0.042 C 
ENDROOT
BRANCH   1   2
ATOM      2  C   UNL A   1      35.836  23.735  25.593  1.00  0.00     0.117 C 
BRANCH   2   3
ATOM      3  N   UNL A   1      35.215  23.994  24.310  1.00  0.00    -0.356 N 
ATOM      4  C   UNL A   1      34.260  24.912  23.974  1.00  0.00     0.224 C 
ATOM      5  O   UNL A   1      34.052  25.081  22.769  1.00  0.00    -0.275 OA
ATOM      6  H   UNL A   1      35.528  23.425  23.570  1.00  0.00     0.163 HD
BRANCH   4   7
ATOM      7  C   UNL A   1      33.590  25.781  25.030  1.00  0.00     0.138 C 
BRANCH   7   8
ATOM      8  C   UNL A   1      32.085  25.814  24.970  1.00  0.00    -0.002 A 
ATOM      9  C   UNL A   1      29.228  28.298  23.061  1.00  0.00    -0.046 A 
ATOM     10  C   UNL A   1      30.575  28.584  22.795  1.00  0.00     0.004 A 
ATOM     11  C   UNL A   1      28.912  27.233  23.920  1.00  0.00     0.030 A 
ATOM     12  C   UNL A   1      31.611  27.831  23.362  1.00  0.00     0.011 A 
ATOM     13  C   UNL A   1      29.963  26.489  24.477  1.00  0.00     0.046 A 
ATOM     14  C   UNL A   1      31.302  26.758  24.222  1.00  0.00     0.004 A 
ATOM     15  N   UNL A   1      29.926  25.419  25.336  1.00  0.00    -0.352 N 
ATOM     16  C   UNL A   1      31.193  24.917  25.563  1.00  0.00     0.093 A 
ATOM     17  H   UNL A   1      29.104  25.056  25.738  1.00  0.00     0.167 HD
BRANCH   9  18
ATOM     18  C   UNL A   1      28.181  29.152  22.376  1.00  0.00     0.032 C 
ATOM     19  C   UNL A   1      27.653  30.354  23.148  1.00  0.00     0.009 C 
ENDBRANCH   9  18
BRANCH  16  20
ATOM     20  C   UNL A   1      31.488  23.689  26.292  1.00  0.00     0.227 C 
ATOM     21  O   UNL A   1      31.336  23.569  27.507  1.00  0.00    -0.285 OA
BRANCH  20  22
ATOM     22  C   UNL A   1      32.082  22.544  25.556  1.00  0.00     0.113 A 
ATOM     23  C   UNL A   1      31.778  22.367  24.208  1.00  0.00     0.036 A 
ATOM     24  N   UNL A   1      32.889  21.722  26.269  1.00  0.00    -0.253 NA
ATOM     25  C   UNL A   1      32.334  21.272  23.545  1.00  0.00    -0.047 A 
ATOM     26  C   UNL A   1      33.434  20.687  25.596  1.00  0.00     0.112 A 
ATOM     27  C   UNL A   1      32.032  21.001  22.102  1.00  0.00     0.044 C 
ATOM     28  C   UNL A   1      33.186  20.422  24.258  1.00  0.00     0.023 A 
ENDBRANCH  20  22
ENDBRANCH  16  20
ENDBRANCH   7   8
ENDBRANCH   4   7
ENDBRANCH   2   3
ENDBRANCH   1   2
BRANCH   1  29
ATOM     29  C   UNL A   1      38.222  24.093  26.463  1.00  0.00     0.118 C 
BRANCH  29  30
ATOM     30  N   UNL A   1      39.635  23.939  26.146  1.00  0.00    -0.352 N 
ATOM     31  C   UNL A   1      40.721  24.691  26.519  1.00  0.00     0.251 C 
ATOM     32  H   UNL A   1      39.846  23.170  25.569  1.00  0.00     0.163 HD
ATOM     33  O   UNL A   1      41.808  24.479  25.982  1.00  0.00    -0.269 OA
BRANCH  31  34
ATOM     34  C   UNL A   1      40.601  25.755  27.541  1.00  0.00     0.039 A 
ATOM     35  C   UNL A   1      39.624  25.624  28.533  1.00  0.00     0.014 A 
ATOM     36  C   UNL A   1      41.405  26.898  27.505  1.00  0.00     0.014 A 
ATOM     37  C   UNL A   1      39.497  26.603  29.522  1.00  0.00     0.010 A 
ATOM     38  C   UNL A   1      41.324  27.839  28.531  1.00  0.00     0.010 A 
ATOM     39  C   UNL A   1      40.370  27.702  29.551  1.00  0.00    -0.014 A 
BRANCH  39  40
ATOM     40  C   UNL A   1      40.311  28.706  30.646  1.00  0.00     0.031 A 
ATOM     41  C   UNL A   1      41.181  28.558  31.865  1.00  0.00     0.074 A 
ATOM     42  C   UNL A   1      39.419  29.715  30.573  1.00  0.00     0.049 A 
ATOM     43  N   UNL A   1      41.209  29.284  32.952  1.00  0.00    -0.248 NA
ATOM     44  C   UNL A   1      42.127  27.430  31.873  1.00  0.00     0.031 C 
ATOM     45  C   UNL A   1      38.484  29.938  29.466  1.00  0.00     0.029 A 
ATOM     46  N   UNL A   1      39.138  30.732  31.451  1.00  0.00    -0.354 N 
ATOM     47  C   UNL A   1      42.155  28.693  33.781  1.00  0.00     0.074 A 
ATOM     48  C   UNL A   1      42.651  27.524  33.087  1.00  0.00     0.031 C 
ATOM     49  C   UNL A   1      37.744  31.027  29.728  1.00  0.00     0.029 A 
ATOM     50  C   UNL A   1      38.122  31.560  31.033  1.00  0.00     0.049 A 
ATOM     51  H   UNL A   1      39.621  30.858  32.300  1.00  0.00     0.167 HD
ATOM     52  C   UNL A   1      42.584  29.099  35.001  1.00  0.00     0.037 A 
ATOM     53  C   UNL A   1      37.549  32.619  31.637  1.00  0.00     0.037 A 
ATOM     54  C   UNL A   1      42.110  30.282  35.671  1.00  0.00     0.049 A 
ATOM     55  C   UNL A   1      38.056  33.059  32.983  1.00  0.00     0.074 A 
ATOM     56  C   UNL A   1      42.535  30.815  36.876  1.00  0.00     0.029 A 
ATOM     57  N   UNL A   1      41.107  31.115  35.198  1.00  0.00    -0.354 N 
ATOM     58  N   UNL A   1      38.999  32.526  33.722  1.00  0.00    -0.248 NA
ATOM     59  C   UNL A   1      37.426  34.247  33.576  1.00  0.00     0.031 C 
ATOM     60  C   UNL A   1      41.759  31.946  37.153  1.00  0.00     0.029 A 
ATOM     61  C   UNL A   1      40.884  32.145  36.097  1.00  0.00     0.049 A 
ATOM     62  H   UNL A   1      40.624  30.991  34.349  1.00  0.00     0.167 HD
ATOM     63  C   UNL A   1      39.095  33.329  34.853  1.00  0.00     0.074 A 
ATOM     64  C   UNL A   1      38.121  34.388  34.697  1.00  0.00     0.031 C 
ATOM     65  C   UNL A   1      39.916  33.199  35.925  1.00  0.00     0.037 A 
BRANCH  52  66
ATOM     66  C   UNL A   1      43.625  28.261  35.694  1.00  0.00     0.058 A 
ATOM     67  C   UNL A   1      43.271  27.237  36.587  1.00  0.00     0.135 A 
ATOM     68  C   UNL A   1      44.989  28.450  35.422  1.00  0.00     0.135 A 
ATOM     69  F   UNL A   1      41.982  27.022  36.894  1.00  0.00    -0.206 F 
ATOM     70  C   UNL A   1      44.234  26.443  37.202  1.00  0.00     0.059 A 
ATOM     71  C   UNL A   1      45.967  27.649  36.004  1.00  0.00     0.059 A 
ATOM     72  F   UNL A   1      45.383  29.414  34.577  1.00  0.00    -0.206 F 
ATOM     73  C   UNL A   1      45.580  26.655  36.902  1.00  0.00     0.060 A 
BRANCH  73  74
ATOM     74  S   UNL A   1      46.816  25.603  37.692  1.00  0.00     0.124 S 
ATOM     75  O   UNL A   1      46.632  25.945  39.099  1.00  0.00    -0.237 OA
ATOM     76  O   UNL A   1      46.382  24.265  37.303  1.00  0.00    -0.237 OA
ATOM     77  O   UNL A   1      48.073  26.048  37.097  1.00  0.00    -0.744 OA
ENDBRANCH  73  74
ENDBRANCH  52  66
BRANCH  53  78
ATOM     78  C   UNL A   1      36.436  33.343  30.967  1.00  0.00     0.058 A 
ATOM     79  C   UNL A   1      35.115  33.221  31.423  1.00  0.00     0.135 A 
ATOM     80  C   UNL A   1      36.673  34.177  29.864  1.00  0.00     0.135 A 
ATOM     81  F   UNL A   1      34.839  32.430  32.472  1.00  0.00    -0.206 F 
ATOM     82  C   UNL A   1      34.064  33.885  30.798  1.00  0.00     0.059 A 
ATOM     83  C   UNL A   1      35.642  34.872  29.238  1.00  0.00     0.059 A 
ATOM     84  F   UNL A   1      37.921  34.343  29.399  1.00  0.00    -0.206 F 
ATOM     85  C   UNL A   1      34.339  34.709  29.706  1.00  0.00     0.060 A 
BRANCH  85  86
ATOM     86  S   UNL A   1      32.976  35.602  28.927  1.00  0.00     0.124 S 
ATOM     87  O   UNL A   1      32.150  35.941  30.079  1.00  0.00    -0.237 OA
ATOM     88  O   UNL A   1      33.665  36.716  28.283  1.00  0.00    -0.237 OA
ATOM     89  O   UNL A   1      32.411  34.615  28.012  1.00  0.00    -0.744 OA
ENDBRANCH  85  86
ENDBRANCH  53  78
BRANCH  65  90
ATOM     90  C   UNL A   1      39.823  34.246  36.999  1.00  0.00     0.058 A 
ATOM     91  C   UNL A   1      40.489  35.477  36.890  1.00  0.00     0.135 A 
ATOM     92  C   UNL A   1      39.015  34.035  38.129  1.00  0.00     0.135 A 
ATOM     93  F   UNL A   1      41.280  35.726  35.834  1.00  0.00    -0.206 F 
ATOM     94  C   UNL A   1      40.373  36.454  37.873  1.00  0.00     0.059 A 
ATOM     95  C   UNL A   1      38.863  35.009  39.111  1.00  0.00     0.059 A 
ATOM     96  F   UNL A   1      38.349  32.879  38.277  1.00  0.00    -0.206 F 
ATOM     97  C   UNL A   1      39.557  36.211  38.979  1.00  0.00     0.060 A 
BRANCH  97  98
ATOM     98  S   UNL A   1      39.388  37.501  40.230  1.00  0.00     0.124 S 
ATOM     99  O   UNL A   1      40.754  38.007  40.316  1.00  0.00    -0.237 OA
ATOM    100  O   UNL A   1      38.414  38.403  39.622  1.00  0.00    -0.237 OA
ATOM    101  O   UNL A   1      38.913  36.776  41.405  1.00  0.00    -0.744 OA
ENDBRANCH  97  98
ENDBRANCH  65  90
ENDBRANCH  39  40
ENDBRANCH  31  34
ENDBRANCH  29  30
ENDBRANCH   1  29
TORSDOF 17
ENDMDL
MODEL 2
REMARK VINA RESULT:     -12.8      6.458     11.625
REMARK SMILES CCc1ccc2c(CC(=O)NCCCNC(=O)c3ccc(-c4c5nc(c(-c6c(F)cc(S(=O)(=O)[O-])cc6F)c6ccc([nH]6)c(-c6c(F)cc(S(=O)(=O)[O-])cc6F)c6nc(c(-c7c(F)cc(S(=O)(=O)[O-])cc7F)c7ccc4[nH]7)C=C6)C=C5)cc3)c(C(=O)c3cc(C)ccn3)[nH]c2c1
REMARK SMILES IDX 13 1 12 2 11 3 9 4 10 5 8 7 7 8 3 9 4 10 96 11 5 12 95 13
REMARK SMILES IDX 6 14 94 15 84 16 2 18 1 19 85 20 86 21 87 22 88 23 93 24
REMARK SMILES IDX 89 25 92 26 90 27 91 28 14 29 15 30 16 31 17 33 18 34 19 35
REMARK SMILES IDX 83 36 20 37 82 38 21 39 22 40 23 41 76 42 24 43 81 44 75 45
REMARK SMILES IDX 77 46 25 47 80 48 74 49 73 50 26 52 60 53 39 54 59 55 40 56
REMARK SMILES IDX 43 57 58 58 78 59 41 60 42 61 57 63 79 64 44 65 27 66 28 67
REMARK SMILES IDX 37 68 29 69 30 70 36 71 38 72 31 73 32 74 33 75 34 76 35 77
REMARK SMILES IDX 61 78 62 79 71 80 63 81 64 82 70 83 72 84 65 85 66 86 67 87
REMARK SMILES IDX 68 88 69 89 45 90 46 91 55 92 47 93 48 94 54 95 56 96 49 97
REMARK SMILES IDX 50 98 51 99 52 100 53 101
REMARK H PARENT 11 6 94 17 15 32 77 51 43 62
REMARK Flexibility Score: inf
ROOT
ATOM      1  C   UNL A   1      34.376  31.102  27.267  1.00  0.00     0.042 C 
ENDROOT
BRANCH   1   2
ATOM      2  C   UNL A   1      34.058  29.628  27.040  1.00  0.00     0.117 C 
BRANCH   2   3
ATOM      3  N   UNL A   1      32.858  29.195  27.726  1.00  0.00    -0.356 N 
ATOM      4  C   UNL A   1      32.073  28.100  27.501  1.00  0.00     0.224 C 
ATOM      5  O   UNL A   1      31.227  27.836  28.361  1.00  0.00    -0.275 OA
ATOM      6  H   UNL A   1      32.565  29.777  28.464  1.00  0.00     0.163 HD
BRANCH   4   7
ATOM      7  C   UNL A   1      32.326  27.172  26.319  1.00  0.00     0.138 C 
BRANCH   7   8
ATOM      8  C   UNL A   1      31.130  26.916  25.441  1.00  0.00    -0.002 A 
ATOM      9  C   UNL A   1      28.928  29.224  22.648  1.00  0.00    -0.046 A 
ATOM     10  C   UNL A   1      30.049  29.844  23.217  1.00  0.00     0.004 A 
ATOM     11  C   UNL A   1      28.608  27.910  23.024  1.00  0.00     0.030 A 
ATOM     12  C   UNL A   1      30.860  29.182  24.149  1.00  0.00     0.011 A 
ATOM     13  C   UNL A   1      29.432  27.263  23.957  1.00  0.00     0.046 A 
ATOM     14  C   UNL A   1      30.548  27.861  24.529  1.00  0.00     0.004 A 
ATOM     15  N   UNL A   1      29.340  25.999  24.488  1.00  0.00    -0.352 N 
ATOM     16  C   UNL A   1      30.419  25.721  25.304  1.00  0.00     0.093 A 
ATOM     17  H   UNL A   1      28.601  25.374  24.310  1.00  0.00     0.167 HD
BRANCH   9  18
ATOM     18  C   UNL A   1      28.133  30.014  21.628  1.00  0.00     0.032 C 
ATOM     19  C   UNL A   1      28.174  31.532  21.741  1.00  0.00     0.009 C 
ENDBRANCH   9  18
BRANCH  16  20
ATOM     20  C   UNL A   1      30.710  24.417  25.890  1.00  0.00     0.227 C 
ATOM     21  O   UNL A   1      30.556  24.160  27.083  1.00  0.00    -0.285 OA
BRANCH  20  22
ATOM     22  C   UNL A   1      31.301  23.362  25.028  1.00  0.00     0.113 A 
ATOM     23  C   UNL A   1      31.672  22.145  25.596  1.00  0.00     0.036 A 
ATOM     24  N   UNL A   1      31.454  23.669  23.717  1.00  0.00    -0.253 NA
ATOM     25  C   UNL A   1      32.244  21.177  24.767  1.00  0.00    -0.047 A 
ATOM     26  C   UNL A   1      31.984  22.706  22.935  1.00  0.00     0.112 A 
ATOM     27  C   UNL A   1      32.692  19.855  25.310  1.00  0.00     0.044 C 
ATOM     28  C   UNL A   1      32.392  21.467  23.407  1.00  0.00     0.023 A 
ENDBRANCH  20  22
ENDBRANCH  16  20
ENDBRANCH   7   8
ENDBRANCH   4   7
ENDBRANCH   2   3
ENDBRANCH   1   2
BRANCH   1  29
ATOM     29  C   UNL A   1      35.663  31.355  28.049  1.00  0.00     0.118 C 
BRANCH  29  30
ATOM     30  N   UNL A   1      35.502  31.150  29.483  1.00  0.00    -0.352 N 
ATOM     31  C   UNL A   1      36.300  30.493  30.386  1.00  0.00     0.251 C 
ATOM     32  H   UNL A   1      34.688  31.549  29.867  1.00  0.00     0.163 HD
ATOM     33  O   UNL A   1      35.875  30.290  31.522  1.00  0.00    -0.269 OA
BRANCH  31  34
ATOM     34  C   UNL A   1      37.650  30.016  30.010  1.00  0.00     0.039 A 
ATOM     35  C   UNL A   1      37.984  29.949  28.654  1.00  0.00     0.014 A 
ATOM     36  C   UNL A   1      38.570  29.590  30.973  1.00  0.00     0.014 A 
ATOM     37  C   UNL A   1      39.256  29.519  28.268  1.00  0.00     0.010 A 
ATOM     38  C   UNL A   1      39.861  29.228  30.591  1.00  0.00     0.010 A 
ATOM     39  C   UNL A   1      40.219  29.189  29.234  1.00  0.00    -0.014 A 
BRANCH  39  40
ATOM     40  C   UNL A   1      41.605  28.817  28.847  1.00  0.00     0.031 A 
ATOM     41  C   UNL A   1      42.685  29.863  28.780  1.00  0.00     0.074 A 
ATOM     42  C   UNL A   1      41.875  27.545  28.487  1.00  0.00     0.049 A 
ATOM     43  N   UNL A   1      43.926  29.744  28.385  1.00  0.00    -0.248 NA
ATOM     44  C   UNL A   1      42.314  31.229  29.185  1.00  0.00     0.031 C 
ATOM     45  C   UNL A   1      40.901  26.450  28.461  1.00  0.00     0.029 A 
ATOM     46  N   UNL A   1      43.040  26.961  28.057  1.00  0.00    -0.354 N 
ATOM     47  C   UNL A   1      44.478  31.017  28.474  1.00  0.00     0.074 A 
ATOM     48  C   UNL A   1      43.425  31.902  28.922  1.00  0.00     0.031 C 
ATOM     49  C   UNL A   1      41.513  25.328  28.049  1.00  0.00     0.029 A 
ATOM     50  C   UNL A   1      42.908  25.628  27.746  1.00  0.00     0.049 A 
ATOM     51  H   UNL A   1      43.890  27.451  27.979  1.00  0.00     0.167 HD
ATOM     52  C   UNL A   1      45.751  31.407  28.223  1.00  0.00     0.037 A 
ATOM     53  C   UNL A   1      43.805  24.748  27.259  1.00  0.00     0.037 A 
ATOM     54  C   UNL A   1      46.803  30.514  27.808  1.00  0.00     0.049 A 
ATOM     55  C   UNL A   1      45.216  25.203  27.005  1.00  0.00     0.074 A 
ATOM     56  C   UNL A   1      48.141  30.802  27.599  1.00  0.00     0.029 A 
ATOM     57  N   UNL A   1      46.638  29.163  27.541  1.00  0.00    -0.354 N 
ATOM     58  N   UNL A   1      45.737  26.396  27.160  1.00  0.00    -0.248 NA
ATOM     59  C   UNL A   1      46.164  24.192  26.516  1.00  0.00     0.031 C 
ATOM     60  C   UNL A   1      48.776  29.634  27.162  1.00  0.00     0.029 A 
ATOM     61  C   UNL A   1      47.845  28.608  27.148  1.00  0.00     0.049 A 
ATOM     62  H   UNL A   1      45.789  28.671  27.619  1.00  0.00     0.167 HD
ATOM     63  C   UNL A   1      47.078  26.274  26.814  1.00  0.00     0.074 A 
ATOM     64  C   UNL A   1      47.291  24.888  26.452  1.00  0.00     0.031 C 
ATOM     65  C   UNL A   1      48.045  27.225  26.798  1.00  0.00     0.037 A 
BRANCH  52  66
ATOM     66  C   UNL A   1      46.086  32.864  28.391  1.00  0.00     0.058 A 
ATOM     67  C   UNL A   1      45.952  33.779  27.334  1.00  0.00     0.135 A 
ATOM     68  C   UNL A   1      46.494  33.363  29.639  1.00  0.00     0.135 A 
ATOM     69  F   UNL A   1      45.578  33.355  26.116  1.00  0.00    -0.206 F 
ATOM     70  C   UNL A   1      46.230  35.131  27.502  1.00  0.00     0.059 A 
ATOM     71  C   UNL A   1      46.751  34.716  29.837  1.00  0.00     0.059 A 
ATOM     72  F   UNL A   1      46.639  32.533  30.683  1.00  0.00    -0.206 F 
ATOM     73  C   UNL A   1      46.627  35.591  28.758  1.00  0.00     0.060 A 
BRANCH  73  74
ATOM     74  S   UNL A   1      46.966  37.352  28.965  1.00  0.00     0.124 S 
ATOM     75  O   UNL A   1      46.780  37.846  27.604  1.00  0.00    -0.237 OA
ATOM     76  O   UNL A   1      45.948  37.755  29.929  1.00  0.00    -0.237 OA
ATOM     77  O   UNL A   1      48.339  37.379  29.460  1.00  0.00    -0.744 OA
ENDBRANCH  73  74
ENDBRANCH  52  66
BRANCH  53  78
ATOM     78  C   UNL A   1      43.396  23.344  26.988  1.00  0.00     0.058 A 
ATOM     79  C   UNL A   1      43.170  22.440  28.037  1.00  0.00     0.135 A 
ATOM     80  C   UNL A   1      43.213  22.881  25.676  1.00  0.00     0.135 A 
ATOM     81  F   UNL A   1      43.337  22.835  29.309  1.00  0.00    -0.206 F 
ATOM     82  C   UNL A   1      42.797  21.122  27.796  1.00  0.00     0.059 A 
ATOM     83  C   UNL A   1      42.815  21.575  25.410  1.00  0.00     0.059 A 
ATOM     84  F   UNL A   1      43.398  23.711  24.636  1.00  0.00    -0.206 F 
ATOM     85  C   UNL A   1      42.622  20.699  26.477  1.00  0.00     0.060 A 
BRANCH  85  86
ATOM     86  S   UNL A   1      42.095  18.999  26.173  1.00  0.00     0.124 S 
ATOM     87  O   UNL A   1      40.701  19.187  25.791  1.00  0.00    -0.237 OA
ATOM     88  O   UNL A   1      43.001  18.581  25.107  1.00  0.00    -0.237 OA
ATOM     89  O   UNL A   1      42.316  18.346  27.461  1.00  0.00    -0.744 OA
ENDBRANCH  85  86
ENDBRANCH  53  78
BRANCH  65  90
ATOM     90  C   UNL A   1      49.432  26.794  26.409  1.00  0.00     0.058 A 
ATOM     91  C   UNL A   1      50.279  26.132  27.310  1.00  0.00     0.135 A 
ATOM     92  C   UNL A   1      49.899  27.002  25.100  1.00  0.00     0.135 A 
ATOM     93  F   UNL A   1      49.884  25.916  28.574  1.00  0.00    -0.206 F 
ATOM     94  C   UNL A   1      51.550  25.709  26.933  1.00  0.00     0.059 A 
ATOM     95  C   UNL A   1      51.155  26.563  24.694  1.00  0.00     0.059 A 
ATOM     96  F   UNL A   1      49.124  27.622  24.196  1.00  0.00    -0.206 F 
ATOM     97  C   UNL A   1      51.978  25.928  25.623  1.00  0.00     0.060 A 
BRANCH  97  98
ATOM     98  S   UNL A   1      53.615  25.342  25.138  1.00  0.00     0.124 S 
ATOM     99  O   UNL A   1      53.576  23.955  25.588  1.00  0.00    -0.237 OA
ATOM    100  O   UNL A   1      53.604  25.541  23.692  1.00  0.00    -0.237 OA
ATOM    101  O   UNL A   1      54.522  26.216  25.877  1.00  0.00    -0.744 OA
ENDBRANCH  97  98
ENDBRANCH  65  90
ENDBRANCH  39  40
ENDBRANCH  31  34
ENDBRANCH  29  30
ENDBRANCH   1  29
TORSDOF 17
ENDMDL
MODEL 3
REMARK VINA RESULT:     -12.8      6.574     12.068
REMARK SMILES CCc1ccc2c(CC(=O)NCCCNC(=O)c3ccc(-c4c5nc(c(-c6c(F)cc(S(=O)(=O)[O-])cc6F)c6ccc([nH]6)c(-c6c(F)cc(S(=O)(=O)[O-])cc6F)c6nc(c(-c7c(F)cc(S(=O)(=O)[O-])cc7F)c7ccc4[nH]7)C=C6)C=C5)cc3)c(C(=O)c3cc(C)ccn3)[nH]c2c1
REMARK SMILES IDX 13 1 12 2 11 3 9 4 10 5 8 7 7 8 3 9 4 10 96 11 5 12 95 13
REMARK SMILES IDX 6 14 94 15 84 16 2 18 1 19 85 20 86 21 87 22 88 23 93 24
REMARK SMILES IDX 89 25 92 26 90 27 91 28 14 29 15 30 16 31 17 33 18 34 19 35
REMARK SMILES IDX 83 36 20 37 82 38 21 39 22 40 23 41 76 42 24 43 81 44 75 45
REMARK SMILES IDX 77 46 25 47 80 48 74 49 73 50 26 52 60 53 39 54 59 55 40 56
REMARK SMILES IDX 43 57 58 58 78 59 41 60 42 61 57 63 79 64 44 65 27 66 28 67
REMARK SMILES IDX 37 68 29 69 30 70 36 71 38 72 31 73 32 74 33 75 34 76 35 77
REMARK SMILES IDX 61 78 62 79 71 80 63 81 64 82 70 83 72 84 65 85 66 86 67 87
REMARK SMILES IDX 68 88 69 89 45 90 46 91 55 92 47 93 48 94 54 95 56 96 49 97
REMARK SMILES IDX 50 98 51 99 52 100 53 101
REMARK H PARENT 11 6 94 17 15 32 77 51 43 62
REMARK Flexibility Score: inf
ROOT
ATOM      1  C   UNL A   1      33.887  29.275  26.925  1.00  0.00     0.042 C 
ENDROOT
BRANCH   1   2
ATOM      2  C   UNL A   1      33.730  28.185  25.871  1.00  0.00     0.117 C 
BRANCH   2   3
ATOM      3  N   UNL A   1      32.757  27.177  26.239  1.00  0.00    -0.356 N 
ATOM      4  C   UNL A   1      32.770  25.829  26.014  1.00  0.00     0.224 C 
ATOM      5  O   UNL A   1      31.929  25.156  26.616  1.00  0.00    -0.275 OA
ATOM      6  H   UNL A   1      31.969  27.512  26.725  1.00  0.00     0.163 HD
BRANCH   4   7
ATOM      7  C   UNL A   1      33.859  25.177  25.171  1.00  0.00     0.138 C 
BRANCH   7   8
ATOM      8  C   UNL A   1      33.367  24.205  24.131  1.00  0.00    -0.002 A 
ATOM      9  C   UNL A   1      32.591  20.037  24.072  1.00  0.00    -0.046 A 
ATOM     10  C   UNL A   1      32.990  20.577  25.303  1.00  0.00     0.004 A 
ATOM     11  C   UNL A   1      32.474  20.886  22.960  1.00  0.00     0.030 A 
ATOM     12  C   UNL A   1      33.269  21.941  25.451  1.00  0.00     0.011 A 
ATOM     13  C   UNL A   1      32.757  22.250  23.127  1.00  0.00     0.046 A 
ATOM     14  C   UNL A   1      33.150  22.801  24.341  1.00  0.00     0.004 A 
ATOM     15  N   UNL A   1      32.723  23.276  22.215  1.00  0.00    -0.352 N 
ATOM     16  C   UNL A   1      32.978  24.491  22.820  1.00  0.00     0.093 A 
ATOM     17  H   UNL A   1      32.541  23.160  21.254  1.00  0.00     0.167 HD
BRANCH   9  18
ATOM     18  C   UNL A   1      32.283  18.555  24.022  1.00  0.00     0.032 C 
ATOM     19  C   UNL A   1      32.839  17.771  22.841  1.00  0.00     0.009 C 
ENDBRANCH   9  18
BRANCH  16  20
ATOM     20  C   UNL A   1      32.857  25.791  22.170  1.00  0.00     0.227 C 
ATOM     21  O   UNL A   1      33.612  26.176  21.278  1.00  0.00    -0.285 OA
BRANCH  20  22
ATOM     22  C   UNL A   1      31.826  26.742  22.657  1.00  0.00     0.113 A 
ATOM     23  C   UNL A   1      30.586  26.256  23.065  1.00  0.00     0.036 A 
ATOM     24  N   UNL A   1      32.168  28.053  22.659  1.00  0.00    -0.253 NA
ATOM     25  C   UNL A   1      29.628  27.173  23.500  1.00  0.00    -0.047 A 
ATOM     26  C   UNL A   1      31.233  28.915  23.110  1.00  0.00     0.112 A 
ATOM     27  C   UNL A   1      28.263  26.728  23.930  1.00  0.00     0.044 C 
ATOM     28  C   UNL A   1      29.968  28.529  23.529  1.00  0.00     0.023 A 
ENDBRANCH  20  22
ENDBRANCH  16  20
ENDBRANCH   7   8
ENDBRANCH   4   7
ENDBRANCH   2   3
ENDBRANCH   1   2
BRANCH   1  29
ATOM     29  C   UNL A   1      35.247  29.288  27.619  1.00  0.00     0.118 C 
BRANCH  29  30
ATOM     30  N   UNL A   1      35.233  30.020  28.878  1.00  0.00    -0.352 N 
ATOM     31  C   UNL A   1      36.244  30.288  29.767  1.00  0.00     0.251 C 
ATOM     32  H   UNL A   1      34.354  30.382  29.134  1.00  0.00     0.163 HD
ATOM     33  O   UNL A   1      35.964  30.773  30.862  1.00  0.00    -0.269 OA
BRANCH  31  34
ATOM     34  C   UNL A   1      37.656  29.991  29.434  1.00  0.00     0.039 A 
ATOM     35  C   UNL A   1      38.538  29.680  30.474  1.00  0.00     0.014 A 
ATOM     36  C   UNL A   1      38.127  30.060  28.120  1.00  0.00     0.014 A 
ATOM     37  C   UNL A   1      39.872  29.377  30.190  1.00  0.00     0.010 A 
ATOM     38  C   UNL A   1      39.441  29.690  27.832  1.00  0.00     0.010 A 
ATOM     39  C   UNL A   1      40.328  29.344  28.862  1.00  0.00    -0.014 A 
BRANCH  39  40
ATOM     40  C   UNL A   1      41.718  28.936  28.534  1.00  0.00     0.031 A 
ATOM     41  C   UNL A   1      42.821  29.959  28.477  1.00  0.00     0.074 A 
ATOM     42  C   UNL A   1      41.975  27.650  28.217  1.00  0.00     0.049 A 
ATOM     43  N   UNL A   1      44.072  29.806  28.129  1.00  0.00    -0.248 NA
ATOM     44  C   UNL A   1      42.463  31.342  28.833  1.00  0.00     0.031 C 
ATOM     45  C   UNL A   1      40.982  26.573  28.186  1.00  0.00     0.029 A 
ATOM     46  N   UNL A   1      43.142  27.032  27.843  1.00  0.00    -0.354 N 
ATOM     47  C   UNL A   1      44.647  31.069  28.204  1.00  0.00     0.074 A 
ATOM     48  C   UNL A   1      43.596  31.986  28.591  1.00  0.00     0.031 C 
ATOM     49  C   UNL A   1      41.584  25.429  27.825  1.00  0.00     0.029 A 
ATOM     50  C   UNL A   1      42.995  25.694  27.563  1.00  0.00     0.049 A 
ATOM     51  H   UNL A   1      44.005  27.503  27.783  1.00  0.00     0.167 HD
ATOM     52  C   UNL A   1      45.935  31.429  27.987  1.00  0.00     0.037 A 
ATOM     53  C   UNL A   1      43.891  24.784  27.131  1.00  0.00     0.037 A 
ATOM     54  C   UNL A   1      46.982  30.505  27.634  1.00  0.00     0.049 A 
ATOM     55  C   UNL A   1      45.319  25.205  26.915  1.00  0.00     0.074 A 
ATOM     56  C   UNL A   1      48.332  30.762  27.464  1.00  0.00     0.029 A 
ATOM     57  N   UNL A   1      46.800  29.151  27.397  1.00  0.00    -0.354 N 
ATOM     58  N   UNL A   1      45.857  26.392  27.056  1.00  0.00    -0.248 NA
ATOM     59  C   UNL A   1      46.262  24.163  26.487  1.00  0.00     0.031 C 
ATOM     60  C   UNL A   1      48.959  29.571  27.080  1.00  0.00     0.029 A 
ATOM     61  C   UNL A   1      48.009  28.563  27.060  1.00  0.00     0.049 A 
ATOM     62  H   UNL A   1      45.939  28.678  27.458  1.00  0.00     0.167 HD
ATOM     63  C   UNL A   1      47.207  26.235  26.761  1.00  0.00     0.074 A 
ATOM     64  C   UNL A   1      47.404  24.837  26.444  1.00  0.00     0.031 C 
ATOM     65  C   UNL A   1      48.192  27.166  26.754  1.00  0.00     0.037 A 
BRANCH  52  66
ATOM     66  C   UNL A   1      46.293  32.883  28.129  1.00  0.00     0.058 A 
ATOM     67  C   UNL A   1      46.800  33.404  29.330  1.00  0.00     0.135 A 
ATOM     68  C   UNL A   1      46.178  33.756  27.034  1.00  0.00     0.135 A 
ATOM     69  F   UNL A   1      46.918  32.618  30.412  1.00  0.00    -0.206 F 
ATOM     70  C   UNL A   1      47.161  34.742  29.448  1.00  0.00     0.059 A 
ATOM     71  C   UNL A   1      46.559  35.092  27.122  1.00  0.00     0.059 A 
ATOM     72  F   UNL A   1      45.699  33.311  25.863  1.00  0.00    -0.206 F 
ATOM     73  C   UNL A   1      47.039  35.578  28.337  1.00  0.00     0.060 A 
BRANCH  73  74
ATOM     74  S   UNL A   1      47.530  37.308  28.501  1.00  0.00     0.124 S 
ATOM     75  O   UNL A   1      47.689  37.699  27.104  1.00  0.00    -0.237 OA
ATOM     76  O   UNL A   1      46.388  37.892  29.197  1.00  0.00    -0.237 OA
ATOM     77  O   UNL A   1      48.765  37.239  29.278  1.00  0.00    -0.744 OA
ENDBRANCH  73  74
ENDBRANCH  52  66
BRANCH  53  78
ATOM     78  C   UNL A   1      43.463  23.382  26.883  1.00  0.00     0.058 A 
ATOM     79  C   UNL A   1      43.139  22.525  27.946  1.00  0.00     0.135 A 
ATOM     80  C   UNL A   1      43.361  22.873  25.579  1.00  0.00     0.135 A 
ATOM     81  F   UNL A   1      43.226  22.964  29.211  1.00  0.00    -0.206 F 
ATOM     82  C   UNL A   1      42.748  21.208  27.727  1.00  0.00     0.059 A 
ATOM     83  C   UNL A   1      42.947  21.568  25.333  1.00  0.00     0.059 A 
ATOM     84  F   UNL A   1      43.642  23.658  24.526  1.00  0.00    -0.206 F 
ATOM     85  C   UNL A   1      42.654  20.739  26.415  1.00  0.00     0.060 A 
BRANCH  85  86
ATOM     86  S   UNL A   1      42.104  19.042  26.136  1.00  0.00     0.124 S 
ATOM     87  O   UNL A   1      42.990  18.620  25.058  1.00  0.00    -0.237 OA
ATOM     88  O   UNL A   1      42.339  18.424  27.437  1.00  0.00    -0.237 OA
ATOM     89  O   UNL A   1      40.699  19.203  25.774  1.00  0.00    -0.744 OA
ENDBRANCH  85  86
ENDBRANCH  53  78
BRANCH  65  90
ATOM     90  C   UNL A   1      49.583  26.700  26.425  1.00  0.00     0.058 A 
ATOM     91  C   UNL A   1      50.399  26.079  27.383  1.00  0.00     0.135 A 
ATOM     92  C   UNL A   1      50.085  26.829  25.119  1.00  0.00     0.135 A 
ATOM     93  F   UNL A   1      49.970  25.938  28.647  1.00  0.00    -0.206 F 
ATOM     94  C   UNL A   1      51.673  25.621  27.064  1.00  0.00     0.059 A 
ATOM     95  C   UNL A   1      51.346  26.353  24.772  1.00  0.00     0.059 A 
ATOM     96  F   UNL A   1      49.341  27.406  24.163  1.00  0.00    -0.206 F 
ATOM     97  C   UNL A   1      52.137  25.762  25.755  1.00  0.00     0.060 A 
BRANCH  97  98
ATOM     98  S   UNL A   1      53.779  25.132  25.346  1.00  0.00     0.124 S 
ATOM     99  O   UNL A   1      53.972  25.668  24.002  1.00  0.00    -0.237 OA
ATOM    100  O   UNL A   1      54.610  25.721  26.390  1.00  0.00    -0.237 OA
ATOM    101  O   UNL A   1      53.617  23.683  25.426  1.00  0.00    -0.744 OA
ENDBRANCH  97  98
ENDBRANCH  65  90
ENDBRANCH  39  40
ENDBRANCH  31  34
ENDBRANCH  29  30
ENDBRANCH   1  29
TORSDOF 17
ENDMDL
