MODEL 1
REMARK VINA RESULT:     -12.6      0.000      0.000
REMARK SMILES O=C(NCCCNC(=O)c1ccc(-c2c3nc(c(-c4c(F)cc(S(=O)(=O)[O-])cc4F)c4ccc([nH]4)c(-c4c(F)cc(S(=O)(=O)[O-])cc4F)c4nc(c(-c5c(F)cc(S(=O)(=O)[O-])cc5F)c5ccc2[nH]5)C=C4)C=C3)cc1)C1=Cc2c(ccc(Cl)c2Sc2ccccc2)O[C@H]1C(F)(F)F
REMARK SMILES IDX 5 1 4 2 3 3 1 4 2 5 76 7 77 8 93 9 78 10 92 11 79 12 84 13
REMARK SMILES IDX 80 14 82 15 81 16 83 17 94 18 95 19 96 20 97 21 85 22 86 23
REMARK SMILES IDX 87 24 91 25 88 26 90 27 89 28 6 29 7 30 8 31 9 33 10 34
REMARK SMILES IDX 11 35 75 36 12 37 74 38 13 39 14 40 15 41 68 42 16 43 73 44
REMARK SMILES IDX 67 45 69 46 17 47 72 48 66 49 65 50 18 52 52 53 31 54 51 55
REMARK SMILES IDX 32 56 35 57 50 58 70 59 33 60 34 61 49 63 71 64 36 65 19 66
REMARK SMILES IDX 20 67 29 68 21 69 22 70 28 71 30 72 23 73 24 74 25 75 26 76
REMARK SMILES IDX 27 77 53 78 54 79 63 80 55 81 56 82 62 83 64 84 57 85 58 86
REMARK SMILES IDX 59 87 60 88 61 89 37 90 38 91 47 92 39 93 40 94 46 95 48 96
REMARK SMILES IDX 41 97 42 98 43 99 44 100 45 101
REMARK H PARENT 3 6 7 32 69 51 35 62
REMARK Flexibility Score: inf
ROOT
ATOM      1  C   UNL A   1      37.319  23.153  25.555  1.00  0.00     0.042 C 
ENDROOT
BRANCH   1   2
ATOM      2  C   UNL A   1      36.138  23.834  24.889  1.00  0.00     0.118 C 
BRANCH   2   3
ATOM      3  N   UNL A   1      35.092  24.233  25.808  1.00  0.00    -0.352 N 
ATOM      4  O   UNL A   1      33.079  24.920  26.524  1.00  0.00    -0.270 OA
ATOM      5  C   UNL A   1      33.791  24.571  25.585  1.00  0.00     0.251 C 
ATOM      6  H   UNL A   1      35.367  24.267  26.753  1.00  0.00     0.163 HD
BRANCH   5   7
ATOM      7  C   UNL A   1      33.224  24.558  24.225  1.00  0.00     0.067 C 
ATOM      8  C   UNL A   1      33.271  25.621  23.414  1.00  0.00     0.026 C 
ATOM      9  C   UNL A   1      32.358  23.418  23.813  1.00  0.00     0.314 C 
ATOM     10  C   UNL A   1      31.919  26.208  23.269  1.00  0.00     0.033 A 
ATOM     11  O   UNL A   1      31.048  23.897  23.357  1.00  0.00    -0.475 OA
ATOM     12  C   UNL A   1      30.854  25.267  23.307  1.00  0.00     0.129 A 
ATOM     13  C   UNL A   1      31.690  27.608  23.357  1.00  0.00     0.042 A 
ATOM     14  C   UNL A   1      29.546  25.705  23.443  1.00  0.00     0.049 A 
ATOM     15  C   UNL A   1      30.347  28.008  23.556  1.00  0.00     0.055 A 
ATOM     16  C   UNL A   1      29.299  27.069  23.599  1.00  0.00     0.025 A 
ATOM     17  Cl  UNL A   1      29.892  29.654  23.866  1.00  0.00    -0.083 Cl
BRANCH   9  18
ATOM     18  C   UNL A   1      33.046  22.574  22.724  1.00  0.00     0.429 C 
ATOM     19  F   UNL A   1      34.318  22.239  23.054  1.00  0.00    -0.167 F 
ATOM     20  F   UNL A   1      32.383  21.417  22.499  1.00  0.00    -0.167 F 
ATOM     21  F   UNL A   1      33.116  23.237  21.543  1.00  0.00    -0.167 F 
ENDBRANCH   9  18
BRANCH  13  22
ATOM     22  S   UNL A   1      32.997  28.883  23.443  1.00  0.00    -0.088 SA
BRANCH  22  23
ATOM     23  C   UNL A   1      33.282  29.215  25.168  1.00  0.00     0.012 A 
ATOM     24  C   UNL A   1      34.302  28.535  25.851  1.00  0.00     0.015 A 
ATOM     25  C   UNL A   1      32.593  30.249  25.812  1.00  0.00     0.015 A 
ATOM     26  C   UNL A   1      34.708  28.968  27.116  1.00  0.00     0.001 A 
ATOM     27  C   UNL A   1      32.999  30.675  27.080  1.00  0.00     0.001 A 
ATOM     28  C   UNL A   1      34.072  30.052  27.719  1.00  0.00     0.000 A 
ENDBRANCH  22  23
ENDBRANCH  13  22
ENDBRANCH   5   7
ENDBRANCH   2   3
ENDBRANCH   1   2
BRANCH   1  29
ATOM     29  C   UNL A   1      38.163  24.119  26.366  1.00  0.00     0.118 C 
BRANCH  29  30
ATOM     30  N   UNL A   1      39.601  24.006  26.134  1.00  0.00    -0.352 N 
ATOM     31  C   UNL A   1      40.655  24.715  26.667  1.00  0.00     0.251 C 
ATOM     32  H   UNL A   1      39.861  23.308  25.490  1.00  0.00     0.163 HD
ATOM     33  O   UNL A   1      41.798  24.459  26.295  1.00  0.00    -0.269 OA
BRANCH  31  34
ATOM     34  C   UNL A   1      40.422  25.812  27.632  1.00  0.00     0.039 A 
ATOM     35  C   UNL A   1      39.469  25.639  28.640  1.00  0.00     0.014 A 
ATOM     36  C   UNL A   1      41.158  26.995  27.581  1.00  0.00     0.014 A 
ATOM     37  C   UNL A   1      39.329  26.606  29.638  1.00  0.00     0.010 A 
ATOM     38  C   UNL A   1      41.131  27.875  28.653  1.00  0.00     0.010 A 
ATOM     39  C   UNL A   1      40.201  27.707  29.685  1.00  0.00    -0.014 A 
BRANCH  39  40
ATOM     40  C   UNL A   1      40.143  28.705  30.784  1.00  0.00     0.031 A 
ATOM     41  C   UNL A   1      41.048  28.557  31.982  1.00  0.00     0.074 A 
ATOM     42  C   UNL A   1      39.229  29.696  30.737  1.00  0.00     0.049 A 
ATOM     43  N   UNL A   1      41.097  29.276  33.074  1.00  0.00    -0.248 NA
ATOM     44  C   UNL A   1      41.986  27.420  31.980  1.00  0.00     0.031 C 
ATOM     45  C   UNL A   1      38.236  29.887  29.675  1.00  0.00     0.029 A 
ATOM     46  N   UNL A   1      38.980  30.727  31.606  1.00  0.00    -0.354 N 
ATOM     47  C   UNL A   1      42.041  28.661  33.890  1.00  0.00     0.074 A 
ATOM     48  C   UNL A   1      42.486  27.470  33.204  1.00  0.00     0.031 C 
ATOM     49  C   UNL A   1      37.519  30.993  29.932  1.00  0.00     0.029 A 
ATOM     50  C   UNL A   1      37.970  31.568  31.194  1.00  0.00     0.049 A 
ATOM     51  H   UNL A   1      39.477  30.855  32.446  1.00  0.00     0.167 HD
ATOM     52  C   UNL A   1      42.525  29.072  35.086  1.00  0.00     0.037 A 
ATOM     53  C   UNL A   1      37.470  32.678  31.768  1.00  0.00     0.037 A 
ATOM     54  C   UNL A   1      42.122  30.296  35.726  1.00  0.00     0.049 A 
ATOM     55  C   UNL A   1      38.071  33.152  33.063  1.00  0.00     0.074 A 
ATOM     56  C   UNL A   1      42.613  30.859  36.890  1.00  0.00     0.029 A 
ATOM     57  N   UNL A   1      41.140  31.150  35.248  1.00  0.00    -0.354 N 
ATOM     58  N   UNL A   1      39.024  32.602  33.779  1.00  0.00    -0.248 NA
ATOM     59  C   UNL A   1      37.542  34.403  33.622  1.00  0.00     0.031 C 
ATOM     60  C   UNL A   1      41.896  32.034  37.139  1.00  0.00     0.029 A 
ATOM     61  C   UNL A   1      40.995  32.229  36.102  1.00  0.00     0.049 A 
ATOM     62  H   UNL A   1      40.622  31.011  34.423  1.00  0.00     0.167 HD
ATOM     63  C   UNL A   1      39.221  33.450  34.863  1.00  0.00     0.074 A 
ATOM     64  C   UNL A   1      38.307  34.562  34.692  1.00  0.00     0.031 C 
ATOM     65  C   UNL A   1      40.075  33.322  35.909  1.00  0.00     0.037 A 
BRANCH  52  66
ATOM     66  C   UNL A   1      43.556  28.210  35.763  1.00  0.00     0.058 A 
ATOM     67  C   UNL A   1      43.197  27.209  36.680  1.00  0.00     0.135 A 
ATOM     68  C   UNL A   1      44.920  28.362  35.465  1.00  0.00     0.135 A 
ATOM     69  F   UNL A   1      41.910  27.032  37.020  1.00  0.00    -0.206 F 
ATOM     70  C   UNL A   1      44.152  26.406  37.295  1.00  0.00     0.059 A 
ATOM     71  C   UNL A   1      45.891  27.549  36.044  1.00  0.00     0.059 A 
ATOM     72  F   UNL A   1      45.323  29.306  34.600  1.00  0.00    -0.206 F 
ATOM     73  C   UNL A   1      45.498  26.581  36.967  1.00  0.00     0.060 A 
BRANCH  73  74
ATOM     74  S   UNL A   1      46.720  25.513  37.755  1.00  0.00     0.124 S 
ATOM     75  O   UNL A   1      47.715  25.377  36.696  1.00  0.00    -0.237 OA
ATOM     76  O   UNL A   1      47.129  26.306  38.909  1.00  0.00    -0.237 OA
ATOM     77  O   UNL A   1      45.965  24.302  38.066  1.00  0.00    -0.744 OA
ENDBRANCH  73  74
ENDBRANCH  52  66
BRANCH  53  78
ATOM     78  C   UNL A   1      36.368  33.431  31.108  1.00  0.00     0.058 A 
ATOM     79  C   UNL A   1      36.592  34.154  29.927  1.00  0.00     0.135 A 
ATOM     80  C   UNL A   1      35.067  33.434  31.636  1.00  0.00     0.135 A 
ATOM     81  F   UNL A   1      37.817  34.184  29.381  1.00  0.00    -0.206 F 
ATOM     82  C   UNL A   1      35.575  34.873  29.305  1.00  0.00     0.059 A 
ATOM     83  C   UNL A   1      34.028  34.122  31.018  1.00  0.00     0.059 A 
ATOM     84  F   UNL A   1      34.792  32.740  32.752  1.00  0.00    -0.206 F 
ATOM     85  C   UNL A   1      34.294  34.850  29.860  1.00  0.00     0.060 A 
BRANCH  85  86
ATOM     86  S   UNL A   1      32.971  35.752  29.023  1.00  0.00     0.124 S 
ATOM     87  O   UNL A   1      32.370  34.702  28.211  1.00  0.00    -0.237 OA
ATOM     88  O   UNL A   1      32.169  36.232  30.145  1.00  0.00    -0.237 OA
ATOM     89  O   UNL A   1      33.687  36.790  28.287  1.00  0.00    -0.744 OA
ENDBRANCH  85  86
ENDBRANCH  53  78
BRANCH  65  90
ATOM     90  C   UNL A   1      40.074  34.422  36.931  1.00  0.00     0.058 A 
ATOM     91  C   UNL A   1      39.158  34.439  37.993  1.00  0.00     0.135 A 
ATOM     92  C   UNL A   1      41.020  35.459  36.861  1.00  0.00     0.135 A 
ATOM     93  F   UNL A   1      38.232  33.472  38.102  1.00  0.00    -0.206 F 
ATOM     94  C   UNL A   1      39.152  35.466  38.930  1.00  0.00     0.059 A 
ATOM     95  C   UNL A   1      41.052  36.479  37.805  1.00  0.00     0.059 A 
ATOM     96  F   UNL A   1      41.929  35.481  35.873  1.00  0.00    -0.206 F 
ATOM     97  C   UNL A   1      40.102  36.484  38.825  1.00  0.00     0.060 A 
BRANCH  97  98
ATOM     98  S   UNL A   1      40.087  37.809  40.048  1.00  0.00     0.124 S 
ATOM     99  O   UNL A   1      38.775  38.406  39.817  1.00  0.00    -0.237 OA
ATOM    100  O   UNL A   1      40.240  37.079  41.303  1.00  0.00    -0.237 OA
ATOM    101  O   UNL A   1      41.229  38.636  39.668  1.00  0.00    -0.744 OA
ENDBRANCH  97  98
ENDBRANCH  65  90
ENDBRANCH  39  40
ENDBRANCH  31  34
ENDBRANCH  29  30
ENDBRANCH   1  29
TORSDOF 16
ENDMDL
MODEL 2
REMARK VINA RESULT:     -12.4      4.997     10.604
REMARK SMILES O=C(NCCCNC(=O)c1ccc(-c2c3nc(c(-c4c(F)cc(S(=O)(=O)[O-])cc4F)c4ccc([nH]4)c(-c4c(F)cc(S(=O)(=O)[O-])cc4F)c4nc(c(-c5c(F)cc(S(=O)(=O)[O-])cc5F)c5ccc2[nH]5)C=C4)C=C3)cc1)C1=Cc2c(ccc(Cl)c2Sc2ccccc2)O[C@H]1C(F)(F)F
REMARK SMILES IDX 5 1 4 2 3 3 1 4 2 5 76 7 77 8 93 9 78 10 92 11 79 12 84 13
REMARK SMILES IDX 80 14 82 15 81 16 83 17 94 18 95 19 96 20 97 21 85 22 86 23
REMARK SMILES IDX 87 24 91 25 88 26 90 27 89 28 6 29 7 30 8 31 9 33 10 34
REMARK SMILES IDX 11 35 75 36 12 37 74 38 13 39 14 40 15 41 68 42 16 43 73 44
REMARK SMILES IDX 67 45 69 46 17 47 72 48 66 49 65 50 18 52 52 53 31 54 51 55
REMARK SMILES IDX 32 56 35 57 50 58 70 59 33 60 34 61 49 63 71 64 36 65 19 66
REMARK SMILES IDX 20 67 29 68 21 69 22 70 28 71 30 72 23 73 24 74 25 75 26 76
REMARK SMILES IDX 27 77 53 78 54 79 63 80 55 81 56 82 62 83 64 84 57 85 58 86
REMARK SMILES IDX 59 87 60 88 61 89 37 90 38 91 47 92 39 93 40 94 46 95 48 96
REMARK SMILES IDX 41 97 42 98 43 99 44 100 45 101
REMARK H PARENT 3 6 7 32 69 51 35 62
REMARK Flexibility Score: inf
ROOT
ATOM      1  C   UNL A   1      32.098  28.148  26.992  1.00  0.00     0.042 C 
ENDROOT
BRANCH   1   2
ATOM      2  C   UNL A   1      32.136  26.846  26.215  1.00  0.00     0.118 C 
BRANCH   2   3
ATOM      3  N   UNL A   1      31.659  25.700  26.960  1.00  0.00    -0.352 N 
ATOM      4  O   UNL A   1      30.957  23.608  27.368  1.00  0.00    -0.270 OA
ATOM      5  C   UNL A   1      31.398  24.423  26.562  1.00  0.00     0.251 C 
ATOM      6  H   UNL A   1      31.496  25.871  27.916  1.00  0.00     0.163 HD
BRANCH   5   7
ATOM      7  C   UNL A   1      31.604  24.006  25.163  1.00  0.00     0.067 C 
ATOM      8  C   UNL A   1      31.887  22.744  24.822  1.00  0.00     0.026 C 
ATOM      9  C   UNL A   1      31.745  25.051  24.111  1.00  0.00     0.314 C 
ATOM     10  C   UNL A   1      33.296  22.644  24.376  1.00  0.00     0.033 A 
ATOM     11  O   UNL A   1      33.004  24.884  23.376  1.00  0.00    -0.475 OA
ATOM     12  C   UNL A   1      33.792  23.793  23.702  1.00  0.00     0.129 A 
ATOM     13  C   UNL A   1      34.157  21.603  24.819  1.00  0.00     0.042 A 
ATOM     14  C   UNL A   1      35.152  23.929  23.469  1.00  0.00     0.049 A 
ATOM     15  C   UNL A   1      35.542  21.810  24.614  1.00  0.00     0.055 A 
ATOM     16  C   UNL A   1      36.025  22.955  23.952  1.00  0.00     0.025 A 
ATOM     17  Cl  UNL A   1      36.757  20.742  25.245  1.00  0.00    -0.083 Cl
BRANCH   9  18
ATOM     18  C   UNL A   1      30.539  25.024  23.152  1.00  0.00     0.429 C 
ATOM     19  F   UNL A   1      29.474  25.707  23.639  1.00  0.00    -0.167 F 
ATOM     20  F   UNL A   1      30.844  25.577  21.956  1.00  0.00    -0.167 F 
ATOM     21  F   UNL A   1      30.111  23.759  22.915  1.00  0.00    -0.167 F 
ENDBRANCH   9  18
BRANCH  13  22
ATOM     22  S   UNL A   1      33.632  20.152  25.799  1.00  0.00    -0.088 SA
BRANCH  22  23
ATOM     23  C   UNL A   1      33.490  18.787  24.666  1.00  0.00     0.012 A 
ATOM     24  C   UNL A   1      32.530  18.826  23.642  1.00  0.00     0.015 A 
ATOM     25  C   UNL A   1      34.419  17.741  24.698  1.00  0.00     0.015 A 
ATOM     26  C   UNL A   1      32.581  17.900  22.598  1.00  0.00     0.001 A 
ATOM     27  C   UNL A   1      34.463  16.812  23.654  1.00  0.00     0.001 A 
ATOM     28  C   UNL A   1      33.561  16.908  22.593  1.00  0.00     0.000 A 
ENDBRANCH  22  23
ENDBRANCH  13  22
ENDBRANCH   5   7
ENDBRANCH   2   3
ENDBRANCH   1   2
BRANCH   1  29
ATOM     29  C   UNL A   1      33.485  28.689  27.285  1.00  0.00     0.118 C 
BRANCH  29  30
ATOM     30  N   UNL A   1      33.504  30.053  27.810  1.00  0.00    -0.352 N 
ATOM     31  C   UNL A   1      34.530  30.789  28.359  1.00  0.00     0.251 C 
ATOM     32  H   UNL A   1      32.641  30.524  27.764  1.00  0.00     0.163 HD
ATOM     33  O   UNL A   1      34.300  31.927  28.765  1.00  0.00    -0.269 OA
BRANCH  31  34
ATOM     34  C   UNL A   1      35.882  30.210  28.517  1.00  0.00     0.039 A 
ATOM     35  C   UNL A   1      36.766  30.244  27.434  1.00  0.00     0.014 A 
ATOM     36  C   UNL A   1      36.304  29.668  29.730  1.00  0.00     0.014 A 
ATOM     37  C   UNL A   1      38.087  29.824  27.603  1.00  0.00     0.010 A 
ATOM     38  C   UNL A   1      37.650  29.402  29.938  1.00  0.00     0.010 A 
ATOM     39  C   UNL A   1      38.556  29.453  28.874  1.00  0.00    -0.014 A 
BRANCH  39  40
ATOM     40  C   UNL A   1      39.978  29.091  29.109  1.00  0.00     0.031 A 
ATOM     41  C   UNL A   1      40.929  30.114  29.680  1.00  0.00     0.074 A 
ATOM     42  C   UNL A   1      40.426  27.874  28.740  1.00  0.00     0.049 A 
ATOM     43  N   UNL A   1      42.217  30.018  29.889  1.00  0.00    -0.248 NA
ATOM     44  C   UNL A   1      40.373  31.437  30.013  1.00  0.00     0.031 C 
ATOM     45  C   UNL A   1      39.622  26.833  28.090  1.00  0.00     0.029 A 
ATOM     46  N   UNL A   1      41.669  27.303  28.851  1.00  0.00    -0.354 N 
ATOM     47  C   UNL A   1      42.621  31.269  30.343  1.00  0.00     0.074 A 
ATOM     48  C   UNL A   1      41.462  32.129  30.309  1.00  0.00     0.031 C 
ATOM     49  C   UNL A   1      40.379  25.740  27.904  1.00  0.00     0.029 A 
ATOM     50  C   UNL A   1      41.729  26.011  28.382  1.00  0.00     0.049 A 
ATOM     51  H   UNL A   1      42.444  27.775  29.232  1.00  0.00     0.167 HD
ATOM     52  C   UNL A   1      43.840  31.657  30.787  1.00  0.00     0.037 A 
ATOM     53  C   UNL A   1      42.758  25.143  28.346  1.00  0.00     0.037 A 
ATOM     54  C   UNL A   1      44.970  30.771  30.878  1.00  0.00     0.049 A 
ATOM     55  C   UNL A   1      44.085  25.575  28.909  1.00  0.00     0.074 A 
ATOM     56  C   UNL A   1      46.225  31.029  31.400  1.00  0.00     0.029 A 
ATOM     57  N   UNL A   1      44.976  29.453  30.448  1.00  0.00    -0.354 N 
ATOM     58  N   UNL A   1      44.426  26.738  29.413  1.00  0.00    -0.248 NA
ATOM     59  C   UNL A   1      45.162  24.577  28.912  1.00  0.00     0.031 C 
ATOM     60  C   UNL A   1      47.003  29.877  31.246  1.00  0.00     0.029 A 
ATOM     61  C   UNL A   1      46.218  28.887  30.676  1.00  0.00     0.049 A 
ATOM     62  H   UNL A   1      44.210  28.987  30.042  1.00  0.00     0.167 HD
ATOM     63  C   UNL A   1      45.752  26.605  29.810  1.00  0.00     0.074 A 
ATOM     64  C   UNL A   1      46.140  25.241  29.511  1.00  0.00     0.031 C 
ATOM     65  C   UNL A   1      46.577  27.525  30.367  1.00  0.00     0.037 A 
BRANCH  52  66
ATOM     66  C   UNL A   1      44.007  33.086  31.229  1.00  0.00     0.058 A 
ATOM     67  C   UNL A   1      44.420  34.092  30.341  1.00  0.00     0.135 A 
ATOM     68  C   UNL A   1      43.715  33.463  32.551  1.00  0.00     0.135 A 
ATOM     69  F   UNL A   1      44.733  33.788  29.071  1.00  0.00    -0.206 F 
ATOM     70  C   UNL A   1      44.561  35.414  30.750  1.00  0.00     0.059 A 
ATOM     71  C   UNL A   1      43.820  34.785  32.974  1.00  0.00     0.059 A 
ATOM     72  F   UNL A   1      43.322  32.543  33.445  1.00  0.00    -0.206 F 
ATOM     73  C   UNL A   1      44.255  35.752  32.069  1.00  0.00     0.060 A 
BRANCH  73  74
ATOM     74  S   UNL A   1      44.419  37.476  32.576  1.00  0.00     0.124 S 
ATOM     75  O   UNL A   1      45.760  37.484  33.153  1.00  0.00    -0.237 OA
ATOM     76  O   UNL A   1      44.270  38.188  31.311  1.00  0.00    -0.237 OA
ATOM     77  O   UNL A   1      43.326  37.657  33.526  1.00  0.00    -0.744 OA
ENDBRANCH  73  74
ENDBRANCH  52  66
BRANCH  53  78
ATOM     78  C   UNL A   1      42.566  23.775  27.791  1.00  0.00     0.058 A 
ATOM     79  C   UNL A   1      42.551  23.551  26.406  1.00  0.00     0.135 A 
ATOM     80  C   UNL A   1      42.404  22.662  28.631  1.00  0.00     0.135 A 
ATOM     81  F   UNL A   1      42.701  24.581  25.559  1.00  0.00    -0.206 F 
ATOM     82  C   UNL A   1      42.360  22.280  25.872  1.00  0.00     0.059 A 
ATOM     83  C   UNL A   1      42.239  21.378  28.122  1.00  0.00     0.059 A 
ATOM     84  F   UNL A   1      42.433  22.815  29.964  1.00  0.00    -0.206 F 
ATOM     85  C   UNL A   1      42.205  21.198  26.740  1.00  0.00     0.060 A 
BRANCH  85  86
ATOM     86  S   UNL A   1      41.999  19.546  26.038  1.00  0.00     0.124 S 
ATOM     87  O   UNL A   1      40.564  19.511  25.788  1.00  0.00    -0.237 OA
ATOM     88  O   UNL A   1      42.854  19.606  24.856  1.00  0.00    -0.237 OA
ATOM     89  O   UNL A   1      42.477  18.669  27.103  1.00  0.00    -0.744 OA
ENDBRANCH  85  86
ENDBRANCH  53  78
BRANCH  65  90
ATOM     90  C   UNL A   1      47.970  27.077  30.708  1.00  0.00     0.058 A 
ATOM     91  C   UNL A   1      49.041  27.266  29.822  1.00  0.00     0.135 A 
ATOM     92  C   UNL A   1      48.240  26.476  31.948  1.00  0.00     0.135 A 
ATOM     93  F   UNL A   1      48.834  27.834  28.623  1.00  0.00    -0.206 F 
ATOM     94  C   UNL A   1      50.326  26.838  30.136  1.00  0.00     0.059 A 
ATOM     95  C   UNL A   1      49.523  26.069  32.296  1.00  0.00     0.059 A 
ATOM     96  F   UNL A   1      47.252  26.287  32.838  1.00  0.00    -0.206 F 
ATOM     97  C   UNL A   1      50.556  26.237  31.375  1.00  0.00     0.060 A 
BRANCH  97  98
ATOM     98  S   UNL A   1      52.228  25.689  31.773  1.00  0.00     0.124 S 
ATOM     99  O   UNL A   1      52.926  25.947  30.518  1.00  0.00    -0.237 OA
ATOM    100  O   UNL A   1      52.585  26.560  32.889  1.00  0.00    -0.237 OA
ATOM    101  O   UNL A   1      52.051  24.281  32.116  1.00  0.00    -0.744 OA
ENDBRANCH  97  98
ENDBRANCH  65  90
ENDBRANCH  39  40
ENDBRANCH  31  34
ENDBRANCH  29  30
ENDBRANCH   1  29
TORSDOF 16
ENDMDL
MODEL 3
REMARK VINA RESULT:     -12.3      3.035      4.309
REMARK SMILES O=C(NCCCNC(=O)c1ccc(-c2c3nc(c(-c4c(F)cc(S(=O)(=O)[O-])cc4F)c4ccc([nH]4)c(-c4c(F)cc(S(=O)(=O)[O-])cc4F)c4nc(c(-c5c(F)cc(S(=O)(=O)[O-])cc5F)c5ccc2[nH]5)C=C4)C=C3)cc1)C1=Cc2c(ccc(Cl)c2Sc2ccccc2)O[C@H]1C(F)(F)F
REMARK SMILES IDX 5 1 4 2 3 3 1 4 2 5 76 7 77 8 93 9 78 10 92 11 79 12 84 13
REMARK SMILES IDX 80 14 82 15 81 16 83 17 94 18 95 19 96 20 97 21 85 22 86 23
REMARK SMILES IDX 87 24 91 25 88 26 90 27 89 28 6 29 7 30 8 31 9 33 10 34
REMARK SMILES IDX 11 35 75 36 12 37 74 38 13 39 14 40 15 41 68 42 16 43 73 44
REMARK SMILES IDX 67 45 69 46 17 47 72 48 66 49 65 50 18 52 52 53 31 54 51 55
REMARK SMILES IDX 32 56 35 57 50 58 70 59 33 60 34 61 49 63 71 64 36 65 19 66
REMARK SMILES IDX 20 67 29 68 21 69 22 70 28 71 30 72 23 73 24 74 25 75 26 76
REMARK SMILES IDX 27 77 53 78 54 79 63 80 55 81 56 82 62 83 64 84 57 85 58 86
REMARK SMILES IDX 59 87 60 88 61 89 37 90 38 91 47 92 39 93 40 94 46 95 48 96
REMARK SMILES IDX 41 97 42 98 43 99 44 100 45 101
REMARK H PARENT 3 6 7 32 69 51 35 62
REMARK Flexibility Score: inf
ROOT
ATOM      1  C   UNL A   1      36.210  23.260  23.644  1.00  0.00     0.042 C 
ENDROOT
BRANCH   1   2
ATOM      2  C   UNL A   1      34.807  23.838  23.659  1.00  0.00     0.118 C 
BRANCH   2   3
ATOM      3  N   UNL A   1      33.795  22.944  23.136  1.00  0.00    -0.352 N 
ATOM      4  O   UNL A   1      31.801  21.941  22.902  1.00  0.00    -0.270 OA
ATOM      5  C   UNL A   1      32.477  22.805  23.455  1.00  0.00     0.251 C 
ATOM      6  H   UNL A   1      34.111  22.333  22.431  1.00  0.00     0.163 HD
BRANCH   5   7
ATOM      7  C   UNL A   1      31.850  23.654  24.483  1.00  0.00     0.067 C 
ATOM      8  C   UNL A   1      31.157  24.758  24.182  1.00  0.00     0.026 C 
ATOM      9  C   UNL A   1      32.191  23.426  25.915  1.00  0.00     0.314 C 
ATOM     10  C   UNL A   1      31.922  25.961  24.584  1.00  0.00     0.033 A 
ATOM     11  O   UNL A   1      32.702  24.656  26.531  1.00  0.00    -0.475 OA
ATOM     12  C   UNL A   1      32.717  25.800  25.751  1.00  0.00     0.129 A 
ATOM     13  C   UNL A   1      32.060  27.088  23.729  1.00  0.00     0.042 A 
ATOM     14  C   UNL A   1      33.668  26.753  26.080  1.00  0.00     0.049 A 
ATOM     15  C   UNL A   1      33.084  28.005  24.069  1.00  0.00     0.055 A 
ATOM     16  C   UNL A   1      33.872  27.834  25.223  1.00  0.00     0.025 A 
ATOM     17  Cl  UNL A   1      33.525  29.342  23.053  1.00  0.00    -0.083 Cl
BRANCH   9  18
ATOM     18  C   UNL A   1      30.971  22.889  26.687  1.00  0.00     0.429 C 
ATOM     19  F   UNL A   1      30.308  21.924  26.003  1.00  0.00    -0.167 F 
ATOM     20  F   UNL A   1      31.332  22.348  27.873  1.00  0.00    -0.167 F 
ATOM     21  F   UNL A   1      30.068  23.867  26.947  1.00  0.00    -0.167 F 
ENDBRANCH   9  18
BRANCH  13  22
ATOM     22  S   UNL A   1      31.177  27.322  22.147  1.00  0.00    -0.088 SA
BRANCH  22  23
ATOM     23  C   UNL A   1      29.881  28.506  22.449  1.00  0.00     0.012 A 
ATOM     24  C   UNL A   1      29.981  29.801  21.917  1.00  0.00     0.015 A 
ATOM     25  C   UNL A   1      28.701  28.114  23.090  1.00  0.00     0.015 A 
ATOM     26  C   UNL A   1      28.869  30.647  21.919  1.00  0.00     0.001 A 
ATOM     27  C   UNL A   1      27.592  28.965  23.095  1.00  0.00     0.001 A 
ATOM     28  C   UNL A   1      27.669  30.219  22.488  1.00  0.00     0.000 A 
ENDBRANCH  22  23
ENDBRANCH  13  22
ENDBRANCH   5   7
ENDBRANCH   2   3
ENDBRANCH   1   2
BRANCH   1  29
ATOM     29  C   UNL A   1      37.030  23.701  24.843  1.00  0.00     0.118 C 
BRANCH  29  30
ATOM     30  N   UNL A   1      38.116  22.791  25.199  1.00  0.00    -0.352 N 
ATOM     31  C   UNL A   1      39.195  22.965  26.037  1.00  0.00     0.251 C 
ATOM     32  H   UNL A   1      38.069  21.906  24.770  1.00  0.00     0.163 HD
ATOM     33  O   UNL A   1      40.009  22.052  26.163  1.00  0.00    -0.269 OA
BRANCH  31  34
ATOM     34  C   UNL A   1      39.414  24.250  26.738  1.00  0.00     0.039 A 
ATOM     35  C   UNL A   1      38.923  24.406  28.037  1.00  0.00     0.014 A 
ATOM     36  C   UNL A   1      40.130  25.288  26.146  1.00  0.00     0.014 A 
ATOM     37  C   UNL A   1      39.233  25.559  28.763  1.00  0.00     0.010 A 
ATOM     38  C   UNL A   1      40.568  26.355  26.917  1.00  0.00     0.010 A 
ATOM     39  C   UNL A   1      40.108  26.518  28.228  1.00  0.00    -0.014 A 
BRANCH  39  40
ATOM     40  C   UNL A   1      40.535  27.709  29.007  1.00  0.00     0.031 A 
ATOM     41  C   UNL A   1      41.881  27.719  29.689  1.00  0.00     0.074 A 
ATOM     42  C   UNL A   1      39.684  28.744  29.163  1.00  0.00     0.049 A 
ATOM     43  N   UNL A   1      42.404  28.627  30.473  1.00  0.00    -0.248 NA
ATOM     44  C   UNL A   1      42.734  26.529  29.511  1.00  0.00     0.031 C 
ATOM     45  C   UNL A   1      38.319  28.810  28.630  1.00  0.00     0.029 A 
ATOM     46  N   UNL A   1      39.836  29.940  29.818  1.00  0.00    -0.354 N 
ATOM     47  C   UNL A   1      43.620  28.103  30.899  1.00  0.00     0.074 A 
ATOM     48  C   UNL A   1      43.726  26.772  30.352  1.00  0.00     0.031 C 
ATOM     49  C   UNL A   1      37.779  30.000  28.940  1.00  0.00     0.029 A 
ATOM     50  C   UNL A   1      38.739  30.766  29.726  1.00  0.00     0.049 A 
ATOM     51  H   UNL A   1      40.655  30.184  30.307  1.00  0.00     0.167 HD
ATOM     52  C   UNL A   1      44.582  28.694  31.647  1.00  0.00     0.037 A 
ATOM     53  C   UNL A   1      38.534  32.003  30.218  1.00  0.00     0.037 A 
ATOM     54  C   UNL A   1      44.492  30.047  32.130  1.00  0.00     0.049 A 
ATOM     55  C   UNL A   1      39.644  32.664  30.987  1.00  0.00     0.074 A 
ATOM     56  C   UNL A   1      45.444  30.780  32.816  1.00  0.00     0.029 A 
ATOM     57  N   UNL A   1      43.389  30.871  31.966  1.00  0.00    -0.354 N 
ATOM     58  N   UNL A   1      40.823  32.185  31.310  1.00  0.00    -0.248 NA
ATOM     59  C   UNL A   1      39.405  34.038  31.449  1.00  0.00     0.031 C 
ATOM     60  C   UNL A   1      44.899  32.035  33.104  1.00  0.00     0.029 A 
ATOM     61  C   UNL A   1      43.628  32.102  32.553  1.00  0.00     0.049 A 
ATOM     62  H   UNL A   1      42.559  30.620  31.501  1.00  0.00     0.167 HD
ATOM     63  C   UNL A   1      41.473  33.205  31.995  1.00  0.00     0.074 A 
ATOM     64  C   UNL A   1      40.565  34.335  32.016  1.00  0.00     0.031 C 
ATOM     65  C   UNL A   1      42.705  33.209  32.561  1.00  0.00     0.037 A 
BRANCH  52  66
ATOM     66  C   UNL A   1      45.817  27.896  31.966  1.00  0.00     0.058 A 
ATOM     67  C   UNL A   1      46.977  27.982  31.179  1.00  0.00     0.135 A 
ATOM     68  C   UNL A   1      45.856  27.061  33.095  1.00  0.00     0.135 A 
ATOM     69  F   UNL A   1      46.992  28.748  30.076  1.00  0.00    -0.206 F 
ATOM     70  C   UNL A   1      48.122  27.252  31.484  1.00  0.00     0.059 A 
ATOM     71  C   UNL A   1      47.001  26.346  33.436  1.00  0.00     0.059 A 
ATOM     72  F   UNL A   1      44.775  26.936  33.880  1.00  0.00    -0.206 F 
ATOM     73  C   UNL A   1      48.125  26.439  32.618  1.00  0.00     0.060 A 
BRANCH  73  74
ATOM     74  S   UNL A   1      49.627  25.520  33.012  1.00  0.00     0.124 S 
ATOM     75  O   UNL A   1      49.818  24.738  31.795  1.00  0.00    -0.237 OA
ATOM     76  O   UNL A   1      50.596  26.587  33.237  1.00  0.00    -0.237 OA
ATOM     77  O   UNL A   1      49.256  24.754  34.198  1.00  0.00    -0.744 OA
ENDBRANCH  73  74
ENDBRANCH  52  66
BRANCH  53  78
ATOM     78  C   UNL A   1      37.245  32.704  29.968  1.00  0.00     0.058 A 
ATOM     79  C   UNL A   1      36.139  32.506  30.809  1.00  0.00     0.135 A 
ATOM     80  C   UNL A   1      37.093  33.594  28.893  1.00  0.00     0.135 A 
ATOM     81  F   UNL A   1      36.231  31.665  31.851  1.00  0.00    -0.206 F 
ATOM     82  C   UNL A   1      34.923  33.145  30.582  1.00  0.00     0.059 A 
ATOM     83  C   UNL A   1      35.898  34.266  28.662  1.00  0.00     0.059 A 
ATOM     84  F   UNL A   1      38.126  33.838  28.071  1.00  0.00    -0.206 F 
ATOM     85  C   UNL A   1      34.813  34.024  29.504  1.00  0.00     0.060 A 
BRANCH  85  86
ATOM     86  S   UNL A   1      33.244  34.881  29.241  1.00  0.00     0.124 S 
ATOM     87  O   UNL A   1      32.685  34.888  30.587  1.00  0.00    -0.237 OA
ATOM     88  O   UNL A   1      33.683  36.174  28.723  1.00  0.00    -0.237 OA
ATOM     89  O   UNL A   1      32.556  34.029  28.275  1.00  0.00    -0.744 OA
ENDBRANCH  85  86
ENDBRANCH  53  78
BRANCH  65  90
ATOM     90  C   UNL A   1      43.147  34.481  33.227  1.00  0.00     0.058 A 
ATOM     91  C   UNL A   1      43.818  35.489  32.518  1.00  0.00     0.135 A 
ATOM     92  C   UNL A   1      42.870  34.705  34.586  1.00  0.00     0.135 A 
ATOM     93  F   UNL A   1      44.107  35.322  31.217  1.00  0.00    -0.206 F 
ATOM     94  C   UNL A   1      44.235  36.659  33.142  1.00  0.00     0.059 A 
ATOM     95  C   UNL A   1      43.252  35.881  35.223  1.00  0.00     0.059 A 
ATOM     96  F   UNL A   1      42.217  33.778  35.306  1.00  0.00    -0.206 F 
ATOM     97  C   UNL A   1      43.950  36.843  34.496  1.00  0.00     0.060 A 
BRANCH  97  98
ATOM     98  S   UNL A   1      44.495  38.367  35.294  1.00  0.00     0.124 S 
ATOM     99  O   UNL A   1      45.932  38.330  35.045  1.00  0.00    -0.237 OA
ATOM    100  O   UNL A   1      43.750  39.387  34.561  1.00  0.00    -0.237 OA
ATOM    101  O   UNL A   1      44.093  38.184  36.686  1.00  0.00    -0.744 OA
ENDBRANCH  97  98
ENDBRANCH  65  90
ENDBRANCH  39  40
ENDBRANCH  31  34
ENDBRANCH  29  30
ENDBRANCH   1  29
TORSDOF 16
ENDMDL
