MODEL 1
REMARK VINA RESULT:     -11.7      0.000      0.000
REMARK SMILES CC1(C)CCC[C@H]1NS(=O)(=O)c1cccc(C(=O)NCCCNC(=O)c2ccc(-c3c4nc(c(-c5c(F)cc(S(=O)(=O)[O-])cc5F)c5ccc([nH]5)c(-c5c(F)cc(S(=O)(=O)[O-])cc5F)c5nc(c(-c6c(F)cc(S(=O)(=O)[O-])cc6F)c6ccc3[nH]6)C=C5)C=C4)cc2)c1
REMARK SMILES IDX 21 1 20 2 19 3 17 4 18 5 16 7 12 8 13 9 92 10 14 11 15 12
REMARK SMILES IDX 9 13 10 14 11 15 8 16 7 18 1 19 2 20 3 21 4 22 5 23 6 24
REMARK SMILES IDX 22 25 23 26 24 27 25 29 26 30 27 31 91 32 28 33 90 34 29 35
REMARK SMILES IDX 30 36 31 37 84 38 32 39 89 40 83 41 85 42 33 43 88 44 82 45
REMARK SMILES IDX 81 46 34 48 68 49 47 50 67 51 48 52 51 53 66 54 86 55 49 56
REMARK SMILES IDX 50 57 65 59 87 60 52 61 35 62 36 63 45 64 37 65 38 66 44 67
REMARK SMILES IDX 46 68 39 69 40 70 41 71 42 72 43 73 69 74 70 75 79 76 71 77
REMARK SMILES IDX 72 78 78 79 80 80 73 81 74 82 75 83 76 84 77 85 53 86 54 87
REMARK SMILES IDX 63 88 55 89 56 90 62 91 64 92 57 93 58 94 59 95 60 96 61 97
REMARK H PARENT 19 6 8 17 23 28 85 47 51 58
REMARK Flexibility Score: inf
ROOT
ATOM      1  C   UNL A   1      34.528  32.673  28.039  1.00  0.00     0.042 C 
ENDROOT
BRANCH   1   2
ATOM      2  C   UNL A   1      34.834  34.160  28.106  1.00  0.00     0.118 C 
BRANCH   2   3
ATOM      3  N   UNL A   1      33.655  35.030  28.078  1.00  0.00    -0.352 N 
ATOM      4  C   UNL A   1      33.081  35.852  29.025  1.00  0.00     0.251 C 
ATOM      5  O   UNL A   1      32.056  36.470  28.747  1.00  0.00    -0.269 OA
ATOM      6  H   UNL A   1      33.182  35.028  27.215  1.00  0.00     0.163 HD
BRANCH   4   7
ATOM      7  C   UNL A   1      33.635  35.959  30.397  1.00  0.00     0.041 A 
ATOM      8  C   UNL A   1      34.545  34.863  32.328  1.00  0.00     0.083 A 
ATOM      9  C   UNL A   1      34.206  35.940  33.143  1.00  0.00     0.022 A 
ATOM     10  C   UNL A   1      34.388  34.933  30.945  1.00  0.00     0.035 A 
ATOM     11  C   UNL A   1      33.650  37.078  32.551  1.00  0.00     0.002 A 
ATOM     12  C   UNL A   1      33.328  37.073  31.187  1.00  0.00     0.014 A 
BRANCH   8  13
ATOM     13  S   UNL A   1      34.978  33.268  32.952  1.00  0.00     0.240 S 
ATOM     14  O   UNL A   1      34.029  32.327  32.402  1.00  0.00    -0.207 OA
ATOM     15  O   UNL A   1      35.136  33.427  34.380  1.00  0.00    -0.207 OA
BRANCH  13  16
ATOM     16  N   UNL A   1      36.499  32.919  32.363  1.00  0.00    -0.208 NA
ATOM     17  H   UNL A   1      36.852  32.146  32.929  1.00  0.00     0.141 HD
BRANCH  16  18
ATOM     18  C   UNL A   1      37.571  33.914  32.320  1.00  0.00     0.075 C 
ATOM     19  C   UNL A   1      38.575  32.394  34.202  1.00  0.00     0.013 C 
ATOM     20  C   UNL A   1      38.834  33.396  33.065  1.00  0.00    -0.019 C 
ATOM     21  C   UNL A   1      39.603  34.593  33.662  1.00  0.00     0.013 C 
ATOM     22  C   UNL A   1      39.642  32.733  31.938  1.00  0.00     0.008 C 
ATOM     23  C   UNL A   1      39.460  33.660  30.749  1.00  0.00     0.002 C 
ATOM     24  C   UNL A   1      38.037  34.187  30.879  1.00  0.00     0.020 C 
ENDBRANCH  16  18
ENDBRANCH  13  16
ENDBRANCH   8  13
ENDBRANCH   4   7
ENDBRANCH   2   3
ENDBRANCH   1   2
BRANCH   1  25
ATOM     25  C   UNL A   1      35.678  31.765  28.434  1.00  0.00     0.118 C 
BRANCH  25  26
ATOM     26  N   UNL A   1      35.530  31.201  29.769  1.00  0.00    -0.352 N 
ATOM     27  C   UNL A   1      36.346  30.388  30.519  1.00  0.00     0.251 C 
ATOM     28  H   UNL A   1      34.689  31.448  30.219  1.00  0.00     0.163 HD
ATOM     29  O   UNL A   1      35.905  29.915  31.564  1.00  0.00    -0.269 OA
BRANCH  27  30
ATOM     30  C   UNL A   1      37.726  30.055  30.091  1.00  0.00     0.039 A 
ATOM     31  C   UNL A   1      38.638  29.601  31.053  1.00  0.00     0.014 A 
ATOM     32  C   UNL A   1      38.156  30.234  28.776  1.00  0.00     0.014 A 
ATOM     33  C   UNL A   1      39.944  29.266  30.682  1.00  0.00     0.010 A 
ATOM     34  C   UNL A   1      39.423  29.805  28.388  1.00  0.00     0.010 A 
ATOM     35  C   UNL A   1      40.339  29.329  29.337  1.00  0.00    -0.014 A 
BRANCH  35  36
ATOM     36  C   UNL A   1      41.702  28.927  28.898  1.00  0.00     0.031 A 
ATOM     37  C   UNL A   1      42.801  29.955  28.812  1.00  0.00     0.074 A 
ATOM     38  C   UNL A   1      41.932  27.660  28.499  1.00  0.00     0.049 A 
ATOM     39  N   UNL A   1      44.014  29.832  28.339  1.00  0.00    -0.248 NA
ATOM     40  C   UNL A   1      42.479  31.312  29.286  1.00  0.00     0.031 C 
ATOM     41  C   UNL A   1      40.940  26.583  28.477  1.00  0.00     0.029 A 
ATOM     42  N   UNL A   1      43.074  27.067  28.018  1.00  0.00    -0.354 N 
ATOM     43  C   UNL A   1      44.586  31.098  28.423  1.00  0.00     0.074 A 
ATOM     44  C   UNL A   1      43.572  31.983  28.954  1.00  0.00     0.031 C 
ATOM     45  C   UNL A   1      41.519  25.459  28.027  1.00  0.00     0.029 A 
ATOM     46  C   UNL A   1      42.913  25.740  27.695  1.00  0.00     0.049 A 
ATOM     47  H   UNL A   1      43.927  27.547  27.913  1.00  0.00     0.167 HD
ATOM     48  C   UNL A   1      45.845  31.483  28.107  1.00  0.00     0.037 A 
ATOM     49  C   UNL A   1      43.786  24.852  27.183  1.00  0.00     0.037 A 
ATOM     50  C   UNL A   1      46.868  30.589  27.634  1.00  0.00     0.049 A 
ATOM     51  C   UNL A   1      45.196  25.289  26.898  1.00  0.00     0.074 A 
ATOM     52  C   UNL A   1      48.195  30.866  27.358  1.00  0.00     0.029 A 
ATOM     53  N   UNL A   1      46.680  29.238  27.382  1.00  0.00    -0.354 N 
ATOM     54  N   UNL A   1      45.732  26.479  27.030  1.00  0.00    -0.248 NA
ATOM     55  C   UNL A   1      46.123  24.262  26.403  1.00  0.00     0.031 C 
ATOM     56  C   UNL A   1      48.805  29.687  26.914  1.00  0.00     0.029 A 
ATOM     57  C   UNL A   1      47.865  28.668  26.947  1.00  0.00     0.049 A 
ATOM     58  H   UNL A   1      45.830  28.754  27.493  1.00  0.00     0.167 HD
ATOM     59  C   UNL A   1      47.063  26.339  26.656  1.00  0.00     0.074 A 
ATOM     60  C   UNL A   1      47.254  24.947  26.303  1.00  0.00     0.031 C 
ATOM     61  C   UNL A   1      48.040  27.279  26.610  1.00  0.00     0.037 A 
BRANCH  48  62
ATOM     62  C   UNL A   1      46.189  32.938  28.278  1.00  0.00     0.058 A 
ATOM     63  C   UNL A   1      46.686  33.439  29.491  1.00  0.00     0.135 A 
ATOM     64  C   UNL A   1      46.044  33.837  27.208  1.00  0.00     0.135 A 
ATOM     65  F   UNL A   1      46.830  32.627  30.550  1.00  0.00    -0.206 F 
ATOM     66  C   UNL A   1      46.993  34.787  29.651  1.00  0.00     0.059 A 
ATOM     67  C   UNL A   1      46.369  35.184  27.338  1.00  0.00     0.059 A 
ATOM     68  F   UNL A   1      45.574  33.410  26.026  1.00  0.00    -0.206 F 
ATOM     69  C   UNL A   1      46.827  35.652  28.569  1.00  0.00     0.060 A 
BRANCH  69  70
ATOM     70  S   UNL A   1      47.227  37.400  28.789  1.00  0.00     0.124 S 
ATOM     71  O   UNL A   1      48.004  37.673  27.585  1.00  0.00    -0.237 OA
ATOM     72  O   UNL A   1      45.907  38.020  28.846  1.00  0.00    -0.237 OA
ATOM     73  O   UNL A   1      47.979  37.420  30.040  1.00  0.00    -0.744 OA
ENDBRANCH  69  70
ENDBRANCH  48  62
BRANCH  49  74
ATOM     74  C   UNL A   1      43.358  23.449  26.941  1.00  0.00     0.058 A 
ATOM     75  C   UNL A   1      43.083  22.996  25.643  1.00  0.00     0.135 A 
ATOM     76  C   UNL A   1      43.239  22.530  27.995  1.00  0.00     0.135 A 
ATOM     77  F   UNL A   1      43.178  23.841  24.605  1.00  0.00    -0.206 F 
ATOM     78  C   UNL A   1      42.693  21.685  25.395  1.00  0.00     0.059 A 
ATOM     79  C   UNL A   1      42.871  21.207  27.770  1.00  0.00     0.059 A 
ATOM     80  F   UNL A   1      43.508  22.910  29.253  1.00  0.00    -0.206 F 
ATOM     81  C   UNL A   1      42.591  20.796  26.467  1.00  0.00     0.060 A 
BRANCH  81  82
ATOM     82  S   UNL A   1      42.138  19.080  26.131  1.00  0.00     0.124 S 
ATOM     83  O   UNL A   1      40.719  19.206  25.820  1.00  0.00    -0.237 OA
ATOM     84  O   UNL A   1      43.011  18.743  25.011  1.00  0.00    -0.237 OA
ATOM     85  O   UNL A   1      42.452  18.400  27.385  1.00  0.00    -0.744 OA
ENDBRANCH  81  82
ENDBRANCH  49  74
BRANCH  61  86
ATOM     86  C   UNL A   1      49.409  26.827  26.191  1.00  0.00     0.058 A 
ATOM     87  C   UNL A   1      49.876  27.010  24.882  1.00  0.00     0.135 A 
ATOM     88  C   UNL A   1      50.279  26.244  27.126  1.00  0.00     0.135 A 
ATOM     89  F   UNL A   1      49.079  27.558  23.951  1.00  0.00    -0.206 F 
ATOM     90  C   UNL A   1      51.154  26.611  24.505  1.00  0.00     0.059 A 
ATOM     91  C   UNL A   1      51.570  25.856  26.777  1.00  0.00     0.059 A 
ATOM     92  F   UNL A   1      49.884  26.057  28.395  1.00  0.00    -0.206 F 
ATOM     93  C   UNL A   1      51.992  26.033  25.460  1.00  0.00     0.060 A 
BRANCH  93  94
ATOM     94  S   UNL A   1      53.660  25.543  24.969  1.00  0.00     0.124 S 
ATOM     95  O   UNL A   1      53.548  25.540  23.515  1.00  0.00    -0.237 OA
ATOM     96  O   UNL A   1      54.482  26.605  25.539  1.00  0.00    -0.237 OA
ATOM     97  O   UNL A   1      53.822  24.232  25.591  1.00  0.00    -0.744 OA
ENDBRANCH  93  94
ENDBRANCH  61  86
ENDBRANCH  35  36
ENDBRANCH  27  30
ENDBRANCH  25  26
ENDBRANCH   1  25
TORSDOF 16
ENDMDL
MODEL 2
REMARK VINA RESULT:     -11.6      6.680     13.373
REMARK SMILES CC1(C)CCC[C@H]1NS(=O)(=O)c1cccc(C(=O)NCCCNC(=O)c2ccc(-c3c4nc(c(-c5c(F)cc(S(=O)(=O)[O-])cc5F)c5ccc([nH]5)c(-c5c(F)cc(S(=O)(=O)[O-])cc5F)c5nc(c(-c6c(F)cc(S(=O)(=O)[O-])cc6F)c6ccc3[nH]6)C=C5)C=C4)cc2)c1
REMARK SMILES IDX 21 1 20 2 19 3 17 4 18 5 16 7 12 8 13 9 92 10 14 11 15 12
REMARK SMILES IDX 9 13 10 14 11 15 8 16 7 18 1 19 2 20 3 21 4 22 5 23 6 24
REMARK SMILES IDX 22 25 23 26 24 27 25 29 26 30 27 31 91 32 28 33 90 34 29 35
REMARK SMILES IDX 30 36 31 37 84 38 32 39 89 40 83 41 85 42 33 43 88 44 82 45
REMARK SMILES IDX 81 46 34 48 68 49 47 50 67 51 48 52 51 53 66 54 86 55 49 56
REMARK SMILES IDX 50 57 65 59 87 60 52 61 35 62 36 63 45 64 37 65 38 66 44 67
REMARK SMILES IDX 46 68 39 69 40 70 41 71 42 72 43 73 69 74 70 75 79 76 71 77
REMARK SMILES IDX 72 78 78 79 80 80 73 81 74 82 75 83 76 84 77 85 53 86 54 87
REMARK SMILES IDX 63 88 55 89 56 90 62 91 64 92 57 93 58 94 59 95 60 96 61 97
REMARK H PARENT 19 6 8 17 23 28 85 47 51 58
REMARK Flexibility Score: inf
ROOT
ATOM      1  C   UNL A   1      37.317  23.716  25.461  1.00  0.00     0.042 C 
ENDROOT
BRANCH   1   2
ATOM      2  C   UNL A   1      36.914  22.252  25.391  1.00  0.00     0.118 C 
BRANCH   2   3
ATOM      3  N   UNL A   1      36.028  21.810  26.470  1.00  0.00    -0.352 N 
ATOM      4  C   UNL A   1      34.653  21.755  26.584  1.00  0.00     0.251 C 
ATOM      5  O   UNL A   1      34.149  21.356  27.631  1.00  0.00    -0.269 OA
ATOM      6  H   UNL A   1      36.505  21.488  27.269  1.00  0.00     0.163 HD
BRANCH   4   7
ATOM      7  C   UNL A   1      33.766  22.230  25.494  1.00  0.00     0.041 A 
ATOM      8  C   UNL A   1      31.969  23.656  24.791  1.00  0.00     0.083 A 
ATOM      9  C   UNL A   1      31.703  22.839  23.694  1.00  0.00     0.022 A 
ATOM     10  C   UNL A   1      33.080  23.428  25.601  1.00  0.00     0.035 A 
ATOM     11  C   UNL A   1      32.544  21.749  23.453  1.00  0.00     0.002 A 
ATOM     12  C   UNL A   1      33.549  21.420  24.373  1.00  0.00     0.014 A 
BRANCH   8  13
ATOM     13  S   UNL A   1      30.846  24.881  25.388  1.00  0.00     0.240 S 
ATOM     14  O   UNL A   1      30.186  24.320  26.546  1.00  0.00    -0.207 OA
ATOM     15  O   UNL A   1      30.093  25.326  24.238  1.00  0.00    -0.207 OA
BRANCH  13  16
ATOM     16  N   UNL A   1      31.767  26.188  25.862  1.00  0.00    -0.208 NA
ATOM     17  H   UNL A   1      31.439  26.443  26.794  1.00  0.00     0.141 HD
BRANCH  16  18
ATOM     18  C   UNL A   1      31.818  27.431  25.093  1.00  0.00     0.075 C 
ATOM     19  C   UNL A   1      31.815  28.495  27.487  1.00  0.00     0.013 C 
ATOM     20  C   UNL A   1      32.209  28.628  26.007  1.00  0.00    -0.019 C 
ATOM     21  C   UNL A   1      31.561  29.919  25.464  1.00  0.00     0.013 C 
ATOM     22  C   UNL A   1      33.738  28.679  25.859  1.00  0.00     0.008 C 
ATOM     23  C   UNL A   1      33.985  28.386  24.390  1.00  0.00     0.002 C 
ATOM     24  C   UNL A   1      32.905  27.384  24.004  1.00  0.00     0.020 C 
ENDBRANCH  16  18
ENDBRANCH  13  16
ENDBRANCH   8  13
ENDBRANCH   4   7
ENDBRANCH   2   3
ENDBRANCH   1   2
BRANCH   1  25
ATOM     25  C   UNL A   1      38.319  24.052  26.551  1.00  0.00     0.118 C 
BRANCH  25  26
ATOM     26  N   UNL A   1      39.694  24.095  26.072  1.00  0.00    -0.352 N 
ATOM     27  C   UNL A   1      40.753  24.910  26.392  1.00  0.00     0.251 C 
ATOM     28  H   UNL A   1      39.905  23.414  25.393  1.00  0.00     0.163 HD
ATOM     29  O   UNL A   1      41.775  24.841  25.712  1.00  0.00    -0.269 OA
BRANCH  27  30
ATOM     30  C   UNL A   1      40.687  25.876  27.515  1.00  0.00     0.039 A 
ATOM     31  C   UNL A   1      41.626  26.914  27.567  1.00  0.00     0.014 A 
ATOM     32  C   UNL A   1      39.756  25.748  28.547  1.00  0.00     0.014 A 
ATOM     33  C   UNL A   1      41.585  27.850  28.606  1.00  0.00     0.010 A 
ATOM     34  C   UNL A   1      39.650  26.736  29.523  1.00  0.00     0.010 A 
ATOM     35  C   UNL A   1      40.571  27.792  29.574  1.00  0.00    -0.014 A 
BRANCH  35  36
ATOM     36  C   UNL A   1      40.463  28.802  30.660  1.00  0.00     0.031 A 
ATOM     37  C   UNL A   1      41.334  28.689  31.886  1.00  0.00     0.074 A 
ATOM     38  C   UNL A   1      39.528  29.771  30.585  1.00  0.00     0.049 A 
ATOM     39  N   UNL A   1      41.305  29.392  32.989  1.00  0.00    -0.248 NA
ATOM     40  C   UNL A   1      42.345  27.619  31.885  1.00  0.00     0.031 C 
ATOM     41  C   UNL A   1      38.584  29.955  29.481  1.00  0.00     0.029 A 
ATOM     42  N   UNL A   1      39.208  30.775  31.465  1.00  0.00    -0.354 N 
ATOM     43  C   UNL A   1      42.264  28.828  33.824  1.00  0.00     0.074 A 
ATOM     44  C   UNL A   1      42.827  27.698  33.117  1.00  0.00     0.031 C 
ATOM     45  C   UNL A   1      37.805  31.018  29.740  1.00  0.00     0.029 A 
ATOM     46  C   UNL A   1      38.169  31.570  31.041  1.00  0.00     0.049 A 
ATOM     47  H   UNL A   1      39.678  30.913  32.319  1.00  0.00     0.167 HD
ATOM     48  C   UNL A   1      42.654  29.225  35.059  1.00  0.00     0.037 A 
ATOM     49  C   UNL A   1      37.572  32.621  31.635  1.00  0.00     0.037 A 
ATOM     50  C   UNL A   1      42.132  30.383  35.735  1.00  0.00     0.049 A 
ATOM     51  C   UNL A   1      38.064  33.081  32.979  1.00  0.00     0.074 A 
ATOM     52  C   UNL A   1      42.514  30.914  36.955  1.00  0.00     0.029 A 
ATOM     53  N   UNL A   1      41.125  31.199  35.243  1.00  0.00    -0.354 N 
ATOM     54  N   UNL A   1      39.005  32.565  33.733  1.00  0.00    -0.248 NA
ATOM     55  C   UNL A   1      37.420  34.272  33.551  1.00  0.00     0.031 C 
ATOM     56  C   UNL A   1      41.720  32.038  37.212  1.00  0.00     0.029 A 
ATOM     57  C   UNL A   1      40.867  32.226  36.135  1.00  0.00     0.049 A 
ATOM     58  H   UNL A   1      40.659  31.068  34.385  1.00  0.00     0.167 HD
ATOM     59  C   UNL A   1      39.082  33.380  34.856  1.00  0.00     0.074 A 
ATOM     60  C   UNL A   1      38.100  34.429  34.679  1.00  0.00     0.031 C 
ATOM     61  C   UNL A   1      39.893  33.268  35.938  1.00  0.00     0.037 A 
BRANCH  48  62
ATOM     62  C   UNL A   1      43.708  28.407  35.752  1.00  0.00     0.058 A 
ATOM     63  C   UNL A   1      45.077  28.659  35.565  1.00  0.00     0.135 A 
ATOM     64  C   UNL A   1      43.347  27.372  36.630  1.00  0.00     0.135 A 
ATOM     65  F   UNL A   1      45.477  29.625  34.725  1.00  0.00    -0.206 F 
ATOM     66  C   UNL A   1      46.051  27.893  36.198  1.00  0.00     0.059 A 
ATOM     67  C   UNL A   1      44.304  26.610  37.293  1.00  0.00     0.059 A 
ATOM     68  F   UNL A   1      42.053  27.089  36.845  1.00  0.00    -0.206 F 
ATOM     69  C   UNL A   1      45.655  26.868  37.057  1.00  0.00     0.060 A 
BRANCH  69  70
ATOM     70  S   UNL A   1      46.928  25.879  37.870  1.00  0.00     0.124 S 
ATOM     71  O   UNL A   1      47.449  25.101  36.750  1.00  0.00    -0.237 OA
ATOM     72  O   UNL A   1      47.825  26.899  38.405  1.00  0.00    -0.237 OA
ATOM     73  O   UNL A   1      46.182  25.119  38.868  1.00  0.00    -0.744 OA
ENDBRANCH  69  70
ENDBRANCH  48  62
BRANCH  49  74
ATOM     74  C   UNL A   1      36.464  33.331  30.944  1.00  0.00     0.058 A 
ATOM     75  C   UNL A   1      35.143  33.217  31.399  1.00  0.00     0.135 A 
ATOM     76  C   UNL A   1      36.705  34.154  29.833  1.00  0.00     0.135 A 
ATOM     77  F   UNL A   1      34.864  32.436  32.454  1.00  0.00    -0.206 F 
ATOM     78  C   UNL A   1      34.095  33.882  30.773  1.00  0.00     0.059 A 
ATOM     79  C   UNL A   1      35.677  34.847  29.202  1.00  0.00     0.059 A 
ATOM     80  F   UNL A   1      37.955  34.310  29.370  1.00  0.00    -0.206 F 
ATOM     81  C   UNL A   1      34.373  34.698  29.674  1.00  0.00     0.060 A 
BRANCH  81  82
ATOM     82  S   UNL A   1      33.015  35.603  28.901  1.00  0.00     0.124 S 
ATOM     83  O   UNL A   1      33.734  36.608  28.128  1.00  0.00    -0.237 OA
ATOM     84  O   UNL A   1      32.348  34.559  28.128  1.00  0.00    -0.237 OA
ATOM     85  O   UNL A   1      32.256  36.106  30.042  1.00  0.00    -0.744 OA
ENDBRANCH  81  82
ENDBRANCH  49  74
BRANCH  61  86
ATOM     86  C   UNL A   1      39.774  34.326  36.997  1.00  0.00     0.058 A 
ATOM     87  C   UNL A   1      39.038  34.111  38.171  1.00  0.00     0.135 A 
ATOM     88  C   UNL A   1      40.444  35.551  36.854  1.00  0.00     0.135 A 
ATOM     89  F   UNL A   1      38.375  32.957  38.351  1.00  0.00    -0.206 F 
ATOM     90  C   UNL A   1      38.949  35.085  39.160  1.00  0.00     0.059 A 
ATOM     91  C   UNL A   1      40.388  36.531  37.841  1.00  0.00     0.059 A 
ATOM     92  F   UNL A   1      41.171  35.801  35.754  1.00  0.00    -0.206 F 
ATOM     93  C   UNL A   1      39.627  36.293  38.984  1.00  0.00     0.060 A 
BRANCH  93  94
ATOM     94  S   UNL A   1      39.530  37.541  40.286  1.00  0.00     0.124 S 
ATOM     95  O   UNL A   1      40.940  37.836  40.514  1.00  0.00    -0.237 OA
ATOM     96  O   UNL A   1      38.755  38.601  39.650  1.00  0.00    -0.237 OA
ATOM     97  O   UNL A   1      38.849  36.842  41.372  1.00  0.00    -0.744 OA
ENDBRANCH  93  94
ENDBRANCH  61  86
ENDBRANCH  35  36
ENDBRANCH  27  30
ENDBRANCH  25  26
ENDBRANCH   1  25
TORSDOF 16
ENDMDL
MODEL 3
REMARK VINA RESULT:     -11.6      2.202      8.546
REMARK SMILES CC1(C)CCC[C@H]1NS(=O)(=O)c1cccc(C(=O)NCCCNC(=O)c2ccc(-c3c4nc(c(-c5c(F)cc(S(=O)(=O)[O-])cc5F)c5ccc([nH]5)c(-c5c(F)cc(S(=O)(=O)[O-])cc5F)c5nc(c(-c6c(F)cc(S(=O)(=O)[O-])cc6F)c6ccc3[nH]6)C=C5)C=C4)cc2)c1
REMARK SMILES IDX 21 1 20 2 19 3 17 4 18 5 16 7 12 8 13 9 92 10 14 11 15 12
REMARK SMILES IDX 9 13 10 14 11 15 8 16 7 18 1 19 2 20 3 21 4 22 5 23 6 24
REMARK SMILES IDX 22 25 23 26 24 27 25 29 26 30 27 31 91 32 28 33 90 34 29 35
REMARK SMILES IDX 30 36 31 37 84 38 32 39 89 40 83 41 85 42 33 43 88 44 82 45
REMARK SMILES IDX 81 46 34 48 68 49 47 50 67 51 48 52 51 53 66 54 86 55 49 56
REMARK SMILES IDX 50 57 65 59 87 60 52 61 35 62 36 63 45 64 37 65 38 66 44 67
REMARK SMILES IDX 46 68 39 69 40 70 41 71 42 72 43 73 69 74 70 75 79 76 71 77
REMARK SMILES IDX 72 78 78 79 80 80 73 81 74 82 75 83 76 84 77 85 53 86 54 87
REMARK SMILES IDX 63 88 55 89 56 90 62 91 64 92 57 93 58 94 59 95 60 96 61 97
REMARK H PARENT 19 6 8 17 23 28 85 47 51 58
REMARK Flexibility Score: inf
ROOT
ATOM      1  C   UNL A   1      35.338  33.058  28.011  1.00  0.00     0.042 C 
ENDROOT
BRANCH   1   2
ATOM      2  C   UNL A   1      35.280  34.532  28.373  1.00  0.00     0.118 C 
BRANCH   2   3
ATOM      3  N   UNL A   1      33.954  35.142  28.249  1.00  0.00    -0.352 N 
ATOM      4  C   UNL A   1      33.165  35.845  29.137  1.00  0.00     0.251 C 
ATOM      5  O   UNL A   1      32.055  36.235  28.780  1.00  0.00    -0.269 OA
ATOM      6  H   UNL A   1      33.547  35.029  27.360  1.00  0.00     0.163 HD
BRANCH   4   7
ATOM      7  C   UNL A   1      33.597  36.085  30.535  1.00  0.00     0.041 A 
ATOM      8  C   UNL A   1      34.212  35.183  32.671  1.00  0.00     0.083 A 
ATOM      9  C   UNL A   1      33.905  36.384  33.307  1.00  0.00     0.022 A 
ATOM     10  C   UNL A   1      34.192  35.081  31.282  1.00  0.00     0.035 A 
ATOM     11  C   UNL A   1      33.521  37.476  32.523  1.00  0.00     0.002 A 
ATOM     12  C   UNL A   1      33.327  37.316  31.144  1.00  0.00     0.014 A 
BRANCH   8  13
ATOM     13  S   UNL A   1      34.427  33.654  33.530  1.00  0.00     0.240 S 
ATOM     14  O   UNL A   1      33.170  32.945  33.452  1.00  0.00    -0.207 OA
ATOM     15  O   UNL A   1      35.020  33.992  34.804  1.00  0.00    -0.207 OA
BRANCH  13  16
ATOM     16  N   UNL A   1      35.593  32.797  32.700  1.00  0.00    -0.208 NA
ATOM     17  H   UNL A   1      35.487  31.824  32.987  1.00  0.00     0.141 HD
BRANCH  16  18
ATOM     18  C   UNL A   1      37.020  33.102  32.813  1.00  0.00     0.075 C 
ATOM     19  C   UNL A   1      37.219  30.491  32.756  1.00  0.00     0.013 C 
ATOM     20  C   UNL A   1      37.879  31.851  32.474  1.00  0.00    -0.019 C 
ATOM     21  C   UNL A   1      39.199  31.905  33.271  1.00  0.00     0.013 C 
ATOM     22  C   UNL A   1      38.140  32.019  30.969  1.00  0.00     0.008 C 
ATOM     23  C   UNL A   1      38.382  33.508  30.793  1.00  0.00     0.002 C 
ATOM     24  C   UNL A   1      37.455  34.176  31.799  1.00  0.00     0.020 C 
ENDBRANCH  16  18
ENDBRANCH  13  16
ENDBRANCH   8  13
ENDBRANCH   4   7
ENDBRANCH   2   3
ENDBRANCH   1   2
BRANCH   1  25
ATOM     25  C   UNL A   1      34.880  32.112  29.108  1.00  0.00     0.118 C 
BRANCH  25  26
ATOM     26  N   UNL A   1      34.380  30.842  28.597  1.00  0.00    -0.352 N 
ATOM     27  C   UNL A   1      35.026  29.712  28.157  1.00  0.00     0.251 C 
ATOM     28  H   UNL A   1      33.398  30.782  28.560  1.00  0.00     0.163 HD
ATOM     29  O   UNL A   1      34.363  28.830  27.615  1.00  0.00    -0.269 OA
BRANCH  27  30
ATOM     30  C   UNL A   1      36.491  29.540  28.301  1.00  0.00     0.039 A 
ATOM     31  C   UNL A   1      36.991  28.987  29.487  1.00  0.00     0.014 A 
ATOM     32  C   UNL A   1      37.385  29.964  27.317  1.00  0.00     0.014 A 
ATOM     33  C   UNL A   1      38.368  28.800  29.651  1.00  0.00     0.010 A 
ATOM     34  C   UNL A   1      38.745  29.685  27.437  1.00  0.00     0.010 A 
ATOM     35  C   UNL A   1      39.256  29.112  28.610  1.00  0.00    -0.014 A 
BRANCH  35  36
ATOM     36  C   UNL A   1      40.720  28.874  28.729  1.00  0.00     0.031 A 
ATOM     37  C   UNL A   1      41.300  27.537  28.346  1.00  0.00     0.074 A 
ATOM     38  C   UNL A   1      41.514  29.827  29.256  1.00  0.00     0.049 A 
ATOM     39  N   UNL A   1      42.522  27.093  28.491  1.00  0.00    -0.248 NA
ATOM     40  C   UNL A   1      40.374  26.555  27.757  1.00  0.00     0.031 C 
ATOM     41  C   UNL A   1      41.068  31.142  29.720  1.00  0.00     0.029 A 
ATOM     42  N   UNL A   1      42.864  29.829  29.505  1.00  0.00    -0.354 N 
ATOM     43  C   UNL A   1      42.503  25.774  28.048  1.00  0.00     0.074 A 
ATOM     44  C   UNL A   1      41.138  25.477  27.669  1.00  0.00     0.031 C 
ATOM     45  C   UNL A   1      42.126  31.830  30.179  1.00  0.00     0.029 A 
ATOM     46  C   UNL A   1      43.319  30.995  30.074  1.00  0.00     0.049 A 
ATOM     47  H   UNL A   1      43.452  29.067  29.296  1.00  0.00     0.167 HD
ATOM     48  C   UNL A   1      43.530  24.898  27.947  1.00  0.00     0.037 A 
ATOM     49  C   UNL A   1      44.555  31.350  30.474  1.00  0.00     0.037 A 
ATOM     50  C   UNL A   1      44.896  25.215  28.271  1.00  0.00     0.049 A 
ATOM     51  C   UNL A   1      45.691  30.382  30.295  1.00  0.00     0.074 A 
ATOM     52  C   UNL A   1      46.021  24.422  28.132  1.00  0.00     0.029 A 
ATOM     53  N   UNL A   1      45.324  26.430  28.784  1.00  0.00    -0.354 N 
ATOM     54  N   UNL A   1      45.663  29.156  29.828  1.00  0.00    -0.248 NA
ATOM     55  C   UNL A   1      47.029  30.846  30.687  1.00  0.00     0.031 C 
ATOM     56  C   UNL A   1      47.129  25.149  28.585  1.00  0.00     0.029 A 
ATOM     57  C   UNL A   1      46.696  26.407  28.974  1.00  0.00     0.049 A 
ATOM     58  H   UNL A   1      44.740  27.196  28.986  1.00  0.00     0.167 HD
ATOM     59  C   UNL A   1      46.979  28.711  29.850  1.00  0.00     0.074 A 
ATOM     60  C   UNL A   1      47.781  29.802  30.365  1.00  0.00     0.031 C 
ATOM     61  C   UNL A   1      47.479  27.506  29.477  1.00  0.00     0.037 A 
BRANCH  48  62
ATOM     62  C   UNL A   1      43.216  23.512  27.452  1.00  0.00     0.058 A 
ATOM     63  C   UNL A   1      43.377  23.158  26.103  1.00  0.00     0.135 A 
ATOM     64  C   UNL A   1      42.770  22.520  28.341  1.00  0.00     0.135 A 
ATOM     65  F   UNL A   1      43.786  24.072  25.209  1.00  0.00    -0.206 F 
ATOM     66  C   UNL A   1      43.075  21.880  25.646  1.00  0.00     0.059 A 
ATOM     67  C   UNL A   1      42.485  21.228  27.909  1.00  0.00     0.059 A 
ATOM     68  F   UNL A   1      42.599  22.805  29.641  1.00  0.00    -0.206 F 
ATOM     69  C   UNL A   1      42.625  20.923  26.555  1.00  0.00     0.060 A 
BRANCH  69  70
ATOM     70  S   UNL A   1      42.233  19.268  25.948  1.00  0.00     0.124 S 
ATOM     71  O   UNL A   1      42.680  18.437  27.062  1.00  0.00    -0.237 OA
ATOM     72  O   UNL A   1      40.789  19.339  25.750  1.00  0.00    -0.237 OA
ATOM     73  O   UNL A   1      43.024  19.159  24.726  1.00  0.00    -0.744 OA
ENDBRANCH  69  70
ENDBRANCH  48  62
BRANCH  49  74
ATOM     74  C   UNL A   1      44.787  32.700  31.050  1.00  0.00     0.058 A 
ATOM     75  C   UNL A   1      44.735  32.908  32.436  1.00  0.00     0.135 A 
ATOM     76  C   UNL A   1      45.089  33.802  30.233  1.00  0.00     0.135 A 
ATOM     77  F   UNL A   1      44.444  31.887  33.255  1.00  0.00    -0.206 F 
ATOM     78  C   UNL A   1      44.960  34.162  32.995  1.00  0.00     0.059 A 
ATOM     79  C   UNL A   1      45.340  35.060  30.770  1.00  0.00     0.059 A 
ATOM     80  F   UNL A   1      45.169  33.650  28.902  1.00  0.00    -0.206 F 
ATOM     81  C   UNL A   1      45.265  35.233  32.152  1.00  0.00     0.060 A 
BRANCH  81  82
ATOM     82  S   UNL A   1      45.611  36.845  32.889  1.00  0.00     0.124 S 
ATOM     83  O   UNL A   1      46.351  36.467  34.087  1.00  0.00    -0.237 OA
ATOM     84  O   UNL A   1      46.385  37.504  31.842  1.00  0.00    -0.237 OA
ATOM     85  O   UNL A   1      44.280  37.400  33.117  1.00  0.00    -0.744 OA
ENDBRANCH  81  82
ENDBRANCH  49  74
BRANCH  61  86
ATOM     86  C   UNL A   1      48.965  27.317  29.583  1.00  0.00     0.058 A 
ATOM     87  C   UNL A   1      49.553  26.737  30.716  1.00  0.00     0.135 A 
ATOM     88  C   UNL A   1      49.803  27.679  28.516  1.00  0.00     0.135 A 
ATOM     89  F   UNL A   1      48.794  26.380  31.764  1.00  0.00    -0.206 F 
ATOM     90  C   UNL A   1      50.928  26.543  30.799  1.00  0.00     0.059 A 
ATOM     91  C   UNL A   1      51.178  27.474  28.569  1.00  0.00     0.059 A 
ATOM     92  F   UNL A   1      49.287  28.228  27.405  1.00  0.00    -0.206 F 
ATOM     93  C   UNL A   1      51.732  26.916  29.720  1.00  0.00     0.060 A 
BRANCH  93  94
ATOM     94  S   UNL A   1      53.513  26.634  29.826  1.00  0.00     0.124 S 
ATOM     95  O   UNL A   1      53.784  25.991  28.545  1.00  0.00    -0.237 OA
ATOM     96  O   UNL A   1      54.038  27.987  29.980  1.00  0.00    -0.237 OA
ATOM     97  O   UNL A   1      53.649  25.779  31.002  1.00  0.00    -0.744 OA
ENDBRANCH  93  94
ENDBRANCH  61  86
ENDBRANCH  35  36
ENDBRANCH  27  30
ENDBRANCH  25  26
ENDBRANCH   1  25
TORSDOF 16
ENDMDL
