MODEL 1
REMARK VINA RESULT:     -12.6      0.000      0.000
REMARK SMILES Cc1nc(-c2ccc(C(F)(F)F)cc2)nc(SCC(=O)NCCCNC(=O)c2ccc(-c3c4nc(c(-c5c(F)cc(S(=O)(=O)[O-])cc5F)c5ccc([nH]5)c(-c5c(F)cc(S(=O)(=O)[O-])cc5F)c5nc(c(-c6c(F)cc(S(=O)(=O)[O-])cc6F)c6ccc3[nH]6)C=C5)C=C4)cc2)c1C
REMARK SMILES IDX 22 1 21 2 19 3 20 4 18 6 17 7 16 8 1 9 2 10 3 11 94 12 4 13
REMARK SMILES IDX 95 14 15 15 5 16 6 17 14 18 7 19 13 20 8 21 9 22 10 23 11 24
REMARK SMILES IDX 12 25 23 26 24 27 25 28 26 29 27 31 28 32 29 33 93 34 30 35
REMARK SMILES IDX 92 36 31 37 32 38 33 39 86 40 34 41 91 42 85 43 87 44 35 45
REMARK SMILES IDX 90 46 84 47 83 48 36 50 70 51 49 52 69 53 50 54 53 55 68 56
REMARK SMILES IDX 88 57 51 58 52 59 67 61 89 62 54 63 37 64 38 65 47 66 39 67
REMARK SMILES IDX 40 68 46 69 48 70 41 71 42 72 43 73 44 74 45 75 71 76 72 77
REMARK SMILES IDX 81 78 73 79 74 80 80 81 82 82 75 83 76 84 77 85 78 86 79 87
REMARK SMILES IDX 55 88 56 89 65 90 57 91 58 92 64 93 66 94 59 95 60 96 61 97
REMARK SMILES IDX 62 98 63 99
REMARK H PARENT 21 5 25 30 87 49 53 60
REMARK Flexibility Score: inf
ROOT
ATOM      1  C   UNL A   1      33.342  30.424  26.954  1.00  0.00     0.117 C 
ENDROOT
BRANCH   1   2
ATOM      2  N   UNL A   1      32.327  29.623  27.612  1.00  0.00    -0.355 N 
ATOM      3  C   UNL A   1      31.738  28.466  27.212  1.00  0.00     0.230 C 
ATOM      4  O   UNL A   1      31.090  27.845  28.062  1.00  0.00    -0.274 OA
ATOM      5  H   UNL A   1      32.019  29.971  28.481  1.00  0.00     0.163 HD
BRANCH   3   6
ATOM      6  C   UNL A   1      31.951  27.884  25.831  1.00  0.00     0.176 C 
BRANCH   6   7
ATOM      7  S   UNL A   1      33.059  26.457  25.717  1.00  0.00    -0.096 SA
BRANCH   7   8
ATOM      8  C   UNL A   1      32.937  25.597  24.160  1.00  0.00     0.104 A 
ATOM      9  C   UNL A   1      32.719  25.341  20.389  1.00  0.00     0.067 C 
ATOM     10  C   UNL A   1      32.797  25.051  21.862  1.00  0.00     0.045 A 
ATOM     11  N   UNL A   1      32.961  23.745  22.137  1.00  0.00    -0.233 NA
ATOM     12  C   UNL A   1      32.768  26.045  22.851  1.00  0.00     0.003 A 
ATOM     13  C   UNL A   1      33.066  23.401  23.420  1.00  0.00     0.160 A 
ATOM     14  C   UNL A   1      32.640  27.472  22.440  1.00  0.00     0.049 C 
ATOM     15  N   UNL A   1      33.047  24.271  24.434  1.00  0.00    -0.221 NA
BRANCH  13  16
ATOM     16  C   UNL A   1      33.228  21.974  23.709  1.00  0.00     0.019 A 
ATOM     17  C   UNL A   1      32.290  21.040  23.234  1.00  0.00     0.012 A 
ATOM     18  C   UNL A   1      34.284  21.499  24.503  1.00  0.00     0.012 A 
ATOM     19  C   UNL A   1      32.392  19.683  23.551  1.00  0.00     0.014 A 
ATOM     20  C   UNL A   1      34.379  20.143  24.839  1.00  0.00     0.014 A 
ATOM     21  C   UNL A   1      33.430  19.222  24.373  1.00  0.00     0.056 A 
BRANCH  21  22
ATOM     22  C   UNL A   1      33.497  17.759  24.747  1.00  0.00     0.416 C 
ATOM     23  F   UNL A   1      33.188  17.552  26.059  1.00  0.00    -0.166 F 
ATOM     24  F   UNL A   1      32.635  16.990  24.032  1.00  0.00    -0.166 F 
ATOM     25  F   UNL A   1      34.732  17.211  24.572  1.00  0.00    -0.166 F 
ENDBRANCH  21  22
ENDBRANCH  13  16
ENDBRANCH   7   8
ENDBRANCH   6   7
ENDBRANCH   3   6
ENDBRANCH   1   2
BRANCH   1  26
ATOM     26  C   UNL A   1      34.760  30.006  27.326  1.00  0.00     0.042 C 
BRANCH  26  27
ATOM     27  C   UNL A   1      35.563  31.075  28.061  1.00  0.00     0.118 C 
BRANCH  27  28
ATOM     28  N   UNL A   1      35.484  30.953  29.511  1.00  0.00    -0.352 N 
ATOM     29  C   UNL A   1      36.335  30.341  30.401  1.00  0.00     0.251 C 
ATOM     30  H   UNL A   1      34.695  31.377  29.919  1.00  0.00     0.163 HD
ATOM     31  O   UNL A   1      35.983  30.198  31.567  1.00  0.00    -0.269 OA
BRANCH  29  32
ATOM     32  C   UNL A   1      37.653  29.839  29.956  1.00  0.00     0.039 A 
ATOM     33  C   UNL A   1      38.029  30.022  28.623  1.00  0.00     0.014 A 
ATOM     34  C   UNL A   1      38.509  29.177  30.839  1.00  0.00     0.014 A 
ATOM     35  C   UNL A   1      39.294  29.609  28.198  1.00  0.00     0.010 A 
ATOM     36  C   UNL A   1      39.799  28.841  30.436  1.00  0.00     0.010 A 
ATOM     37  C   UNL A   1      40.206  29.053  29.111  1.00  0.00    -0.014 A 
BRANCH  37  38
ATOM     38  C   UNL A   1      41.587  28.695  28.695  1.00  0.00     0.031 A 
ATOM     39  C   UNL A   1      42.671  29.737  28.690  1.00  0.00     0.074 A 
ATOM     40  C   UNL A   1      41.853  27.439  28.285  1.00  0.00     0.049 A 
ATOM     41  N   UNL A   1      43.924  29.621  28.331  1.00  0.00    -0.248 NA
ATOM     42  C   UNL A   1      42.297  31.093  29.125  1.00  0.00     0.031 C 
ATOM     43  C   UNL A   1      40.875  26.351  28.212  1.00  0.00     0.029 A 
ATOM     44  N   UNL A   1      43.021  26.861  27.855  1.00  0.00    -0.354 N 
ATOM     45  C   UNL A   1      44.486  30.881  28.501  1.00  0.00     0.074 A 
ATOM     46  C   UNL A   1      43.423  31.763  28.929  1.00  0.00     0.031 C 
ATOM     47  C   UNL A   1      41.492  25.231  27.803  1.00  0.00     0.029 A 
ATOM     48  C   UNL A   1      42.897  25.527  27.543  1.00  0.00     0.049 A 
ATOM     49  H   UNL A   1      43.868  27.356  27.776  1.00  0.00     0.167 HD
ATOM     50  C   UNL A   1      45.777  31.260  28.346  1.00  0.00     0.037 A 
ATOM     51  C   UNL A   1      43.812  24.642  27.098  1.00  0.00     0.037 A 
ATOM     52  C   UNL A   1      46.831  30.373  27.930  1.00  0.00     0.049 A 
ATOM     53  C   UNL A   1      45.232  25.097  26.893  1.00  0.00     0.074 A 
ATOM     54  C   UNL A   1      48.176  30.654  27.772  1.00  0.00     0.029 A 
ATOM     55  N   UNL A   1      46.661  29.033  27.608  1.00  0.00    -0.354 N 
ATOM     56  N   UNL A   1      45.755  26.282  27.104  1.00  0.00    -0.248 NA
ATOM     57  C   UNL A   1      46.186  24.099  26.393  1.00  0.00     0.031 C 
ATOM     58  C   UNL A   1      48.812  29.500  27.305  1.00  0.00     0.029 A 
ATOM     59  C   UNL A   1      47.874  28.482  27.229  1.00  0.00     0.049 A 
ATOM     60  H   UNL A   1      45.806  28.548  27.643  1.00  0.00     0.167 HD
ATOM     61  C   UNL A   1      47.104  26.164  26.789  1.00  0.00     0.074 A 
ATOM     62  C   UNL A   1      47.319  24.790  26.383  1.00  0.00     0.031 C 
ATOM     63  C   UNL A   1      48.076  27.108  26.836  1.00  0.00     0.037 A 
BRANCH  50  64
ATOM     64  C   UNL A   1      46.125  32.693  28.643  1.00  0.00     0.058 A 
ATOM     65  C   UNL A   1      46.204  33.655  27.623  1.00  0.00     0.135 A 
ATOM     66  C   UNL A   1      46.331  33.124  29.964  1.00  0.00     0.135 A 
ATOM     67  F   UNL A   1      46.032  33.295  26.340  1.00  0.00    -0.206 F 
ATOM     68  C   UNL A   1      46.499  34.986  27.896  1.00  0.00     0.059 A 
ATOM     69  C   UNL A   1      46.598  34.458  30.264  1.00  0.00     0.059 A 
ATOM     70  F   UNL A   1      46.268  32.249  30.979  1.00  0.00    -0.206 F 
ATOM     71  C   UNL A   1      46.692  35.379  29.222  1.00  0.00     0.060 A 
BRANCH  71  72
ATOM     72  S   UNL A   1      47.063  37.113  29.556  1.00  0.00     0.124 S 
ATOM     73  O   UNL A   1      48.518  37.126  29.446  1.00  0.00    -0.237 OA
ATOM     74  O   UNL A   1      46.341  37.796  28.486  1.00  0.00    -0.237 OA
ATOM     75  O   UNL A   1      46.535  37.323  30.900  1.00  0.00    -0.744 OA
ENDBRANCH  71  72
ENDBRANCH  50  64
BRANCH  51  76
ATOM     76  C   UNL A   1      43.416  23.227  26.860  1.00  0.00     0.058 A 
ATOM     77  C   UNL A   1      43.307  22.722  25.556  1.00  0.00     0.135 A 
ATOM     78  C   UNL A   1      43.174  22.343  27.923  1.00  0.00     0.135 A 
ATOM     79  F   UNL A   1      43.519  23.529  24.505  1.00  0.00    -0.206 F 
ATOM     80  C   UNL A   1      42.968  21.394  25.312  1.00  0.00     0.059 A 
ATOM     81  C   UNL A   1      42.860  21.005  27.707  1.00  0.00     0.059 A 
ATOM     82  F   UNL A   1      43.280  22.772  29.191  1.00  0.00    -0.206 F 
ATOM     83  C   UNL A   1      42.755  20.541  26.396  1.00  0.00     0.060 A 
BRANCH  83  84
ATOM     84  S   UNL A   1      42.379  18.806  26.064  1.00  0.00     0.124 S 
ATOM     85  O   UNL A   1      42.661  18.190  27.356  1.00  0.00    -0.237 OA
ATOM     86  O   UNL A   1      40.973  18.869  25.680  1.00  0.00    -0.237 OA
ATOM     87  O   UNL A   1      43.301  18.461  24.986  1.00  0.00    -0.744 OA
ENDBRANCH  83  84
ENDBRANCH  51  76
BRANCH  63  88
ATOM     88  C   UNL A   1      49.474  26.697  26.467  1.00  0.00     0.058 A 
ATOM     89  C   UNL A   1      50.340  26.107  27.400  1.00  0.00     0.135 A 
ATOM     90  C   UNL A   1      49.918  26.806  25.137  1.00  0.00     0.135 A 
ATOM     91  F   UNL A   1      49.968  25.984  28.684  1.00  0.00    -0.206 F 
ATOM     92  C   UNL A   1      51.599  25.645  27.031  1.00  0.00     0.059 A 
ATOM     93  C   UNL A   1      51.161  26.325  24.741  1.00  0.00     0.059 A 
ATOM     94  F   UNL A   1      49.125  27.353  24.203  1.00  0.00    -0.206 F 
ATOM     95  C   UNL A   1      51.998  25.749  25.696  1.00  0.00     0.060 A 
BRANCH  95  96
ATOM     96  S   UNL A   1      53.608  25.086  25.223  1.00  0.00     0.124 S 
ATOM     97  O   UNL A   1      53.363  23.649  25.274  1.00  0.00    -0.237 OA
ATOM     98  O   UNL A   1      53.796  25.650  23.890  1.00  0.00    -0.237 OA
ATOM     99  O   UNL A   1      54.506  25.605  26.250  1.00  0.00    -0.744 OA
ENDBRANCH  95  96
ENDBRANCH  63  88
ENDBRANCH  37  38
ENDBRANCH  29  32
ENDBRANCH  27  28
ENDBRANCH  26  27
ENDBRANCH   1  26
TORSDOF 17
ENDMDL
MODEL 2
REMARK VINA RESULT:     -12.5      3.530      8.997
REMARK SMILES Cc1nc(-c2ccc(C(F)(F)F)cc2)nc(SCC(=O)NCCCNC(=O)c2ccc(-c3c4nc(c(-c5c(F)cc(S(=O)(=O)[O-])cc5F)c5ccc([nH]5)c(-c5c(F)cc(S(=O)(=O)[O-])cc5F)c5nc(c(-c6c(F)cc(S(=O)(=O)[O-])cc6F)c6ccc3[nH]6)C=C5)C=C4)cc2)c1C
REMARK SMILES IDX 22 1 21 2 19 3 20 4 18 6 17 7 16 8 1 9 2 10 3 11 94 12 4 13
REMARK SMILES IDX 95 14 15 15 5 16 6 17 14 18 7 19 13 20 8 21 9 22 10 23 11 24
REMARK SMILES IDX 12 25 23 26 24 27 25 28 26 29 27 31 28 32 29 33 93 34 30 35
REMARK SMILES IDX 92 36 31 37 32 38 33 39 86 40 34 41 91 42 85 43 87 44 35 45
REMARK SMILES IDX 90 46 84 47 83 48 36 50 70 51 49 52 69 53 50 54 53 55 68 56
REMARK SMILES IDX 88 57 51 58 52 59 67 61 89 62 54 63 37 64 38 65 47 66 39 67
REMARK SMILES IDX 40 68 46 69 48 70 41 71 42 72 43 73 44 74 45 75 71 76 72 77
REMARK SMILES IDX 81 78 73 79 74 80 80 81 82 82 75 83 76 84 77 85 78 86 79 87
REMARK SMILES IDX 55 88 56 89 65 90 57 91 58 92 64 93 66 94 59 95 60 96 61 97
REMARK SMILES IDX 62 98 63 99
REMARK H PARENT 21 5 25 30 87 49 53 60
REMARK Flexibility Score: inf
ROOT
ATOM      1  C   UNL A   1      37.370  21.502  24.708  1.00  0.00     0.117 C 
ENDROOT
BRANCH   1   2
ATOM      2  N   UNL A   1      35.943  21.250  24.634  1.00  0.00    -0.355 N 
ATOM      3  C   UNL A   1      34.931  22.083  24.276  1.00  0.00     0.230 C 
ATOM      4  O   UNL A   1      33.833  21.563  24.048  1.00  0.00    -0.274 OA
ATOM      5  H   UNL A   1      35.667  20.337  24.879  1.00  0.00     0.163 HD
BRANCH   3   6
ATOM      6  C   UNL A   1      35.143  23.563  24.045  1.00  0.00     0.176 C 
BRANCH   6   7
ATOM      7  S   UNL A   1      34.547  24.678  25.340  1.00  0.00    -0.096 SA
BRANCH   7   8
ATOM      8  C   UNL A   1      32.791  24.553  25.621  1.00  0.00     0.104 A 
ATOM      9  C   UNL A   1      29.666  23.155  27.239  1.00  0.00     0.067 C 
ATOM     10  C   UNL A   1      30.647  23.940  26.414  1.00  0.00     0.045 A 
ATOM     11  N   UNL A   1      30.085  24.974  25.764  1.00  0.00    -0.233 NA
ATOM     12  C   UNL A   1      32.022  23.667  26.375  1.00  0.00     0.003 A 
ATOM     13  C   UNL A   1      30.888  25.742  25.028  1.00  0.00     0.160 A 
ATOM     14  C   UNL A   1      32.557  22.531  27.178  1.00  0.00     0.049 C 
ATOM     15  N   UNL A   1      32.209  25.562  24.923  1.00  0.00    -0.221 NA
BRANCH  13  16
ATOM     16  C   UNL A   1      30.263  26.855  24.311  1.00  0.00     0.019 A 
ATOM     17  C   UNL A   1      30.958  28.064  24.127  1.00  0.00     0.012 A 
ATOM     18  C   UNL A   1      28.946  26.776  23.831  1.00  0.00     0.012 A 
ATOM     19  C   UNL A   1      30.358  29.159  23.500  1.00  0.00     0.014 A 
ATOM     20  C   UNL A   1      28.334  27.877  23.219  1.00  0.00     0.014 A 
ATOM     21  C   UNL A   1      29.031  29.083  23.054  1.00  0.00     0.056 A 
BRANCH  21  22
ATOM     22  C   UNL A   1      28.381  30.292  22.424  1.00  0.00     0.416 C 
ATOM     23  F   UNL A   1      28.073  30.082  21.112  1.00  0.00    -0.166 F 
ATOM     24  F   UNL A   1      27.219  30.646  23.031  1.00  0.00    -0.166 F 
ATOM     25  F   UNL A   1      29.172  31.403  22.439  1.00  0.00    -0.166 F 
ENDBRANCH  21  22
ENDBRANCH  13  16
ENDBRANCH   7   8
ENDBRANCH   6   7
ENDBRANCH   3   6
ENDBRANCH   1   2
BRANCH   1  26
ATOM     26  C   UNL A   1      38.178  20.248  25.023  1.00  0.00     0.042 C 
BRANCH  26  27
ATOM     27  C   UNL A   1      39.240  20.435  26.103  1.00  0.00     0.118 C 
BRANCH  27  28
ATOM     28  N   UNL A   1      40.247  19.383  26.102  1.00  0.00    -0.352 N 
ATOM     29  C   UNL A   1      41.619  19.462  26.129  1.00  0.00     0.251 C 
ATOM     30  H   UNL A   1      39.887  18.467  26.078  1.00  0.00     0.163 HD
ATOM     31  O   UNL A   1      42.284  18.450  25.937  1.00  0.00    -0.269 OA
BRANCH  29  32
ATOM     32  C   UNL A   1      42.292  20.758  26.366  1.00  0.00     0.039 A 
ATOM     33  C   UNL A   1      42.724  21.504  25.267  1.00  0.00     0.014 A 
ATOM     34  C   UNL A   1      42.512  21.232  27.662  1.00  0.00     0.014 A 
ATOM     35  C   UNL A   1      43.306  22.758  25.467  1.00  0.00     0.010 A 
ATOM     36  C   UNL A   1      43.016  22.514  27.856  1.00  0.00     0.010 A 
ATOM     37  C   UNL A   1      43.419  23.292  26.761  1.00  0.00    -0.014 A 
BRANCH  37  38
ATOM     38  C   UNL A   1      43.950  24.662  26.983  1.00  0.00     0.031 A 
ATOM     39  C   UNL A   1      43.032  25.770  27.422  1.00  0.00     0.074 A 
ATOM     40  C   UNL A   1      45.254  24.916  26.749  1.00  0.00     0.049 A 
ATOM     41  N   UNL A   1      43.307  27.031  27.636  1.00  0.00    -0.248 NA
ATOM     42  C   UNL A   1      41.618  25.421  27.630  1.00  0.00     0.031 C 
ATOM     43  C   UNL A   1      46.234  23.931  26.285  1.00  0.00     0.029 A 
ATOM     44  N   UNL A   1      45.981  26.073  26.870  1.00  0.00    -0.354 N 
ATOM     45  C   UNL A   1      42.105  27.623  28.007  1.00  0.00     0.074 A 
ATOM     46  C   UNL A   1      41.086  26.599  27.923  1.00  0.00     0.031 C 
ATOM     47  C   UNL A   1      47.439  24.517  26.200  1.00  0.00     0.029 A 
ATOM     48  C   UNL A   1      47.313  25.925  26.560  1.00  0.00     0.049 A 
ATOM     49  H   UNL A   1      45.586  26.929  27.153  1.00  0.00     0.167 HD
ATOM     50  C   UNL A   1      41.877  28.895  28.412  1.00  0.00     0.037 A 
ATOM     51  C   UNL A   1      48.320  26.822  26.565  1.00  0.00     0.037 A 
ATOM     52  C   UNL A   1      42.898  29.905  28.503  1.00  0.00     0.049 A 
ATOM     53  C   UNL A   1      48.034  28.241  26.979  1.00  0.00     0.074 A 
ATOM     54  C   UNL A   1      42.773  31.215  28.930  1.00  0.00     0.029 A 
ATOM     55  N   UNL A   1      44.231  29.719  28.164  1.00  0.00    -0.354 N 
ATOM     56  N   UNL A   1      46.899  28.771  27.371  1.00  0.00    -0.248 NA
ATOM     57  C   UNL A   1      49.160  29.183  26.954  1.00  0.00     0.031 C 
ATOM     58  C   UNL A   1      44.018  31.836  28.801  1.00  0.00     0.029 A 
ATOM     59  C   UNL A   1      44.934  30.899  28.350  1.00  0.00     0.049 A 
ATOM     60  H   UNL A   1      44.618  28.875  27.839  1.00  0.00     0.167 HD
ATOM     61  C   UNL A   1      47.182  30.100  27.666  1.00  0.00     0.074 A 
ATOM     62  C   UNL A   1      48.596  30.291  27.416  1.00  0.00     0.031 C 
ATOM     63  C   UNL A   1      46.346  31.072  28.107  1.00  0.00     0.037 A 
BRANCH  50  64
ATOM     64  C   UNL A   1      40.471  29.263  28.803  1.00  0.00     0.058 A 
ATOM     65  C   UNL A   1      40.109  29.451  30.147  1.00  0.00     0.135 A 
ATOM     66  C   UNL A   1      39.487  29.482  27.825  1.00  0.00     0.135 A 
ATOM     67  F   UNL A   1      41.006  29.239  31.124  1.00  0.00    -0.206 F 
ATOM     68  C   UNL A   1      38.818  29.818  30.511  1.00  0.00     0.059 A 
ATOM     69  C   UNL A   1      38.196  29.880  28.164  1.00  0.00     0.059 A 
ATOM     70  F   UNL A   1      39.776  29.317  26.525  1.00  0.00    -0.206 F 
ATOM     71  C   UNL A   1      37.868  30.033  29.511  1.00  0.00     0.060 A 
BRANCH  71  72
ATOM     72  S   UNL A   1      36.202  30.519  30.003  1.00  0.00     0.124 S 
ATOM     73  O   UNL A   1      36.365  31.955  30.208  1.00  0.00    -0.237 OA
ATOM     74  O   UNL A   1      35.409  30.132  28.840  1.00  0.00    -0.237 OA
ATOM     75  O   UNL A   1      35.960  29.738  31.211  1.00  0.00    -0.744 OA
ENDBRANCH  71  72
ENDBRANCH  50  64
BRANCH  51  76
ATOM     76  C   UNL A   1      49.697  26.389  26.207  1.00  0.00     0.058 A 
ATOM     77  C   UNL A   1      50.185  26.551  24.902  1.00  0.00     0.135 A 
ATOM     78  C   UNL A   1      50.567  25.839  27.163  1.00  0.00     0.135 A 
ATOM     79  F   UNL A   1      49.391  27.065  23.950  1.00  0.00    -0.206 F 
ATOM     80  C   UNL A   1      51.480  26.181  24.554  1.00  0.00     0.059 A 
ATOM     81  C   UNL A   1      51.874  25.485  26.847  1.00  0.00     0.059 A 
ATOM     82  F   UNL A   1      50.155  25.676  28.431  1.00  0.00    -0.206 F 
ATOM     83  C   UNL A   1      52.321  25.656  25.537  1.00  0.00     0.060 A 
BRANCH  83  84
ATOM     84  S   UNL A   1      54.019  25.241  25.084  1.00  0.00     0.124 S 
ATOM     85  O   UNL A   1      54.768  25.788  26.210  1.00  0.00    -0.237 OA
ATOM     86  O   UNL A   1      53.963  23.785  25.003  1.00  0.00    -0.237 OA
ATOM     87  O   UNL A   1      54.206  25.926  23.808  1.00  0.00    -0.744 OA
ENDBRANCH  83  84
ENDBRANCH  51  76
BRANCH  63  88
ATOM     88  C   UNL A   1      46.928  32.431  28.379  1.00  0.00     0.058 A 
ATOM     89  C   UNL A   1      47.008  33.412  27.379  1.00  0.00     0.135 A 
ATOM     90  C   UNL A   1      47.321  32.787  29.681  1.00  0.00     0.135 A 
ATOM     91  F   UNL A   1      46.652  33.122  26.118  1.00  0.00    -0.206 F 
ATOM     92  C   UNL A   1      47.463  34.697  27.658  1.00  0.00     0.059 A 
ATOM     93  C   UNL A   1      47.751  34.074  29.988  1.00  0.00     0.059 A 
ATOM     94  F   UNL A   1      47.255  31.889  30.676  1.00  0.00    -0.206 F 
ATOM     95  C   UNL A   1      47.823  35.022  28.968  1.00  0.00     0.060 A 
BRANCH  95  96
ATOM     96  S   UNL A   1      48.348  36.711  29.324  1.00  0.00     0.124 S 
ATOM     97  O   UNL A   1      47.474  37.065  30.437  1.00  0.00    -0.237 OA
ATOM     98  O   UNL A   1      49.758  36.534  29.656  1.00  0.00    -0.237 OA
ATOM     99  O   UNL A   1      48.089  37.420  28.074  1.00  0.00    -0.744 OA
ENDBRANCH  95  96
ENDBRANCH  63  88
ENDBRANCH  37  38
ENDBRANCH  29  32
ENDBRANCH  27  28
ENDBRANCH  26  27
ENDBRANCH   1  26
TORSDOF 17
ENDMDL
MODEL 3
REMARK VINA RESULT:     -12.5      4.932      6.285
REMARK SMILES Cc1nc(-c2ccc(C(F)(F)F)cc2)nc(SCC(=O)NCCCNC(=O)c2ccc(-c3c4nc(c(-c5c(F)cc(S(=O)(=O)[O-])cc5F)c5ccc([nH]5)c(-c5c(F)cc(S(=O)(=O)[O-])cc5F)c5nc(c(-c6c(F)cc(S(=O)(=O)[O-])cc6F)c6ccc3[nH]6)C=C5)C=C4)cc2)c1C
REMARK SMILES IDX 22 1 21 2 19 3 20 4 18 6 17 7 16 8 1 9 2 10 3 11 94 12 4 13
REMARK SMILES IDX 95 14 15 15 5 16 6 17 14 18 7 19 13 20 8 21 9 22 10 23 11 24
REMARK SMILES IDX 12 25 23 26 24 27 25 28 26 29 27 31 28 32 29 33 93 34 30 35
REMARK SMILES IDX 92 36 31 37 32 38 33 39 86 40 34 41 91 42 85 43 87 44 35 45
REMARK SMILES IDX 90 46 84 47 83 48 36 50 70 51 49 52 69 53 50 54 53 55 68 56
REMARK SMILES IDX 88 57 51 58 52 59 67 61 89 62 54 63 37 64 38 65 47 66 39 67
REMARK SMILES IDX 40 68 46 69 48 70 41 71 42 72 43 73 44 74 45 75 71 76 72 77
REMARK SMILES IDX 81 78 73 79 74 80 80 81 82 82 75 83 76 84 77 85 78 86 79 87
REMARK SMILES IDX 55 88 56 89 65 90 57 91 58 92 64 93 66 94 59 95 60 96 61 97
REMARK SMILES IDX 62 98 63 99
REMARK H PARENT 21 5 25 30 87 49 53 60
REMARK Flexibility Score: inf
ROOT
ATOM      1  C   UNL A   1      31.846  28.260  27.130  1.00  0.00     0.117 C 
ENDROOT
BRANCH   1   2
ATOM      2  N   UNL A   1      31.013  27.072  27.129  1.00  0.00    -0.355 N 
ATOM      3  C   UNL A   1      30.598  26.302  26.089  1.00  0.00     0.230 C 
ATOM      4  O   UNL A   1      30.110  25.202  26.368  1.00  0.00    -0.274 OA
ATOM      5  H   UNL A   1      30.703  26.779  28.017  1.00  0.00     0.163 HD
BRANCH   3   6
ATOM      6  C   UNL A   1      30.825  26.699  24.646  1.00  0.00     0.176 C 
BRANCH   6   7
ATOM      7  S   UNL A   1      32.429  26.264  23.930  1.00  0.00    -0.096 SA
BRANCH   7   8
ATOM      8  C   UNL A   1      32.762  24.512  23.966  1.00  0.00     0.104 A 
ATOM      9  C   UNL A   1      32.051  20.868  23.223  1.00  0.00     0.067 C 
ATOM     10  C   UNL A   1      32.656  22.165  23.683  1.00  0.00     0.045 A 
ATOM     11  N   UNL A   1      33.905  22.027  24.162  1.00  0.00    -0.233 NA
ATOM     12  C   UNL A   1      32.014  23.407  23.564  1.00  0.00     0.003 A 
ATOM     13  C   UNL A   1      34.528  23.132  24.568  1.00  0.00     0.160 A 
ATOM     14  C   UNL A   1      30.650  23.462  22.966  1.00  0.00     0.049 C 
ATOM     15  N   UNL A   1      34.001  24.359  24.501  1.00  0.00    -0.221 NA
BRANCH  13  16
ATOM     16  C   UNL A   1      35.881  22.968  25.104  1.00  0.00     0.019 A 
ATOM     17  C   UNL A   1      36.524  24.037  25.755  1.00  0.00     0.012 A 
ATOM     18  C   UNL A   1      36.596  21.770  24.946  1.00  0.00     0.012 A 
ATOM     19  C   UNL A   1      37.837  23.920  26.218  1.00  0.00     0.014 A 
ATOM     20  C   UNL A   1      37.918  21.656  25.393  1.00  0.00     0.014 A 
ATOM     21  C   UNL A   1      38.556  22.733  26.026  1.00  0.00     0.056 A 
BRANCH  21  22
ATOM     22  C   UNL A   1      39.991  22.641  26.489  1.00  0.00     0.416 C 
ATOM     23  F   UNL A   1      40.086  22.228  27.785  1.00  0.00    -0.166 F 
ATOM     24  F   UNL A   1      40.727  21.762  25.760  1.00  0.00    -0.166 F 
ATOM     25  F   UNL A   1      40.655  23.830  26.436  1.00  0.00    -0.166 F 
ENDBRANCH  21  22
ENDBRANCH  13  16
ENDBRANCH   7   8
ENDBRANCH   6   7
ENDBRANCH   3   6
ENDBRANCH   1   2
BRANCH   1  26
ATOM     26  C   UNL A   1      33.336  27.940  27.133  1.00  0.00     0.042 C 
BRANCH  26  27
ATOM     27  C   UNL A   1      34.191  28.903  26.315  1.00  0.00     0.118 C 
BRANCH  27  28
ATOM     28  N   UNL A   1      34.054  30.290  26.738  1.00  0.00    -0.352 N 
ATOM     29  C   UNL A   1      34.777  31.019  27.652  1.00  0.00     0.251 C 
ATOM     30  H   UNL A   1      33.326  30.786  26.298  1.00  0.00     0.163 HD
ATOM     31  O   UNL A   1      34.374  32.126  27.992  1.00  0.00    -0.269 OA
BRANCH  29  32
ATOM     32  C   UNL A   1      36.017  30.467  28.241  1.00  0.00     0.039 A 
ATOM     33  C   UNL A   1      37.242  30.788  27.652  1.00  0.00     0.014 A 
ATOM     34  C   UNL A   1      35.975  29.627  29.356  1.00  0.00     0.014 A 
ATOM     35  C   UNL A   1      38.429  30.327  28.229  1.00  0.00     0.010 A 
ATOM     36  C   UNL A   1      37.159  29.237  29.976  1.00  0.00     0.010 A 
ATOM     37  C   UNL A   1      38.399  29.583  29.419  1.00  0.00    -0.014 A 
BRANCH  37  38
ATOM     38  C   UNL A   1      39.655  29.165  30.095  1.00  0.00     0.031 A 
ATOM     39  C   UNL A   1      40.107  29.857  31.351  1.00  0.00     0.074 A 
ATOM     40  C   UNL A   1      40.408  28.186  29.551  1.00  0.00     0.049 A 
ATOM     41  N   UNL A   1      41.186  29.652  32.062  1.00  0.00    -0.248 NA
ATOM     42  C   UNL A   1      39.246  30.933  31.866  1.00  0.00     0.031 C 
ATOM     43  C   UNL A   1      40.091  27.466  28.316  1.00  0.00     0.029 A 
ATOM     44  N   UNL A   1      41.590  27.626  29.966  1.00  0.00    -0.354 N 
ATOM     45  C   UNL A   1      41.131  30.567  33.106  1.00  0.00     0.074 A 
ATOM     46  C   UNL A   1      39.949  31.373  32.900  1.00  0.00     0.031 C 
ATOM     47  C   UNL A   1      41.033  26.534  28.096  1.00  0.00     0.029 A 
ATOM     48  C   UNL A   1      42.042  26.617  29.147  1.00  0.00     0.049 A 
ATOM     49  H   UNL A   1      42.070  27.919  30.774  1.00  0.00     0.167 HD
ATOM     50  C   UNL A   1      41.972  30.700  34.160  1.00  0.00     0.037 A 
ATOM     51  C   UNL A   1      43.145  25.846  29.233  1.00  0.00     0.037 A 
ATOM     52  C   UNL A   1      43.141  29.886  34.364  1.00  0.00     0.049 A 
ATOM     53  C   UNL A   1      44.087  26.041  30.390  1.00  0.00     0.074 A 
ATOM     54  C   UNL A   1      44.040  29.924  35.415  1.00  0.00     0.029 A 
ATOM     55  N   UNL A   1      43.573  28.887  33.503  1.00  0.00    -0.354 N 
ATOM     56  N   UNL A   1      43.994  26.881  31.394  1.00  0.00    -0.248 NA
ATOM     57  C   UNL A   1      45.281  25.187  30.430  1.00  0.00     0.031 C 
ATOM     58  C   UNL A   1      45.044  28.984  35.165  1.00  0.00     0.029 A 
ATOM     59  C   UNL A   1      44.740  28.318  33.988  1.00  0.00     0.049 A 
ATOM     60  H   UNL A   1      43.118  28.623  32.671  1.00  0.00     0.167 HD
ATOM     61  C   UNL A   1      45.101  26.635  32.199  1.00  0.00     0.074 A 
ATOM     62  C   UNL A   1      45.845  25.564  31.570  1.00  0.00     0.031 C 
ATOM     63  C   UNL A   1      45.465  27.242  33.355  1.00  0.00     0.037 A 
BRANCH  50  64
ATOM     64  C   UNL A   1      41.650  31.756  35.183  1.00  0.00     0.058 A 
ATOM     65  C   UNL A   1      42.301  33.000  35.182  1.00  0.00     0.135 A 
ATOM     66  C   UNL A   1      40.645  31.545  36.142  1.00  0.00     0.135 A 
ATOM     67  F   UNL A   1      43.281  33.250  34.298  1.00  0.00    -0.206 F 
ATOM     68  C   UNL A   1      41.987  33.988  36.108  1.00  0.00     0.059 A 
ATOM     69  C   UNL A   1      40.293  32.532  37.059  1.00  0.00     0.059 A 
ATOM     70  F   UNL A   1      39.990  30.375  36.189  1.00  0.00    -0.206 F 
ATOM     71  C   UNL A   1      40.978  33.746  37.042  1.00  0.00     0.060 A 
BRANCH  71  72
ATOM     72  S   UNL A   1      40.578  35.045  38.229  1.00  0.00     0.124 S 
ATOM     73  O   UNL A   1      39.474  35.723  37.558  1.00  0.00    -0.237 OA
ATOM     74  O   UNL A   1      40.221  34.279  39.419  1.00  0.00    -0.237 OA
ATOM     75  O   UNL A   1      41.816  35.812  38.326  1.00  0.00    -0.744 OA
ENDBRANCH  71  72
ENDBRANCH  50  64
BRANCH  51  76
ATOM     76  C   UNL A   1      43.389  24.791  28.212  1.00  0.00     0.058 A 
ATOM     77  C   UNL A   1      43.945  25.113  26.965  1.00  0.00     0.135 A 
ATOM     78  C   UNL A   1      43.108  23.439  28.470  1.00  0.00     0.135 A 
ATOM     79  F   UNL A   1      44.224  26.391  26.666  1.00  0.00    -0.206 F 
ATOM     80  C   UNL A   1      44.210  24.137  26.009  1.00  0.00     0.059 A 
ATOM     81  C   UNL A   1      43.388  22.443  27.541  1.00  0.00     0.059 A 
ATOM     82  F   UNL A   1      42.590  23.075  29.654  1.00  0.00    -0.206 F 
ATOM     83  C   UNL A   1      43.936  22.803  26.310  1.00  0.00     0.060 A 
BRANCH  83  84
ATOM     84  S   UNL A   1      44.345  21.542  25.084  1.00  0.00     0.124 S 
ATOM     85  O   UNL A   1      43.378  20.496  25.400  1.00  0.00    -0.237 OA
ATOM     86  O   UNL A   1      44.125  22.257  23.831  1.00  0.00    -0.237 OA
ATOM     87  O   UNL A   1      45.739  21.223  25.379  1.00  0.00    -0.744 OA
ENDBRANCH  83  84
ENDBRANCH  51  76
BRANCH  63  88
ATOM     88  C   UNL A   1      46.709  26.754  34.044  1.00  0.00     0.058 A 
ATOM     89  C   UNL A   1      46.674  25.700  34.970  1.00  0.00     0.135 A 
ATOM     90  C   UNL A   1      47.965  27.283  33.700  1.00  0.00     0.135 A 
ATOM     91  F   UNL A   1      45.500  25.163  35.339  1.00  0.00    -0.206 F 
ATOM     92  C   UNL A   1      47.839  25.192  35.536  1.00  0.00     0.059 A 
ATOM     93  C   UNL A   1      49.144  26.771  34.231  1.00  0.00     0.059 A 
ATOM     94  F   UNL A   1      48.056  28.285  32.812  1.00  0.00    -0.206 F 
ATOM     95  C   UNL A   1      49.071  25.727  35.152  1.00  0.00     0.060 A 
BRANCH  95  96
ATOM     96  S   UNL A   1      50.575  25.012  35.847  1.00  0.00     0.124 S 
ATOM     97  O   UNL A   1      50.456  25.382  37.254  1.00  0.00    -0.237 OA
ATOM     98  O   UNL A   1      50.409  23.593  35.549  1.00  0.00    -0.237 OA
ATOM     99  O   UNL A   1      51.644  25.681  35.112  1.00  0.00    -0.744 OA
ENDBRANCH  95  96
ENDBRANCH  63  88
ENDBRANCH  37  38
ENDBRANCH  29  32
ENDBRANCH  27  28
ENDBRANCH  26  27
ENDBRANCH   1  26
TORSDOF 17
ENDMDL
