MODEL 1
REMARK VINA RESULT:     -12.7      0.000      0.000
REMARK SMILES C[C@H]1C[N@H+]2CCC[C@@H]2CN1c1cc(Cl)ccc1C(=O)NCCCNC(=O)c1ccc(-c2c3nc(c(-c4c(F)cc(S(=O)(=O)[O-])cc4F)c4ccc([nH]4)c(-c4c(F)cc(S(=O)(=O)[O-])cc4F)c4nc(c(-c5c(F)cc(S(=O)(=O)[O-])cc5F)c5ccc2[nH]5)C=C4)C=C3)cc1
REMARK SMILES IDX 23 1 22 2 21 3 20 4 18 5 19 6 17 8 11 9 12 10 13 11 16 12
REMARK SMILES IDX 14 13 15 14 10 15 1 16 2 17 3 18 4 19 9 20 5 21 8 22 6 24
REMARK SMILES IDX 7 25 24 26 25 27 26 29 27 30 28 31 92 32 29 33 91 34 30 35
REMARK SMILES IDX 31 36 32 37 85 38 33 39 90 40 84 41 86 42 34 43 89 44 83 45
REMARK SMILES IDX 82 46 35 48 69 49 48 50 68 51 49 52 52 53 67 54 87 55 50 56
REMARK SMILES IDX 51 57 66 59 88 60 53 61 36 62 37 63 46 64 38 65 39 66 45 67
REMARK SMILES IDX 47 68 40 69 41 70 42 71 43 72 44 73 70 74 71 75 80 76 72 77
REMARK SMILES IDX 73 78 79 79 81 80 74 81 75 82 76 83 77 84 78 85 54 86 55 87
REMARK SMILES IDX 64 88 56 89 57 90 63 91 65 92 58 93 59 94 60 95 61 96 62 97
REMARK H PARENT 20 7 4 23 24 28 86 47 52 58
REMARK Flexibility Score: inf
ROOT
ATOM      1  C   UNL A   1      33.452  29.759  26.841  1.00  0.00     0.118 C 
ENDROOT
BRANCH   1   2
ATOM      2  C   UNL A   1      32.384  28.724  27.154  1.00  0.00     0.042 C 
BRANCH   2   3
ATOM      3  C   UNL A   1      32.804  27.293  26.884  1.00  0.00     0.118 C 
BRANCH   3   4
ATOM      4  N   UNL A   1      31.774  26.308  26.737  1.00  0.00    -0.352 N 
ATOM      5  C   UNL A   1      31.835  25.185  25.937  1.00  0.00     0.253 C 
ATOM      6  O   UNL A   1      31.362  24.155  26.434  1.00  0.00    -0.269 OA
ATOM      7  H   UNL A   1      30.947  26.445  27.253  1.00  0.00     0.163 HD
BRANCH   5   8
ATOM      8  C   UNL A   1      32.225  25.145  24.474  1.00  0.00     0.063 A 
ATOM      9  C   UNL A   1      33.273  24.476  23.784  1.00  0.00     0.052 A 
ATOM     10  C   UNL A   1      33.323  24.609  22.370  1.00  0.00     0.047 A 
ATOM     11  C   UNL A   1      32.417  25.389  21.656  1.00  0.00     0.043 A 
ATOM     12  C   UNL A   1      31.314  25.926  23.707  1.00  0.00     0.017 A 
ATOM     13  Cl  UNL A   1      32.552  25.523  19.947  1.00  0.00    -0.084 Cl
ATOM     14  C   UNL A   1      31.408  26.055  22.322  1.00  0.00     0.021 A 
BRANCH   9  15
ATOM     15  N   UNL A   1      34.258  23.681  24.373  1.00  0.00    -0.357 N 
ATOM     16  C   UNL A   1      33.069  21.513  23.887  1.00  0.00     0.037 C 
ATOM     17  C   UNL A   1      33.924  22.306  24.891  1.00  0.00     0.134 C 
ATOM     18  C   UNL A   1      35.218  21.458  25.178  1.00  0.00     0.287 C 
ATOM     19  N   UNL A   1      36.274  22.193  25.889  1.00  0.00    -0.329 N 
ATOM     20  C   UNL A   1      35.329  24.386  25.120  1.00  0.00     0.182 C 
ATOM     21  C   UNL A   1      37.570  21.505  25.899  1.00  0.00     0.262 C 
ATOM     22  C   UNL A   1      36.552  23.461  25.194  1.00  0.00     0.203 C 
ATOM     23  H   UNL A   1      35.919  22.301  26.839  1.00  0.00     0.348 HD
ATOM     24  C   UNL A   1      38.593  22.643  26.023  1.00  0.00     0.068 C 
ATOM     25  C   UNL A   1      37.779  23.936  25.936  1.00  0.00     0.073 C 
ENDBRANCH   9  15
ENDBRANCH   5   8
ENDBRANCH   3   4
ENDBRANCH   2   3
ENDBRANCH   1   2
BRANCH   1  26
ATOM     26  N   UNL A   1      33.621  30.791  27.865  1.00  0.00    -0.352 N 
ATOM     27  C   UNL A   1      34.632  31.140  28.726  1.00  0.00     0.251 C 
ATOM     28  H   UNL A   1      32.829  31.367  27.958  1.00  0.00     0.163 HD
ATOM     29  O   UNL A   1      34.437  32.086  29.490  1.00  0.00    -0.269 OA
BRANCH  27  30
ATOM     30  C   UNL A   1      35.933  30.434  28.796  1.00  0.00     0.039 A 
ATOM     31  C   UNL A   1      36.339  29.882  30.026  1.00  0.00     0.014 A 
ATOM     32  C   UNL A   1      36.818  30.415  27.725  1.00  0.00     0.014 A 
ATOM     33  C   UNL A   1      37.613  29.319  30.170  1.00  0.00     0.010 A 
ATOM     34  C   UNL A   1      38.039  29.763  27.831  1.00  0.00     0.010 A 
ATOM     35  C   UNL A   1      38.473  29.269  29.070  1.00  0.00    -0.014 A 
BRANCH  35  36
ATOM     36  C   UNL A   1      39.907  28.911  29.179  1.00  0.00     0.031 A 
ATOM     37  C   UNL A   1      40.876  30.016  29.519  1.00  0.00     0.074 A 
ATOM     38  C   UNL A   1      40.339  27.681  28.854  1.00  0.00     0.049 A 
ATOM     39  N   UNL A   1      42.172  30.062  29.378  1.00  0.00    -0.248 NA
ATOM     40  C   UNL A   1      40.283  31.268  30.025  1.00  0.00     0.031 C 
ATOM     41  C   UNL A   1      39.487  26.545  28.503  1.00  0.00     0.029 A 
ATOM     42  N   UNL A   1      41.615  27.195  28.729  1.00  0.00    -0.354 N 
ATOM     43  C   UNL A   1      42.540  31.361  29.720  1.00  0.00     0.074 A 
ATOM     44  C   UNL A   1      41.327  32.081  30.026  1.00  0.00     0.031 C 
ATOM     45  C   UNL A   1      40.264  25.495  28.191  1.00  0.00     0.029 A 
ATOM     46  C   UNL A   1      41.666  25.898  28.275  1.00  0.00     0.049 A 
ATOM     47  H   UNL A   1      42.417  27.723  28.942  1.00  0.00     0.167 HD
ATOM     48  C   UNL A   1      43.783  31.894  29.786  1.00  0.00     0.037 A 
ATOM     49  C   UNL A   1      42.728  25.140  27.943  1.00  0.00     0.037 A 
ATOM     50  C   UNL A   1      44.977  31.131  29.536  1.00  0.00     0.049 A 
ATOM     51  C   UNL A   1      44.106  25.737  28.068  1.00  0.00     0.074 A 
ATOM     52  C   UNL A   1      46.296  31.532  29.632  1.00  0.00     0.029 A 
ATOM     53  N   UNL A   1      44.989  29.795  29.159  1.00  0.00    -0.354 N 
ATOM     54  N   UNL A   1      44.447  26.960  28.404  1.00  0.00    -0.248 NA
ATOM     55  C   UNL A   1      45.242  24.853  27.781  1.00  0.00     0.031 C 
ATOM     56  C   UNL A   1      47.106  30.446  29.283  1.00  0.00     0.029 A 
ATOM     57  C   UNL A   1      46.292  29.354  29.017  1.00  0.00     0.049 A 
ATOM     58  H   UNL A   1      44.187  29.241  29.014  1.00  0.00     0.167 HD
ATOM     59  C   UNL A   1      45.837  26.984  28.398  1.00  0.00     0.074 A 
ATOM     60  C   UNL A   1      46.271  25.649  28.036  1.00  0.00     0.031 C 
ATOM     61  C   UNL A   1      46.682  28.011  28.668  1.00  0.00     0.037 A 
BRANCH  48  62
ATOM     62  C   UNL A   1      43.906  33.352  30.145  1.00  0.00     0.058 A 
ATOM     63  C   UNL A   1      43.771  34.369  29.185  1.00  0.00     0.135 A 
ATOM     64  C   UNL A   1      44.156  33.742  31.472  1.00  0.00     0.135 A 
ATOM     65  F   UNL A   1      43.550  34.059  27.897  1.00  0.00    -0.206 F 
ATOM     66  C   UNL A   1      43.915  35.713  29.518  1.00  0.00     0.059 A 
ATOM     67  C   UNL A   1      44.270  35.082  31.834  1.00  0.00     0.059 A 
ATOM     68  F   UNL A   1      44.300  32.817  32.434  1.00  0.00    -0.206 F 
ATOM     69  C   UNL A   1      44.165  36.060  30.846  1.00  0.00     0.060 A 
BRANCH  69  70
ATOM     70  S   UNL A   1      44.344  37.808  31.260  1.00  0.00     0.124 S 
ATOM     71  O   UNL A   1      45.795  37.957  31.276  1.00  0.00    -0.237 OA
ATOM     72  O   UNL A   1      43.651  38.463  30.155  1.00  0.00    -0.237 OA
ATOM     73  O   UNL A   1      43.688  37.918  32.560  1.00  0.00    -0.744 OA
ENDBRANCH  69  70
ENDBRANCH  48  62
BRANCH  49  74
ATOM     74  C   UNL A   1      42.530  23.735  27.493  1.00  0.00     0.058 A 
ATOM     75  C   UNL A   1      42.437  23.426  26.128  1.00  0.00     0.135 A 
ATOM     76  C   UNL A   1      42.463  22.671  28.408  1.00  0.00     0.135 A 
ATOM     77  F   UNL A   1      42.491  24.407  25.215  1.00  0.00    -0.206 F 
ATOM     78  C   UNL A   1      42.273  22.118  25.684  1.00  0.00     0.059 A 
ATOM     79  C   UNL A   1      42.324  21.351  27.986  1.00  0.00     0.059 A 
ATOM     80  F   UNL A   1      42.565  22.909  29.725  1.00  0.00    -0.206 F 
ATOM     81  C   UNL A   1      42.222  21.086  26.622  1.00  0.00     0.060 A 
BRANCH  81  82
ATOM     82  S   UNL A   1      42.071  19.387  26.028  1.00  0.00     0.124 S 
ATOM     83  O   UNL A   1      42.531  18.627  27.185  1.00  0.00    -0.237 OA
ATOM     84  O   UNL A   1      40.646  19.293  25.727  1.00  0.00    -0.237 OA
ATOM     85  O   UNL A   1      42.953  19.359  24.864  1.00  0.00    -0.744 OA
ENDBRANCH  81  82
ENDBRANCH  49  74
BRANCH  61  86
ATOM     86  C   UNL A   1      48.154  27.712  28.630  1.00  0.00     0.058 A 
ATOM     87  C   UNL A   1      48.841  27.235  29.757  1.00  0.00     0.135 A 
ATOM     88  C   UNL A   1      48.873  27.862  27.433  1.00  0.00     0.135 A 
ATOM     89  F   UNL A   1      48.198  27.078  30.924  1.00  0.00    -0.206 F 
ATOM     90  C   UNL A   1      50.200  26.945  29.706  1.00  0.00     0.059 A 
ATOM     91  C   UNL A   1      50.226  27.550  27.353  1.00  0.00     0.059 A 
ATOM     92  F   UNL A   1      48.258  28.301  26.324  1.00  0.00    -0.206 F 
ATOM     93  C   UNL A   1      50.883  27.107  28.499  1.00  0.00     0.060 A 
BRANCH  93  94
ATOM     94  S   UNL A   1      52.642  26.708  28.441  1.00  0.00     0.124 S 
ATOM     95  O   UNL A   1      52.670  25.651  27.436  1.00  0.00    -0.237 OA
ATOM     96  O   UNL A   1      53.239  27.979  28.043  1.00  0.00    -0.237 OA
ATOM     97  O   UNL A   1      52.938  26.284  29.807  1.00  0.00    -0.744 OA
ENDBRANCH  93  94
ENDBRANCH  61  86
ENDBRANCH  35  36
ENDBRANCH  27  30
ENDBRANCH   1  26
TORSDOF 14
ENDMDL
MODEL 2
REMARK VINA RESULT:     -12.3      4.093     10.042
REMARK SMILES C[C@H]1C[N@H+]2CCC[C@@H]2CN1c1cc(Cl)ccc1C(=O)NCCCNC(=O)c1ccc(-c2c3nc(c(-c4c(F)cc(S(=O)(=O)[O-])cc4F)c4ccc([nH]4)c(-c4c(F)cc(S(=O)(=O)[O-])cc4F)c4nc(c(-c5c(F)cc(S(=O)(=O)[O-])cc5F)c5ccc2[nH]5)C=C4)C=C3)cc1
REMARK SMILES IDX 23 1 22 2 21 3 20 4 18 5 19 6 17 8 11 9 12 10 13 11 16 12
REMARK SMILES IDX 14 13 15 14 10 15 1 16 2 17 3 18 4 19 9 20 5 21 8 22 6 24
REMARK SMILES IDX 7 25 24 26 25 27 26 29 27 30 28 31 92 32 29 33 91 34 30 35
REMARK SMILES IDX 31 36 32 37 85 38 33 39 90 40 84 41 86 42 34 43 89 44 83 45
REMARK SMILES IDX 82 46 35 48 69 49 48 50 68 51 49 52 52 53 67 54 87 55 50 56
REMARK SMILES IDX 51 57 66 59 88 60 53 61 36 62 37 63 46 64 38 65 39 66 45 67
REMARK SMILES IDX 47 68 40 69 41 70 42 71 43 72 44 73 70 74 71 75 80 76 72 77
REMARK SMILES IDX 73 78 79 79 81 80 74 81 75 82 76 83 77 84 78 85 54 86 55 87
REMARK SMILES IDX 64 88 56 89 57 90 63 91 65 92 58 93 59 94 60 95 61 96 62 97
REMARK H PARENT 20 7 4 23 24 28 86 47 52 58
REMARK Flexibility Score: inf
ROOT
ATOM      1  C   UNL A   1      37.707  22.491  25.854  1.00  0.00     0.118 C 
ENDROOT
BRANCH   1   2
ATOM      2  C   UNL A   1      36.963  22.646  24.537  1.00  0.00     0.042 C 
BRANCH   2   3
ATOM      3  C   UNL A   1      35.984  23.801  24.505  1.00  0.00     0.118 C 
BRANCH   3   4
ATOM      4  N   UNL A   1      35.053  23.862  23.417  1.00  0.00    -0.352 N 
ATOM      5  C   UNL A   1      33.807  24.455  23.449  1.00  0.00     0.253 C 
ATOM      6  O   UNL A   1      33.500  25.093  22.435  1.00  0.00    -0.269 OA
ATOM      7  H   UNL A   1      35.328  23.442  22.570  1.00  0.00     0.163 HD
BRANCH   5   8
ATOM      8  C   UNL A   1      32.732  24.229  24.491  1.00  0.00     0.063 A 
ATOM      9  C   UNL A   1      32.058  25.117  25.374  1.00  0.00     0.052 A 
ATOM     10  C   UNL A   1      31.040  24.577  26.205  1.00  0.00     0.047 A 
ATOM     11  C   UNL A   1      30.712  23.223  26.207  1.00  0.00     0.043 A 
ATOM     12  C   UNL A   1      32.362  22.855  24.518  1.00  0.00     0.017 A 
ATOM     13  Cl  UNL A   1      29.483  22.634  27.255  1.00  0.00    -0.084 Cl
ATOM     14  C   UNL A   1      31.374  22.353  25.365  1.00  0.00     0.021 A 
BRANCH   9  15
ATOM     15  N   UNL A   1      32.299  26.488  25.491  1.00  0.00    -0.357 N 
ATOM     16  C   UNL A   1      30.316  27.150  24.085  1.00  0.00     0.037 C 
ATOM     17  C   UNL A   1      31.780  27.447  24.452  1.00  0.00     0.134 C 
ATOM     18  C   UNL A   1      31.845  28.939  24.948  1.00  0.00     0.287 C 
ATOM     19  N   UNL A   1      33.108  29.299  25.607  1.00  0.00    -0.329 N 
ATOM     20  C   UNL A   1      33.576  26.891  26.131  1.00  0.00     0.182 C 
ATOM     21  C   UNL A   1      33.060  30.583  26.318  1.00  0.00     0.262 C 
ATOM     22  C   UNL A   1      33.415  28.321  26.665  1.00  0.00     0.203 C 
ATOM     23  H   UNL A   1      33.794  29.334  24.853  1.00  0.00     0.348 HD
ATOM     24  C   UNL A   1      34.111  30.432  27.428  1.00  0.00     0.068 C 
ATOM     25  C   UNL A   1      34.593  28.982  27.340  1.00  0.00     0.073 C 
ENDBRANCH   9  15
ENDBRANCH   5   8
ENDBRANCH   3   4
ENDBRANCH   2   3
ENDBRANCH   1   2
BRANCH   1  26
ATOM     26  N   UNL A   1      39.144  22.250  25.719  1.00  0.00    -0.352 N 
ATOM     27  C   UNL A   1      40.277  22.936  26.083  1.00  0.00     0.251 C 
ATOM     28  H   UNL A   1      39.345  21.400  25.264  1.00  0.00     0.163 HD
ATOM     29  O   UNL A   1      41.367  22.437  25.802  1.00  0.00    -0.269 OA
BRANCH  27  30
ATOM     30  C   UNL A   1      40.257  24.243  26.779  1.00  0.00     0.039 A 
ATOM     31  C   UNL A   1      41.036  25.297  26.264  1.00  0.00     0.014 A 
ATOM     32  C   UNL A   1      39.603  24.420  27.993  1.00  0.00     0.014 A 
ATOM     33  C   UNL A   1      41.148  26.507  26.958  1.00  0.00     0.010 A 
ATOM     34  C   UNL A   1      39.623  25.653  28.631  1.00  0.00     0.010 A 
ATOM     35  C   UNL A   1      40.447  26.684  28.155  1.00  0.00    -0.014 A 
BRANCH  35  36
ATOM     36  C   UNL A   1      40.683  27.825  29.070  1.00  0.00     0.031 A 
ATOM     37  C   UNL A   1      41.838  27.717  30.034  1.00  0.00     0.074 A 
ATOM     38  C   UNL A   1      39.820  28.853  29.130  1.00  0.00     0.049 A 
ATOM     39  N   UNL A   1      42.084  28.395  31.121  1.00  0.00    -0.248 NA
ATOM     40  C   UNL A   1      42.813  26.644  29.763  1.00  0.00     0.031 C 
ATOM     41  C   UNL A   1      38.668  29.048  28.250  1.00  0.00     0.029 A 
ATOM     42  N   UNL A   1      39.760  29.910  30.001  1.00  0.00    -0.354 N 
ATOM     43  C   UNL A   1      43.203  27.794  31.693  1.00  0.00     0.074 A 
ATOM     44  C   UNL A   1      43.555  26.669  30.858  1.00  0.00     0.031 C 
ATOM     45  C   UNL A   1      38.007  30.154  28.633  1.00  0.00     0.029 A 
ATOM     46  C   UNL A   1      38.662  30.716  29.811  1.00  0.00     0.049 A 
ATOM     47  H   UNL A   1      40.437  30.076  30.696  1.00  0.00     0.167 HD
ATOM     48  C   UNL A   1      43.881  28.162  32.805  1.00  0.00     0.037 A 
ATOM     49  C   UNL A   1      38.230  31.770  30.530  1.00  0.00     0.037 A 
ATOM     50  C   UNL A   1      43.542  29.326  33.579  1.00  0.00     0.049 A 
ATOM     51  C   UNL A   1      39.025  32.192  31.738  1.00  0.00     0.074 A 
ATOM     52  C   UNL A   1      44.184  29.845  34.688  1.00  0.00     0.029 A 
ATOM     53  N   UNL A   1      42.471  30.165  33.305  1.00  0.00    -0.354 N 
ATOM     54  N   UNL A   1      40.088  31.628  32.264  1.00  0.00    -0.248 NA
ATOM     55  C   UNL A   1      38.572  33.397  32.444  1.00  0.00     0.031 C 
ATOM     56  C   UNL A   1      43.483  30.983  35.102  1.00  0.00     0.029 A 
ATOM     57  C   UNL A   1      42.431  31.199  34.223  1.00  0.00     0.049 A 
ATOM     58  H   UNL A   1      41.831  30.043  32.566  1.00  0.00     0.167 HD
ATOM     59  C   UNL A   1      40.449  32.425  33.345  1.00  0.00     0.074 A 
ATOM     60  C   UNL A   1      39.496  33.517  33.387  1.00  0.00     0.031 C 
ATOM     61  C   UNL A   1      41.473  32.276  34.222  1.00  0.00     0.037 A 
BRANCH  48  62
ATOM     62  C   UNL A   1      45.045  27.307  33.237  1.00  0.00     0.058 A 
ATOM     63  C   UNL A   1      46.351  27.540  32.773  1.00  0.00     0.135 A 
ATOM     64  C   UNL A   1      44.855  26.244  34.135  1.00  0.00     0.135 A 
ATOM     65  F   UNL A   1      46.592  28.530  31.899  1.00  0.00    -0.206 F 
ATOM     66  C   UNL A   1      47.417  26.729  33.153  1.00  0.00     0.059 A 
ATOM     67  C   UNL A   1      45.912  25.440  34.555  1.00  0.00     0.059 A 
ATOM     68  F   UNL A   1      43.630  25.969  34.609  1.00  0.00    -0.206 F 
ATOM     69  C   UNL A   1      47.187  25.680  34.045  1.00  0.00     0.060 A 
BRANCH  69  70
ATOM     70  S   UNL A   1      48.582  24.642  34.529  1.00  0.00     0.124 S 
ATOM     71  O   UNL A   1      49.590  25.029  33.548  1.00  0.00    -0.237 OA
ATOM     72  O   UNL A   1      48.833  25.075  35.899  1.00  0.00    -0.237 OA
ATOM     73  O   UNL A   1      48.060  23.285  34.390  1.00  0.00    -0.744 OA
ENDBRANCH  69  70
ENDBRANCH  48  62
BRANCH  49  74
ATOM     74  C   UNL A   1      37.009  32.509  30.108  1.00  0.00     0.058 A 
ATOM     75  C   UNL A   1      35.760  32.212  30.674  1.00  0.00     0.135 A 
ATOM     76  C   UNL A   1      37.065  33.545  29.161  1.00  0.00     0.135 A 
ATOM     77  F   UNL A   1      35.654  31.229  31.580  1.00  0.00    -0.206 F 
ATOM     78  C   UNL A   1      34.610  32.904  30.311  1.00  0.00     0.059 A 
ATOM     79  C   UNL A   1      35.932  34.268  28.799  1.00  0.00     0.059 A 
ATOM     80  F   UNL A   1      38.238  33.882  28.602  1.00  0.00    -0.206 F 
ATOM     81  C   UNL A   1      34.707  33.935  29.374  1.00  0.00     0.060 A 
BRANCH  81  82
ATOM     82  S   UNL A   1      33.216  34.866  28.958  1.00  0.00     0.124 S 
ATOM     83  O   UNL A   1      32.609  34.013  27.942  1.00  0.00    -0.237 OA
ATOM     84  O   UNL A   1      32.522  34.923  30.242  1.00  0.00    -0.237 OA
ATOM     85  O   UNL A   1      33.740  36.142  28.480  1.00  0.00    -0.744 OA
ENDBRANCH  81  82
ENDBRANCH  49  74
BRANCH  61  86
ATOM     86  C   UNL A   1      41.640  33.344  35.266  1.00  0.00     0.058 A 
ATOM     87  C   UNL A   1      42.358  34.521  35.010  1.00  0.00     0.135 A 
ATOM     88  C   UNL A   1      41.029  33.203  36.522  1.00  0.00     0.135 A 
ATOM     89  F   UNL A   1      42.963  34.701  33.825  1.00  0.00    -0.206 F 
ATOM     90  C   UNL A   1      42.493  35.511  35.977  1.00  0.00     0.059 A 
ATOM     91  C   UNL A   1      41.126  34.193  37.494  1.00  0.00     0.059 A 
ATOM     92  F   UNL A   1      40.318  32.101  36.810  1.00  0.00    -0.206 F 
ATOM     93  C   UNL A   1      41.873  35.336  37.217  1.00  0.00     0.060 A 
BRANCH  93  94
ATOM     94  S   UNL A   1      42.037  36.637  38.456  1.00  0.00     0.124 S 
ATOM     95  O   UNL A   1      40.688  37.190  38.482  1.00  0.00    -0.237 OA
ATOM     96  O   UNL A   1      42.440  35.890  39.643  1.00  0.00    -0.237 OA
ATOM     97  O   UNL A   1      43.064  37.512  37.895  1.00  0.00    -0.744 OA
ENDBRANCH  93  94
ENDBRANCH  61  86
ENDBRANCH  35  36
ENDBRANCH  27  30
ENDBRANCH   1  26
TORSDOF 14
ENDMDL
MODEL 3
REMARK VINA RESULT:     -12.1      3.727      9.813
REMARK SMILES C[C@H]1C[N@H+]2CCC[C@@H]2CN1c1cc(Cl)ccc1C(=O)NCCCNC(=O)c1ccc(-c2c3nc(c(-c4c(F)cc(S(=O)(=O)[O-])cc4F)c4ccc([nH]4)c(-c4c(F)cc(S(=O)(=O)[O-])cc4F)c4nc(c(-c5c(F)cc(S(=O)(=O)[O-])cc5F)c5ccc2[nH]5)C=C4)C=C3)cc1
REMARK SMILES IDX 23 1 22 2 21 3 20 4 18 5 19 6 17 8 11 9 12 10 13 11 16 12
REMARK SMILES IDX 14 13 15 14 10 15 1 16 2 17 3 18 4 19 9 20 5 21 8 22 6 24
REMARK SMILES IDX 7 25 24 26 25 27 26 29 27 30 28 31 92 32 29 33 91 34 30 35
REMARK SMILES IDX 31 36 32 37 85 38 33 39 90 40 84 41 86 42 34 43 89 44 83 45
REMARK SMILES IDX 82 46 35 48 69 49 48 50 68 51 49 52 52 53 67 54 87 55 50 56
REMARK SMILES IDX 51 57 66 59 88 60 53 61 36 62 37 63 46 64 38 65 39 66 45 67
REMARK SMILES IDX 47 68 40 69 41 70 42 71 43 72 44 73 70 74 71 75 80 76 72 77
REMARK SMILES IDX 73 78 79 79 81 80 74 81 75 82 76 83 77 84 78 85 54 86 55 87
REMARK SMILES IDX 64 88 56 89 57 90 63 91 65 92 58 93 59 94 60 95 61 96 62 97
REMARK H PARENT 20 7 4 23 24 28 86 47 52 58
REMARK Flexibility Score: inf
ROOT
ATOM      1  C   UNL A   1      37.239  23.139  25.084  1.00  0.00     0.118 C 
ENDROOT
BRANCH   1   2
ATOM      2  C   UNL A   1      36.254  23.153  26.242  1.00  0.00     0.042 C 
BRANCH   2   3
ATOM      3  C   UNL A   1      34.804  23.003  25.831  1.00  0.00     0.118 C 
BRANCH   3   4
ATOM      4  N   UNL A   1      33.865  23.974  26.311  1.00  0.00    -0.352 N 
ATOM      5  C   UNL A   1      32.744  24.418  25.640  1.00  0.00     0.253 C 
ATOM      6  O   UNL A   1      31.734  24.568  26.339  1.00  0.00    -0.269 OA
ATOM      7  H   UNL A   1      34.036  24.358  27.201  1.00  0.00     0.163 HD
BRANCH   5   8
ATOM      8  C   UNL A   1      32.694  24.925  24.214  1.00  0.00     0.063 A 
ATOM      9  C   UNL A   1      32.660  26.239  23.669  1.00  0.00     0.052 A 
ATOM     10  C   UNL A   1      32.673  26.368  22.255  1.00  0.00     0.047 A 
ATOM     11  C   UNL A   1      32.682  25.268  21.400  1.00  0.00     0.043 A 
ATOM     12  C   UNL A   1      32.711  23.829  23.307  1.00  0.00     0.017 A 
ATOM     13  Cl  UNL A   1      32.676  25.499  19.696  1.00  0.00    -0.084 Cl
ATOM     14  C   UNL A   1      32.698  23.991  21.922  1.00  0.00     0.021 A 
BRANCH   9  15
ATOM     15  N   UNL A   1      32.628  27.425  24.405  1.00  0.00    -0.357 N 
ATOM     16  C   UNL A   1      30.224  27.931  23.848  1.00  0.00     0.037 C 
ATOM     17  C   UNL A   1      31.633  28.506  24.072  1.00  0.00     0.134 C 
ATOM     18  C   UNL A   1      31.525  29.576  25.220  1.00  0.00     0.287 C 
ATOM     19  N   UNL A   1      32.820  30.015  25.757  1.00  0.00    -0.329 N 
ATOM     20  C   UNL A   1      33.922  27.913  24.944  1.00  0.00     0.182 C 
ATOM     21  C   UNL A   1      32.715  30.782  27.005  1.00  0.00     0.262 C 
ATOM     22  C   UNL A   1      33.628  28.841  26.131  1.00  0.00     0.203 C 
ATOM     23  H   UNL A   1      33.227  30.589  25.019  1.00  0.00     0.348 HD
ATOM     24  C   UNL A   1      34.056  30.529  27.710  1.00  0.00     0.068 C 
ATOM     25  C   UNL A   1      34.786  29.500  26.844  1.00  0.00     0.073 C 
ENDBRANCH   9  15
ENDBRANCH   5   8
ENDBRANCH   3   4
ENDBRANCH   2   3
ENDBRANCH   1   2
BRANCH   1  26
ATOM     26  N   UNL A   1      38.545  22.561  25.401  1.00  0.00    -0.352 N 
ATOM     27  C   UNL A   1      39.642  22.986  26.109  1.00  0.00     0.251 C 
ATOM     28  H   UNL A   1      38.665  21.661  25.020  1.00  0.00     0.163 HD
ATOM     29  O   UNL A   1      40.613  22.231  26.175  1.00  0.00    -0.269 OA
BRANCH  27  30
ATOM     30  C   UNL A   1      39.727  24.304  26.781  1.00  0.00     0.039 A 
ATOM     31  C   UNL A   1      40.487  25.324  26.179  1.00  0.00     0.014 A 
ATOM     32  C   UNL A   1      39.192  24.519  28.046  1.00  0.00     0.014 A 
ATOM     33  C   UNL A   1      40.699  26.540  26.840  1.00  0.00     0.010 A 
ATOM     34  C   UNL A   1      39.308  25.760  28.658  1.00  0.00     0.010 A 
ATOM     35  C   UNL A   1      40.117  26.757  28.091  1.00  0.00    -0.014 A 
BRANCH  35  36
ATOM     36  C   UNL A   1      40.469  27.903  28.961  1.00  0.00     0.031 A 
ATOM     37  C   UNL A   1      41.706  27.773  29.815  1.00  0.00     0.074 A 
ATOM     38  C   UNL A   1      39.646  28.957  29.085  1.00  0.00     0.049 A 
ATOM     39  N   UNL A   1      42.072  28.458  30.864  1.00  0.00    -0.248 NA
ATOM     40  C   UNL A   1      42.620  26.668  29.473  1.00  0.00     0.031 C 
ATOM     41  C   UNL A   1      38.423  29.175  28.313  1.00  0.00     0.029 A 
ATOM     42  N   UNL A   1      39.698  30.027  29.940  1.00  0.00    -0.354 N 
ATOM     43  C   UNL A   1      43.222  27.831  31.338  1.00  0.00     0.074 A 
ATOM     44  C   UNL A   1      43.462  26.685  30.494  1.00  0.00     0.031 C 
ATOM     45  C   UNL A   1      37.833  30.305  28.737  1.00  0.00     0.029 A 
ATOM     46  C   UNL A   1      38.611  30.863  29.840  1.00  0.00     0.049 A 
ATOM     47  H   UNL A   1      40.442  30.182  30.566  1.00  0.00     0.167 HD
ATOM     48  C   UNL A   1      44.011  28.194  32.377  1.00  0.00     0.037 A 
ATOM     49  C   UNL A   1      38.278  31.940  30.578  1.00  0.00     0.037 A 
ATOM     50  C   UNL A   1      43.780  29.379  33.159  1.00  0.00     0.049 A 
ATOM     51  C   UNL A   1      39.195  32.355  31.700  1.00  0.00     0.074 A 
ATOM     52  C   UNL A   1      44.538  29.893  34.194  1.00  0.00     0.029 A 
ATOM     53  N   UNL A   1      42.712  30.246  32.972  1.00  0.00    -0.354 N 
ATOM     54  N   UNL A   1      40.286  31.765  32.134  1.00  0.00    -0.248 NA
ATOM     55  C   UNL A   1      38.845  33.582  32.424  1.00  0.00     0.031 C 
ATOM     56  C   UNL A   1      43.911  31.057  34.653  1.00  0.00     0.029 A 
ATOM     57  C   UNL A   1      42.788  31.293  33.873  1.00  0.00     0.049 A 
ATOM     58  H   UNL A   1      42.003  30.133  32.298  1.00  0.00     0.167 HD
ATOM     59  C   UNL A   1      40.769  32.566  33.163  1.00  0.00     0.074 A 
ATOM     60  C   UNL A   1      39.856  33.687  33.276  1.00  0.00     0.031 C 
ATOM     61  C   UNL A   1      41.866  32.398  33.944  1.00  0.00     0.037 A 
BRANCH  48  62
ATOM     62  C   UNL A   1      45.185  27.311  32.712  1.00  0.00     0.058 A 
ATOM     63  C   UNL A   1      45.088  26.266  33.647  1.00  0.00     0.135 A 
ATOM     64  C   UNL A   1      46.427  27.504  32.084  1.00  0.00     0.135 A 
ATOM     65  F   UNL A   1      43.932  26.043  34.294  1.00  0.00    -0.206 F 
ATOM     66  C   UNL A   1      46.184  25.473  33.974  1.00  0.00     0.059 A 
ATOM     67  C   UNL A   1      47.528  26.701  32.370  1.00  0.00     0.059 A 
ATOM     68  F   UNL A   1      46.584  28.489  31.184  1.00  0.00    -0.206 F 
ATOM     69  C   UNL A   1      47.400  25.698  33.329  1.00  0.00     0.060 A 
BRANCH  69  70
ATOM     70  S   UNL A   1      48.810  24.656  33.763  1.00  0.00     0.124 S 
ATOM     71  O   UNL A   1      49.429  25.431  34.832  1.00  0.00    -0.237 OA
ATOM     72  O   UNL A   1      48.164  23.413  34.173  1.00  0.00    -0.237 OA
ATOM     73  O   UNL A   1      49.572  24.581  32.519  1.00  0.00    -0.744 OA
ENDBRANCH  69  70
ENDBRANCH  48  62
BRANCH  49  74
ATOM     74  C   UNL A   1      37.045  32.709  30.259  1.00  0.00     0.058 A 
ATOM     75  C   UNL A   1      37.078  33.764  29.335  1.00  0.00     0.135 A 
ATOM     76  C   UNL A   1      35.807  32.390  30.840  1.00  0.00     0.135 A 
ATOM     77  F   UNL A   1      38.237  34.111  28.756  1.00  0.00    -0.206 F 
ATOM     78  C   UNL A   1      35.934  34.484  29.006  1.00  0.00     0.059 A 
ATOM     79  C   UNL A   1      34.644  33.080  30.508  1.00  0.00     0.059 A 
ATOM     80  F   UNL A   1      35.716  31.377  31.716  1.00  0.00    -0.206 F 
ATOM     81  C   UNL A   1      34.719  34.130  29.596  1.00  0.00     0.060 A 
BRANCH  81  82
ATOM     82  S   UNL A   1      33.230  35.032  29.113  1.00  0.00     0.124 S 
ATOM     83  O   UNL A   1      32.541  35.171  30.390  1.00  0.00    -0.237 OA
ATOM     84  O   UNL A   1      33.785  36.259  28.549  1.00  0.00    -0.237 OA
ATOM     85  O   UNL A   1      32.596  34.140  28.146  1.00  0.00    -0.744 OA
ENDBRANCH  81  82
ENDBRANCH  49  74
BRANCH  61  86
ATOM     86  C   UNL A   1      42.161  33.475  34.949  1.00  0.00     0.058 A 
ATOM     87  C   UNL A   1      43.003  34.556  34.649  1.00  0.00     0.135 A 
ATOM     88  C   UNL A   1      41.550  33.444  36.214  1.00  0.00     0.135 A 
ATOM     89  F   UNL A   1      43.611  34.628  33.455  1.00  0.00    -0.206 F 
ATOM     90  C   UNL A   1      43.256  35.556  35.581  1.00  0.00     0.059 A 
ATOM     91  C   UNL A   1      41.765  34.449  37.150  1.00  0.00     0.059 A 
ATOM     92  F   UNL A   1      40.724  32.439  36.543  1.00  0.00    -0.206 F 
ATOM     93  C   UNL A   1      42.632  35.493  36.830  1.00  0.00     0.060 A 
BRANCH  93  94
ATOM     94  S   UNL A   1      42.952  36.808  38.023  1.00  0.00     0.124 S 
ATOM     95  O   UNL A   1      44.078  36.258  38.770  1.00  0.00    -0.237 OA
ATOM     96  O   UNL A   1      43.257  37.945  37.161  1.00  0.00    -0.237 OA
ATOM     97  O   UNL A   1      41.697  36.907  38.762  1.00  0.00    -0.744 OA
ENDBRANCH  93  94
ENDBRANCH  61  86
ENDBRANCH  35  36
ENDBRANCH  27  30
ENDBRANCH   1  26
TORSDOF 14
ENDMDL
