MODEL 1
REMARK VINA RESULT:     -11.8      0.000      0.000
REMARK SMILES Nc1c(Cl)ccc2c1C=C(C(=O)NCCCNC(=O)c1ccc(-c3c4nc(c(-c5c(F)cc(S(=O)(=O)[O-])cc5F)c5ccc([nH]5)c(-c5c(F)cc(S(=O)(=O)[O-])cc5F)c5nc(c(-c6c(F)cc(S(=O)(=O)[O-])cc6F)c6ccc3[nH]6)C=C5)C=C4)cc1)[C@@H](C(F)(F)F)O2
REMARK SMILES IDX 16 1 15 2 14 3 13 4 11 5 12 6 10 8 2 9 3 10 8 11 4 12 5 13
REMARK SMILES IDX 7 14 9 15 6 16 91 17 86 18 1 19 87 22 88 23 89 24 90 25
REMARK SMILES IDX 17 26 18 27 19 29 20 30 21 31 85 32 22 33 84 34 23 35 24 36
REMARK SMILES IDX 25 37 78 38 26 39 83 40 77 41 79 42 27 43 82 44 76 45 75 46
REMARK SMILES IDX 28 48 62 49 41 50 61 51 42 52 45 53 60 54 80 55 43 56 44 57
REMARK SMILES IDX 59 59 81 60 46 61 29 62 30 63 39 64 31 65 32 66 38 67 40 68
REMARK SMILES IDX 33 69 34 70 35 71 36 72 37 73 63 74 64 75 73 76 65 77 66 78
REMARK SMILES IDX 72 79 74 80 67 81 68 82 69 83 70 84 71 85 47 86 48 87 57 88
REMARK SMILES IDX 49 89 50 90 56 91 58 92 51 93 52 94 53 95 54 96 55 97
REMARK H PARENT 13 7 1 20 1 21 17 28 79 47 45 58
REMARK Flexibility Score: inf
ROOT
ATOM      1  C   UNL A   1      33.964  28.215  26.558  1.00  0.00     0.118 C 
ENDROOT
BRANCH   1   2
ATOM      2  C   UNL A   1      34.071  28.111  25.040  1.00  0.00     0.042 C 
BRANCH   2   3
ATOM      3  C   UNL A   1      33.020  27.179  24.451  1.00  0.00     0.118 C 
BRANCH   3   4
ATOM      4  N   UNL A   1      32.132  26.649  25.476  1.00  0.00    -0.352 N 
ATOM      5  C   UNL A   1      31.870  25.450  26.043  1.00  0.00     0.251 C 
ATOM      6  O   UNL A   1      30.979  25.465  26.900  1.00  0.00    -0.270 OA
ATOM      7  H   UNL A   1      31.568  27.358  25.861  1.00  0.00     0.163 HD
BRANCH   5   8
ATOM      8  C   UNL A   1      32.567  24.171  25.723  1.00  0.00     0.067 C 
ATOM      9  C   UNL A   1      36.077  22.900  25.801  1.00  0.00     0.061 A 
ATOM     10  C   UNL A   1      36.733  21.703  25.432  1.00  0.00     0.064 A 
ATOM     11  C   UNL A   1      34.668  22.939  25.711  1.00  0.00     0.042 A 
ATOM     12  Cl  UNL A   1      38.464  21.599  25.460  1.00  0.00    -0.082 Cl
ATOM     13  C   UNL A   1      36.021  20.562  25.055  1.00  0.00     0.026 A 
ATOM     14  C   UNL A   1      33.968  21.787  25.319  1.00  0.00     0.130 A 
ATOM     15  C   UNL A   1      33.875  24.128  26.038  1.00  0.00     0.027 C 
ATOM     16  C   UNL A   1      34.633  20.603  25.011  1.00  0.00     0.049 A 
ATOM     17  O   UNL A   1      32.605  21.732  25.246  1.00  0.00    -0.475 OA
ATOM     18  C   UNL A   1      31.916  22.997  25.055  1.00  0.00     0.314 C 
BRANCH   9  19
ATOM     19  N   UNL A   1      36.832  24.038  26.111  1.00  0.00    -0.397 N 
ATOM     20  H   UNL A   1      36.667  24.524  26.951  1.00  0.00     0.156 HD
ATOM     21  H   UNL A   1      37.528  24.352  25.489  1.00  0.00     0.156 HD
ENDBRANCH   9  19
BRANCH  18  22
ATOM     22  C   UNL A   1      31.677  23.224  23.550  1.00  0.00     0.429 C 
ATOM     23  F   UNL A   1      31.824  22.063  22.864  1.00  0.00    -0.167 F 
ATOM     24  F   UNL A   1      30.428  23.672  23.281  1.00  0.00    -0.167 F 
ATOM     25  F   UNL A   1      32.537  24.121  23.014  1.00  0.00    -0.167 F 
ENDBRANCH  18  22
ENDBRANCH   5   8
ENDBRANCH   3   4
ENDBRANCH   2   3
ENDBRANCH   1   2
BRANCH   1  26
ATOM     26  N   UNL A   1      33.718  29.590  26.983  1.00  0.00    -0.352 N 
ATOM     27  C   UNL A   1      34.451  30.382  27.829  1.00  0.00     0.251 C 
ATOM     28  H   UNL A   1      32.910  30.009  26.607  1.00  0.00     0.163 HD
ATOM     29  O   UNL A   1      33.947  31.391  28.319  1.00  0.00    -0.269 OA
BRANCH  27  30
ATOM     30  C   UNL A   1      35.845  30.016  28.145  1.00  0.00     0.039 A 
ATOM     31  C   UNL A   1      36.161  29.520  29.412  1.00  0.00     0.014 A 
ATOM     32  C   UNL A   1      36.845  30.194  27.185  1.00  0.00     0.014 A 
ATOM     33  C   UNL A   1      37.476  29.149  29.697  1.00  0.00     0.010 A 
ATOM     34  C   UNL A   1      38.137  29.758  27.444  1.00  0.00     0.010 A 
ATOM     35  C   UNL A   1      38.467  29.246  28.708  1.00  0.00    -0.014 A 
BRANCH  35  36
ATOM     36  C   UNL A   1      39.875  28.884  28.981  1.00  0.00     0.031 A 
ATOM     37  C   UNL A   1      40.786  29.902  29.610  1.00  0.00     0.074 A 
ATOM     38  C   UNL A   1      40.342  27.674  28.617  1.00  0.00     0.049 A 
ATOM     39  N   UNL A   1      42.067  29.827  29.850  1.00  0.00    -0.248 NA
ATOM     40  C   UNL A   1      40.175  31.185  30.000  1.00  0.00     0.031 C 
ATOM     41  C   UNL A   1      39.554  26.618  27.980  1.00  0.00     0.029 A 
ATOM     42  N   UNL A   1      41.597  27.131  28.726  1.00  0.00    -0.354 N 
ATOM     43  C   UNL A   1      42.415  31.045  30.421  1.00  0.00     0.074 A 
ATOM     44  C   UNL A   1      41.226  31.868  30.429  1.00  0.00     0.031 C 
ATOM     45  C   UNL A   1      40.337  25.545  27.779  1.00  0.00     0.029 A 
ATOM     46  C   UNL A   1      41.689  25.849  28.239  1.00  0.00     0.049 A 
ATOM     47  H   UNL A   1      42.360  27.615  29.117  1.00  0.00     0.167 HD
ATOM     48  C   UNL A   1      43.610  31.431  30.925  1.00  0.00     0.037 A 
ATOM     49  C   UNL A   1      42.746  25.018  28.174  1.00  0.00     0.037 A 
ATOM     50  C   UNL A   1      44.782  30.600  30.931  1.00  0.00     0.049 A 
ATOM     51  C   UNL A   1      44.076  25.488  28.701  1.00  0.00     0.074 A 
ATOM     52  C   UNL A   1      46.039  30.888  31.432  1.00  0.00     0.029 A 
ATOM     53  N   UNL A   1      44.839  29.311  30.420  1.00  0.00    -0.354 N 
ATOM     54  N   UNL A   1      44.383  26.636  29.257  1.00  0.00    -0.248 NA
ATOM     55  C   UNL A   1      45.203  24.552  28.592  1.00  0.00     0.031 C 
ATOM     56  C   UNL A   1      46.864  29.783  31.198  1.00  0.00     0.029 A 
ATOM     57  C   UNL A   1      46.110  28.793  30.586  1.00  0.00     0.049 A 
ATOM     58  H   UNL A   1      44.084  28.836  30.002  1.00  0.00     0.167 HD
ATOM     59  C   UNL A   1      45.730  26.550  29.589  1.00  0.00     0.074 A 
ATOM     60  C   UNL A   1      46.177  25.234  29.179  1.00  0.00     0.031 C 
ATOM     61  C   UNL A   1      46.526  27.474  30.180  1.00  0.00     0.037 A 
BRANCH  48  62
ATOM     62  C   UNL A   1      43.697  32.799  31.540  1.00  0.00     0.058 A 
ATOM     63  C   UNL A   1      44.017  33.925  30.763  1.00  0.00     0.135 A 
ATOM     64  C   UNL A   1      43.418  32.998  32.900  1.00  0.00     0.135 A 
ATOM     65  F   UNL A   1      44.315  33.785  29.461  1.00  0.00    -0.206 F 
ATOM     66  C   UNL A   1      44.073  35.198  31.318  1.00  0.00     0.059 A 
ATOM     67  C   UNL A   1      43.444  34.268  33.471  1.00  0.00     0.059 A 
ATOM     68  F   UNL A   1      43.115  31.955  33.689  1.00  0.00    -0.206 F 
ATOM     69  C   UNL A   1      43.780  35.360  32.672  1.00  0.00     0.060 A 
BRANCH  69  70
ATOM     70  S   UNL A   1      43.832  37.025  33.367  1.00  0.00     0.124 S 
ATOM     71  O   UNL A   1      42.596  37.056  34.144  1.00  0.00    -0.237 OA
ATOM     72  O   UNL A   1      45.067  36.998  34.143  1.00  0.00    -0.237 OA
ATOM     73  O   UNL A   1      43.852  37.886  32.189  1.00  0.00    -0.744 OA
ENDBRANCH  69  70
ENDBRANCH  48  62
BRANCH  49  74
ATOM     74  C   UNL A   1      42.589  23.645  27.627  1.00  0.00     0.058 A 
ATOM     75  C   UNL A   1      42.408  22.551  28.486  1.00  0.00     0.135 A 
ATOM     76  C   UNL A   1      42.614  23.396  26.247  1.00  0.00     0.135 A 
ATOM     77  F   UNL A   1      42.382  22.739  29.814  1.00  0.00    -0.206 F 
ATOM     78  C   UNL A   1      42.277  21.255  27.998  1.00  0.00     0.059 A 
ATOM     79  C   UNL A   1      42.463  22.111  25.733  1.00  0.00     0.059 A 
ATOM     80  F   UNL A   1      42.768  24.411  25.382  1.00  0.00    -0.206 F 
ATOM     81  C   UNL A   1      42.305  21.045  26.619  1.00  0.00     0.060 A 
BRANCH  81  82
ATOM     82  S   UNL A   1      42.099  19.361  25.998  1.00  0.00     0.124 S 
ATOM     83  O   UNL A   1      42.599  18.572  27.117  1.00  0.00    -0.237 OA
ATOM     84  O   UNL A   1      40.660  19.297  25.762  1.00  0.00    -0.237 OA
ATOM     85  O   UNL A   1      42.925  19.345  24.794  1.00  0.00    -0.744 OA
ENDBRANCH  81  82
ENDBRANCH  49  74
BRANCH  61  86
ATOM     86  C   UNL A   1      47.954  27.093  30.445  1.00  0.00     0.058 A 
ATOM     87  C   UNL A   1      48.972  27.384  29.526  1.00  0.00     0.135 A 
ATOM     88  C   UNL A   1      48.317  26.502  31.668  1.00  0.00     0.135 A 
ATOM     89  F   UNL A   1      48.675  27.941  28.342  1.00  0.00    -0.206 F 
ATOM     90  C   UNL A   1      50.303  27.095  29.805  1.00  0.00     0.059 A 
ATOM     91  C   UNL A   1      49.644  26.228  31.978  1.00  0.00     0.059 A 
ATOM     92  F   UNL A   1      47.379  26.214  32.584  1.00  0.00    -0.206 F 
ATOM     93  C   UNL A   1      50.630  26.523  31.036  1.00  0.00     0.060 A 
BRANCH  93  94
ATOM     94  S   UNL A   1      52.369  26.206  31.406  1.00  0.00     0.124 S 
ATOM     95  O   UNL A   1      52.975  26.315  30.082  1.00  0.00    -0.237 OA
ATOM     96  O   UNL A   1      52.689  27.281  32.340  1.00  0.00    -0.237 OA
ATOM     97  O   UNL A   1      52.356  24.865  31.982  1.00  0.00    -0.744 OA
ENDBRANCH  93  94
ENDBRANCH  61  86
ENDBRANCH  35  36
ENDBRANCH  27  30
ENDBRANCH   1  26
TORSDOF 15
ENDMDL
MODEL 2
REMARK VINA RESULT:     -11.7      2.434      3.850
REMARK SMILES Nc1c(Cl)ccc2c1C=C(C(=O)NCCCNC(=O)c1ccc(-c3c4nc(c(-c5c(F)cc(S(=O)(=O)[O-])cc5F)c5ccc([nH]5)c(-c5c(F)cc(S(=O)(=O)[O-])cc5F)c5nc(c(-c6c(F)cc(S(=O)(=O)[O-])cc6F)c6ccc3[nH]6)C=C5)C=C4)cc1)[C@@H](C(F)(F)F)O2
REMARK SMILES IDX 16 1 15 2 14 3 13 4 11 5 12 6 10 8 2 9 3 10 8 11 4 12 5 13
REMARK SMILES IDX 7 14 9 15 6 16 91 17 86 18 1 19 87 22 88 23 89 24 90 25
REMARK SMILES IDX 17 26 18 27 19 29 20 30 21 31 85 32 22 33 84 34 23 35 24 36
REMARK SMILES IDX 25 37 78 38 26 39 83 40 77 41 79 42 27 43 82 44 76 45 75 46
REMARK SMILES IDX 28 48 62 49 41 50 61 51 42 52 45 53 60 54 80 55 43 56 44 57
REMARK SMILES IDX 59 59 81 60 46 61 29 62 30 63 39 64 31 65 32 66 38 67 40 68
REMARK SMILES IDX 33 69 34 70 35 71 36 72 37 73 63 74 64 75 73 76 65 77 66 78
REMARK SMILES IDX 72 79 74 80 67 81 68 82 69 83 70 84 71 85 47 86 48 87 57 88
REMARK SMILES IDX 49 89 50 90 56 91 58 92 51 93 52 94 53 95 54 96 55 97
REMARK H PARENT 13 7 1 20 1 21 17 28 79 47 45 58
REMARK Flexibility Score: inf
ROOT
ATOM      1  C   UNL A   1      33.711  28.033  26.963  1.00  0.00     0.118 C 
ENDROOT
BRANCH   1   2
ATOM      2  C   UNL A   1      33.737  27.516  25.528  1.00  0.00     0.042 C 
BRANCH   2   3
ATOM      3  C   UNL A   1      33.630  25.998  25.461  1.00  0.00     0.118 C 
BRANCH   3   4
ATOM      4  N   UNL A   1      33.469  25.528  24.093  1.00  0.00    -0.352 N 
ATOM      5  C   UNL A   1      32.516  25.558  23.135  1.00  0.00     0.251 C 
ATOM      6  O   UNL A   1      32.820  24.986  22.081  1.00  0.00    -0.270 OA
ATOM      7  H   UNL A   1      34.276  25.058  23.780  1.00  0.00     0.163 HD
BRANCH   5   8
ATOM      8  C   UNL A   1      31.186  26.222  23.258  1.00  0.00     0.067 C 
ATOM      9  C   UNL A   1      29.684  29.495  22.273  1.00  0.00     0.061 A 
ATOM     10  C   UNL A   1      28.438  30.138  22.455  1.00  0.00     0.064 A 
ATOM     11  C   UNL A   1      29.816  28.163  22.723  1.00  0.00     0.042 A 
ATOM     12  Cl  UNL A   1      28.219  31.792  21.981  1.00  0.00    -0.082 Cl
ATOM     13  C   UNL A   1      27.339  29.468  22.998  1.00  0.00     0.026 A 
ATOM     14  C   UNL A   1      28.706  27.508  23.276  1.00  0.00     0.130 A 
ATOM     15  C   UNL A   1      31.063  27.398  22.617  1.00  0.00     0.027 C 
ATOM     16  C   UNL A   1      27.473  28.145  23.398  1.00  0.00     0.049 A 
ATOM     17  O   UNL A   1      28.740  26.208  23.699  1.00  0.00    -0.475 OA
ATOM     18  C   UNL A   1      30.044  25.683  24.066  1.00  0.00     0.314 C 
BRANCH   9  19
ATOM     19  N   UNL A   1      30.777  30.224  21.783  1.00  0.00    -0.397 N 
ATOM     20  H   UNL A   1      31.006  31.094  22.182  1.00  0.00     0.156 HD
ATOM     21  H   UNL A   1      31.314  29.865  21.040  1.00  0.00     0.156 HD
ENDBRANCH   9  19
BRANCH  18  22
ATOM     22  C   UNL A   1      30.253  25.855  25.583  1.00  0.00     0.429 C 
ATOM     23  F   UNL A   1      29.084  25.676  26.247  1.00  0.00    -0.167 F 
ATOM     24  F   UNL A   1      31.125  24.956  26.096  1.00  0.00    -0.167 F 
ATOM     25  F   UNL A   1      30.719  27.082  25.910  1.00  0.00    -0.167 F 
ENDBRANCH  18  22
ENDBRANCH   5   8
ENDBRANCH   3   4
ENDBRANCH   2   3
ENDBRANCH   1   2
BRANCH   1  26
ATOM     26  N   UNL A   1      33.567  29.485  27.003  1.00  0.00    -0.352 N 
ATOM     27  C   UNL A   1      34.375  30.421  27.597  1.00  0.00     0.251 C 
ATOM     28  H   UNL A   1      32.777  29.844  26.538  1.00  0.00     0.163 HD
ATOM     29  O   UNL A   1      33.952  31.557  27.802  1.00  0.00    -0.269 OA
BRANCH  27  30
ATOM     30  C   UNL A   1      35.750  30.057  27.984  1.00  0.00     0.039 A 
ATOM     31  C   UNL A   1      36.020  29.662  29.296  1.00  0.00     0.014 A 
ATOM     32  C   UNL A   1      36.781  30.136  27.043  1.00  0.00     0.014 A 
ATOM     33  C   UNL A   1      37.318  29.290  29.650  1.00  0.00     0.010 A 
ATOM     34  C   UNL A   1      38.056  29.699  27.375  1.00  0.00     0.010 A 
ATOM     35  C   UNL A   1      38.338  29.287  28.686  1.00  0.00    -0.014 A 
BRANCH  35  36
ATOM     36  C   UNL A   1      39.731  28.922  29.031  1.00  0.00     0.031 A 
ATOM     37  C   UNL A   1      40.602  29.930  29.730  1.00  0.00     0.074 A 
ATOM     38  C   UNL A   1      40.220  27.721  28.671  1.00  0.00     0.049 A 
ATOM     39  N   UNL A   1      41.868  29.852  30.039  1.00  0.00    -0.248 NA
ATOM     40  C   UNL A   1      39.966  31.204  30.109  1.00  0.00     0.031 C 
ATOM     41  C   UNL A   1      39.472  26.675  27.970  1.00  0.00     0.029 A 
ATOM     42  N   UNL A   1      41.469  27.178  28.839  1.00  0.00    -0.354 N 
ATOM     43  C   UNL A   1      42.180  31.060  30.652  1.00  0.00     0.074 A 
ATOM     44  C   UNL A   1      40.989  31.880  30.609  1.00  0.00     0.031 C 
ATOM     45  C   UNL A   1      40.269  25.608  27.792  1.00  0.00     0.029 A 
ATOM     46  C   UNL A   1      41.592  25.905  28.333  1.00  0.00     0.049 A 
ATOM     47  H   UNL A   1      42.208  27.655  29.281  1.00  0.00     0.167 HD
ATOM     48  C   UNL A   1      43.344  31.439  31.228  1.00  0.00     0.037 A 
ATOM     49  C   UNL A   1      42.653  25.077  28.312  1.00  0.00     0.037 A 
ATOM     50  C   UNL A   1      44.516  30.609  31.285  1.00  0.00     0.049 A 
ATOM     51  C   UNL A   1      43.951  25.540  28.921  1.00  0.00     0.074 A 
ATOM     52  C   UNL A   1      45.742  30.890  31.860  1.00  0.00     0.029 A 
ATOM     53  N   UNL A   1      44.605  29.331  30.753  1.00  0.00    -0.354 N 
ATOM     54  N   UNL A   1      44.223  26.678  29.515  1.00  0.00    -0.248 NA
ATOM     55  C   UNL A   1      45.084  24.608  28.857  1.00  0.00     0.031 C 
ATOM     56  C   UNL A   1      46.582  29.791  31.652  1.00  0.00     0.029 A 
ATOM     57  C   UNL A   1      45.867  28.812  30.980  1.00  0.00     0.049 A 
ATOM     58  H   UNL A   1      43.876  28.862  30.284  1.00  0.00     0.167 HD
ATOM     59  C   UNL A   1      45.550  26.588  29.920  1.00  0.00     0.074 A 
ATOM     60  C   UNL A   1      46.023  25.281  29.510  1.00  0.00     0.031 C 
ATOM     61  C   UNL A   1      46.309  27.502  30.572  1.00  0.00     0.037 A 
BRANCH  48  62
ATOM     62  C   UNL A   1      43.392  32.794  31.873  1.00  0.00     0.058 A 
ATOM     63  C   UNL A   1      43.034  32.970  33.220  1.00  0.00     0.135 A 
ATOM     64  C   UNL A   1      43.836  33.918  31.160  1.00  0.00     0.135 A 
ATOM     65  F   UNL A   1      42.580  31.931  33.940  1.00  0.00    -0.206 F 
ATOM     66  C   UNL A   1      43.101  34.216  33.833  1.00  0.00     0.059 A 
ATOM     67  C   UNL A   1      43.936  35.170  31.761  1.00  0.00     0.059 A 
ATOM     68  F   UNL A   1      44.183  33.806  29.868  1.00  0.00    -0.206 F 
ATOM     69  C   UNL A   1      43.558  35.309  33.097  1.00  0.00     0.060 A 
BRANCH  69  70
ATOM     70  S   UNL A   1      43.662  36.913  33.919  1.00  0.00     0.124 S 
ATOM     71  O   UNL A   1      43.527  37.829  32.789  1.00  0.00    -0.237 OA
ATOM     72  O   UNL A   1      42.528  36.866  34.835  1.00  0.00    -0.237 OA
ATOM     73  O   UNL A   1      44.978  36.888  34.549  1.00  0.00    -0.744 OA
ENDBRANCH  69  70
ENDBRANCH  48  62
BRANCH  49  74
ATOM     74  C   UNL A   1      42.531  23.715  27.730  1.00  0.00     0.058 A 
ATOM     75  C   UNL A   1      42.349  22.599  28.560  1.00  0.00     0.135 A 
ATOM     76  C   UNL A   1      42.591  23.498  26.346  1.00  0.00     0.135 A 
ATOM     77  F   UNL A   1      42.291  22.757  29.891  1.00  0.00    -0.206 F 
ATOM     78  C   UNL A   1      42.250  21.313  28.041  1.00  0.00     0.059 A 
ATOM     79  C   UNL A   1      42.473  22.223  25.800  1.00  0.00     0.059 A 
ATOM     80  F   UNL A   1      42.748  24.535  25.507  1.00  0.00    -0.206 F 
ATOM     81  C   UNL A   1      42.313  21.134  26.658  1.00  0.00     0.060 A 
BRANCH  81  82
ATOM     82  S   UNL A   1      42.148  19.463  25.995  1.00  0.00     0.124 S 
ATOM     83  O   UNL A   1      42.996  19.532  24.811  1.00  0.00    -0.237 OA
ATOM     84  O   UNL A   1      42.652  18.647  27.095  1.00  0.00    -0.237 OA
ATOM     85  O   UNL A   1      40.715  19.342  25.741  1.00  0.00    -0.744 OA
ENDBRANCH  81  82
ENDBRANCH  49  74
BRANCH  61  86
ATOM     86  C   UNL A   1      47.720  27.118  30.909  1.00  0.00     0.058 A 
ATOM     87  C   UNL A   1      48.014  26.304  32.013  1.00  0.00     0.135 A 
ATOM     88  C   UNL A   1      48.781  27.502  30.071  1.00  0.00     0.135 A 
ATOM     89  F   UNL A   1      47.036  25.917  32.846  1.00  0.00    -0.206 F 
ATOM     90  C   UNL A   1      49.314  25.890  32.280  1.00  0.00     0.059 A 
ATOM     91  C   UNL A   1      50.084  27.079  30.306  1.00  0.00     0.059 A 
ATOM     92  F   UNL A   1      48.548  28.272  28.996  1.00  0.00    -0.206 F 
ATOM     93  C   UNL A   1      50.342  26.278  31.418  1.00  0.00     0.060 A 
BRANCH  93  94
ATOM     94  S   UNL A   1      52.015  25.685  31.749  1.00  0.00     0.124 S 
ATOM     95  O   UNL A   1      52.665  25.908  30.461  1.00  0.00    -0.237 OA
ATOM     96  O   UNL A   1      52.445  26.559  32.836  1.00  0.00    -0.237 OA
ATOM     97  O   UNL A   1      51.815  24.287  32.117  1.00  0.00    -0.744 OA
ENDBRANCH  93  94
ENDBRANCH  61  86
ENDBRANCH  35  36
ENDBRANCH  27  30
ENDBRANCH   1  26
TORSDOF 15
ENDMDL
MODEL 3
REMARK VINA RESULT:     -11.5      3.414      4.770
REMARK SMILES Nc1c(Cl)ccc2c1C=C(C(=O)NCCCNC(=O)c1ccc(-c3c4nc(c(-c5c(F)cc(S(=O)(=O)[O-])cc5F)c5ccc([nH]5)c(-c5c(F)cc(S(=O)(=O)[O-])cc5F)c5nc(c(-c6c(F)cc(S(=O)(=O)[O-])cc6F)c6ccc3[nH]6)C=C5)C=C4)cc1)[C@@H](C(F)(F)F)O2
REMARK SMILES IDX 16 1 15 2 14 3 13 4 11 5 12 6 10 8 2 9 3 10 8 11 4 12 5 13
REMARK SMILES IDX 7 14 9 15 6 16 91 17 86 18 1 19 87 22 88 23 89 24 90 25
REMARK SMILES IDX 17 26 18 27 19 29 20 30 21 31 85 32 22 33 84 34 23 35 24 36
REMARK SMILES IDX 25 37 78 38 26 39 83 40 77 41 79 42 27 43 82 44 76 45 75 46
REMARK SMILES IDX 28 48 62 49 41 50 61 51 42 52 45 53 60 54 80 55 43 56 44 57
REMARK SMILES IDX 59 59 81 60 46 61 29 62 30 63 39 64 31 65 32 66 38 67 40 68
REMARK SMILES IDX 33 69 34 70 35 71 36 72 37 73 63 74 64 75 73 76 65 77 66 78
REMARK SMILES IDX 72 79 74 80 67 81 68 82 69 83 70 84 71 85 47 86 48 87 57 88
REMARK SMILES IDX 49 89 50 90 56 91 58 92 51 93 52 94 53 95 54 96 55 97
REMARK H PARENT 13 7 1 20 1 21 17 28 79 47 45 58
REMARK Flexibility Score: inf
ROOT
ATOM      1  C   UNL A   1      33.770  28.047  26.668  1.00  0.00     0.118 C 
ENDROOT
BRANCH   1   2
ATOM      2  C   UNL A   1      33.758  27.431  25.273  1.00  0.00     0.042 C 
BRANCH   2   3
ATOM      3  C   UNL A   1      33.713  25.910  25.315  1.00  0.00     0.118 C 
BRANCH   3   4
ATOM      4  N   UNL A   1      33.452  25.340  24.002  1.00  0.00    -0.352 N 
ATOM      5  C   UNL A   1      32.449  25.342  23.096  1.00  0.00     0.251 C 
ATOM      6  O   UNL A   1      32.664  24.672  22.080  1.00  0.00    -0.270 OA
ATOM      7  H   UNL A   1      34.216  24.804  23.687  1.00  0.00     0.163 HD
BRANCH   5   8
ATOM      8  C   UNL A   1      31.160  26.082  23.235  1.00  0.00     0.067 C 
ATOM      9  C   UNL A   1      29.841  29.437  22.261  1.00  0.00     0.061 A 
ATOM     10  C   UNL A   1      28.636  30.151  22.457  1.00  0.00     0.064 A 
ATOM     11  C   UNL A   1      29.900  28.099  22.712  1.00  0.00     0.042 A 
ATOM     12  Cl  UNL A   1      28.508  31.814  21.984  1.00  0.00    -0.082 Cl
ATOM     13  C   UNL A   1      27.506  29.547  23.014  1.00  0.00     0.026 A 
ATOM     14  C   UNL A   1      28.760  27.510  23.280  1.00  0.00     0.130 A 
ATOM     15  C   UNL A   1      31.099  27.263  22.592  1.00  0.00     0.027 C 
ATOM     16  C   UNL A   1      27.567  28.218  23.414  1.00  0.00     0.049 A 
ATOM     17  O   UNL A   1      28.723  26.212  23.704  1.00  0.00    -0.475 OA
ATOM     18  C   UNL A   1      29.998  25.612  24.056  1.00  0.00     0.314 C 
BRANCH   9  19
ATOM     19  N   UNL A   1      30.967  30.100  21.758  1.00  0.00    -0.397 N 
ATOM     20  H   UNL A   1      30.960  30.455  20.840  1.00  0.00     0.156 HD
ATOM     21  H   UNL A   1      31.766  30.211  22.323  1.00  0.00     0.156 HD
ENDBRANCH   9  19
BRANCH  18  22
ATOM     22  C   UNL A   1      30.235  25.772  25.570  1.00  0.00     0.429 C 
ATOM     23  F   UNL A   1      29.073  25.615  26.253  1.00  0.00    -0.167 F 
ATOM     24  F   UNL A   1      31.097  24.853  26.066  1.00  0.00    -0.167 F 
ATOM     25  F   UNL A   1      30.731  26.988  25.895  1.00  0.00    -0.167 F 
ENDBRANCH  18  22
ENDBRANCH   5   8
ENDBRANCH   3   4
ENDBRANCH   2   3
ENDBRANCH   1   2
BRANCH   1  26
ATOM     26  N   UNL A   1      33.667  29.503  26.609  1.00  0.00    -0.352 N 
ATOM     27  C   UNL A   1      34.388  30.452  27.287  1.00  0.00     0.251 C 
ATOM     28  H   UNL A   1      32.981  29.852  25.995  1.00  0.00     0.163 HD
ATOM     29  O   UNL A   1      33.972  31.607  27.357  1.00  0.00    -0.269 OA
BRANCH  27  30
ATOM     30  C   UNL A   1      35.664  30.080  27.926  1.00  0.00     0.039 A 
ATOM     31  C   UNL A   1      36.852  30.144  27.193  1.00  0.00     0.014 A 
ATOM     32  C   UNL A   1      35.674  29.639  29.253  1.00  0.00     0.014 A 
ATOM     33  C   UNL A   1      38.060  29.818  27.812  1.00  0.00     0.010 A 
ATOM     34  C   UNL A   1      36.882  29.384  29.888  1.00  0.00     0.010 A 
ATOM     35  C   UNL A   1      38.083  29.457  29.168  1.00  0.00    -0.014 A 
BRANCH  35  36
ATOM     36  C   UNL A   1      39.343  29.082  29.849  1.00  0.00     0.031 A 
ATOM     37  C   UNL A   1      39.771  29.847  31.072  1.00  0.00     0.074 A 
ATOM     38  C   UNL A   1      40.117  28.104  29.342  1.00  0.00     0.049 A 
ATOM     39  N   UNL A   1      40.874  29.747  31.763  1.00  0.00    -0.248 NA
ATOM     40  C   UNL A   1      38.842  30.878  31.566  1.00  0.00     0.031 C 
ATOM     41  C   UNL A   1      39.811  27.312  28.150  1.00  0.00     0.029 A 
ATOM     42  N   UNL A   1      41.326  27.612  29.765  1.00  0.00    -0.354 N 
ATOM     43  C   UNL A   1      40.771  30.695  32.774  1.00  0.00     0.074 A 
ATOM     44  C   UNL A   1      39.530  31.407  32.566  1.00  0.00     0.031 C 
ATOM     45  C   UNL A   1      40.793  26.417  27.952  1.00  0.00     0.029 A 
ATOM     46  C   UNL A   1      41.814  26.594  28.981  1.00  0.00     0.049 A 
ATOM     47  H   UNL A   1      41.800  27.958  30.556  1.00  0.00     0.167 HD
ATOM     48  C   UNL A   1      41.618  30.927  33.803  1.00  0.00     0.037 A 
ATOM     49  C   UNL A   1      42.956  25.888  29.085  1.00  0.00     0.037 A 
ATOM     50  C   UNL A   1      42.840  30.200  34.014  1.00  0.00     0.049 A 
ATOM     51  C   UNL A   1      43.903  26.196  30.214  1.00  0.00     0.074 A 
ATOM     52  C   UNL A   1      43.762  30.344  35.034  1.00  0.00     0.029 A 
ATOM     53  N   UNL A   1      43.305  29.183  33.193  1.00  0.00    -0.354 N 
ATOM     54  N   UNL A   1      43.781  27.082  31.173  1.00  0.00    -0.248 NA
ATOM     55  C   UNL A   1      45.143  25.411  30.274  1.00  0.00     0.031 C 
ATOM     56  C   UNL A   1      44.800  29.432  34.815  1.00  0.00     0.029 A 
ATOM     57  C   UNL A   1      44.505  28.695  33.679  1.00  0.00     0.049 A 
ATOM     58  H   UNL A   1      42.847  28.855  32.384  1.00  0.00     0.167 HD
ATOM     59  C   UNL A   1      44.913  26.942  31.968  1.00  0.00     0.074 A 
ATOM     60  C   UNL A   1      45.705  25.880  31.380  1.00  0.00     0.031 C 
ATOM     61  C   UNL A   1      45.267  27.628  33.082  1.00  0.00     0.037 A 
BRANCH  48  62
ATOM     62  C   UNL A   1      41.233  31.987  34.795  1.00  0.00     0.058 A 
ATOM     63  C   UNL A   1      41.715  33.301  34.677  1.00  0.00     0.135 A 
ATOM     64  C   UNL A   1      40.347  31.705  35.846  1.00  0.00     0.135 A 
ATOM     65  F   UNL A   1      42.584  33.617  33.703  1.00  0.00    -0.206 F 
ATOM     66  C   UNL A   1      41.343  34.295  35.574  1.00  0.00     0.059 A 
ATOM     67  C   UNL A   1      39.941  32.691  36.742  1.00  0.00     0.059 A 
ATOM     68  F   UNL A   1      39.864  30.463  36.009  1.00  0.00    -0.206 F 
ATOM     69  C   UNL A   1      40.451  33.981  36.601  1.00  0.00     0.060 A 
BRANCH  69  70
ATOM     70  S   UNL A   1      39.961  35.293  37.740  1.00  0.00     0.124 S 
ATOM     71  O   UNL A   1      38.731  34.744  38.304  1.00  0.00    -0.237 OA
ATOM     72  O   UNL A   1      41.100  35.357  38.648  1.00  0.00    -0.237 OA
ATOM     73  O   UNL A   1      39.787  36.452  36.870  1.00  0.00    -0.744 OA
ENDBRANCH  69  70
ENDBRANCH  48  62
BRANCH  49  74
ATOM     74  C   UNL A   1      43.252  24.796  28.121  1.00  0.00     0.058 A 
ATOM     75  C   UNL A   1      43.921  25.067  26.919  1.00  0.00     0.135 A 
ATOM     76  C   UNL A   1      42.878  23.468  28.377  1.00  0.00     0.135 A 
ATOM     77  F   UNL A   1      44.294  26.322  26.629  1.00  0.00    -0.206 F 
ATOM     78  C   UNL A   1      44.194  24.065  25.994  1.00  0.00     0.059 A 
ATOM     79  C   UNL A   1      43.159  22.444  27.477  1.00  0.00     0.059 A 
ATOM     80  F   UNL A   1      42.250  23.153  29.520  1.00  0.00    -0.206 F 
ATOM     81  C   UNL A   1      43.809  22.755  26.282  1.00  0.00     0.060 A 
BRANCH  81  82
ATOM     82  S   UNL A   1      44.199  21.458  25.087  1.00  0.00     0.124 S 
ATOM     83  O   UNL A   1      43.167  20.470  25.380  1.00  0.00    -0.237 OA
ATOM     84  O   UNL A   1      44.067  22.163  23.817  1.00  0.00    -0.237 OA
ATOM     85  O   UNL A   1      45.562  21.073  25.444  1.00  0.00    -0.744 OA
ENDBRANCH  81  82
ENDBRANCH  49  74
BRANCH  61  86
ATOM     86  C   UNL A   1      46.550  27.239  33.758  1.00  0.00     0.058 A 
ATOM     87  C   UNL A   1      46.590  26.224  34.725  1.00  0.00     0.135 A 
ATOM     88  C   UNL A   1      47.764  27.833  33.373  1.00  0.00     0.135 A 
ATOM     89  F   UNL A   1      45.456  25.631  35.129  1.00  0.00    -0.206 F 
ATOM     90  C   UNL A   1      47.790  25.816  35.296  1.00  0.00     0.059 A 
ATOM     91  C   UNL A   1      48.978  27.424  33.913  1.00  0.00     0.059 A 
ATOM     92  F   UNL A   1      47.778  28.802  32.444  1.00  0.00    -0.206 F 
ATOM     93  C   UNL A   1      48.980  26.418  34.880  1.00  0.00     0.060 A 
BRANCH  93  94
ATOM     94  S   UNL A   1      50.534  25.837  35.591  1.00  0.00     0.124 S 
ATOM     95  O   UNL A   1      51.287  27.082  35.706  1.00  0.00    -0.237 OA
ATOM     96  O   UNL A   1      50.098  25.241  36.850  1.00  0.00    -0.237 OA
ATOM     97  O   UNL A   1      51.032  24.893  34.596  1.00  0.00    -0.744 OA
ENDBRANCH  93  94
ENDBRANCH  61  86
ENDBRANCH  35  36
ENDBRANCH  27  30
ENDBRANCH   1  26
TORSDOF 15
ENDMDL
