MODEL 1
REMARK VINA RESULT:     -11.2      0.000      0.000
REMARK SMILES CC1(C(=O)N[C@H](C(=O)NCCCNC(=O)c2ccc(-c3c4nc(c(-c5c(F)cc(S(=O)(=O)[O-])cc5F)c5ccc([nH]5)c(-c5c(F)cc(S(=O)(=O)[O-])cc5F)c5nc(c(-c6c(F)cc(S(=O)(=O)[O-])cc6F)c6ccc3[nH]6)C=C5)C=C4)cc2)C2CC2)CCCC1
REMARK SMILES IDX 11 1 10 2 9 3 7 4 8 5 6 7 5 8 3 9 4 10 2 12 1 13 85 14 88 15
REMARK SMILES IDX 86 16 87 17 82 18 83 19 84 20 12 21 13 22 14 23 15 25 16 26
REMARK SMILES IDX 17 27 81 28 18 29 80 30 19 31 20 32 21 33 74 34 22 35 79 36
REMARK SMILES IDX 73 37 75 38 23 39 78 40 72 41 71 42 24 44 58 45 37 46 57 47
REMARK SMILES IDX 38 48 41 49 56 50 76 51 39 52 40 53 55 55 77 56 42 57 25 58
REMARK SMILES IDX 26 59 35 60 27 61 28 62 34 63 36 64 29 65 30 66 31 67 32 68
REMARK SMILES IDX 33 69 59 70 60 71 69 72 61 73 62 74 68 75 70 76 63 77 64 78
REMARK SMILES IDX 65 79 66 80 67 81 43 82 44 83 53 84 45 85 46 86 52 87 54 88
REMARK SMILES IDX 47 89 48 90 49 91 50 92 51 93
REMARK H PARENT 9 6 5 11 13 24 75 43 41 54
REMARK Flexibility Score: inf
ROOT
ATOM      1  C   UNL A   1      32.309  27.531  26.886  1.00  0.00     0.042 C 
ENDROOT
BRANCH   1   2
ATOM      2  C   UNL A   1      32.426  26.098  26.385  1.00  0.00     0.117 C 
BRANCH   2   3
ATOM      3  N   UNL A   1      31.356  25.254  26.878  1.00  0.00    -0.354 N 
ATOM      4  C   UNL A   1      30.909  24.051  26.419  1.00  0.00     0.242 C 
ATOM      5  O   UNL A   1      30.118  23.431  27.138  1.00  0.00    -0.273 OA
ATOM      6  H   UNL A   1      30.879  25.603  27.665  1.00  0.00     0.163 HD
BRANCH   4   7
ATOM      7  C   UNL A   1      31.510  23.392  25.148  1.00  0.00     0.174 C 
BRANCH   7   8
ATOM      8  N   UNL A   1      31.594  21.938  25.241  1.00  0.00    -0.344 N 
ATOM      9  C   UNL A   1      32.644  21.079  25.248  1.00  0.00     0.226 C 
ATOM     10  O   UNL A   1      32.354  19.885  25.364  1.00  0.00    -0.274 OA
ATOM     11  H   UNL A   1      30.718  21.495  25.313  1.00  0.00     0.164 HD
BRANCH   9  12
ATOM     12  C   UNL A   1      34.099  21.534  25.055  1.00  0.00     0.046 C 
ATOM     13  C   UNL A   1      35.026  20.313  24.969  1.00  0.00     0.022 C 
ATOM     14  C   UNL A   1      34.527  22.426  26.245  1.00  0.00     0.016 C 
ATOM     15  C   UNL A   1      34.287  22.507  23.886  1.00  0.00     0.016 C 
ATOM     16  C   UNL A   1      35.720  23.222  25.738  1.00  0.00     0.001 C 
ATOM     17  C   UNL A   1      35.475  23.404  24.246  1.00  0.00     0.001 C 
ENDBRANCH   9  12
ENDBRANCH   7   8
BRANCH   7  18
ATOM     18  C   UNL A   1      30.720  23.820  23.921  1.00  0.00     0.021 C 
ATOM     19  C   UNL A   1      30.466  25.289  23.668  1.00  0.00     0.006 C 
ATOM     20  C   UNL A   1      31.317  24.513  22.710  1.00  0.00     0.006 C 
ENDBRANCH   7  18
ENDBRANCH   4   7
ENDBRANCH   2   3
ENDBRANCH   1   2
BRANCH   1  21
ATOM     21  C   UNL A   1      33.653  28.218  27.111  1.00  0.00     0.118 C 
BRANCH  21  22
ATOM     22  N   UNL A   1      33.511  29.624  27.464  1.00  0.00    -0.352 N 
ATOM     23  C   UNL A   1      34.388  30.471  28.088  1.00  0.00     0.251 C 
ATOM     24  H   UNL A   1      32.649  30.030  27.214  1.00  0.00     0.163 HD
ATOM     25  O   UNL A   1      33.986  31.571  28.471  1.00  0.00    -0.269 OA
BRANCH  23  26
ATOM     26  C   UNL A   1      35.796  30.080  28.305  1.00  0.00     0.039 A 
ATOM     27  C   UNL A   1      36.189  29.655  29.579  1.00  0.00     0.014 A 
ATOM     28  C   UNL A   1      36.742  30.182  27.281  1.00  0.00     0.014 A 
ATOM     29  C   UNL A   1      37.519  29.303  29.813  1.00  0.00     0.010 A 
ATOM     30  C   UNL A   1      38.049  29.754  27.495  1.00  0.00     0.010 A 
ATOM     31  C   UNL A   1      38.457  29.332  28.769  1.00  0.00    -0.014 A 
BRANCH  31  32
ATOM     32  C   UNL A   1      39.881  28.983  29.002  1.00  0.00     0.031 A 
ATOM     33  C   UNL A   1      40.817  30.010  29.582  1.00  0.00     0.074 A 
ATOM     34  C   UNL A   1      40.339  27.765  28.651  1.00  0.00     0.049 A 
ATOM     35  N   UNL A   1      42.105  29.929  29.797  1.00  0.00    -0.248 NA
ATOM     36  C   UNL A   1      40.233  31.314  29.942  1.00  0.00     0.031 C 
ATOM     37  C   UNL A   1      39.537  26.702  28.042  1.00  0.00     0.029 A 
ATOM     38  N   UNL A   1      41.593  27.220  28.751  1.00  0.00    -0.354 N 
ATOM     39  C   UNL A   1      42.485  31.169  30.298  1.00  0.00     0.074 A 
ATOM     40  C   UNL A   1      41.305  32.004  30.302  1.00  0.00     0.031 C 
ATOM     41  C   UNL A   1      40.315  25.624  27.844  1.00  0.00     0.029 A 
ATOM     42  C   UNL A   1      41.674  25.931  28.279  1.00  0.00     0.049 A 
ATOM     43  H   UNL A   1      42.365  27.705  29.123  1.00  0.00     0.167 HD
ATOM     44  C   UNL A   1      43.701  31.567  30.742  1.00  0.00     0.037 A 
ATOM     45  C   UNL A   1      42.725  25.092  28.207  1.00  0.00     0.037 A 
ATOM     46  C   UNL A   1      44.863  30.719  30.768  1.00  0.00     0.049 A 
ATOM     47  C   UNL A   1      44.063  25.553  28.721  1.00  0.00     0.074 A 
ATOM     48  C   UNL A   1      46.133  31.010  31.234  1.00  0.00     0.029 A 
ATOM     49  N   UNL A   1      44.894  29.407  30.317  1.00  0.00    -0.354 N 
ATOM     50  N   UNL A   1      44.395  26.715  29.233  1.00  0.00    -0.248 NA
ATOM     51  C   UNL A   1      45.167  24.585  28.661  1.00  0.00     0.031 C 
ATOM     52  C   UNL A   1      46.940  29.885  31.037  1.00  0.00     0.029 A 
ATOM     53  C   UNL A   1      46.161  28.877  30.491  1.00  0.00     0.049 A 
ATOM     54  H   UNL A   1      44.128  28.924  29.931  1.00  0.00     0.167 HD
ATOM     55  C   UNL A   1      45.734  26.604  29.590  1.00  0.00     0.074 A 
ATOM     56  C   UNL A   1      46.149  25.261  29.242  1.00  0.00     0.031 C 
ATOM     57  C   UNL A   1      46.547  27.528  30.159  1.00  0.00     0.037 A 
BRANCH  44  58
ATOM     58  C   UNL A   1      43.830  32.978  31.248  1.00  0.00     0.058 A 
ATOM     59  C   UNL A   1      43.613  33.298  32.598  1.00  0.00     0.135 A 
ATOM     60  C   UNL A   1      44.206  34.019  30.383  1.00  0.00     0.135 A 
ATOM     61  F   UNL A   1      43.235  32.346  33.467  1.00  0.00    -0.206 F 
ATOM     62  C   UNL A   1      43.732  34.601  33.067  1.00  0.00     0.059 A 
ATOM     63  C   UNL A   1      44.359  35.326  30.837  1.00  0.00     0.059 A 
ATOM     64  F   UNL A   1      44.426  33.771  29.082  1.00  0.00    -0.206 F 
ATOM     65  C   UNL A   1      44.106  35.610  32.178  1.00  0.00     0.060 A 
BRANCH  65  66
ATOM     66  S   UNL A   1      44.263  37.296  32.803  1.00  0.00     0.124 S 
ATOM     67  O   UNL A   1      44.066  38.077  31.586  1.00  0.00    -0.237 OA
ATOM     68  O   UNL A   1      43.184  37.368  33.783  1.00  0.00    -0.237 OA
ATOM     69  O   UNL A   1      45.613  37.329  33.359  1.00  0.00    -0.744 OA
ENDBRANCH  65  66
ENDBRANCH  44  58
BRANCH  45  70
ATOM     70  C   UNL A   1      42.551  23.720  27.661  1.00  0.00     0.058 A 
ATOM     71  C   UNL A   1      42.362  22.624  28.515  1.00  0.00     0.135 A 
ATOM     72  C   UNL A   1      42.570  23.476  26.279  1.00  0.00     0.135 A 
ATOM     73  F   UNL A   1      42.339  22.806  29.844  1.00  0.00    -0.206 F 
ATOM     74  C   UNL A   1      42.225  21.330  28.022  1.00  0.00     0.059 A 
ATOM     75  C   UNL A   1      42.410  22.194  25.760  1.00  0.00     0.059 A 
ATOM     76  F   UNL A   1      42.728  24.493  25.417  1.00  0.00    -0.206 F 
ATOM     77  C   UNL A   1      42.252  21.125  26.642  1.00  0.00     0.060 A 
BRANCH  77  78
ATOM     78  S   UNL A   1      42.045  19.445  26.012  1.00  0.00     0.124 S 
ATOM     79  O   UNL A   1      42.885  19.474  24.820  1.00  0.00    -0.237 OA
ATOM     80  O   UNL A   1      42.539  18.637  27.122  1.00  0.00    -0.237 OA
ATOM     81  O   UNL A   1      40.608  19.353  25.771  1.00  0.00    -0.744 OA
ENDBRANCH  77  78
ENDBRANCH  45  70
BRANCH  57  82
ATOM     82  C   UNL A   1      47.949  27.102  30.499  1.00  0.00     0.058 A 
ATOM     83  C   UNL A   1      49.033  27.378  29.652  1.00  0.00     0.135 A 
ATOM     84  C   UNL A   1      48.211  26.448  31.713  1.00  0.00     0.135 A 
ATOM     85  F   UNL A   1      48.834  27.998  28.479  1.00  0.00    -0.206 F 
ATOM     86  C   UNL A   1      50.329  26.994  29.986  1.00  0.00     0.059 A 
ATOM     87  C   UNL A   1      49.501  26.080  32.080  1.00  0.00     0.059 A 
ATOM     88  F   UNL A   1      47.209  26.172  32.563  1.00  0.00    -0.206 F 
ATOM     89  C   UNL A   1      50.552  26.345  31.202  1.00  0.00     0.060 A 
BRANCH  89  90
ATOM     90  S   UNL A   1      52.240  25.876  31.638  1.00  0.00     0.124 S 
ATOM     91  O   UNL A   1      52.571  26.875  32.648  1.00  0.00    -0.237 OA
ATOM     92  O   UNL A   1      52.069  24.511  32.128  1.00  0.00    -0.237 OA
ATOM     93  O   UNL A   1      52.963  25.995  30.375  1.00  0.00    -0.744 OA
ENDBRANCH  89  90
ENDBRANCH  57  82
ENDBRANCH  31  32
ENDBRANCH  23  26
ENDBRANCH  21  22
ENDBRANCH   1  21
TORSDOF 16
ENDMDL
MODEL 2
REMARK VINA RESULT:     -11.0      2.989      9.453
REMARK SMILES CC1(C(=O)N[C@H](C(=O)NCCCNC(=O)c2ccc(-c3c4nc(c(-c5c(F)cc(S(=O)(=O)[O-])cc5F)c5ccc([nH]5)c(-c5c(F)cc(S(=O)(=O)[O-])cc5F)c5nc(c(-c6c(F)cc(S(=O)(=O)[O-])cc6F)c6ccc3[nH]6)C=C5)C=C4)cc2)C2CC2)CCCC1
REMARK SMILES IDX 11 1 10 2 9 3 7 4 8 5 6 7 5 8 3 9 4 10 2 12 1 13 85 14 88 15
REMARK SMILES IDX 86 16 87 17 82 18 83 19 84 20 12 21 13 22 14 23 15 25 16 26
REMARK SMILES IDX 17 27 81 28 18 29 80 30 19 31 20 32 21 33 74 34 22 35 79 36
REMARK SMILES IDX 73 37 75 38 23 39 78 40 72 41 71 42 24 44 58 45 37 46 57 47
REMARK SMILES IDX 38 48 41 49 56 50 76 51 39 52 40 53 55 55 77 56 42 57 25 58
REMARK SMILES IDX 26 59 35 60 27 61 28 62 34 63 36 64 29 65 30 66 31 67 32 68
REMARK SMILES IDX 33 69 59 70 60 71 69 72 61 73 62 74 68 75 70 76 63 77 64 78
REMARK SMILES IDX 65 79 66 80 67 81 43 82 44 83 53 84 45 85 46 86 52 87 54 88
REMARK SMILES IDX 47 89 48 90 49 91 50 92 51 93
REMARK H PARENT 9 6 5 11 13 24 75 43 41 54
REMARK Flexibility Score: inf
ROOT
ATOM      1  C   UNL A   1      35.412  23.396  25.875  1.00  0.00     0.042 C 
ENDROOT
BRANCH   1   2
ATOM      2  C   UNL A   1      34.310  24.446  25.830  1.00  0.00     0.117 C 
BRANCH   2   3
ATOM      3  N   UNL A   1      33.964  24.825  24.475  1.00  0.00    -0.354 N 
ATOM      4  C   UNL A   1      32.938  25.596  24.017  1.00  0.00     0.242 C 
ATOM      5  O   UNL A   1      32.978  25.943  22.832  1.00  0.00    -0.273 OA
ATOM      6  H   UNL A   1      34.562  24.469  23.779  1.00  0.00     0.163 HD
BRANCH   4   7
ATOM      7  C   UNL A   1      31.869  26.181  24.979  1.00  0.00     0.174 C 
BRANCH   7   8
ATOM      8  N   UNL A   1      31.408  27.508  24.586  1.00  0.00    -0.344 N 
ATOM      9  C   UNL A   1      31.602  28.740  25.120  1.00  0.00     0.226 C 
ATOM     10  O   UNL A   1      31.074  29.675  24.508  1.00  0.00    -0.274 OA
ATOM     11  H   UNL A   1      30.848  27.509  23.776  1.00  0.00     0.164 HD
BRANCH   9  12
ATOM     12  C   UNL A   1      32.364  28.974  26.433  1.00  0.00     0.046 C 
ATOM     13  C   UNL A   1      31.616  28.315  27.601  1.00  0.00     0.022 C 
ATOM     14  C   UNL A   1      32.497  30.494  26.694  1.00  0.00     0.016 C 
ATOM     15  C   UNL A   1      33.840  28.566  26.366  1.00  0.00     0.016 C 
ATOM     16  C   UNL A   1      33.657  30.632  27.668  1.00  0.00     0.001 C 
ATOM     17  C   UNL A   1      34.593  29.476  27.340  1.00  0.00     0.001 C 
ENDBRANCH   9  12
ENDBRANCH   7   8
BRANCH   7  18
ATOM     18  C   UNL A   1      30.704  25.211  25.108  1.00  0.00     0.021 C 
ATOM     19  C   UNL A   1      30.702  24.187  26.221  1.00  0.00     0.006 C 
ATOM     20  C   UNL A   1      29.658  25.262  26.206  1.00  0.00     0.006 C 
ENDBRANCH   7  18
ENDBRANCH   4   7
ENDBRANCH   2   3
ENDBRANCH   1   2
BRANCH   1  21
ATOM     21  C   UNL A   1      36.738  23.868  25.286  1.00  0.00     0.118 C 
BRANCH  21  22
ATOM     22  N   UNL A   1      37.804  22.889  25.452  1.00  0.00    -0.352 N 
ATOM     23  C   UNL A   1      39.045  23.022  26.016  1.00  0.00     0.251 C 
ATOM     24  H   UNL A   1      37.601  21.992  25.102  1.00  0.00     0.163 HD
ATOM     25  O   UNL A   1      39.868  22.117  25.869  1.00  0.00    -0.269 OA
BRANCH  23  26
ATOM     26  C   UNL A   1      39.401  24.229  26.790  1.00  0.00     0.039 A 
ATOM     27  C   UNL A   1      40.185  25.214  26.181  1.00  0.00     0.014 A 
ATOM     28  C   UNL A   1      39.018  24.371  28.127  1.00  0.00     0.014 A 
ATOM     29  C   UNL A   1      40.553  26.351  26.900  1.00  0.00     0.010 A 
ATOM     30  C   UNL A   1      39.317  25.541  28.817  1.00  0.00     0.010 A 
ATOM     31  C   UNL A   1      40.108  26.533  28.219  1.00  0.00    -0.014 A 
BRANCH  31  32
ATOM     32  C   UNL A   1      40.506  27.726  29.009  1.00  0.00     0.031 A 
ATOM     33  C   UNL A   1      41.843  27.750  29.703  1.00  0.00     0.074 A 
ATOM     34  C   UNL A   1      39.653  28.760  29.141  1.00  0.00     0.049 A 
ATOM     35  N   UNL A   1      42.349  28.660  30.494  1.00  0.00    -0.248 NA
ATOM     36  C   UNL A   1      42.717  26.581  29.503  1.00  0.00     0.031 C 
ATOM     37  C   UNL A   1      38.313  28.833  28.551  1.00  0.00     0.029 A 
ATOM     38  N   UNL A   1      39.782  29.944  29.819  1.00  0.00    -0.354 N 
ATOM     39  C   UNL A   1      43.585  28.168  30.898  1.00  0.00     0.074 A 
ATOM     40  C   UNL A   1      43.729  26.854  30.312  1.00  0.00     0.031 C 
ATOM     41  C   UNL A   1      37.755  30.011  28.874  1.00  0.00     0.029 A 
ATOM     42  C   UNL A   1      38.679  30.761  29.719  1.00  0.00     0.049 A 
ATOM     43  H   UNL A   1      40.587  30.189  30.330  1.00  0.00     0.167 HD
ATOM     44  C   UNL A   1      44.526  28.768  31.664  1.00  0.00     0.037 A 
ATOM     45  C   UNL A   1      38.443  31.975  30.250  1.00  0.00     0.037 A 
ATOM     46  C   UNL A   1      44.390  30.090  32.215  1.00  0.00     0.049 A 
ATOM     47  C   UNL A   1      39.511  32.628  31.086  1.00  0.00     0.074 A 
ATOM     48  C   UNL A   1      45.300  30.808  32.972  1.00  0.00     0.029 A 
ATOM     49  N   UNL A   1      43.274  30.899  32.060  1.00  0.00    -0.354 N 
ATOM     50  N   UNL A   1      40.693  32.167  31.422  1.00  0.00    -0.248 NA
ATOM     51  C   UNL A   1      39.221  33.972  31.605  1.00  0.00     0.031 C 
ATOM     52  C   UNL A   1      44.723  32.038  33.300  1.00  0.00     0.029 A 
ATOM     53  C   UNL A   1      43.471  32.107  32.709  1.00  0.00     0.049 A 
ATOM     54  H   UNL A   1      42.462  30.653  31.561  1.00  0.00     0.167 HD
ATOM     55  C   UNL A   1      41.301  33.177  32.157  1.00  0.00     0.074 A 
ATOM     56  C   UNL A   1      40.360  34.277  32.213  1.00  0.00     0.031 C 
ATOM     57  C   UNL A   1      42.530  33.198  32.731  1.00  0.00     0.037 A 
BRANCH  44  58
ATOM     58  C   UNL A   1      45.793  28.003  31.938  1.00  0.00     0.058 A 
ATOM     59  C   UNL A   1      46.922  28.131  31.114  1.00  0.00     0.135 A 
ATOM     60  C   UNL A   1      45.892  27.155  33.055  1.00  0.00     0.135 A 
ATOM     61  F   UNL A   1      46.879  28.914  30.024  1.00  0.00    -0.206 F 
ATOM     62  C   UNL A   1      48.093  27.424  31.366  1.00  0.00     0.059 A 
ATOM     63  C   UNL A   1      47.064  26.461  33.343  1.00  0.00     0.059 A 
ATOM     64  F   UNL A   1      44.843  26.995  33.877  1.00  0.00    -0.206 F 
ATOM     65  C   UNL A   1      48.155  26.591  32.484  1.00  0.00     0.060 A 
BRANCH  65  66
ATOM     66  S   UNL A   1      49.683  25.686  32.802  1.00  0.00     0.124 S 
ATOM     67  O   UNL A   1      49.273  24.793  33.882  1.00  0.00    -0.237 OA
ATOM     68  O   UNL A   1      49.941  25.046  31.516  1.00  0.00    -0.237 OA
ATOM     69  O   UNL A   1      50.628  26.733  33.178  1.00  0.00    -0.744 OA
ENDBRANCH  65  66
ENDBRANCH  44  58
BRANCH  45  70
ATOM     70  C   UNL A   1      37.157  32.672  29.980  1.00  0.00     0.058 A 
ATOM     71  C   UNL A   1      37.067  33.659  28.987  1.00  0.00     0.135 A 
ATOM     72  C   UNL A   1      35.994  32.367  30.705  1.00  0.00     0.135 A 
ATOM     73  F   UNL A   1      38.152  33.987  28.269  1.00  0.00    -0.206 F 
ATOM     74  C   UNL A   1      35.879  34.340  28.741  1.00  0.00     0.059 A 
ATOM     75  C   UNL A   1      34.787  33.017  30.459  1.00  0.00     0.059 A 
ATOM     76  F   UNL A   1      36.021  31.417  31.653  1.00  0.00    -0.206 F 
ATOM     77  C   UNL A   1      34.745  34.012  29.484  1.00  0.00     0.060 A 
BRANCH  77  78
ATOM     78  S   UNL A   1      33.201  34.882  29.135  1.00  0.00     0.124 S 
ATOM     79  O   UNL A   1      32.606  34.026  28.114  1.00  0.00    -0.237 OA
ATOM     80  O   UNL A   1      32.542  34.873  30.438  1.00  0.00    -0.237 OA
ATOM     81  O   UNL A   1      33.650  36.192  28.677  1.00  0.00    -0.744 OA
ENDBRANCH  77  78
ENDBRANCH  45  70
BRANCH  57  82
ATOM     82  C   UNL A   1      42.952  34.468  33.417  1.00  0.00     0.058 A 
ATOM     83  C   UNL A   1      42.734  34.680  34.787  1.00  0.00     0.135 A 
ATOM     84  C   UNL A   1      43.628  35.466  32.696  1.00  0.00     0.135 A 
ATOM     85  F   UNL A   1      42.089  33.758  35.519  1.00  0.00    -0.206 F 
ATOM     86  C   UNL A   1      43.146  35.852  35.413  1.00  0.00     0.059 A 
ATOM     87  C   UNL A   1      44.073  36.633  33.307  1.00  0.00     0.059 A 
ATOM     88  F   UNL A   1      43.872  35.306  31.385  1.00  0.00    -0.206 F 
ATOM     89  C   UNL A   1      43.815  36.823  34.664  1.00  0.00     0.060 A 
BRANCH  89  90
ATOM     90  S   UNL A   1      44.369  38.328  35.493  1.00  0.00     0.124 S 
ATOM     91  O   UNL A   1      43.812  38.148  36.830  1.00  0.00    -0.237 OA
ATOM     92  O   UNL A   1      45.821  38.225  35.392  1.00  0.00    -0.237 OA
ATOM     93  O   UNL A   1      43.766  39.395  34.700  1.00  0.00    -0.744 OA
ENDBRANCH  89  90
ENDBRANCH  57  82
ENDBRANCH  31  32
ENDBRANCH  23  26
ENDBRANCH  21  22
ENDBRANCH   1  21
TORSDOF 16
ENDMDL
MODEL 3
REMARK VINA RESULT:     -10.9      3.444      6.372
REMARK SMILES CC1(C(=O)N[C@H](C(=O)NCCCNC(=O)c2ccc(-c3c4nc(c(-c5c(F)cc(S(=O)(=O)[O-])cc5F)c5ccc([nH]5)c(-c5c(F)cc(S(=O)(=O)[O-])cc5F)c5nc(c(-c6c(F)cc(S(=O)(=O)[O-])cc6F)c6ccc3[nH]6)C=C5)C=C4)cc2)C2CC2)CCCC1
REMARK SMILES IDX 11 1 10 2 9 3 7 4 8 5 6 7 5 8 3 9 4 10 2 12 1 13 85 14 88 15
REMARK SMILES IDX 86 16 87 17 82 18 83 19 84 20 12 21 13 22 14 23 15 25 16 26
REMARK SMILES IDX 17 27 81 28 18 29 80 30 19 31 20 32 21 33 74 34 22 35 79 36
REMARK SMILES IDX 73 37 75 38 23 39 78 40 72 41 71 42 24 44 58 45 37 46 57 47
REMARK SMILES IDX 38 48 41 49 56 50 76 51 39 52 40 53 55 55 77 56 42 57 25 58
REMARK SMILES IDX 26 59 35 60 27 61 28 62 34 63 36 64 29 65 30 66 31 67 32 68
REMARK SMILES IDX 33 69 59 70 60 71 69 72 61 73 62 74 68 75 70 76 63 77 64 78
REMARK SMILES IDX 65 79 66 80 67 81 43 82 44 83 53 84 45 85 46 86 52 87 54 88
REMARK SMILES IDX 47 89 48 90 49 91 50 92 51 93
REMARK H PARENT 9 6 5 11 13 24 75 43 41 54
REMARK Flexibility Score: inf
ROOT
ATOM      1  C   UNL A   1      33.843  33.908  28.361  1.00  0.00     0.042 C 
ENDROOT
BRANCH   1   2
ATOM      2  C   UNL A   1      34.252  34.507  29.700  1.00  0.00     0.117 C 
BRANCH   2   3
ATOM      3  N   UNL A   1      34.023  33.598  30.804  1.00  0.00    -0.354 N 
ATOM      4  C   UNL A   1      34.358  33.716  32.120  1.00  0.00     0.242 C 
ATOM      5  O   UNL A   1      33.867  32.896  32.903  1.00  0.00    -0.273 OA
ATOM      6  H   UNL A   1      33.552  32.766  30.567  1.00  0.00     0.163 HD
BRANCH   4   7
ATOM      7  C   UNL A   1      35.159  34.937  32.646  1.00  0.00     0.174 C 
BRANCH   7   8
ATOM      8  N   UNL A   1      36.475  35.068  32.029  1.00  0.00    -0.344 N 
ATOM      9  C   UNL A   1      37.625  34.361  32.162  1.00  0.00     0.226 C 
ATOM     10  O   UNL A   1      38.567  34.737  31.458  1.00  0.00    -0.274 OA
ATOM     11  H   UNL A   1      36.540  35.816  31.392  1.00  0.00     0.164 HD
BRANCH   9  12
ATOM     12  C   UNL A   1      37.787  33.208  33.165  1.00  0.00     0.046 C 
ATOM     13  C   UNL A   1      37.150  33.586  34.510  1.00  0.00     0.022 C 
ATOM     14  C   UNL A   1      39.291  32.907  33.371  1.00  0.00     0.016 C 
ATOM     15  C   UNL A   1      37.296  31.858  32.632  1.00  0.00     0.016 C 
ATOM     16  C   UNL A   1      39.343  31.491  33.925  1.00  0.00     0.001 C 
ATOM     17  C   UNL A   1      38.141  30.780  33.316  1.00  0.00     0.001 C 
ENDBRANCH   9  12
ENDBRANCH   7   8
BRANCH   7  18
ATOM     18  C   UNL A   1      34.341  36.207  32.472  1.00  0.00     0.021 C 
ATOM     19  C   UNL A   1      32.867  36.200  32.807  1.00  0.00     0.006 C 
ATOM     20  C   UNL A   1      33.802  37.048  33.615  1.00  0.00     0.006 C 
ENDBRANCH   7  18
ENDBRANCH   4   7
ENDBRANCH   2   3
ENDBRANCH   1   2
BRANCH   1  21
ATOM     21  C   UNL A   1      34.719  32.741  27.914  1.00  0.00     0.118 C 
BRANCH  21  22
ATOM     22  N   UNL A   1      33.987  31.482  27.853  1.00  0.00    -0.352 N 
ATOM     23  C   UNL A   1      34.447  30.192  27.863  1.00  0.00     0.251 C 
ATOM     24  H   UNL A   1      33.009  31.574  27.794  1.00  0.00     0.163 HD
ATOM     25  O   UNL A   1      33.665  29.278  27.597  1.00  0.00    -0.269 OA
BRANCH  23  26
ATOM     26  C   UNL A   1      35.858  29.892  28.184  1.00  0.00     0.039 A 
ATOM     27  C   UNL A   1      36.823  30.043  27.184  1.00  0.00     0.014 A 
ATOM     28  C   UNL A   1      36.226  29.410  29.443  1.00  0.00     0.014 A 
ATOM     29  C   UNL A   1      38.158  29.742  27.457  1.00  0.00     0.010 A 
ATOM     30  C   UNL A   1      37.568  29.189  29.738  1.00  0.00     0.010 A 
ATOM     31  C   UNL A   1      38.545  29.329  28.742  1.00  0.00    -0.014 A 
BRANCH  31  32
ATOM     32  C   UNL A   1      39.956  28.984  29.049  1.00  0.00     0.031 A 
ATOM     33  C   UNL A   1      40.849  30.004  29.706  1.00  0.00     0.074 A 
ATOM     34  C   UNL A   1      40.444  27.779  28.699  1.00  0.00     0.049 A 
ATOM     35  N   UNL A   1      42.122  29.928  29.994  1.00  0.00    -0.248 NA
ATOM     36  C   UNL A   1      40.234  31.296  30.061  1.00  0.00     0.031 C 
ATOM     37  C   UNL A   1      39.687  26.724  28.019  1.00  0.00     0.029 A 
ATOM     38  N   UNL A   1      41.695  27.240  28.858  1.00  0.00    -0.354 N 
ATOM     39  C   UNL A   1      42.462  31.158  30.544  1.00  0.00     0.074 A 
ATOM     40  C   UNL A   1      41.277  31.984  30.498  1.00  0.00     0.031 C 
ATOM     41  C   UNL A   1      40.484  25.656  27.843  1.00  0.00     0.029 A 
ATOM     42  C   UNL A   1      41.813  25.962  28.363  1.00  0.00     0.049 A 
ATOM     43  H   UNL A   1      42.439  27.721  29.286  1.00  0.00     0.167 HD
ATOM     44  C   UNL A   1      43.647  31.554  31.067  1.00  0.00     0.037 A 
ATOM     45  C   UNL A   1      42.873  25.133  28.333  1.00  0.00     0.037 A 
ATOM     46  C   UNL A   1      44.813  30.713  31.142  1.00  0.00     0.049 A 
ATOM     47  C   UNL A   1      44.176  25.591  28.935  1.00  0.00     0.074 A 
ATOM     48  C   UNL A   1      46.052  31.003  31.687  1.00  0.00     0.029 A 
ATOM     49  N   UNL A   1      44.881  29.413  30.664  1.00  0.00    -0.354 N 
ATOM     50  N   UNL A   1      44.468  26.743  29.491  1.00  0.00    -0.248 NA
ATOM     51  C   UNL A   1      45.290  24.632  28.917  1.00  0.00     0.031 C 
ATOM     52  C   UNL A   1      46.878  29.888  31.512  1.00  0.00     0.029 A 
ATOM     53  C   UNL A   1      46.140  28.887  30.898  1.00  0.00     0.049 A 
ATOM     54  H   UNL A   1      44.142  28.933  30.223  1.00  0.00     0.167 HD
ATOM     55  C   UNL A   1      45.785  26.633  29.923  1.00  0.00     0.074 A 
ATOM     56  C   UNL A   1      46.230  25.301  29.569  1.00  0.00     0.031 C 
ATOM     57  C   UNL A   1      46.556  27.550  30.560  1.00  0.00     0.037 A 
BRANCH  44  58
ATOM     58  C   UNL A   1      43.735  32.954  31.612  1.00  0.00     0.058 A 
ATOM     59  C   UNL A   1      43.315  33.263  32.916  1.00  0.00     0.135 A 
ATOM     60  C   UNL A   1      44.274  33.993  30.835  1.00  0.00     0.135 A 
ATOM     61  F   UNL A   1      42.776  32.313  33.696  1.00  0.00    -0.206 F 
ATOM     62  C   UNL A   1      43.396  34.556  33.420  1.00  0.00     0.059 A 
ATOM     63  C   UNL A   1      44.392  35.289  31.331  1.00  0.00     0.059 A 
ATOM     64  F   UNL A   1      44.692  33.755  29.582  1.00  0.00    -0.206 F 
ATOM     65  C   UNL A   1      43.936  35.564  32.620  1.00  0.00     0.060 A 
BRANCH  65  66
ATOM     66  S   UNL A   1      44.041  37.236  33.291  1.00  0.00     0.124 S 
ATOM     67  O   UNL A   1      43.741  38.042  32.112  1.00  0.00    -0.237 OA
ATOM     68  O   UNL A   1      43.012  37.222  34.326  1.00  0.00    -0.237 OA
ATOM     69  O   UNL A   1      45.414  37.322  33.778  1.00  0.00    -0.744 OA
ENDBRANCH  65  66
ENDBRANCH  44  58
BRANCH  45  70
ATOM     70  C   UNL A   1      42.743  23.773  27.747  1.00  0.00     0.058 A 
ATOM     71  C   UNL A   1      42.834  23.575  26.361  1.00  0.00     0.135 A 
ATOM     72  C   UNL A   1      42.527  22.646  28.555  1.00  0.00     0.135 A 
ATOM     73  F   UNL A   1      43.038  24.621  25.546  1.00  0.00    -0.206 F 
ATOM     74  C   UNL A   1      42.687  22.313  25.793  1.00  0.00     0.059 A 
ATOM     75  C   UNL A   1      42.402  21.370  28.012  1.00  0.00     0.059 A 
ATOM     76  F   UNL A   1      42.451  22.778  29.888  1.00  0.00    -0.206 F 
ATOM     77  C   UNL A   1      42.470  21.216  26.628  1.00  0.00     0.060 A 
BRANCH  77  78
ATOM     78  S   UNL A   1      42.310  19.579  25.883  1.00  0.00     0.124 S 
ATOM     79  O   UNL A   1      43.350  19.619  24.861  1.00  0.00    -0.237 OA
ATOM     80  O   UNL A   1      42.564  18.698  27.019  1.00  0.00    -0.237 OA
ATOM     81  O   UNL A   1      40.937  19.570  25.387  1.00  0.00    -0.744 OA
ENDBRANCH  77  78
ENDBRANCH  45  70
BRANCH  57  82
ATOM     82  C   UNL A   1      47.939  27.126  30.970  1.00  0.00     0.058 A 
ATOM     83  C   UNL A   1      48.186  26.488  32.195  1.00  0.00     0.135 A 
ATOM     84  C   UNL A   1      49.022  27.321  30.099  1.00  0.00     0.135 A 
ATOM     85  F   UNL A   1      47.185  26.282  33.064  1.00  0.00    -0.206 F 
ATOM     86  C   UNL A   1      49.469  26.084  32.555  1.00  0.00     0.059 A 
ATOM     87  C   UNL A   1      50.307  26.901  30.426  1.00  0.00     0.059 A 
ATOM     88  F   UNL A   1      48.836  27.915  28.909  1.00  0.00    -0.206 F 
ATOM     89  C   UNL A   1      50.522  26.296  31.664  1.00  0.00     0.060 A 
BRANCH  89  90
ATOM     90  S   UNL A   1      52.177  25.743  32.130  1.00  0.00     0.124 S 
ATOM     91  O   UNL A   1      52.922  25.975  30.897  1.00  0.00    -0.237 OA
ATOM     92  O   UNL A   1      52.501  26.630  33.243  1.00  0.00    -0.237 OA
ATOM     93  O   UNL A   1      51.979  24.343  32.491  1.00  0.00    -0.744 OA
ENDBRANCH  89  90
ENDBRANCH  57  82
ENDBRANCH  31  32
ENDBRANCH  23  26
ENDBRANCH  21  22
ENDBRANCH   1  21
TORSDOF 16
ENDMDL
