MODEL 1
REMARK VINA RESULT:     -12.3      0.000      0.000
REMARK SMILES C[C@]1(C(=O)N2CCC(CC(=O)NCCCNC(=O)c3ccc(-c4c5nc(c(-c6c(F)cc(S(=O)(=O)[O-])cc6F)c6ccc([nH]6)c(-c6c(F)cc(S(=O)(=O)[O-])cc6F)c6nc(c(-c7c(F)cc(S(=O)(=O)[O-])cc7F)c7ccc4[nH]7)C=C6)C=C5)cc3)CC2)CCC[NH2+]C1
REMARK SMILES IDX 14 1 13 2 12 3 10 4 11 5 9 7 8 8 3 9 4 10 5 11 6 12 86 13
REMARK SMILES IDX 7 14 85 15 2 16 1 17 87 18 91 19 88 20 90 21 89 22 15 25
REMARK SMILES IDX 16 26 17 27 18 29 19 30 20 31 84 32 21 33 83 34 22 35 23 36
REMARK SMILES IDX 24 37 77 38 25 39 82 40 76 41 78 42 26 43 81 44 75 45 74 46
REMARK SMILES IDX 27 48 61 49 40 50 60 51 41 52 44 53 59 54 79 55 42 56 43 57
REMARK SMILES IDX 58 59 80 60 45 61 28 62 29 63 38 64 30 65 31 66 37 67 39 68
REMARK SMILES IDX 32 69 33 70 34 71 35 72 36 73 62 74 63 75 72 76 64 77 65 78
REMARK SMILES IDX 71 79 73 80 66 81 67 82 68 83 69 84 70 85 46 86 47 87 56 88
REMARK SMILES IDX 48 89 49 90 55 91 57 92 50 93 51 94 52 95 53 96 54 97
REMARK H PARENT 12 6 90 23 90 24 16 28 78 47 44 58
REMARK Flexibility Score: inf
ROOT
ATOM      1  C   UNL A   1      37.641  23.131  25.573  1.00  0.00     0.042 C 
ENDROOT
BRANCH   1   2
ATOM      2  C   UNL A   1      36.147  23.164  25.903  1.00  0.00     0.117 C 
BRANCH   2   3
ATOM      3  N   UNL A   1      35.524  21.851  25.790  1.00  0.00    -0.356 N 
ATOM      4  C   UNL A   1      34.544  21.382  24.965  1.00  0.00     0.220 C 
ATOM      5  O   UNL A   1      34.183  20.211  25.102  1.00  0.00    -0.275 OA
ATOM      6  H   UNL A   1      35.871  21.182  26.425  1.00  0.00     0.163 HD
BRANCH   4   7
ATOM      7  C   UNL A   1      33.918  22.262  23.899  1.00  0.00     0.103 C 
BRANCH   7   8
ATOM      8  C   UNL A   1      32.462  22.684  24.200  1.00  0.00     0.002 C 
ATOM      9  C   UNL A   1      30.579  26.426  24.775  1.00  0.00     0.234 C 
ATOM     10  O   UNL A   1      29.470  26.772  24.354  1.00  0.00    -0.274 OA
ATOM     11  N   UNL A   1      30.990  25.119  24.638  1.00  0.00    -0.342 N 
ATOM     12  C   UNL A   1      30.704  24.388  23.419  1.00  0.00     0.120 C 
ATOM     13  C   UNL A   1      31.179  24.265  25.790  1.00  0.00     0.120 C 
ATOM     14  C   UNL A   1      31.940  23.572  23.046  1.00  0.00     0.026 C 
ATOM     15  C   UNL A   1      32.389  23.380  25.567  1.00  0.00     0.026 C 
BRANCH   9  16
ATOM     16  C   UNL A   1      31.628  27.487  25.224  1.00  0.00     0.095 C 
ATOM     17  C   UNL A   1      31.491  27.485  26.773  1.00  0.00     0.028 C 
ATOM     18  C   UNL A   1      33.056  27.027  24.870  1.00  0.00     0.028 C 
ATOM     19  C   UNL A   1      31.406  28.954  24.782  1.00  0.00     0.277 C 
ATOM     20  C   UNL A   1      33.454  27.411  23.448  1.00  0.00     0.063 C 
ATOM     21  N   UNL A   1      31.873  29.310  23.439  1.00  0.00    -0.345 N 
ATOM     22  C   UNL A   1      33.256  28.901  23.203  1.00  0.00     0.260 C 
ATOM     23  H   UNL A   1      31.275  28.852  22.751  1.00  0.00     0.346 HD
ATOM     24  H   UNL A   1      31.829  30.326  23.354  1.00  0.00     0.346 HD
ENDBRANCH   9  16
ENDBRANCH   7   8
ENDBRANCH   4   7
ENDBRANCH   2   3
ENDBRANCH   1   2
BRANCH   1  25
ATOM     25  C   UNL A   1      38.536  23.735  26.647  1.00  0.00     0.118 C 
BRANCH  25  26
ATOM     26  N   UNL A   1      39.918  23.812  26.204  1.00  0.00    -0.352 N 
ATOM     27  C   UNL A   1      40.875  24.770  26.437  1.00  0.00     0.251 C 
ATOM     28  H   UNL A   1      40.216  23.056  25.646  1.00  0.00     0.163 HD
ATOM     29  O   UNL A   1      41.874  24.785  25.720  1.00  0.00    -0.269 OA
BRANCH  27  30
ATOM     30  C   UNL A   1      40.732  25.783  27.517  1.00  0.00     0.039 A 
ATOM     31  C   UNL A   1      41.665  26.826  27.586  1.00  0.00     0.014 A 
ATOM     32  C   UNL A   1      39.757  25.679  28.511  1.00  0.00     0.014 A 
ATOM     33  C   UNL A   1      41.593  27.772  28.617  1.00  0.00     0.010 A 
ATOM     34  C   UNL A   1      39.631  26.671  29.486  1.00  0.00     0.010 A 
ATOM     35  C   UNL A   1      40.560  27.718  29.566  1.00  0.00    -0.014 A 
BRANCH  35  36
ATOM     36  C   UNL A   1      40.457  28.721  30.663  1.00  0.00     0.031 A 
ATOM     37  C   UNL A   1      41.345  28.611  31.879  1.00  0.00     0.074 A 
ATOM     38  C   UNL A   1      39.533  29.700  30.599  1.00  0.00     0.049 A 
ATOM     39  N   UNL A   1      41.347  29.332  32.972  1.00  0.00    -0.248 NA
ATOM     40  C   UNL A   1      42.344  27.529  31.879  1.00  0.00     0.031 C 
ATOM     41  C   UNL A   1      38.582  29.898  29.504  1.00  0.00     0.029 A 
ATOM     42  N   UNL A   1      39.233  30.710  31.482  1.00  0.00    -0.354 N 
ATOM     43  C   UNL A   1      42.322  28.779  33.795  1.00  0.00     0.074 A 
ATOM     44  C   UNL A   1      42.860  27.632  33.094  1.00  0.00     0.031 C 
ATOM     45  C   UNL A   1      37.821  30.972  29.768  1.00  0.00     0.029 A 
ATOM     46  C   UNL A   1      38.200  31.519  31.067  1.00  0.00     0.049 A 
ATOM     47  H   UNL A   1      39.711  30.841  32.332  1.00  0.00     0.167 HD
ATOM     48  C   UNL A   1      42.747  29.196  35.012  1.00  0.00     0.037 A 
ATOM     49  C   UNL A   1      37.620  32.577  31.666  1.00  0.00     0.037 A 
ATOM     50  C   UNL A   1      42.244  30.362  35.689  1.00  0.00     0.049 A 
ATOM     51  C   UNL A   1      38.124  33.037  33.007  1.00  0.00     0.074 A 
ATOM     52  C   UNL A   1      42.657  30.903  36.896  1.00  0.00     0.029 A 
ATOM     53  N   UNL A   1      41.223  31.172  35.218  1.00  0.00    -0.354 N 
ATOM     54  N   UNL A   1      39.082  32.529  33.744  1.00  0.00    -0.248 NA
ATOM     55  C   UNL A   1      37.472  34.215  33.596  1.00  0.00     0.031 C 
ATOM     56  C   UNL A   1      41.862  32.022  37.169  1.00  0.00     0.029 A 
ATOM     57  C   UNL A   1      40.982  32.202  36.114  1.00  0.00     0.049 A 
ATOM     58  H   UNL A   1      40.738  31.037  34.371  1.00  0.00     0.167 HD
ATOM     59  C   UNL A   1      39.165  33.340  34.870  1.00  0.00     0.074 A 
ATOM     60  C   UNL A   1      38.167  34.379  34.713  1.00  0.00     0.031 C 
ATOM     61  C   UNL A   1      39.993  33.235  35.938  1.00  0.00     0.037 A 
BRANCH  48  62
ATOM     62  C   UNL A   1      43.824  28.390  35.690  1.00  0.00     0.058 A 
ATOM     63  C   UNL A   1      45.186  28.642  35.462  1.00  0.00     0.135 A 
ATOM     64  C   UNL A   1      43.490  27.379  36.606  1.00  0.00     0.135 A 
ATOM     65  F   UNL A   1      45.561  29.589  34.587  1.00  0.00    -0.206 F 
ATOM     66  C   UNL A   1      46.178  27.900  36.092  1.00  0.00     0.059 A 
ATOM     67  C   UNL A   1      44.467  26.642  37.268  1.00  0.00     0.059 A 
ATOM     68  F   UNL A   1      42.203  27.098  36.864  1.00  0.00    -0.206 F 
ATOM     69  C   UNL A   1      45.810  26.899  36.992  1.00  0.00     0.060 A 
BRANCH  69  70
ATOM     70  S   UNL A   1      47.110  25.944  37.803  1.00  0.00     0.124 S 
ATOM     71  O   UNL A   1      46.637  24.579  37.595  1.00  0.00    -0.237 OA
ATOM     72  O   UNL A   1      48.298  26.324  37.046  1.00  0.00    -0.237 OA
ATOM     73  O   UNL A   1      47.070  26.418  39.182  1.00  0.00    -0.744 OA
ENDBRANCH  69  70
ENDBRANCH  48  62
BRANCH  49  74
ATOM     74  C   UNL A   1      36.509  33.295  30.986  1.00  0.00     0.058 A 
ATOM     75  C   UNL A   1      35.185  33.151  31.425  1.00  0.00     0.135 A 
ATOM     76  C   UNL A   1      36.750  34.148  29.898  1.00  0.00     0.135 A 
ATOM     77  F   UNL A   1      34.906  32.342  32.457  1.00  0.00    -0.206 F 
ATOM     78  C   UNL A   1      34.134  33.815  30.800  1.00  0.00     0.059 A 
ATOM     79  C   UNL A   1      35.718  34.842  29.270  1.00  0.00     0.059 A 
ATOM     80  F   UNL A   1      38.002  34.333  29.450  1.00  0.00    -0.206 F 
ATOM     81  C   UNL A   1      34.411  34.660  29.724  1.00  0.00     0.060 A 
BRANCH  81  82
ATOM     82  S   UNL A   1      33.045  35.556  28.954  1.00  0.00     0.124 S 
ATOM     83  O   UNL A   1      33.743  36.671  28.326  1.00  0.00    -0.237 OA
ATOM     84  O   UNL A   1      32.493  34.554  28.048  1.00  0.00    -0.237 OA
ATOM     85  O   UNL A   1      32.191  35.901  30.088  1.00  0.00    -0.744 OA
ENDBRANCH  81  82
ENDBRANCH  49  74
BRANCH  61  86
ATOM     86  C   UNL A   1      39.886  34.287  37.007  1.00  0.00     0.058 A 
ATOM     87  C   UNL A   1      40.501  35.540  36.871  1.00  0.00     0.135 A 
ATOM     88  C   UNL A   1      39.111  34.055  38.156  1.00  0.00     0.135 A 
ATOM     89  F   UNL A   1      41.258  35.807  35.795  1.00  0.00    -0.206 F 
ATOM     90  C   UNL A   1      40.368  36.524  37.847  1.00  0.00     0.059 A 
ATOM     91  C   UNL A   1      38.945  35.032  39.133  1.00  0.00     0.059 A 
ATOM     92  F   UNL A   1      38.495  32.876  38.329  1.00  0.00    -0.206 F 
ATOM     93  C   UNL A   1      39.586  36.261  38.974  1.00  0.00     0.060 A 
BRANCH  93  94
ATOM     94  S   UNL A   1      39.387  37.557  40.213  1.00  0.00     0.124 S 
ATOM     95  O   UNL A   1      38.428  38.443  39.562  1.00  0.00    -0.237 OA
ATOM     96  O   UNL A   1      38.885  36.816  41.366  1.00  0.00    -0.237 OA
ATOM     97  O   UNL A   1      40.737  38.094  40.362  1.00  0.00    -0.744 OA
ENDBRANCH  93  94
ENDBRANCH  61  86
ENDBRANCH  35  36
ENDBRANCH  27  30
ENDBRANCH  25  26
ENDBRANCH   1  25
TORSDOF 15
ENDMDL
MODEL 2
REMARK VINA RESULT:     -12.2      6.571     12.179
REMARK SMILES C[C@]1(C(=O)N2CCC(CC(=O)NCCCNC(=O)c3ccc(-c4c5nc(c(-c6c(F)cc(S(=O)(=O)[O-])cc6F)c6ccc([nH]6)c(-c6c(F)cc(S(=O)(=O)[O-])cc6F)c6nc(c(-c7c(F)cc(S(=O)(=O)[O-])cc7F)c7ccc4[nH]7)C=C6)C=C5)cc3)CC2)CCC[NH2+]C1
REMARK SMILES IDX 14 1 13 2 12 3 10 4 11 5 9 7 8 8 3 9 4 10 5 11 6 12 86 13
REMARK SMILES IDX 7 14 85 15 2 16 1 17 87 18 91 19 88 20 90 21 89 22 15 25
REMARK SMILES IDX 16 26 17 27 18 29 19 30 20 31 84 32 21 33 83 34 22 35 23 36
REMARK SMILES IDX 24 37 77 38 25 39 82 40 76 41 78 42 26 43 81 44 75 45 74 46
REMARK SMILES IDX 27 48 61 49 40 50 60 51 41 52 44 53 59 54 79 55 42 56 43 57
REMARK SMILES IDX 58 59 80 60 45 61 28 62 29 63 38 64 30 65 31 66 37 67 39 68
REMARK SMILES IDX 32 69 33 70 34 71 35 72 36 73 62 74 63 75 72 76 64 77 65 78
REMARK SMILES IDX 71 79 73 80 66 81 67 82 68 83 69 84 70 85 46 86 47 87 56 88
REMARK SMILES IDX 48 89 49 90 55 91 57 92 50 93 51 94 52 95 53 96 54 97
REMARK H PARENT 12 6 90 23 90 24 16 28 78 47 44 58
REMARK Flexibility Score: inf
ROOT
ATOM      1  C   UNL A   1      34.193  29.404  27.592  1.00  0.00     0.042 C 
ENDROOT
BRANCH   1   2
ATOM      2  C   UNL A   1      34.128  28.904  26.148  1.00  0.00     0.117 C 
BRANCH   2   3
ATOM      3  N   UNL A   1      32.981  29.441  25.424  1.00  0.00    -0.356 N 
ATOM      4  C   UNL A   1      31.787  28.881  25.076  1.00  0.00     0.220 C 
ATOM      5  O   UNL A   1      30.991  29.567  24.432  1.00  0.00    -0.275 OA
ATOM      6  H   UNL A   1      33.089  30.376  25.132  1.00  0.00     0.163 HD
BRANCH   4   7
ATOM      7  C   UNL A   1      31.433  27.459  25.475  1.00  0.00     0.103 C 
BRANCH   7   8
ATOM      8  C   UNL A   1      31.399  26.461  24.297  1.00  0.00     0.002 C 
ATOM      9  C   UNL A   1      33.185  22.686  23.631  1.00  0.00     0.234 C 
ATOM     10  O   UNL A   1      32.665  21.702  23.094  1.00  0.00    -0.274 OA
ATOM     11  N   UNL A   1      32.527  23.896  23.635  1.00  0.00    -0.342 N 
ATOM     12  C   UNL A   1      31.095  23.947  23.853  1.00  0.00     0.120 C 
ATOM     13  C   UNL A   1      33.039  25.033  22.901  1.00  0.00     0.120 C 
ATOM     14  C   UNL A   1      30.791  25.122  24.780  1.00  0.00     0.026 C 
ATOM     15  C   UNL A   1      32.807  26.296  23.706  1.00  0.00     0.026 C 
BRANCH   9  16
ATOM     16  C   UNL A   1      34.448  22.528  24.529  1.00  0.00     0.095 C 
ATOM     17  C   UNL A   1      35.607  22.955  23.584  1.00  0.00     0.028 C 
ATOM     18  C   UNL A   1      34.406  23.518  25.710  1.00  0.00     0.028 C 
ATOM     19  C   UNL A   1      34.809  21.108  25.025  1.00  0.00     0.277 C 
ATOM     20  C   UNL A   1      33.635  22.964  26.904  1.00  0.00     0.063 C 
ATOM     21  N   UNL A   1      34.109  20.637  26.223  1.00  0.00    -0.345 N 
ATOM     22  C   UNL A   1      34.171  21.600  27.321  1.00  0.00     0.260 C 
ATOM     23  H   UNL A   1      33.130  20.471  25.988  1.00  0.00     0.346 HD
ATOM     24  H   UNL A   1      34.567  19.779  26.535  1.00  0.00     0.346 HD
ENDBRANCH   9  16
ENDBRANCH   7   8
ENDBRANCH   4   7
ENDBRANCH   2   3
ENDBRANCH   1   2
BRANCH   1  25
ATOM     25  C   UNL A   1      35.147  30.570  27.813  1.00  0.00     0.118 C 
BRANCH  25  26
ATOM     26  N   UNL A   1      35.241  30.919  29.220  1.00  0.00    -0.352 N 
ATOM     27  C   UNL A   1      36.224  30.645  30.141  1.00  0.00     0.251 C 
ATOM     28  H   UNL A   1      34.478  31.435  29.570  1.00  0.00     0.163 HD
ATOM     29  O   UNL A   1      35.957  30.771  31.335  1.00  0.00    -0.269 OA
BRANCH  27  30
ATOM     30  C   UNL A   1      37.583  30.196  29.737  1.00  0.00     0.039 A 
ATOM     31  C   UNL A   1      38.507  29.866  30.737  1.00  0.00     0.014 A 
ATOM     32  C   UNL A   1      37.995  30.179  28.402  1.00  0.00     0.014 A 
ATOM     33  C   UNL A   1      39.812  29.487  30.398  1.00  0.00     0.010 A 
ATOM     34  C   UNL A   1      39.267  29.716  28.060  1.00  0.00     0.010 A 
ATOM     35  C   UNL A   1      40.200  29.385  29.053  1.00  0.00    -0.014 A 
BRANCH  35  36
ATOM     36  C   UNL A   1      41.579  28.971  28.669  1.00  0.00     0.031 A 
ATOM     37  C   UNL A   1      42.691  29.990  28.615  1.00  0.00     0.074 A 
ATOM     38  C   UNL A   1      41.827  27.694  28.316  1.00  0.00     0.049 A 
ATOM     39  N   UNL A   1      43.932  29.843  28.223  1.00  0.00    -0.248 NA
ATOM     40  C   UNL A   1      42.356  31.363  29.028  1.00  0.00     0.031 C 
ATOM     41  C   UNL A   1      40.837  26.616  28.282  1.00  0.00     0.029 A 
ATOM     42  N   UNL A   1      42.990  27.086  27.908  1.00  0.00    -0.354 N 
ATOM     43  C   UNL A   1      44.515  31.102  28.318  1.00  0.00     0.074 A 
ATOM     44  C   UNL A   1      43.480  32.011  28.760  1.00  0.00     0.031 C 
ATOM     45  C   UNL A   1      41.436  25.478  27.896  1.00  0.00     0.029 A 
ATOM     46  C   UNL A   1      42.843  25.749  27.618  1.00  0.00     0.049 A 
ATOM     47  H   UNL A   1      43.848  27.563  27.828  1.00  0.00     0.167 HD
ATOM     48  C   UNL A   1      45.798  31.466  28.080  1.00  0.00     0.037 A 
ATOM     49  C   UNL A   1      43.737  24.844  27.174  1.00  0.00     0.037 A 
ATOM     50  C   UNL A   1      46.839  30.553  27.684  1.00  0.00     0.049 A 
ATOM     51  C   UNL A   1      45.163  25.266  26.938  1.00  0.00     0.074 A 
ATOM     52  C   UNL A   1      48.184  30.816  27.482  1.00  0.00     0.029 A 
ATOM     53  N   UNL A   1      46.655  29.202  27.436  1.00  0.00    -0.354 N 
ATOM     54  N   UNL A   1      45.705  26.451  27.084  1.00  0.00    -0.248 NA
ATOM     55  C   UNL A   1      46.099  24.228  26.484  1.00  0.00     0.031 C 
ATOM     56  C   UNL A   1      48.806  29.628  27.080  1.00  0.00     0.029 A 
ATOM     57  C   UNL A   1      47.858  28.619  27.071  1.00  0.00     0.049 A 
ATOM     58  H   UNL A   1      45.796  28.726  27.508  1.00  0.00     0.167 HD
ATOM     59  C   UNL A   1      47.049  26.296  26.764  1.00  0.00     0.074 A 
ATOM     60  C   UNL A   1      47.241  24.900  26.427  1.00  0.00     0.031 C 
ATOM     61  C   UNL A   1      48.035  27.225  26.750  1.00  0.00     0.037 A 
BRANCH  48  62
ATOM     62  C   UNL A   1      46.156  32.918  28.254  1.00  0.00     0.058 A 
ATOM     63  C   UNL A   1      46.614  33.422  29.482  1.00  0.00     0.135 A 
ATOM     64  C   UNL A   1      46.075  33.809  27.171  1.00  0.00     0.135 A 
ATOM     65  F   UNL A   1      46.698  32.618  30.553  1.00  0.00    -0.206 F 
ATOM     66  C   UNL A   1      46.947  34.763  29.639  1.00  0.00     0.059 A 
ATOM     67  C   UNL A   1      46.429  35.149  27.298  1.00  0.00     0.059 A 
ATOM     68  F   UNL A   1      45.647  33.380  25.973  1.00  0.00    -0.206 F 
ATOM     69  C   UNL A   1      46.849  35.620  28.542  1.00  0.00     0.060 A 
BRANCH  69  70
ATOM     70  S   UNL A   1      47.287  37.358  28.762  1.00  0.00     0.124 S 
ATOM     71  O   UNL A   1      47.370  37.452  30.217  1.00  0.00    -0.237 OA
ATOM     72  O   UNL A   1      48.555  37.457  28.048  1.00  0.00    -0.237 OA
ATOM     73  O   UNL A   1      46.168  38.070  28.151  1.00  0.00    -0.744 OA
ENDBRANCH  69  70
ENDBRANCH  48  62
BRANCH  49  74
ATOM     74  C   UNL A   1      43.316  23.436  26.948  1.00  0.00     0.058 A 
ATOM     75  C   UNL A   1      43.107  22.949  25.650  1.00  0.00     0.135 A 
ATOM     76  C   UNL A   1      43.129  22.549  28.019  1.00  0.00     0.135 A 
ATOM     77  F   UNL A   1      43.268  23.761  24.594  1.00  0.00    -0.206 F 
ATOM     78  C   UNL A   1      42.712  21.635  25.419  1.00  0.00     0.059 A 
ATOM     79  C   UNL A   1      42.756  21.223  27.813  1.00  0.00     0.059 A 
ATOM     80  F   UNL A   1      43.332  22.963  29.280  1.00  0.00    -0.206 F 
ATOM     81  C   UNL A   1      42.541  20.779  26.509  1.00  0.00     0.060 A 
BRANCH  81  82
ATOM     82  S   UNL A   1      42.078  19.061  26.195  1.00  0.00     0.124 S 
ATOM     83  O   UNL A   1      42.314  18.452  27.497  1.00  0.00    -0.237 OA
ATOM     84  O   UNL A   1      40.682  19.189  25.791  1.00  0.00    -0.237 OA
ATOM     85  O   UNL A   1      42.995  18.658  25.131  1.00  0.00    -0.744 OA
ENDBRANCH  81  82
ENDBRANCH  49  74
BRANCH  61  86
ATOM     86  C   UNL A   1      49.421  26.763  26.394  1.00  0.00     0.058 A 
ATOM     87  C   UNL A   1      50.235  26.097  27.322  1.00  0.00     0.135 A 
ATOM     88  C   UNL A   1      49.916  26.941  25.092  1.00  0.00     0.135 A 
ATOM     89  F   UNL A   1      49.810  25.909  28.582  1.00  0.00    -0.206 F 
ATOM     90  C   UNL A   1      51.503  25.637  26.977  1.00  0.00     0.059 A 
ATOM     91  C   UNL A   1      51.171  26.469  24.719  1.00  0.00     0.059 A 
ATOM     92  F   UNL A   1      49.173  27.563  24.165  1.00  0.00    -0.206 F 
ATOM     93  C   UNL A   1      51.961  25.826  25.672  1.00  0.00     0.060 A 
BRANCH  93  94
ATOM     94  S   UNL A   1      53.590  25.192  25.224  1.00  0.00     0.124 S 
ATOM     95  O   UNL A   1      53.698  25.612  23.831  1.00  0.00    -0.237 OA
ATOM     96  O   UNL A   1      54.467  25.884  26.164  1.00  0.00    -0.237 OA
ATOM     97  O   UNL A   1      53.465  23.753  25.439  1.00  0.00    -0.744 OA
ENDBRANCH  93  94
ENDBRANCH  61  86
ENDBRANCH  35  36
ENDBRANCH  27  30
ENDBRANCH  25  26
ENDBRANCH   1  25
TORSDOF 15
ENDMDL
MODEL 3
REMARK VINA RESULT:     -12.1      1.105      1.840
REMARK SMILES C[C@]1(C(=O)N2CCC(CC(=O)NCCCNC(=O)c3ccc(-c4c5nc(c(-c6c(F)cc(S(=O)(=O)[O-])cc6F)c6ccc([nH]6)c(-c6c(F)cc(S(=O)(=O)[O-])cc6F)c6nc(c(-c7c(F)cc(S(=O)(=O)[O-])cc7F)c7ccc4[nH]7)C=C6)C=C5)cc3)CC2)CCC[NH2+]C1
REMARK SMILES IDX 14 1 13 2 12 3 10 4 11 5 9 7 8 8 3 9 4 10 5 11 6 12 86 13
REMARK SMILES IDX 7 14 85 15 2 16 1 17 87 18 91 19 88 20 90 21 89 22 15 25
REMARK SMILES IDX 16 26 17 27 18 29 19 30 20 31 84 32 21 33 83 34 22 35 23 36
REMARK SMILES IDX 24 37 77 38 25 39 82 40 76 41 78 42 26 43 81 44 75 45 74 46
REMARK SMILES IDX 27 48 61 49 40 50 60 51 41 52 44 53 59 54 79 55 42 56 43 57
REMARK SMILES IDX 58 59 80 60 45 61 28 62 29 63 38 64 30 65 31 66 37 67 39 68
REMARK SMILES IDX 32 69 33 70 34 71 35 72 36 73 62 74 63 75 72 76 64 77 65 78
REMARK SMILES IDX 71 79 73 80 66 81 67 82 68 83 69 84 70 85 46 86 47 87 56 88
REMARK SMILES IDX 48 89 49 90 55 91 57 92 50 93 51 94 52 95 53 96 54 97
REMARK H PARENT 12 6 90 23 90 24 16 28 78 47 44 58
REMARK Flexibility Score: inf
ROOT
ATOM      1  C   UNL A   1      39.084  22.319  26.206  1.00  0.00     0.042 C 
ENDROOT
BRANCH   1   2
ATOM      2  C   UNL A   1      37.924  23.309  26.079  1.00  0.00     0.117 C 
BRANCH   2   3
ATOM      3  N   UNL A   1      37.471  23.461  24.701  1.00  0.00    -0.356 N 
ATOM      4  C   UNL A   1      36.569  22.754  23.961  1.00  0.00     0.220 C 
ATOM      5  O   UNL A   1      36.389  23.092  22.790  1.00  0.00    -0.275 OA
ATOM      6  H   UNL A   1      37.893  24.208  24.218  1.00  0.00     0.163 HD
BRANCH   4   7
ATOM      7  C   UNL A   1      35.794  21.592  24.556  1.00  0.00     0.103 C 
BRANCH   7   8
ATOM      8  C   UNL A   1      34.345  21.940  24.964  1.00  0.00     0.002 C 
ATOM      9  C   UNL A   1      31.511  24.730  23.527  1.00  0.00     0.234 C 
ATOM     10  O   UNL A   1      30.298  24.548  23.378  1.00  0.00    -0.274 OA
ATOM     11  N   UNL A   1      32.279  23.774  24.154  1.00  0.00    -0.342 N 
ATOM     12  C   UNL A   1      32.047  22.367  23.895  1.00  0.00     0.120 C 
ATOM     13  C   UNL A   1      32.899  24.029  25.436  1.00  0.00     0.120 C 
ATOM     14  C   UNL A   1      33.401  21.672  23.768  1.00  0.00     0.026 C 
ATOM     15  C   UNL A   1      34.273  23.391  25.464  1.00  0.00     0.026 C 
BRANCH   9  16
ATOM     16  C   UNL A   1      32.237  25.898  22.794  1.00  0.00     0.095 C 
ATOM     17  C   UNL A   1      33.043  25.168  21.682  1.00  0.00     0.028 C 
ATOM     18  C   UNL A   1      31.218  26.831  22.111  1.00  0.00     0.028 C 
ATOM     19  C   UNL A   1      33.273  26.721  23.597  1.00  0.00     0.277 C 
ATOM     20  C   UNL A   1      30.694  27.909  23.056  1.00  0.00     0.063 C 
ATOM     21  N   UNL A   1      32.742  27.802  24.433  1.00  0.00    -0.345 N 
ATOM     22  C   UNL A   1      31.838  28.683  23.697  1.00  0.00     0.260 C 
ATOM     23  H   UNL A   1      32.235  27.392  25.216  1.00  0.00     0.346 HD
ATOM     24  H   UNL A   1      33.533  28.363  24.753  1.00  0.00     0.346 HD
ENDBRANCH   9  16
ENDBRANCH   7   8
ENDBRANCH   4   7
ENDBRANCH   2   3
ENDBRANCH   1   2
BRANCH   1  25
ATOM     25  C   UNL A   1      40.259  22.830  27.030  1.00  0.00     0.118 C 
BRANCH  25  26
ATOM     26  N   UNL A   1      41.284  23.415  26.183  1.00  0.00    -0.352 N 
ATOM     27  C   UNL A   1      41.777  24.697  26.139  1.00  0.00     0.251 C 
ATOM     28  H   UNL A   1      41.692  22.793  25.537  1.00  0.00     0.163 HD
ATOM     29  O   UNL A   1      42.419  25.043  25.148  1.00  0.00    -0.269 OA
BRANCH  27  30
ATOM     30  C   UNL A   1      41.549  25.670  27.241  1.00  0.00     0.039 A 
ATOM     31  C   UNL A   1      42.436  26.744  27.383  1.00  0.00     0.014 A 
ATOM     32  C   UNL A   1      40.537  25.497  28.188  1.00  0.00     0.014 A 
ATOM     33  C   UNL A   1      42.284  27.653  28.438  1.00  0.00     0.010 A 
ATOM     34  C   UNL A   1      40.332  26.452  29.187  1.00  0.00     0.010 A 
ATOM     35  C   UNL A   1      41.215  27.530  29.339  1.00  0.00    -0.014 A 
BRANCH  35  36
ATOM     36  C   UNL A   1      41.027  28.493  30.461  1.00  0.00     0.031 A 
ATOM     37  C   UNL A   1      41.888  28.398  31.696  1.00  0.00     0.074 A 
ATOM     38  C   UNL A   1      40.049  29.419  30.399  1.00  0.00     0.049 A 
ATOM     39  N   UNL A   1      41.821  29.086  32.808  1.00  0.00    -0.248 NA
ATOM     40  C   UNL A   1      42.947  27.376  31.692  1.00  0.00     0.031 C 
ATOM     41  C   UNL A   1      39.116  29.594  29.285  1.00  0.00     0.029 A 
ATOM     42  N   UNL A   1      39.669  30.384  31.301  1.00  0.00    -0.354 N 
ATOM     43  C   UNL A   1      42.805  28.565  33.641  1.00  0.00     0.074 A 
ATOM     44  C   UNL A   1      43.427  27.473  32.924  1.00  0.00     0.031 C 
ATOM     45  C   UNL A   1      38.288  30.615  29.558  1.00  0.00     0.029 A 
ATOM     46  C   UNL A   1      38.602  31.144  30.881  1.00  0.00     0.049 A 
ATOM     47  H   UNL A   1      40.117  30.517  32.167  1.00  0.00     0.167 HD
ATOM     48  C   UNL A   1      43.175  28.970  34.880  1.00  0.00     0.037 A 
ATOM     49  C   UNL A   1      37.946  32.149  31.493  1.00  0.00     0.037 A 
ATOM     50  C   UNL A   1      42.588  30.086  35.577  1.00  0.00     0.049 A 
ATOM     51  C   UNL A   1      38.389  32.597  32.861  1.00  0.00     0.074 A 
ATOM     52  C   UNL A   1      42.938  30.613  36.808  1.00  0.00     0.029 A 
ATOM     53  N   UNL A   1      41.534  30.849  35.101  1.00  0.00    -0.354 N 
ATOM     54  N   UNL A   1      39.356  32.124  33.609  1.00  0.00    -0.248 NA
ATOM     55  C   UNL A   1      37.654  33.719  33.464  1.00  0.00     0.031 C 
ATOM     56  C   UNL A   1      42.073  31.677  37.091  1.00  0.00     0.029 A 
ATOM     57  C   UNL A   1      41.211  31.837  36.019  1.00  0.00     0.049 A 
ATOM     58  H   UNL A   1      41.079  30.712  34.238  1.00  0.00     0.167 HD
ATOM     59  C   UNL A   1      39.363  32.905  34.758  1.00  0.00     0.074 A 
ATOM     60  C   UNL A   1      38.311  33.889  34.604  1.00  0.00     0.031 C 
ATOM     61  C   UNL A   1      40.169  32.816  35.845  1.00  0.00     0.037 A 
BRANCH  48  62
ATOM     62  C   UNL A   1      44.279  28.208  35.564  1.00  0.00     0.058 A 
ATOM     63  C   UNL A   1      44.009  27.106  36.392  1.00  0.00     0.135 A 
ATOM     64  C   UNL A   1      45.623  28.560  35.361  1.00  0.00     0.135 A 
ATOM     65  F   UNL A   1      42.741  26.734  36.630  1.00  0.00    -0.206 F 
ATOM     66  C   UNL A   1      45.030  26.400  37.019  1.00  0.00     0.059 A 
ATOM     67  C   UNL A   1      46.662  27.851  35.958  1.00  0.00     0.059 A 
ATOM     68  F   UNL A   1      45.939  29.602  34.577  1.00  0.00    -0.206 F 
ATOM     69  C   UNL A   1      46.354  26.782  36.799  1.00  0.00     0.060 A 
BRANCH  69  70
ATOM     70  S   UNL A   1      47.668  25.855  37.621  1.00  0.00     0.124 S 
ATOM     71  O   UNL A   1      48.701  25.844  36.590  1.00  0.00    -0.237 OA
ATOM     72  O   UNL A   1      47.950  26.680  38.791  1.00  0.00    -0.237 OA
ATOM     73  O   UNL A   1      47.048  24.564  37.901  1.00  0.00    -0.744 OA
ENDBRANCH  69  70
ENDBRANCH  48  62
BRANCH  49  74
ATOM     74  C   UNL A   1      36.813  32.822  30.805  1.00  0.00     0.058 A 
ATOM     75  C   UNL A   1      35.486  32.528  31.149  1.00  0.00     0.135 A 
ATOM     76  C   UNL A   1      37.033  33.780  29.802  1.00  0.00     0.135 A 
ATOM     77  F   UNL A   1      35.225  31.615  32.096  1.00  0.00    -0.206 F 
ATOM     78  C   UNL A   1      34.414  33.148  30.514  1.00  0.00     0.059 A 
ATOM     79  C   UNL A   1      35.978  34.431  29.169  1.00  0.00     0.059 A 
ATOM     80  F   UNL A   1      38.286  34.108  29.449  1.00  0.00    -0.206 F 
ATOM     81  C   UNL A   1      34.671  34.100  29.526  1.00  0.00     0.060 A 
BRANCH  81  82
ATOM     82  S   UNL A   1      33.272  34.935  28.745  1.00  0.00     0.124 S 
ATOM     83  O   UNL A   1      32.787  33.905  27.836  1.00  0.00    -0.237 OA
ATOM     84  O   UNL A   1      32.417  35.234  29.889  1.00  0.00    -0.237 OA
ATOM     85  O   UNL A   1      33.889  36.098  28.114  1.00  0.00    -0.744 OA
ENDBRANCH  81  82
ENDBRANCH  49  74
BRANCH  61  86
ATOM     86  C   UNL A   1      39.974  33.828  36.939  1.00  0.00     0.058 A 
ATOM     87  C   UNL A   1      40.619  35.074  36.914  1.00  0.00     0.135 A 
ATOM     88  C   UNL A   1      39.088  33.567  37.998  1.00  0.00     0.135 A 
ATOM     89  F   UNL A   1      41.481  35.367  35.928  1.00  0.00    -0.206 F 
ATOM     90  C   UNL A   1      40.406  36.022  37.910  1.00  0.00     0.059 A 
ATOM     91  C   UNL A   1      38.842  34.510  38.992  1.00  0.00     0.059 A 
ATOM     92  F   UNL A   1      38.439  32.395  38.063  1.00  0.00    -0.206 F 
ATOM     93  C   UNL A   1      39.514  35.731  38.945  1.00  0.00     0.060 A 
BRANCH  93  94
ATOM     94  S   UNL A   1      39.215  36.983  40.210  1.00  0.00     0.124 S 
ATOM     95  O   UNL A   1      38.389  36.248  41.162  1.00  0.00    -0.237 OA
ATOM     96  O   UNL A   1      40.566  37.304  40.659  1.00  0.00    -0.237 OA
ATOM     97  O   UNL A   1      38.535  38.048  39.479  1.00  0.00    -0.744 OA
ENDBRANCH  93  94
ENDBRANCH  61  86
ENDBRANCH  35  36
ENDBRANCH  27  30
ENDBRANCH  25  26
ENDBRANCH   1  25
TORSDOF 15
ENDMDL
