MODEL 1
REMARK VINA RESULT:     -11.7      0.000      0.000
REMARK SMILES C[C@@H]1[C@H](C)CCC[C@H]1NC(=O)C[N@H+]1CCC[C@@H]1C(=O)NCCCNC(=O)c1ccc(-c2c3nc(c(-c4c(F)cc(S(=O)(=O)[O-])cc4F)c4ccc([nH]4)c(-c4c(F)cc(S(=O)(=O)[O-])cc4F)c4nc(c(-c5c(F)cc(S(=O)(=O)[O-])cc5F)c5ccc2[nH]5)C=C4)C=C3)cc1
REMARK SMILES IDX 22 1 21 2 20 3 18 4 19 5 17 7 13 8 14 9 15 11 16 12 12 13
REMARK SMILES IDX 10 14 9 15 11 17 8 18 1 19 2 20 3 21 4 22 5 23 7 24 6 25
REMARK SMILES IDX 23 26 24 27 25 28 26 30 27 31 28 32 92 33 29 34 91 35 30 36
REMARK SMILES IDX 31 37 32 38 85 39 33 40 90 41 84 42 86 43 34 44 89 45 83 46
REMARK SMILES IDX 82 47 35 49 69 50 48 51 68 52 49 53 52 54 67 55 87 56 50 57
REMARK SMILES IDX 51 58 66 60 88 61 53 62 36 63 37 64 46 65 38 66 39 67 45 68
REMARK SMILES IDX 47 69 40 70 41 71 42 72 43 73 44 74 70 75 71 76 80 77 72 78
REMARK SMILES IDX 73 79 79 80 81 81 74 82 75 83 76 84 77 85 78 86 54 87 55 88
REMARK SMILES IDX 64 89 56 90 57 91 63 92 65 93 58 94 59 95 60 96 61 97 62 98
REMARK H PARENT 20 6 13 10 9 16 24 29 86 48 52 59
REMARK Flexibility Score: inf
ROOT
ATOM      1  C   UNL A   1      32.569  27.890  27.159  1.00  0.00     0.042 C 
ENDROOT
BRANCH   1   2
ATOM      2  C   UNL A   1      32.509  26.667  26.278  1.00  0.00     0.118 C 
BRANCH   2   3
ATOM      3  N   UNL A   1      31.592  25.639  26.702  1.00  0.00    -0.351 N 
ATOM      4  C   UNL A   1      30.788  24.884  25.899  1.00  0.00     0.278 C 
ATOM      5  O   UNL A   1      30.289  23.866  26.397  1.00  0.00    -0.268 OA
ATOM      6  H   UNL A   1      31.541  25.463  27.668  1.00  0.00     0.163 HD
BRANCH   4   7
ATOM      7  C   UNL A   1      30.356  25.330  24.496  1.00  0.00     0.274 C 
ATOM      8  N   UNL A   1      31.404  25.636  23.491  1.00  0.00    -0.317 N 
ATOM      9  C   UNL A   1      30.687  26.402  22.478  1.00  0.00     0.263 C 
ATOM     10  H   UNL A   1      32.167  26.142  23.939  1.00  0.00     0.349 HD
ATOM     11  C   UNL A   1      30.056  27.459  23.367  1.00  0.00     0.068 C 
ATOM     12  C   UNL A   1      29.591  26.662  24.583  1.00  0.00     0.081 C 
BRANCH   8  13
ATOM     13  C   UNL A   1      32.193  24.530  22.950  1.00  0.00     0.364 C 
BRANCH  13  14
ATOM     14  C   UNL A   1      33.666  24.961  22.816  1.00  0.00     0.275 C 
ATOM     15  N   UNL A   1      34.664  24.434  23.595  1.00  0.00    -0.348 N 
ATOM     16  H   UNL A   1      35.524  24.309  23.134  1.00  0.00     0.163 HD
ATOM     17  O   UNL A   1      34.000  25.766  21.940  1.00  0.00    -0.268 OA
BRANCH  15  18
ATOM     18  C   UNL A   1      34.656  24.028  25.006  1.00  0.00     0.085 C 
ATOM     19  C   UNL A   1      33.662  22.551  26.806  1.00  0.00     0.010 C 
ATOM     20  C   UNL A   1      33.954  22.674  25.295  1.00  0.00     0.011 C 
ATOM     21  C   UNL A   1      34.735  21.459  24.741  1.00  0.00    -0.009 C 
ATOM     22  C   UNL A   1      34.045  20.126  25.051  1.00  0.00     0.008 C 
ATOM     23  C   UNL A   1      36.187  21.442  25.228  1.00  0.00     0.004 C 
ATOM     24  C   UNL A   1      36.117  23.975  25.498  1.00  0.00     0.025 C 
ATOM     25  C   UNL A   1      36.889  22.768  24.951  1.00  0.00     0.002 C 
ENDBRANCH  15  18
ENDBRANCH  13  14
ENDBRANCH   8  13
ENDBRANCH   4   7
ENDBRANCH   2   3
ENDBRANCH   1   2
BRANCH   1  26
ATOM     26  C   UNL A   1      33.653  28.879  26.779  1.00  0.00     0.118 C 
BRANCH  26  27
ATOM     27  N   UNL A   1      33.630  30.126  27.538  1.00  0.00    -0.352 N 
ATOM     28  C   UNL A   1      34.597  30.729  28.321  1.00  0.00     0.251 C 
ATOM     29  H   UNL A   1      32.782  30.622  27.484  1.00  0.00     0.163 HD
ATOM     30  O   UNL A   1      34.336  31.748  28.936  1.00  0.00    -0.269 OA
BRANCH  28  31
ATOM     31  C   UNL A   1      35.934  30.104  28.459  1.00  0.00     0.039 A 
ATOM     32  C   UNL A   1      36.823  30.159  27.383  1.00  0.00     0.014 A 
ATOM     33  C   UNL A   1      36.330  29.507  29.653  1.00  0.00     0.014 A 
ATOM     34  C   UNL A   1      38.140  29.724  27.549  1.00  0.00     0.010 A 
ATOM     35  C   UNL A   1      37.669  29.210  29.862  1.00  0.00     0.010 A 
ATOM     36  C   UNL A   1      38.592  29.308  28.812  1.00  0.00    -0.014 A 
BRANCH  36  37
ATOM     37  C   UNL A   1      40.012  28.951  29.069  1.00  0.00     0.031 A 
ATOM     38  C   UNL A   1      40.949  29.987  29.634  1.00  0.00     0.074 A 
ATOM     39  C   UNL A   1      40.481  27.741  28.701  1.00  0.00     0.049 A 
ATOM     40  N   UNL A   1      42.247  29.936  29.785  1.00  0.00    -0.248 NA
ATOM     41  C   UNL A   1      40.353  31.273  30.036  1.00  0.00     0.031 C 
ATOM     42  C   UNL A   1      39.691  26.672  28.083  1.00  0.00     0.029 A 
ATOM     43  N   UNL A   1      41.744  27.209  28.782  1.00  0.00    -0.354 N 
ATOM     44  C   UNL A   1      42.621  31.187  30.260  1.00  0.00     0.074 A 
ATOM     45  C   UNL A   1      41.426  31.998  30.311  1.00  0.00     0.031 C 
ATOM     46  C   UNL A   1      40.478  25.605  27.872  1.00  0.00     0.029 A 
ATOM     47  C   UNL A   1      41.837  25.925  28.294  1.00  0.00     0.049 A 
ATOM     48  H   UNL A   1      42.512  27.701  29.152  1.00  0.00     0.167 HD
ATOM     49  C   UNL A   1      43.844  31.616  30.651  1.00  0.00     0.037 A 
ATOM     50  C   UNL A   1      42.899  25.104  28.193  1.00  0.00     0.037 A 
ATOM     51  C   UNL A   1      45.017  30.783  30.657  1.00  0.00     0.049 A 
ATOM     52  C   UNL A   1      44.242  25.586  28.673  1.00  0.00     0.074 A 
ATOM     53  C   UNL A   1      46.290  31.092  31.102  1.00  0.00     0.029 A 
ATOM     54  N   UNL A   1      45.057  29.472  30.207  1.00  0.00    -0.354 N 
ATOM     55  N   UNL A   1      44.568  26.755  29.169  1.00  0.00    -0.248 NA
ATOM     56  C   UNL A   1      45.360  24.636  28.585  1.00  0.00     0.031 C 
ATOM     57  C   UNL A   1      47.107  29.977  30.893  1.00  0.00     0.029 A 
ATOM     58  C   UNL A   1      46.334  28.960  30.357  1.00  0.00     0.049 A 
ATOM     59  H   UNL A   1      44.290  28.978  29.837  1.00  0.00     0.167 HD
ATOM     60  C   UNL A   1      45.921  26.674  29.478  1.00  0.00     0.074 A 
ATOM     61  C   UNL A   1      46.349  25.336  29.122  1.00  0.00     0.031 C 
ATOM     62  C   UNL A   1      46.735  27.619  30.008  1.00  0.00     0.037 A 
BRANCH  49  63
ATOM     63  C   UNL A   1      43.965  33.039  31.124  1.00  0.00     0.058 A 
ATOM     64  C   UNL A   1      44.212  34.094  30.231  1.00  0.00     0.135 A 
ATOM     65  C   UNL A   1      43.821  33.354  32.485  1.00  0.00     0.135 A 
ATOM     66  F   UNL A   1      44.376  33.847  28.921  1.00  0.00    -0.206 F 
ATOM     67  C   UNL A   1      44.349  35.405  30.673  1.00  0.00     0.059 A 
ATOM     68  C   UNL A   1      43.923  34.664  32.945  1.00  0.00     0.059 A 
ATOM     69  F   UNL A   1      43.585  32.386  33.383  1.00  0.00    -0.206 F 
ATOM     70  C   UNL A   1      44.206  35.681  32.033  1.00  0.00     0.060 A 
BRANCH  70  71
ATOM     71  S   UNL A   1      44.387  37.387  32.591  1.00  0.00     0.124 S 
ATOM     72  O   UNL A   1      44.291  38.116  31.330  1.00  0.00    -0.237 OA
ATOM     73  O   UNL A   1      43.255  37.542  33.499  1.00  0.00    -0.237 OA
ATOM     74  O   UNL A   1      45.702  37.401  33.225  1.00  0.00    -0.744 OA
ENDBRANCH  70  71
ENDBRANCH  49  63
BRANCH  50  75
ATOM     75  C   UNL A   1      42.729  23.729  27.649  1.00  0.00     0.058 A 
ATOM     76  C   UNL A   1      42.507  22.641  28.506  1.00  0.00     0.135 A 
ATOM     77  C   UNL A   1      42.769  23.476  26.270  1.00  0.00     0.135 A 
ATOM     78  F   UNL A   1      42.466  22.832  29.834  1.00  0.00    -0.206 F 
ATOM     79  C   UNL A   1      42.346  21.348  28.018  1.00  0.00     0.059 A 
ATOM     80  C   UNL A   1      42.587  22.195  25.756  1.00  0.00     0.059 A 
ATOM     81  F   UNL A   1      42.960  24.485  25.405  1.00  0.00    -0.206 F 
ATOM     82  C   UNL A   1      42.385  21.135  26.640  1.00  0.00     0.060 A 
BRANCH  82  83
ATOM     83  S   UNL A   1      42.124  19.462  26.013  1.00  0.00     0.124 S 
ATOM     84  O   UNL A   1      42.952  19.464  24.814  1.00  0.00    -0.237 OA
ATOM     85  O   UNL A   1      42.606  18.640  27.120  1.00  0.00    -0.237 OA
ATOM     86  O   UNL A   1      40.682  19.410  25.787  1.00  0.00    -0.744 OA
ENDBRANCH  82  83
ENDBRANCH  50  75
BRANCH  62  87
ATOM     87  C   UNL A   1      48.161  27.232  30.276  1.00  0.00     0.058 A 
ATOM     88  C   UNL A   1      49.177  27.466  29.337  1.00  0.00     0.135 A 
ATOM     89  C   UNL A   1      48.524  26.674  31.513  1.00  0.00     0.135 A 
ATOM     90  F   UNL A   1      48.880  27.991  28.137  1.00  0.00    -0.206 F 
ATOM     91  C   UNL A   1      50.502  27.144  29.608  1.00  0.00     0.059 A 
ATOM     92  C   UNL A   1      49.846  26.369  31.815  1.00  0.00     0.059 A 
ATOM     93  F   UNL A   1      47.590  26.441  32.449  1.00  0.00    -0.206 F 
ATOM     94  C   UNL A   1      50.827  26.598  30.851  1.00  0.00     0.060 A 
BRANCH  94  95
ATOM     95  S   UNL A   1      52.556  26.221  31.206  1.00  0.00     0.124 S 
ATOM     96  O   UNL A   1      53.122  26.147  29.863  1.00  0.00    -0.237 OA
ATOM     97  O   UNL A   1      52.970  27.371  32.006  1.00  0.00    -0.237 OA
ATOM     98  O   UNL A   1      52.486  24.956  31.930  1.00  0.00    -0.744 OA
ENDBRANCH  94  95
ENDBRANCH  62  87
ENDBRANCH  36  37
ENDBRANCH  28  31
ENDBRANCH  26  27
ENDBRANCH   1  26
TORSDOF 16
ENDMDL
MODEL 2
REMARK VINA RESULT:     -11.7      4.877     10.581
REMARK SMILES C[C@@H]1[C@H](C)CCC[C@H]1NC(=O)C[N@H+]1CCC[C@@H]1C(=O)NCCCNC(=O)c1ccc(-c2c3nc(c(-c4c(F)cc(S(=O)(=O)[O-])cc4F)c4ccc([nH]4)c(-c4c(F)cc(S(=O)(=O)[O-])cc4F)c4nc(c(-c5c(F)cc(S(=O)(=O)[O-])cc5F)c5ccc2[nH]5)C=C4)C=C3)cc1
REMARK SMILES IDX 22 1 21 2 20 3 18 4 19 5 17 7 13 8 14 9 15 11 16 12 12 13
REMARK SMILES IDX 10 14 9 15 11 17 8 18 1 19 2 20 3 21 4 22 5 23 7 24 6 25
REMARK SMILES IDX 23 26 24 27 25 28 26 30 27 31 28 32 92 33 29 34 91 35 30 36
REMARK SMILES IDX 31 37 32 38 85 39 33 40 90 41 84 42 86 43 34 44 89 45 83 46
REMARK SMILES IDX 82 47 35 49 69 50 48 51 68 52 49 53 52 54 67 55 87 56 50 57
REMARK SMILES IDX 51 58 66 60 88 61 53 62 36 63 37 64 46 65 38 66 39 67 45 68
REMARK SMILES IDX 47 69 40 70 41 71 42 72 43 73 44 74 70 75 71 76 80 77 72 78
REMARK SMILES IDX 73 79 79 80 81 81 74 82 75 83 76 84 77 85 78 86 54 87 55 88
REMARK SMILES IDX 64 89 56 90 57 91 63 92 65 93 58 94 59 95 60 96 61 97 62 98
REMARK H PARENT 20 6 13 10 9 16 24 29 86 48 52 59
REMARK Flexibility Score: inf
ROOT
ATOM      1  C   UNL A   1      37.306  23.162  25.434  1.00  0.00     0.042 C 
ENDROOT
BRANCH   1   2
ATOM      2  C   UNL A   1      35.907  23.661  25.176  1.00  0.00     0.118 C 
BRANCH   2   3
ATOM      3  N   UNL A   1      35.513  23.726  23.791  1.00  0.00    -0.351 N 
ATOM      4  C   UNL A   1      34.336  23.290  23.257  1.00  0.00     0.278 C 
ATOM      5  O   UNL A   1      34.053  23.684  22.119  1.00  0.00    -0.268 OA
ATOM      6  H   UNL A   1      36.160  24.125  23.166  1.00  0.00     0.163 HD
BRANCH   4   7
ATOM      7  C   UNL A   1      33.459  22.227  23.931  1.00  0.00     0.274 C 
ATOM      8  N   UNL A   1      32.639  22.617  25.104  1.00  0.00    -0.317 N 
ATOM      9  C   UNL A   1      32.297  21.339  25.718  1.00  0.00     0.263 C 
ATOM     10  H   UNL A   1      33.179  23.241  25.704  1.00  0.00     0.349 HD
ATOM     11  C   UNL A   1      33.687  20.743  25.839  1.00  0.00     0.068 C 
ATOM     12  C   UNL A   1      34.344  21.110  24.511  1.00  0.00     0.081 C 
BRANCH   8  13
ATOM     13  C   UNL A   1      31.491  23.499  24.889  1.00  0.00     0.364 C 
BRANCH  13  14
ATOM     14  C   UNL A   1      31.405  24.526  26.033  1.00  0.00     0.275 C 
ATOM     15  N   UNL A   1      31.288  25.874  25.808  1.00  0.00    -0.348 N 
ATOM     16  H   UNL A   1      30.716  26.351  26.450  1.00  0.00     0.163 HD
ATOM     17  O   UNL A   1      31.377  24.147  27.209  1.00  0.00    -0.268 OA
BRANCH  15  18
ATOM     18  C   UNL A   1      31.880  26.719  24.763  1.00  0.00     0.085 C 
ATOM     19  C   UNL A   1      31.823  28.903  23.484  1.00  0.00     0.010 C 
ATOM     20  C   UNL A   1      31.473  28.217  24.821  1.00  0.00     0.011 C 
ATOM     21  C   UNL A   1      32.070  28.957  26.041  1.00  0.00    -0.009 C 
ATOM     22  C   UNL A   1      31.680  30.439  26.077  1.00  0.00     0.008 C 
ATOM     23  C   UNL A   1      33.591  28.796  26.121  1.00  0.00     0.004 C 
ATOM     24  C   UNL A   1      33.415  26.591  24.856  1.00  0.00     0.025 C 
ATOM     25  C   UNL A   1      34.005  27.329  26.064  1.00  0.00     0.002 C 
ENDBRANCH  15  18
ENDBRANCH  13  14
ENDBRANCH   8  13
ENDBRANCH   4   7
ENDBRANCH   2   3
ENDBRANCH   1   2
BRANCH   1  26
ATOM     26  C   UNL A   1      38.141  24.073  26.313  1.00  0.00     0.118 C 
BRANCH  26  27
ATOM     27  N   UNL A   1      39.583  23.873  26.197  1.00  0.00    -0.352 N 
ATOM     28  C   UNL A   1      40.641  24.572  26.746  1.00  0.00     0.251 C 
ATOM     29  H   UNL A   1      39.846  23.112  25.633  1.00  0.00     0.163 HD
ATOM     30  O   UNL A   1      41.786  24.275  26.454  1.00  0.00    -0.269 OA
BRANCH  28  31
ATOM     31  C   UNL A   1      40.383  25.722  27.646  1.00  0.00     0.039 A 
ATOM     32  C   UNL A   1      39.435  25.587  28.664  1.00  0.00     0.014 A 
ATOM     33  C   UNL A   1      41.100  26.909  27.521  1.00  0.00     0.014 A 
ATOM     34  C   UNL A   1      39.297  26.596  29.620  1.00  0.00     0.010 A 
ATOM     35  C   UNL A   1      41.066  27.843  28.546  1.00  0.00     0.010 A 
ATOM     36  C   UNL A   1      40.160  27.703  29.607  1.00  0.00    -0.014 A 
BRANCH  36  37
ATOM     37  C   UNL A   1      40.134  28.742  30.670  1.00  0.00     0.031 A 
ATOM     38  C   UNL A   1      41.043  28.606  31.865  1.00  0.00     0.074 A 
ATOM     39  C   UNL A   1      39.230  29.742  30.615  1.00  0.00     0.049 A 
ATOM     40  N   UNL A   1      41.068  29.306  32.969  1.00  0.00    -0.248 NA
ATOM     41  C   UNL A   1      42.019  27.504  31.835  1.00  0.00     0.031 C 
ATOM     42  C   UNL A   1      38.251  29.948  29.545  1.00  0.00     0.029 A 
ATOM     43  N   UNL A   1      38.979  30.769  31.491  1.00  0.00    -0.354 N 
ATOM     44  C   UNL A   1      42.030  28.706  33.774  1.00  0.00     0.074 A 
ATOM     45  C   UNL A   1      42.520  27.549  33.060  1.00  0.00     0.031 C 
ATOM     46  C   UNL A   1      37.530  31.049  29.810  1.00  0.00     0.029 A 
ATOM     47  C   UNL A   1      37.961  31.603  31.088  1.00  0.00     0.049 A 
ATOM     48  H   UNL A   1      39.480  30.897  32.328  1.00  0.00     0.167 HD
ATOM     49  C   UNL A   1      42.491  29.100  34.984  1.00  0.00     0.037 A 
ATOM     50  C   UNL A   1      37.430  32.686  31.687  1.00  0.00     0.037 A 
ATOM     51  C   UNL A   1      42.044  30.288  35.660  1.00  0.00     0.049 A 
ATOM     52  C   UNL A   1      37.986  33.131  33.013  1.00  0.00     0.074 A 
ATOM     53  C   UNL A   1      42.495  30.822  36.854  1.00  0.00     0.029 A 
ATOM     54  N   UNL A   1      41.049  31.135  35.193  1.00  0.00    -0.354 N 
ATOM     55  N   UNL A   1      38.933  32.582  33.735  1.00  0.00    -0.248 NA
ATOM     56  C   UNL A   1      37.405  34.346  33.604  1.00  0.00     0.031 C 
ATOM     57  C   UNL A   1      41.752  31.975  37.124  1.00  0.00     0.029 A 
ATOM     58  C   UNL A   1      40.868  32.183  36.078  1.00  0.00     0.049 A 
ATOM     59  H   UNL A   1      40.548  31.010  34.356  1.00  0.00     0.167 HD
ATOM     60  C   UNL A   1      39.082  33.398  34.851  1.00  0.00     0.074 A 
ATOM     61  C   UNL A   1      38.134  34.484  34.703  1.00  0.00     0.031 C 
ATOM     62  C   UNL A   1      39.926  33.262  35.903  1.00  0.00     0.037 A 
BRANCH  49  63
ATOM     63  C   UNL A   1      43.545  28.250  35.639  1.00  0.00     0.058 A 
ATOM     64  C   UNL A   1      43.212  27.233  36.549  1.00  0.00     0.135 A 
ATOM     65  C   UNL A   1      44.904  28.444  35.344  1.00  0.00     0.135 A 
ATOM     66  F   UNL A   1      41.930  27.015  36.880  1.00  0.00    -0.206 F 
ATOM     67  C   UNL A   1      44.190  26.465  37.172  1.00  0.00     0.059 A 
ATOM     68  C   UNL A   1      45.898  27.666  35.933  1.00  0.00     0.059 A 
ATOM     69  F   UNL A   1      45.281  29.401  34.482  1.00  0.00    -0.206 F 
ATOM     70  C   UNL A   1      45.531  26.691  36.860  1.00  0.00     0.060 A 
BRANCH  70  71
ATOM     71  S   UNL A   1      46.787  25.687  37.678  1.00  0.00     0.124 S 
ATOM     72  O   UNL A   1      46.225  25.556  39.019  1.00  0.00    -0.237 OA
ATOM     73  O   UNL A   1      46.789  24.470  36.872  1.00  0.00    -0.237 OA
ATOM     74  O   UNL A   1      47.993  26.503  37.580  1.00  0.00    -0.744 OA
ENDBRANCH  70  71
ENDBRANCH  49  63
BRANCH  50  75
ATOM     75  C   UNL A   1      36.338  33.446  31.022  1.00  0.00     0.058 A 
ATOM     76  C   UNL A   1      35.032  33.422  31.533  1.00  0.00     0.135 A 
ATOM     77  C   UNL A   1      36.576  34.221  29.876  1.00  0.00     0.135 A 
ATOM     78  F   UNL A   1      34.753  32.692  32.623  1.00  0.00    -0.206 F 
ATOM     79  C   UNL A   1      33.996  34.125  30.925  1.00  0.00     0.059 A 
ATOM     80  C   UNL A   1      35.561  34.953  29.264  1.00  0.00     0.059 A 
ATOM     81  F   UNL A   1      37.812  34.294  29.357  1.00  0.00    -0.206 F 
ATOM     82  C   UNL A   1      34.272  34.890  29.792  1.00  0.00     0.060 A 
BRANCH  82  83
ATOM     83  S   UNL A   1      32.932  35.840  29.040  1.00  0.00     0.124 S 
ATOM     84  O   UNL A   1      32.352  34.861  28.130  1.00  0.00    -0.237 OA
ATOM     85  O   UNL A   1      32.119  36.195  30.199  1.00  0.00    -0.237 OA
ATOM     86  O   UNL A   1      33.628  36.957  28.408  1.00  0.00    -0.744 OA
ENDBRANCH  82  83
ENDBRANCH  50  75
BRANCH  62  87
ATOM     87  C   UNL A   1      39.896  34.332  36.957  1.00  0.00     0.058 A 
ATOM     88  C   UNL A   1      40.606  35.532  36.809  1.00  0.00     0.135 A 
ATOM     89  C   UNL A   1      39.097  34.176  38.101  1.00  0.00     0.135 A 
ATOM     90  F   UNL A   1      41.390  35.726  35.736  1.00  0.00    -0.206 F 
ATOM     91  C   UNL A   1      40.540  36.536  37.768  1.00  0.00     0.059 A 
ATOM     92  C   UNL A   1      38.995  35.177  39.061  1.00  0.00     0.059 A 
ATOM     93  F   UNL A   1      38.389  33.050  38.284  1.00  0.00    -0.206 F 
ATOM     94  C   UNL A   1      39.729  36.350  38.890  1.00  0.00     0.060 A 
BRANCH  94  95
ATOM     95  S   UNL A   1      39.620  37.677  40.109  1.00  0.00     0.124 S 
ATOM     96  O   UNL A   1      39.128  36.960  41.280  1.00  0.00    -0.237 OA
ATOM     97  O   UNL A   1      41.001  38.146  40.186  1.00  0.00    -0.237 OA
ATOM     98  O   UNL A   1      38.680  38.616  39.506  1.00  0.00    -0.744 OA
ENDBRANCH  94  95
ENDBRANCH  62  87
ENDBRANCH  36  37
ENDBRANCH  28  31
ENDBRANCH  26  27
ENDBRANCH   1  26
TORSDOF 16
ENDMDL
MODEL 3
REMARK VINA RESULT:     -11.4      2.508      3.336
REMARK SMILES C[C@@H]1[C@H](C)CCC[C@H]1NC(=O)C[N@H+]1CCC[C@@H]1C(=O)NCCCNC(=O)c1ccc(-c2c3nc(c(-c4c(F)cc(S(=O)(=O)[O-])cc4F)c4ccc([nH]4)c(-c4c(F)cc(S(=O)(=O)[O-])cc4F)c4nc(c(-c5c(F)cc(S(=O)(=O)[O-])cc5F)c5ccc2[nH]5)C=C4)C=C3)cc1
REMARK SMILES IDX 22 1 21 2 20 3 18 4 19 5 17 7 13 8 14 9 15 11 16 12 12 13
REMARK SMILES IDX 10 14 9 15 11 17 8 18 1 19 2 20 3 21 4 22 5 23 7 24 6 25
REMARK SMILES IDX 23 26 24 27 25 28 26 30 27 31 28 32 92 33 29 34 91 35 30 36
REMARK SMILES IDX 31 37 32 38 85 39 33 40 90 41 84 42 86 43 34 44 89 45 83 46
REMARK SMILES IDX 82 47 35 49 69 50 48 51 68 52 49 53 52 54 67 55 87 56 50 57
REMARK SMILES IDX 51 58 66 60 88 61 53 62 36 63 37 64 46 65 38 66 39 67 45 68
REMARK SMILES IDX 47 69 40 70 41 71 42 72 43 73 44 74 70 75 71 76 80 77 72 78
REMARK SMILES IDX 73 79 79 80 81 81 74 82 75 83 76 84 77 85 78 86 54 87 55 88
REMARK SMILES IDX 64 89 56 90 57 91 63 92 65 93 58 94 59 95 60 96 61 97 62 98
REMARK H PARENT 20 6 13 10 9 16 24 29 86 48 52 59
REMARK Flexibility Score: inf
ROOT
ATOM      1  C   UNL A   1      34.030  29.365  27.204  1.00  0.00     0.042 C 
ENDROOT
BRANCH   1   2
ATOM      2  C   UNL A   1      33.110  30.019  26.204  1.00  0.00     0.118 C 
BRANCH   2   3
ATOM      3  N   UNL A   1      33.360  29.694  24.822  1.00  0.00    -0.351 N 
ATOM      4  C   UNL A   1      32.509  29.052  23.971  1.00  0.00     0.278 C 
ATOM      5  O   UNL A   1      32.768  29.115  22.762  1.00  0.00    -0.268 OA
ATOM      6  H   UNL A   1      34.233  29.961  24.456  1.00  0.00     0.163 HD
BRANCH   4   7
ATOM      7  C   UNL A   1      31.374  28.142  24.456  1.00  0.00     0.274 C 
ATOM      8  N   UNL A   1      31.492  26.679  24.243  1.00  0.00    -0.317 N 
ATOM      9  C   UNL A   1      30.125  26.200  24.417  1.00  0.00     0.263 C 
ATOM     10  H   UNL A   1      31.886  26.500  23.319  1.00  0.00     0.349 HD
ATOM     11  C   UNL A   1      29.414  27.124  23.447  1.00  0.00     0.068 C 
ATOM     12  C   UNL A   1      30.076  28.476  23.699  1.00  0.00     0.081 C 
BRANCH   8  13
ATOM     13  C   UNL A   1      32.484  25.940  25.024  1.00  0.00     0.364 C 
BRANCH  13  14
ATOM     14  C   UNL A   1      33.453  25.211  24.074  1.00  0.00     0.275 C 
ATOM     15  N   UNL A   1      33.930  23.951  24.330  1.00  0.00    -0.348 N 
ATOM     16  H   UNL A   1      34.038  23.382  23.535  1.00  0.00     0.163 HD
ATOM     17  O   UNL A   1      33.785  25.732  23.004  1.00  0.00    -0.268 OA
BRANCH  15  18
ATOM     18  C   UNL A   1      34.305  23.315  25.599  1.00  0.00     0.085 C 
ATOM     19  C   UNL A   1      33.749  21.619  27.394  1.00  0.00     0.010 C 
ATOM     20  C   UNL A   1      33.580  21.975  25.902  1.00  0.00     0.011 C 
ATOM     21  C   UNL A   1      34.018  20.826  24.964  1.00  0.00    -0.009 C 
ATOM     22  C   UNL A   1      33.313  19.504  25.286  1.00  0.00     0.008 C 
ATOM     23  C   UNL A   1      35.539  20.641  24.958  1.00  0.00     0.004 C 
ATOM     24  C   UNL A   1      35.832  23.092  25.590  1.00  0.00     0.025 C 
ATOM     25  C   UNL A   1      36.264  21.950  24.663  1.00  0.00     0.002 C 
ENDBRANCH  15  18
ENDBRANCH  13  14
ENDBRANCH   8  13
ENDBRANCH   4   7
ENDBRANCH   2   3
ENDBRANCH   1   2
BRANCH   1  26
ATOM     26  C   UNL A   1      35.260  30.182  27.548  1.00  0.00     0.118 C 
BRANCH  26  27
ATOM     27  N   UNL A   1      35.336  30.608  28.943  1.00  0.00    -0.352 N 
ATOM     28  C   UNL A   1      36.339  30.465  29.881  1.00  0.00     0.251 C 
ATOM     29  H   UNL A   1      34.535  31.078  29.270  1.00  0.00     0.163 HD
ATOM     30  O   UNL A   1      36.160  30.836  31.028  1.00  0.00    -0.269 OA
BRANCH  28  31
ATOM     31  C   UNL A   1      37.615  29.807  29.508  1.00  0.00     0.039 A 
ATOM     32  C   UNL A   1      38.015  29.815  28.170  1.00  0.00     0.014 A 
ATOM     33  C   UNL A   1      38.434  29.226  30.472  1.00  0.00     0.014 A 
ATOM     34  C   UNL A   1      39.285  29.348  27.824  1.00  0.00     0.010 A 
ATOM     35  C   UNL A   1      39.744  28.898  30.153  1.00  0.00     0.010 A 
ATOM     36  C   UNL A   1      40.186  28.948  28.823  1.00  0.00    -0.014 A 
BRANCH  36  37
ATOM     37  C   UNL A   1      41.588  28.558  28.519  1.00  0.00     0.031 A 
ATOM     38  C   UNL A   1      42.667  29.611  28.507  1.00  0.00     0.074 A 
ATOM     39  C   UNL A   1      41.873  27.292  28.153  1.00  0.00     0.049 A 
ATOM     40  N   UNL A   1      43.911  29.517  28.117  1.00  0.00    -0.248 NA
ATOM     41  C   UNL A   1      42.280  30.963  28.945  1.00  0.00     0.031 C 
ATOM     42  C   UNL A   1      40.907  26.194  28.061  1.00  0.00     0.029 A 
ATOM     43  N   UNL A   1      43.060  26.714  27.777  1.00  0.00    -0.354 N 
ATOM     44  C   UNL A   1      44.439  30.798  28.226  1.00  0.00     0.074 A 
ATOM     45  C   UNL A   1      43.365  31.664  28.657  1.00  0.00     0.031 C 
ATOM     46  C   UNL A   1      41.544  25.073  27.688  1.00  0.00     0.029 A 
ATOM     47  C   UNL A   1      42.953  25.378  27.468  1.00  0.00     0.049 A 
ATOM     48  H   UNL A   1      43.909  27.211  27.731  1.00  0.00     0.167 HD
ATOM     49  C   UNL A   1      45.711  31.213  28.020  1.00  0.00     0.037 A 
ATOM     50  C   UNL A   1      43.885  24.500  27.048  1.00  0.00     0.037 A 
ATOM     51  C   UNL A   1      46.788  30.333  27.653  1.00  0.00     0.049 A 
ATOM     52  C   UNL A   1      45.302  24.974  26.866  1.00  0.00     0.074 A 
ATOM     53  C   UNL A   1      48.128  30.634  27.490  1.00  0.00     0.029 A 
ATOM     54  N   UNL A   1      46.648  28.976  27.403  1.00  0.00    -0.354 N 
ATOM     55  N   UNL A   1      45.795  26.179  27.026  1.00  0.00    -0.248 NA
ATOM     56  C   UNL A   1      46.291  23.968  26.452  1.00  0.00     0.031 C 
ATOM     57  C   UNL A   1      48.795  29.464  27.113  1.00  0.00     0.029 A 
ATOM     58  C   UNL A   1      47.877  28.426  27.081  1.00  0.00     0.049 A 
ATOM     59  H   UNL A   1      45.801  28.478  27.449  1.00  0.00     0.167 HD
ATOM     60  C   UNL A   1      47.155  26.071  26.759  1.00  0.00     0.074 A 
ATOM     61  C   UNL A   1      47.408  24.682  26.438  1.00  0.00     0.031 C 
ATOM     62  C   UNL A   1      48.108  27.035  26.779  1.00  0.00     0.037 A 
BRANCH  49  63
ATOM     63  C   UNL A   1      46.006  32.676  28.210  1.00  0.00     0.058 A 
ATOM     64  C   UNL A   1      45.885  33.595  27.154  1.00  0.00     0.135 A 
ATOM     65  C   UNL A   1      46.401  33.169  29.464  1.00  0.00     0.135 A 
ATOM     66  F   UNL A   1      45.528  33.176  25.930  1.00  0.00    -0.206 F 
ATOM     67  C   UNL A   1      46.182  34.943  27.325  1.00  0.00     0.059 A 
ATOM     68  C   UNL A   1      46.674  34.520  29.665  1.00  0.00     0.059 A 
ATOM     69  F   UNL A   1      46.532  32.337  30.508  1.00  0.00    -0.206 F 
ATOM     70  C   UNL A   1      46.579  35.396  28.584  1.00  0.00     0.060 A 
BRANCH  70  71
ATOM     71  S   UNL A   1      46.962  37.147  28.789  1.00  0.00     0.124 S 
ATOM     72  O   UNL A   1      46.670  37.344  30.205  1.00  0.00    -0.237 OA
ATOM     73  O   UNL A   1      48.373  37.205  28.421  1.00  0.00    -0.237 OA
ATOM     74  O   UNL A   1      46.047  37.806  27.862  1.00  0.00    -0.744 OA
ENDBRANCH  70  71
ENDBRANCH  49  63
BRANCH  50  75
ATOM     75  C   UNL A   1      43.516  23.079  26.809  1.00  0.00     0.058 A 
ATOM     76  C   UNL A   1      43.210  22.227  27.880  1.00  0.00     0.135 A 
ATOM     77  C   UNL A   1      43.447  22.547  25.512  1.00  0.00     0.135 A 
ATOM     78  F   UNL A   1      43.267  22.687  29.139  1.00  0.00    -0.206 F 
ATOM     79  C   UNL A   1      42.863  20.894  27.677  1.00  0.00     0.059 A 
ATOM     80  C   UNL A   1      43.079  21.224  25.282  1.00  0.00     0.059 A 
ATOM     81  F   UNL A   1      43.712  23.325  24.450  1.00  0.00    -0.206 F 
ATOM     82  C   UNL A   1      42.798  20.403  26.373  1.00  0.00     0.060 A 
BRANCH  82  83
ATOM     83  S   UNL A   1      42.297  18.687  26.118  1.00  0.00     0.124 S 
ATOM     84  O   UNL A   1      40.902  18.843  25.724  1.00  0.00    -0.237 OA
ATOM     85  O   UNL A   1      43.212  18.253  25.066  1.00  0.00    -0.237 OA
ATOM     86  O   UNL A   1      42.521  18.074  27.424  1.00  0.00    -0.744 OA
ENDBRANCH  82  83
ENDBRANCH  50  75
BRANCH  62  87
ATOM     87  C   UNL A   1      49.520  26.617  26.485  1.00  0.00     0.058 A 
ATOM     88  C   UNL A   1      50.343  26.054  27.472  1.00  0.00     0.135 A 
ATOM     89  C   UNL A   1      50.035  26.726  25.182  1.00  0.00     0.135 A 
ATOM     90  F   UNL A   1      49.899  25.936  28.734  1.00  0.00    -0.206 F 
ATOM     91  C   UNL A   1      51.635  25.630  27.183  1.00  0.00     0.059 A 
ATOM     92  C   UNL A   1      51.315  26.284  24.865  1.00  0.00     0.059 A 
ATOM     93  F   UNL A   1      49.283  27.247  24.199  1.00  0.00    -0.206 F 
ATOM     94  C   UNL A   1      52.111  25.747  25.876  1.00  0.00     0.060 A 
BRANCH  94  95
ATOM     95  S   UNL A   1      53.776  25.156  25.504  1.00  0.00     0.124 S 
ATOM     96  O   UNL A   1      54.513  25.596  26.683  1.00  0.00    -0.237 OA
ATOM     97  O   UNL A   1      53.576  23.714  25.382  1.00  0.00    -0.237 OA
ATOM     98  O   UNL A   1      54.110  25.842  24.261  1.00  0.00    -0.744 OA
ENDBRANCH  94  95
ENDBRANCH  62  87
ENDBRANCH  36  37
ENDBRANCH  28  31
ENDBRANCH  26  27
ENDBRANCH   1  26
TORSDOF 16
ENDMDL
