MODEL 1
REMARK VINA RESULT:     -12.3      0.000      0.000
REMARK SMILES O=C(Cc1csc(NC(=O)[C@H]2CC(=O)N(C3CC3)C2)n1)NCCCNC(=O)c1ccc(-c2c3nc(c(-c4c(F)cc(S(=O)(=O)[O-])cc4F)c4ccc([nH]4)c(-c4c(F)cc(S(=O)(=O)[O-])cc4F)c4nc(c(-c5c(F)cc(S(=O)(=O)[O-])cc5F)c5ccc2[nH]5)C=C4)C=C3)cc1
REMARK SMILES IDX 22 1 21 2 1 3 2 4 3 6 4 7 5 8 20 9 6 10 7 11 8 12 9 13 10 15
REMARK SMILES IDX 11 16 12 17 19 18 13 19 15 20 14 21 16 22 17 23 18 24 23 25
REMARK SMILES IDX 24 26 25 27 26 28 27 30 28 31 29 32 93 33 30 34 92 35 31 36
REMARK SMILES IDX 32 37 33 38 86 39 34 40 91 41 85 42 87 43 35 44 90 45 84 46
REMARK SMILES IDX 83 47 36 49 70 50 49 51 69 52 50 53 53 54 68 55 88 56 51 57
REMARK SMILES IDX 52 58 67 60 89 61 54 62 37 63 38 64 47 65 39 66 40 67 46 68
REMARK SMILES IDX 48 69 41 70 42 71 43 72 44 73 45 74 71 75 72 76 81 77 73 78
REMARK SMILES IDX 74 79 80 80 82 81 75 82 76 83 77 84 78 85 79 86 55 87 56 88
REMARK SMILES IDX 65 89 57 90 58 91 64 92 66 93 59 94 60 95 61 96 62 97 63 98
REMARK H PARENT 21 5 8 14 25 29 87 48 53 59
REMARK Flexibility Score: inf
ROOT
ATOM      1  C   UNL A   1      38.357  21.661  25.544  1.00  0.00     0.117 C 
ENDROOT
BRANCH   1   2
ATOM      2  N   UNL A   1      37.074  22.058  26.089  1.00  0.00    -0.356 N 
ATOM      3  O   UNL A   1      35.860  20.394  25.077  1.00  0.00    -0.275 OA
ATOM      4  C   UNL A   1      35.913  21.347  25.852  1.00  0.00     0.226 C 
ATOM      5  H   UNL A   1      37.028  22.867  26.650  1.00  0.00     0.163 HD
BRANCH   4   6
ATOM      6  C   UNL A   1      34.662  21.885  26.527  1.00  0.00     0.157 C 
BRANCH   6   7
ATOM      7  C   UNL A   1      33.760  22.611  25.586  1.00  0.00     0.063 A 
ATOM      8  C   UNL A   1      32.380  22.612  25.628  1.00  0.00     0.093 A 
ATOM      9  N   UNL A   1      34.301  23.348  24.540  1.00  0.00    -0.224 NA
ATOM     10  S   UNL A   1      31.772  23.469  24.289  1.00  0.00    -0.105 S 
ATOM     11  C   UNL A   1      33.351  23.883  23.811  1.00  0.00     0.189 A 
BRANCH  11  12
ATOM     12  N   UNL A   1      33.656  24.655  22.718  1.00  0.00    -0.302 N 
ATOM     13  C   UNL A   1      33.300  25.906  22.311  1.00  0.00     0.231 C 
ATOM     14  H   UNL A   1      34.265  24.205  22.088  1.00  0.00     0.172 HD
ATOM     15  O   UNL A   1      33.685  26.279  21.197  1.00  0.00    -0.274 OA
BRANCH  13  16
ATOM     16  C   UNL A   1      32.521  26.844  23.195  1.00  0.00     0.107 C 
ATOM     17  C   UNL A   1      33.419  27.917  23.807  1.00  0.00     0.115 C 
ATOM     18  C   UNL A   1      31.486  27.693  22.474  1.00  0.00     0.133 C 
ATOM     19  C   UNL A   1      32.425  28.976  24.196  1.00  0.00     0.223 C 
ATOM     20  N   UNL A   1      31.289  28.783  23.405  1.00  0.00    -0.339 N 
ATOM     21  O   UNL A   1      32.637  29.837  25.037  1.00  0.00    -0.275 OA
BRANCH  20  22
ATOM     22  C   UNL A   1      30.071  29.527  23.440  1.00  0.00     0.085 C 
ATOM     23  C   UNL A   1      29.509  30.261  22.251  1.00  0.00     0.027 C 
ATOM     24  C   UNL A   1      28.832  29.019  22.757  1.00  0.00     0.027 C 
ENDBRANCH  20  22
ENDBRANCH  13  16
ENDBRANCH  11  12
ENDBRANCH   6   7
ENDBRANCH   4   6
ENDBRANCH   1   2
BRANCH   1  25
ATOM     25  C   UNL A   1      39.514  21.961  26.490  1.00  0.00     0.042 C 
BRANCH  25  26
ATOM     26  C   UNL A   1      39.660  23.429  26.885  1.00  0.00     0.118 C 
BRANCH  26  27
ATOM     27  N   UNL A   1      40.484  24.196  25.961  1.00  0.00    -0.352 N 
ATOM     28  C   UNL A   1      41.008  25.462  26.065  1.00  0.00     0.251 C 
ATOM     29  H   UNL A   1      40.704  23.728  25.123  1.00  0.00     0.163 HD
ATOM     30  O   UNL A   1      41.568  25.950  25.086  1.00  0.00    -0.269 OA
BRANCH  28  31
ATOM     31  C   UNL A   1      40.888  26.252  27.314  1.00  0.00     0.039 A 
ATOM     32  C   UNL A   1      41.772  27.317  27.512  1.00  0.00     0.014 A 
ATOM     33  C   UNL A   1      39.954  25.942  28.306  1.00  0.00     0.014 A 
ATOM     34  C   UNL A   1      41.677  28.102  28.665  1.00  0.00     0.010 A 
ATOM     35  C   UNL A   1      39.807  26.774  29.419  1.00  0.00     0.010 A 
ATOM     36  C   UNL A   1      40.668  27.865  29.613  1.00  0.00    -0.014 A 
BRANCH  36  37
ATOM     37  C   UNL A   1      40.497  28.774  30.780  1.00  0.00     0.031 A 
ATOM     38  C   UNL A   1      41.351  28.629  32.013  1.00  0.00     0.074 A 
ATOM     39  C   UNL A   1      39.540  29.724  30.737  1.00  0.00     0.049 A 
ATOM     40  N   UNL A   1      41.351  29.352  33.105  1.00  0.00    -0.248 NA
ATOM     41  C   UNL A   1      42.312  27.518  32.034  1.00  0.00     0.031 C 
ATOM     42  C   UNL A   1      38.602  29.928  29.631  1.00  0.00     0.029 A 
ATOM     43  N   UNL A   1      39.198  30.699  31.642  1.00  0.00    -0.354 N 
ATOM     44  C   UNL A   1      42.306  28.784  33.941  1.00  0.00     0.074 A 
ATOM     45  C   UNL A   1      42.822  27.620  33.254  1.00  0.00     0.031 C 
ATOM     46  C   UNL A   1      37.821  30.985  29.902  1.00  0.00     0.029 A 
ATOM     47  C   UNL A   1      38.173  31.513  31.216  1.00  0.00     0.049 A 
ATOM     48  H   UNL A   1      39.643  30.805  32.514  1.00  0.00     0.167 HD
ATOM     49  C   UNL A   1      42.731  29.205  35.158  1.00  0.00     0.037 A 
ATOM     50  C   UNL A   1      37.583  32.568  31.812  1.00  0.00     0.037 A 
ATOM     51  C   UNL A   1      42.220  30.372  35.835  1.00  0.00     0.049 A 
ATOM     52  C   UNL A   1      38.081  33.023  33.157  1.00  0.00     0.074 A 
ATOM     53  C   UNL A   1      42.622  30.911  37.045  1.00  0.00     0.029 A 
ATOM     54  N   UNL A   1      41.191  31.177  35.366  1.00  0.00    -0.354 N 
ATOM     55  N   UNL A   1      39.037  32.515  33.899  1.00  0.00    -0.248 NA
ATOM     56  C   UNL A   1      37.431  34.204  33.738  1.00  0.00     0.031 C 
ATOM     57  C   UNL A   1      41.802  32.007  37.334  1.00  0.00     0.029 A 
ATOM     58  C   UNL A   1      40.931  32.194  36.273  1.00  0.00     0.049 A 
ATOM     59  H   UNL A   1      40.715  31.046  34.515  1.00  0.00     0.167 HD
ATOM     60  C   UNL A   1      39.121  33.333  35.021  1.00  0.00     0.074 A 
ATOM     61  C   UNL A   1      38.135  34.379  34.846  1.00  0.00     0.031 C 
ATOM     62  C   UNL A   1      39.942  33.228  36.095  1.00  0.00     0.037 A 
BRANCH  49  63
ATOM     63  C   UNL A   1      43.809  28.402  35.840  1.00  0.00     0.058 A 
ATOM     64  C   UNL A   1      45.173  28.667  35.633  1.00  0.00     0.135 A 
ATOM     65  C   UNL A   1      43.476  27.385  36.751  1.00  0.00     0.135 A 
ATOM     66  F   UNL A   1      45.553  29.619  34.764  1.00  0.00    -0.206 F 
ATOM     67  C   UNL A   1      46.165  27.933  36.275  1.00  0.00     0.059 A 
ATOM     68  C   UNL A   1      44.452  26.660  37.430  1.00  0.00     0.059 A 
ATOM     69  F   UNL A   1      42.189  27.088  36.993  1.00  0.00    -0.206 F 
ATOM     70  C   UNL A   1      45.795  26.932  37.174  1.00  0.00     0.060 A 
BRANCH  70  71
ATOM     71  S   UNL A   1      47.097  25.995  38.004  1.00  0.00     0.124 S 
ATOM     72  O   UNL A   1      46.799  26.267  39.407  1.00  0.00    -0.237 OA
ATOM     73  O   UNL A   1      46.834  24.632  37.553  1.00  0.00    -0.237 OA
ATOM     74  O   UNL A   1      48.325  26.596  37.497  1.00  0.00    -0.744 OA
ENDBRANCH  70  71
ENDBRANCH  49  63
BRANCH  50  75
ATOM     75  C   UNL A   1      36.477  33.287  31.122  1.00  0.00     0.058 A 
ATOM     76  C   UNL A   1      36.723  34.091  29.999  1.00  0.00     0.135 A 
ATOM     77  C   UNL A   1      35.150  33.178  31.568  1.00  0.00     0.135 A 
ATOM     78  F   UNL A   1      37.975  34.233  29.537  1.00  0.00    -0.206 F 
ATOM     79  C   UNL A   1      35.700  34.777  29.354  1.00  0.00     0.059 A 
ATOM     80  C   UNL A   1      34.106  33.830  30.921  1.00  0.00     0.059 A 
ATOM     81  F   UNL A   1      34.857  32.407  32.627  1.00  0.00    -0.206 F 
ATOM     82  C   UNL A   1      34.392  34.636  29.821  1.00  0.00     0.060 A 
BRANCH  82  83
ATOM     83  S   UNL A   1      33.063  35.493  28.948  1.00  0.00     0.124 S 
ATOM     84  O   UNL A   1      32.499  34.417  28.142  1.00  0.00    -0.237 OA
ATOM     85  O   UNL A   1      32.232  35.971  30.049  1.00  0.00    -0.237 OA
ATOM     86  O   UNL A   1      33.767  36.535  28.208  1.00  0.00    -0.744 OA
ENDBRANCH  82  83
ENDBRANCH  50  75
BRANCH  62  87
ATOM     87  C   UNL A   1      39.831  34.298  37.150  1.00  0.00     0.058 A 
ATOM     88  C   UNL A   1      39.128  34.095  38.348  1.00  0.00     0.135 A 
ATOM     89  C   UNL A   1      40.437  35.551  36.955  1.00  0.00     0.135 A 
ATOM     90  F   UNL A   1      38.529  32.918  38.588  1.00  0.00    -0.206 F 
ATOM     91  C   UNL A   1      38.981  35.110  39.289  1.00  0.00     0.059 A 
ATOM     92  C   UNL A   1      40.334  36.570  37.899  1.00  0.00     0.059 A 
ATOM     93  F   UNL A   1      41.137  35.799  35.836  1.00  0.00    -0.206 F 
ATOM     94  C   UNL A   1      39.583  36.347  39.051  1.00  0.00     0.060 A 
BRANCH  94  95
ATOM     95  S   UNL A   1      39.370  37.663  40.268  1.00  0.00     0.124 S 
ATOM     96  O   UNL A   1      38.476  38.574  39.561  1.00  0.00    -0.237 OA
ATOM     97  O   UNL A   1      38.784  36.951  41.400  1.00  0.00    -0.237 OA
ATOM     98  O   UNL A   1      40.727  38.154  40.480  1.00  0.00    -0.744 OA
ENDBRANCH  94  95
ENDBRANCH  62  87
ENDBRANCH  36  37
ENDBRANCH  28  31
ENDBRANCH  26  27
ENDBRANCH  25  26
ENDBRANCH   1  25
TORSDOF 17
ENDMDL
MODEL 2
REMARK VINA RESULT:     -12.2      4.033      6.524
REMARK SMILES O=C(Cc1csc(NC(=O)[C@H]2CC(=O)N(C3CC3)C2)n1)NCCCNC(=O)c1ccc(-c2c3nc(c(-c4c(F)cc(S(=O)(=O)[O-])cc4F)c4ccc([nH]4)c(-c4c(F)cc(S(=O)(=O)[O-])cc4F)c4nc(c(-c5c(F)cc(S(=O)(=O)[O-])cc5F)c5ccc2[nH]5)C=C4)C=C3)cc1
REMARK SMILES IDX 22 1 21 2 1 3 2 4 3 6 4 7 5 8 20 9 6 10 7 11 8 12 9 13 10 15
REMARK SMILES IDX 11 16 12 17 19 18 13 19 15 20 14 21 16 22 17 23 18 24 23 25
REMARK SMILES IDX 24 26 25 27 26 28 27 30 28 31 29 32 93 33 30 34 92 35 31 36
REMARK SMILES IDX 32 37 33 38 86 39 34 40 91 41 85 42 87 43 35 44 90 45 84 46
REMARK SMILES IDX 83 47 36 49 70 50 49 51 69 52 50 53 53 54 68 55 88 56 51 57
REMARK SMILES IDX 52 58 67 60 89 61 54 62 37 63 38 64 47 65 39 66 40 67 46 68
REMARK SMILES IDX 48 69 41 70 42 71 43 72 44 73 45 74 71 75 72 76 81 77 73 78
REMARK SMILES IDX 74 79 80 80 82 81 75 82 76 83 77 84 78 85 79 86 55 87 56 88
REMARK SMILES IDX 65 89 57 90 58 91 64 92 66 93 59 94 60 95 61 96 62 97 63 98
REMARK H PARENT 21 5 8 14 25 29 87 48 53 59
REMARK Flexibility Score: inf
ROOT
ATOM      1  C   UNL A   1      39.959  21.126  26.358  1.00  0.00     0.117 C 
ENDROOT
BRANCH   1   2
ATOM      2  N   UNL A   1      40.876  20.161  25.786  1.00  0.00    -0.356 N 
ATOM      3  O   UNL A   1      41.939  19.646  27.754  1.00  0.00    -0.275 OA
ATOM      4  C   UNL A   1      41.774  19.442  26.553  1.00  0.00     0.226 C 
ATOM      5  H   UNL A   1      40.859  20.011  24.813  1.00  0.00     0.163 HD
BRANCH   4   6
ATOM      6  C   UNL A   1      42.639  18.448  25.796  1.00  0.00     0.157 C 
BRANCH   6   7
ATOM      7  C   UNL A   1      43.968  19.008  25.411  1.00  0.00     0.063 A 
ATOM      8  C   UNL A   1      45.182  18.365  25.533  1.00  0.00     0.093 A 
ATOM      9  N   UNL A   1      44.052  20.298  24.900  1.00  0.00    -0.224 NA
ATOM     10  S   UNL A   1      46.435  19.428  25.090  1.00  0.00    -0.105 S 
ATOM     11  C   UNL A   1      45.301  20.617  24.653  1.00  0.00     0.189 A 
BRANCH  11  12
ATOM     12  N   UNL A   1      45.622  21.850  24.144  1.00  0.00    -0.302 N 
ATOM     13  C   UNL A   1      45.932  23.054  24.700  1.00  0.00     0.231 C 
ATOM     14  H   UNL A   1      45.628  21.868  23.159  1.00  0.00     0.172 HD
ATOM     15  O   UNL A   1      46.080  24.018  23.940  1.00  0.00    -0.274 OA
BRANCH  13  16
ATOM     16  C   UNL A   1      46.154  23.219  26.181  1.00  0.00     0.107 C 
ATOM     17  C   UNL A   1      47.000  24.452  26.490  1.00  0.00     0.115 C 
ATOM     18  C   UNL A   1      44.899  23.506  26.990  1.00  0.00     0.133 C 
ATOM     19  C   UNL A   1      46.677  24.703  27.936  1.00  0.00     0.223 C 
ATOM     20  N   UNL A   1      45.444  24.098  28.192  1.00  0.00    -0.339 N 
ATOM     21  O   UNL A   1      47.387  25.346  28.694  1.00  0.00    -0.275 OA
BRANCH  20  22
ATOM     22  C   UNL A   1      44.744  24.044  29.436  1.00  0.00     0.085 C 
ATOM     23  C   UNL A   1      43.594  24.950  29.785  1.00  0.00     0.027 C 
ATOM     24  C   UNL A   1      43.350  23.492  29.518  1.00  0.00     0.027 C 
ENDBRANCH  20  22
ENDBRANCH  13  16
ENDBRANCH  11  12
ENDBRANCH   6   7
ENDBRANCH   4   6
ENDBRANCH   1   2
BRANCH   1  25
ATOM     25  C   UNL A   1      40.672  22.206  27.164  1.00  0.00     0.042 C 
BRANCH  25  26
ATOM     26  C   UNL A   1      40.293  23.639  26.798  1.00  0.00     0.118 C 
BRANCH  26  27
ATOM     27  N   UNL A   1      41.265  24.289  25.929  1.00  0.00    -0.352 N 
ATOM     28  C   UNL A   1      41.790  25.558  25.963  1.00  0.00     0.251 C 
ATOM     29  H   UNL A   1      41.602  23.723  25.197  1.00  0.00     0.163 HD
ATOM     30  O   UNL A   1      42.505  25.924  25.031  1.00  0.00    -0.269 OA
BRANCH  28  31
ATOM     31  C   UNL A   1      41.493  26.493  27.074  1.00  0.00     0.039 A 
ATOM     32  C   UNL A   1      40.569  26.095  28.045  1.00  0.00     0.014 A 
ATOM     33  C   UNL A   1      42.073  27.762  27.156  1.00  0.00     0.014 A 
ATOM     34  C   UNL A   1      40.278  26.938  29.123  1.00  0.00     0.010 A 
ATOM     35  C   UNL A   1      41.843  28.569  28.273  1.00  0.00     0.010 A 
ATOM     36  C   UNL A   1      40.942  28.167  29.271  1.00  0.00    -0.014 A 
BRANCH  36  37
ATOM     37  C   UNL A   1      40.717  29.009  30.479  1.00  0.00     0.031 A 
ATOM     38  C   UNL A   1      41.556  28.833  31.718  1.00  0.00     0.074 A 
ATOM     39  C   UNL A   1      39.725  29.923  30.467  1.00  0.00     0.049 A 
ATOM     40  N   UNL A   1      41.509  29.499  32.846  1.00  0.00    -0.248 NA
ATOM     41  C   UNL A   1      42.559  27.760  31.701  1.00  0.00     0.031 C 
ATOM     42  C   UNL A   1      38.798  30.147  29.355  1.00  0.00     0.029 A 
ATOM     43  N   UNL A   1      39.330  30.836  31.413  1.00  0.00    -0.354 N 
ATOM     44  C   UNL A   1      42.472  28.925  33.670  1.00  0.00     0.074 A 
ATOM     45  C   UNL A   1      43.044  27.818  32.934  1.00  0.00     0.031 C 
ATOM     46  C   UNL A   1      37.973  31.158  29.665  1.00  0.00     0.029 A 
ATOM     47  C   UNL A   1      38.282  31.632  31.010  1.00  0.00     0.049 A 
ATOM     48  H   UNL A   1      39.757  30.915  32.297  1.00  0.00     0.167 HD
ATOM     49  C   UNL A   1      42.861  29.299  34.914  1.00  0.00     0.037 A 
ATOM     50  C   UNL A   1      37.642  32.632  31.648  1.00  0.00     0.037 A 
ATOM     51  C   UNL A   1      42.294  30.410  35.640  1.00  0.00     0.049 A 
ATOM     52  C   UNL A   1      38.100  33.035  33.023  1.00  0.00     0.074 A 
ATOM     53  C   UNL A   1      42.654  30.901  36.883  1.00  0.00     0.029 A 
ATOM     54  N   UNL A   1      41.241  31.198  35.193  1.00  0.00    -0.354 N 
ATOM     55  N   UNL A   1      39.062  32.527  33.756  1.00  0.00    -0.248 NA
ATOM     56  C   UNL A   1      37.395  34.160  33.651  1.00  0.00     0.031 C 
ATOM     57  C   UNL A   1      41.788  31.949  37.211  1.00  0.00     0.029 A 
ATOM     58  C   UNL A   1      40.928  32.156  36.145  1.00  0.00     0.049 A 
ATOM     59  H   UNL A   1      40.786  31.093  34.328  1.00  0.00     0.167 HD
ATOM     60  C   UNL A   1      39.096  33.289  34.919  1.00  0.00     0.074 A 
ATOM     61  C   UNL A   1      38.073  34.305  34.780  1.00  0.00     0.031 C 
ATOM     62  C   UNL A   1      39.903  33.160  36.002  1.00  0.00     0.037 A 
BRANCH  49  63
ATOM     63  C   UNL A   1      43.958  28.504  35.574  1.00  0.00     0.058 A 
ATOM     64  C   UNL A   1      43.678  27.421  36.423  1.00  0.00     0.135 A 
ATOM     65  C   UNL A   1      45.308  28.798  35.320  1.00  0.00     0.135 A 
ATOM     66  F   UNL A   1      42.406  27.100  36.714  1.00  0.00    -0.206 F 
ATOM     67  C   UNL A   1      44.693  26.680  37.021  1.00  0.00     0.059 A 
ATOM     68  C   UNL A   1      46.340  28.050  35.881  1.00  0.00     0.059 A 
ATOM     69  F   UNL A   1      45.638  29.821  34.515  1.00  0.00    -0.206 F 
ATOM     70  C   UNL A   1      46.022  27.001  36.742  1.00  0.00     0.060 A 
BRANCH  70  71
ATOM     71  S   UNL A   1      47.326  26.024  37.521  1.00  0.00     0.124 S 
ATOM     72  O   UNL A   1      47.333  24.830  36.681  1.00  0.00    -0.237 OA
ATOM     73  O   UNL A   1      48.488  26.897  37.390  1.00  0.00    -0.237 OA
ATOM     74  O   UNL A   1      46.839  25.829  38.882  1.00  0.00    -0.744 OA
ENDBRANCH  70  71
ENDBRANCH  49  63
BRANCH  50  75
ATOM     75  C   UNL A   1      36.520  33.343  30.975  1.00  0.00     0.058 A 
ATOM     76  C   UNL A   1      35.194  33.171  31.400  1.00  0.00     0.135 A 
ATOM     77  C   UNL A   1      36.753  34.216  29.900  1.00  0.00     0.135 A 
ATOM     78  F   UNL A   1      34.919  32.343  32.420  1.00  0.00    -0.206 F 
ATOM     79  C   UNL A   1      34.137  33.821  30.772  1.00  0.00     0.059 A 
ATOM     80  C   UNL A   1      35.715  34.900  29.277  1.00  0.00     0.059 A 
ATOM     81  F   UNL A   1      38.004  34.430  29.466  1.00  0.00    -0.206 F 
ATOM     82  C   UNL A   1      34.408  34.687  29.713  1.00  0.00     0.060 A 
BRANCH  82  83
ATOM     83  S   UNL A   1      33.034  35.563  28.935  1.00  0.00     0.124 S 
ATOM     84  O   UNL A   1      33.732  36.597  28.181  1.00  0.00    -0.237 OA
ATOM     85  O   UNL A   1      32.407  34.507  28.144  1.00  0.00    -0.237 OA
ATOM     86  O   UNL A   1      32.249  36.031  30.073  1.00  0.00    -0.744 OA
ENDBRANCH  82  83
ENDBRANCH  50  75
BRANCH  62  87
ATOM     87  C   UNL A   1      39.733  34.170  37.107  1.00  0.00     0.058 A 
ATOM     88  C   UNL A   1      40.364  35.424  37.077  1.00  0.00     0.135 A 
ATOM     89  C   UNL A   1      38.926  33.875  38.219  1.00  0.00     0.135 A 
ATOM     90  F   UNL A   1      41.148  35.760  36.039  1.00  0.00    -0.206 F 
ATOM     91  C   UNL A   1      40.248  36.325  38.130  1.00  0.00     0.059 A 
ATOM     92  C   UNL A   1      38.766  34.775  39.268  1.00  0.00     0.059 A 
ATOM     93  F   UNL A   1      38.283  32.698  38.297  1.00  0.00    -0.206 F 
ATOM     94  C   UNL A   1      39.452  35.987  39.226  1.00  0.00     0.060 A 
BRANCH  94  95
ATOM     95  S   UNL A   1      39.325  37.155  40.596  1.00  0.00     0.124 S 
ATOM     96  O   UNL A   1      38.362  38.118  40.073  1.00  0.00    -0.237 OA
ATOM     97  O   UNL A   1      38.847  36.309  41.686  1.00  0.00    -0.237 OA
ATOM     98  O   UNL A   1      40.689  37.650  40.750  1.00  0.00    -0.744 OA
ENDBRANCH  94  95
ENDBRANCH  62  87
ENDBRANCH  36  37
ENDBRANCH  28  31
ENDBRANCH  26  27
ENDBRANCH  25  26
ENDBRANCH   1  25
TORSDOF 17
ENDMDL
MODEL 3
REMARK VINA RESULT:     -12.2      6.613     12.350
REMARK SMILES O=C(Cc1csc(NC(=O)[C@H]2CC(=O)N(C3CC3)C2)n1)NCCCNC(=O)c1ccc(-c2c3nc(c(-c4c(F)cc(S(=O)(=O)[O-])cc4F)c4ccc([nH]4)c(-c4c(F)cc(S(=O)(=O)[O-])cc4F)c4nc(c(-c5c(F)cc(S(=O)(=O)[O-])cc5F)c5ccc2[nH]5)C=C4)C=C3)cc1
REMARK SMILES IDX 22 1 21 2 1 3 2 4 3 6 4 7 5 8 20 9 6 10 7 11 8 12 9 13 10 15
REMARK SMILES IDX 11 16 12 17 19 18 13 19 15 20 14 21 16 22 17 23 18 24 23 25
REMARK SMILES IDX 24 26 25 27 26 28 27 30 28 31 29 32 93 33 30 34 92 35 31 36
REMARK SMILES IDX 32 37 33 38 86 39 34 40 91 41 85 42 87 43 35 44 90 45 84 46
REMARK SMILES IDX 83 47 36 49 70 50 49 51 69 52 50 53 53 54 68 55 88 56 51 57
REMARK SMILES IDX 52 58 67 60 89 61 54 62 37 63 38 64 47 65 39 66 40 67 46 68
REMARK SMILES IDX 48 69 41 70 42 71 43 72 44 73 45 74 71 75 72 76 81 77 73 78
REMARK SMILES IDX 74 79 80 80 82 81 75 82 76 83 77 84 78 85 79 86 55 87 56 88
REMARK SMILES IDX 65 89 57 90 58 91 64 92 66 93 59 94 60 95 61 96 62 97 63 98
REMARK H PARENT 21 5 8 14 25 29 87 48 53 59
REMARK Flexibility Score: inf
ROOT
ATOM      1  C   UNL A   1      34.977  32.371  27.936  1.00  0.00     0.117 C 
ENDROOT
BRANCH   1   2
ATOM      2  N   UNL A   1      35.122  31.034  27.398  1.00  0.00    -0.356 N 
ATOM      3  O   UNL A   1      32.897  30.485  27.521  1.00  0.00    -0.275 OA
ATOM      4  C   UNL A   1      34.042  30.200  27.177  1.00  0.00     0.226 C 
ATOM      5  H   UNL A   1      36.025  30.705  27.181  1.00  0.00     0.163 HD
BRANCH   4   6
ATOM      6  C   UNL A   1      34.370  28.843  26.577  1.00  0.00     0.157 C 
BRANCH   6   7
ATOM      7  C   UNL A   1      33.166  28.132  26.052  1.00  0.00     0.063 A 
ATOM      8  C   UNL A   1      32.489  28.440  24.889  1.00  0.00     0.093 A 
ATOM      9  N   UNL A   1      32.621  27.074  26.768  1.00  0.00    -0.224 NA
ATOM     10  S   UNL A   1      31.112  27.450  24.755  1.00  0.00    -0.105 S 
ATOM     11  C   UNL A   1      31.557  26.604  26.162  1.00  0.00     0.189 A 
BRANCH  11  12
ATOM     12  N   UNL A   1      30.853  25.554  26.694  1.00  0.00    -0.302 N 
ATOM     13  C   UNL A   1      30.977  24.198  26.628  1.00  0.00     0.231 C 
ATOM     14  H   UNL A   1      30.089  25.843  27.245  1.00  0.00     0.172 HD
ATOM     15  O   UNL A   1      30.095  23.514  27.160  1.00  0.00    -0.274 OA
BRANCH  13  16
ATOM     16  C   UNL A   1      32.169  23.533  25.992  1.00  0.00     0.107 C 
ATOM     17  C   UNL A   1      33.237  23.181  27.026  1.00  0.00     0.115 C 
ATOM     18  C   UNL A   1      31.890  22.173  25.373  1.00  0.00     0.133 C 
ATOM     19  C   UNL A   1      34.039  22.133  26.306  1.00  0.00     0.223 C 
ATOM     20  N   UNL A   1      33.213  21.589  25.320  1.00  0.00    -0.339 N 
ATOM     21  O   UNL A   1      35.189  21.836  26.593  1.00  0.00    -0.275 OA
BRANCH  20  22
ATOM     22  C   UNL A   1      33.548  20.581  24.365  1.00  0.00     0.085 C 
ATOM     23  C   UNL A   1      33.589  19.111  24.686  1.00  0.00     0.027 C 
ATOM     24  C   UNL A   1      32.499  19.660  23.810  1.00  0.00     0.027 C 
ENDBRANCH  20  22
ENDBRANCH  13  16
ENDBRANCH  11  12
ENDBRANCH   6   7
ENDBRANCH   4   6
ENDBRANCH   1   2
BRANCH   1  25
ATOM     25  C   UNL A   1      36.314  33.084  28.104  1.00  0.00     0.042 C 
BRANCH  25  26
ATOM     26  C   UNL A   1      36.833  33.151  29.539  1.00  0.00     0.118 C 
BRANCH  26  27
ATOM     27  N   UNL A   1      36.240  32.150  30.414  1.00  0.00    -0.352 N 
ATOM     28  C   UNL A   1      36.664  30.886  30.747  1.00  0.00     0.251 C 
ATOM     29  H   UNL A   1      35.395  32.425  30.839  1.00  0.00     0.163 HD
ATOM     30  O   UNL A   1      35.916  30.169  31.410  1.00  0.00    -0.269 OA
BRANCH  28  31
ATOM     31  C   UNL A   1      37.981  30.366  30.305  1.00  0.00     0.039 A 
ATOM     32  C   UNL A   1      38.144  30.038  28.955  1.00  0.00     0.014 A 
ATOM     33  C   UNL A   1      39.038  30.159  31.195  1.00  0.00     0.014 A 
ATOM     34  C   UNL A   1      39.377  29.567  28.493  1.00  0.00     0.010 A 
ATOM     35  C   UNL A   1      40.291  29.765  30.718  1.00  0.00     0.010 A 
ATOM     36  C   UNL A   1      40.476  29.464  29.361  1.00  0.00    -0.014 A 
BRANCH  36  37
ATOM     37  C   UNL A   1      41.817  29.074  28.842  1.00  0.00     0.031 A 
ATOM     38  C   UNL A   1      42.939  30.075  28.750  1.00  0.00     0.074 A 
ATOM     39  C   UNL A   1      42.015  27.807  28.422  1.00  0.00     0.049 A 
ATOM     40  N   UNL A   1      44.172  29.896  28.348  1.00  0.00    -0.248 NA
ATOM     41  C   UNL A   1      42.633  31.460  29.137  1.00  0.00     0.031 C 
ATOM     42  C   UNL A   1      40.994  26.757  28.395  1.00  0.00     0.029 A 
ATOM     43  N   UNL A   1      43.140  27.184  27.941  1.00  0.00    -0.354 N 
ATOM     44  C   UNL A   1      44.787  31.140  28.431  1.00  0.00     0.074 A 
ATOM     45  C   UNL A   1      43.774  32.078  28.864  1.00  0.00     0.031 C 
ATOM     46  C   UNL A   1      41.547  25.614  27.964  1.00  0.00     0.029 A 
ATOM     47  C   UNL A   1      42.951  25.853  27.646  1.00  0.00     0.049 A 
ATOM     48  H   UNL A   1      44.001  27.645  27.818  1.00  0.00     0.167 HD
ATOM     49  C   UNL A   1      46.081  31.469  28.192  1.00  0.00     0.037 A 
ATOM     50  C   UNL A   1      43.808  24.926  27.176  1.00  0.00     0.037 A 
ATOM     51  C   UNL A   1      47.090  30.529  27.769  1.00  0.00     0.049 A 
ATOM     52  C   UNL A   1      45.241  25.313  26.929  1.00  0.00     0.074 A 
ATOM     53  C   UNL A   1      48.439  30.752  27.551  1.00  0.00     0.029 A 
ATOM     54  N   UNL A   1      46.862  29.187  27.492  1.00  0.00    -0.354 N 
ATOM     55  N   UNL A   1      45.821  26.479  27.084  1.00  0.00    -0.248 NA
ATOM     56  C   UNL A   1      46.141  24.251  26.459  1.00  0.00     0.031 C 
ATOM     57  C   UNL A   1      49.014  29.563  27.092  1.00  0.00     0.029 A 
ATOM     58  C   UNL A   1      48.040  28.579  27.086  1.00  0.00     0.049 A 
ATOM     59  H   UNL A   1      45.992  28.735  27.573  1.00  0.00     0.167 HD
ATOM     60  C   UNL A   1      47.159  26.285  26.758  1.00  0.00     0.074 A 
ATOM     61  C   UNL A   1      47.304  24.884  26.420  1.00  0.00     0.031 C 
ATOM     62  C   UNL A   1      48.175  27.184  26.743  1.00  0.00     0.037 A 
BRANCH  49  63
ATOM     63  C   UNL A   1      46.487  32.908  28.385  1.00  0.00     0.058 A 
ATOM     64  C   UNL A   1      46.967  33.382  29.617  1.00  0.00     0.135 A 
ATOM     65  C   UNL A   1      46.440  33.815  27.313  1.00  0.00     0.135 A 
ATOM     66  F   UNL A   1      47.023  32.565  30.681  1.00  0.00    -0.206 F 
ATOM     67  C   UNL A   1      47.354  34.708  29.788  1.00  0.00     0.059 A 
ATOM     68  C   UNL A   1      46.852  35.137  27.452  1.00  0.00     0.059 A 
ATOM     69  F   UNL A   1      45.992  33.420  26.110  1.00  0.00    -0.206 F 
ATOM     70  C   UNL A   1      47.294  35.579  28.699  1.00  0.00     0.060 A 
BRANCH  70  71
ATOM     71  S   UNL A   1      47.808  37.294  28.937  1.00  0.00     0.124 S 
ATOM     72  O   UNL A   1      48.714  37.169  30.075  1.00  0.00    -0.237 OA
ATOM     73  O   UNL A   1      48.435  37.611  27.659  1.00  0.00    -0.237 OA
ATOM     74  O   UNL A   1      46.554  37.989  29.209  1.00  0.00    -0.744 OA
ENDBRANCH  70  71
ENDBRANCH  49  63
BRANCH  50  75
ATOM     75  C   UNL A   1      43.340  23.533  26.939  1.00  0.00     0.058 A 
ATOM     76  C   UNL A   1      43.126  23.051  25.640  1.00  0.00     0.135 A 
ATOM     77  C   UNL A   1      43.107  22.653  28.008  1.00  0.00     0.135 A 
ATOM     78  F   UNL A   1      43.330  23.853  24.584  1.00  0.00    -0.206 F 
ATOM     79  C   UNL A   1      42.677  21.754  25.407  1.00  0.00     0.059 A 
ATOM     80  C   UNL A   1      42.688  21.343  27.799  1.00  0.00     0.059 A 
ATOM     81  F   UNL A   1      43.314  23.058  29.271  1.00  0.00    -0.206 F 
ATOM     82  C   UNL A   1      42.465  20.906  26.495  1.00  0.00     0.060 A 
BRANCH  82  83
ATOM     83  S   UNL A   1      41.928  19.211  26.180  1.00  0.00     0.124 S 
ATOM     84  O   UNL A   1      42.720  18.866  25.005  1.00  0.00    -0.237 OA
ATOM     85  O   UNL A   1      42.298  18.538  27.421  1.00  0.00    -0.237 OA
ATOM     86  O   UNL A   1      40.493  19.350  25.956  1.00  0.00    -0.744 OA
ENDBRANCH  82  83
ENDBRANCH  50  75
BRANCH  62  87
ATOM     87  C   UNL A   1      49.543  26.667  26.383  1.00  0.00     0.058 A 
ATOM     88  C   UNL A   1      50.387  26.065  27.330  1.00  0.00     0.135 A 
ATOM     89  C   UNL A   1      50.019  26.779  25.065  1.00  0.00     0.135 A 
ATOM     90  F   UNL A   1      49.985  25.931  28.604  1.00  0.00    -0.206 F 
ATOM     91  C   UNL A   1      51.671  25.645  26.999  1.00  0.00     0.059 A 
ATOM     92  C   UNL A   1      51.286  26.333  24.703  1.00  0.00     0.059 A 
ATOM     93  F   UNL A   1      49.250  27.331  24.112  1.00  0.00    -0.206 F 
ATOM     94  C   UNL A   1      52.115  25.790  25.683  1.00  0.00     0.060 A 
BRANCH  94  95
ATOM     95  S   UNL A   1      53.790  25.261  25.270  1.00  0.00     0.124 S 
ATOM     96  O   UNL A   1      53.930  25.766  23.908  1.00  0.00    -0.237 OA
ATOM     97  O   UNL A   1      54.592  25.938  26.284  1.00  0.00    -0.237 OA
ATOM     98  O   UNL A   1      53.729  23.808  25.397  1.00  0.00    -0.744 OA
ENDBRANCH  94  95
ENDBRANCH  62  87
ENDBRANCH  36  37
ENDBRANCH  28  31
ENDBRANCH  26  27
ENDBRANCH  25  26
ENDBRANCH   1  25
TORSDOF 17
ENDMDL
