MODEL 1
REMARK VINA RESULT:     -10.4      0.000      0.000
REMARK SMILES CSC[C@H](C(=O)NCCCNC(=O)c1ccc(-c2c3nc(c(-c4c(F)cc(S(=O)(=O)[O-])cc4F)c4ccc([nH]4)c(-c4c(F)cc(S(=O)(=O)[O-])cc4F)c4nc(c(-c5c(F)cc(S(=O)(=O)[O-])cc5F)c5ccc2[nH]5)C=C4)C=C3)cc1)c1ccccc1
REMARK SMILES IDX 9 1 8 2 7 3 5 4 6 5 4 7 3 8 2 9 1 10 80 11 81 12 85 13 82 14
REMARK SMILES IDX 84 15 83 16 10 17 11 18 12 19 13 21 14 22 15 23 79 24 16 25
REMARK SMILES IDX 78 26 17 27 18 28 19 29 72 30 20 31 77 32 71 33 73 34 21 35
REMARK SMILES IDX 76 36 70 37 69 38 22 40 56 41 35 42 55 43 36 44 39 45 54 46
REMARK SMILES IDX 74 47 37 48 38 49 53 51 75 52 40 53 23 54 24 55 33 56 25 57
REMARK SMILES IDX 26 58 32 59 34 60 27 61 28 62 29 63 30 64 31 65 57 66 58 67
REMARK SMILES IDX 67 68 59 69 60 70 66 71 68 72 61 73 62 74 63 75 64 76 65 77
REMARK SMILES IDX 41 78 42 79 51 80 43 81 44 82 50 83 52 84 45 85 46 86 47 87
REMARK SMILES IDX 48 88 49 89
REMARK H PARENT 7 6 11 20 73 39 39 50
REMARK Flexibility Score: inf
ROOT
ATOM      1  C   UNL A   1      33.375  27.703  26.851  1.00  0.00     0.042 C 
ENDROOT
BRANCH   1   2
ATOM      2  C   UNL A   1      31.893  27.929  27.141  1.00  0.00     0.117 C 
BRANCH   2   3
ATOM      3  N   UNL A   1      31.127  26.733  26.842  1.00  0.00    -0.355 N 
ATOM      4  C   UNL A   1      30.521  26.276  25.720  1.00  0.00     0.228 C 
ATOM      5  O   UNL A   1      29.705  25.362  25.913  1.00  0.00    -0.274 OA
ATOM      6  H   UNL A   1      31.026  26.130  27.614  1.00  0.00     0.163 HD
BRANCH   4   7
ATOM      7  C   UNL A   1      30.846  26.684  24.270  1.00  0.00     0.118 C 
BRANCH   7   8
ATOM      8  C   UNL A   1      30.971  25.678  23.118  1.00  0.00     0.087 C 
BRANCH   8   9
ATOM      9  S   UNL A   1      32.111  25.957  21.713  1.00  0.00    -0.164 SA
ATOM     10  C   UNL A   1      33.662  26.387  22.540  1.00  0.00     0.085 C 
ENDBRANCH   8   9
ENDBRANCH   7   8
BRANCH   7  11
ATOM     11  C   UNL A   1      29.934  27.837  23.810  1.00  0.00    -0.035 A 
ATOM     12  C   UNL A   1      28.608  27.557  23.431  1.00  0.00     0.004 A 
ATOM     13  C   UNL A   1      30.368  29.172  23.781  1.00  0.00     0.004 A 
ATOM     14  C   UNL A   1      27.747  28.578  23.027  1.00  0.00     0.000 A 
ATOM     15  C   UNL A   1      29.509  30.190  23.361  1.00  0.00     0.000 A 
ATOM     16  C   UNL A   1      28.199  29.894  22.986  1.00  0.00     0.000 A 
ENDBRANCH   7  11
ENDBRANCH   4   7
ENDBRANCH   2   3
ENDBRANCH   1   2
BRANCH   1  17
ATOM     17  C   UNL A   1      33.979  28.712  25.883  1.00  0.00     0.118 C 
BRANCH  17  18
ATOM     18  N   UNL A   1      33.743  30.080  26.309  1.00  0.00    -0.352 N 
ATOM     19  C   UNL A   1      34.357  30.814  27.295  1.00  0.00     0.251 C 
ATOM     20  H   UNL A   1      33.036  30.555  25.815  1.00  0.00     0.163 HD
ATOM     21  O   UNL A   1      33.838  31.871  27.653  1.00  0.00    -0.269 OA
BRANCH  19  22
ATOM     22  C   UNL A   1      35.617  30.357  27.933  1.00  0.00     0.039 A 
ATOM     23  C   UNL A   1      35.545  29.725  29.180  1.00  0.00     0.014 A 
ATOM     24  C   UNL A   1      36.867  30.609  27.363  1.00  0.00     0.014 A 
ATOM     25  C   UNL A   1      36.716  29.326  29.833  1.00  0.00     0.010 A 
ATOM     26  C   UNL A   1      38.028  30.135  27.975  1.00  0.00     0.010 A 
ATOM     27  C   UNL A   1      37.969  29.514  29.231  1.00  0.00    -0.014 A 
BRANCH  27  28
ATOM     28  C   UNL A   1      39.227  29.128  29.923  1.00  0.00     0.031 A 
ATOM     29  C   UNL A   1      39.655  29.864  31.169  1.00  0.00     0.074 A 
ATOM     30  C   UNL A   1      40.010  28.156  29.415  1.00  0.00     0.049 A 
ATOM     31  N   UNL A   1      40.751  29.737  31.872  1.00  0.00    -0.248 NA
ATOM     32  C   UNL A   1      38.739  30.900  31.674  1.00  0.00     0.031 C 
ATOM     33  C   UNL A   1      39.732  27.395  28.196  1.00  0.00     0.029 A 
ATOM     34  N   UNL A   1      41.205  27.645  29.858  1.00  0.00    -0.354 N 
ATOM     35  C   UNL A   1      40.669  30.692  32.881  1.00  0.00     0.074 A 
ATOM     36  C   UNL A   1      39.439  31.422  32.671  1.00  0.00     0.031 C 
ATOM     37  C   UNL A   1      40.718  26.503  27.998  1.00  0.00     0.029 A 
ATOM     38  C   UNL A   1      41.713  26.649  29.057  1.00  0.00     0.049 A 
ATOM     39  H   UNL A   1      41.658  27.963  30.673  1.00  0.00     0.167 HD
ATOM     40  C   UNL A   1      41.527  30.923  33.903  1.00  0.00     0.037 A 
ATOM     41  C   UNL A   1      42.852  25.937  29.160  1.00  0.00     0.037 A 
ATOM     42  C   UNL A   1      42.726  30.162  34.138  1.00  0.00     0.049 A 
ATOM     43  C   UNL A   1      43.774  26.190  30.323  1.00  0.00     0.074 A 
ATOM     44  C   UNL A   1      43.632  30.280  35.176  1.00  0.00     0.029 A 
ATOM     45  N   UNL A   1      43.181  29.134  33.326  1.00  0.00    -0.354 N 
ATOM     46  N   UNL A   1      43.658  27.067  31.292  1.00  0.00    -0.248 NA
ATOM     47  C   UNL A   1      44.979  25.353  30.411  1.00  0.00     0.031 C 
ATOM     48  C   UNL A   1      44.652  29.343  34.977  1.00  0.00     0.029 A 
ATOM     49  C   UNL A   1      44.358  28.613  33.837  1.00  0.00     0.049 A 
ATOM     50  H   UNL A   1      42.733  28.819  32.506  1.00  0.00     0.167 HD
ATOM     51  C   UNL A   1      44.756  26.866  32.121  1.00  0.00     0.074 A 
ATOM     52  C   UNL A   1      45.521  25.780  31.545  1.00  0.00     0.031 C 
ATOM     53  C   UNL A   1      45.098  27.520  33.258  1.00  0.00     0.037 A 
BRANCH  40  54
ATOM     54  C   UNL A   1      41.193  32.039  34.855  1.00  0.00     0.058 A 
ATOM     55  C   UNL A   1      40.361  31.835  35.968  1.00  0.00     0.135 A 
ATOM     56  C   UNL A   1      41.732  33.322  34.669  1.00  0.00     0.135 A 
ATOM     57  F   UNL A   1      39.806  30.632  36.186  1.00  0.00    -0.206 F 
ATOM     58  C   UNL A   1      40.050  32.868  36.844  1.00  0.00     0.059 A 
ATOM     59  C   UNL A   1      41.456  34.365  35.549  1.00  0.00     0.059 A 
ATOM     60  F   UNL A   1      42.534  33.575  33.623  1.00  0.00    -0.206 F 
ATOM     61  C   UNL A   1      40.601  34.133  36.626  1.00  0.00     0.060 A 
BRANCH  61  62
ATOM     62  S   UNL A   1      40.190  35.466  37.771  1.00  0.00     0.124 S 
ATOM     63  O   UNL A   1      39.033  34.905  38.466  1.00  0.00    -0.237 OA
ATOM     64  O   UNL A   1      41.409  35.582  38.567  1.00  0.00    -0.237 OA
ATOM     65  O   UNL A   1      39.908  36.594  36.894  1.00  0.00    -0.744 OA
ENDBRANCH  61  62
ENDBRANCH  40  54
BRANCH  41  66
ATOM     66  C   UNL A   1      43.171  24.894  28.150  1.00  0.00     0.058 A 
ATOM     67  C   UNL A   1      43.804  25.229  26.943  1.00  0.00     0.135 A 
ATOM     68  C   UNL A   1      42.862  23.544  28.373  1.00  0.00     0.135 A 
ATOM     69  F   UNL A   1      44.114  26.508  26.682  1.00  0.00    -0.206 F 
ATOM     70  C   UNL A   1      44.103  24.267  25.985  1.00  0.00     0.059 A 
ATOM     71  C   UNL A   1      43.172  22.559  27.439  1.00  0.00     0.059 A 
ATOM     72  F   UNL A   1      42.271  23.170  29.517  1.00  0.00    -0.206 F 
ATOM     73  C   UNL A   1      43.785  22.933  26.243  1.00  0.00     0.060 A 
BRANCH  73  74
ATOM     74  S   UNL A   1      44.218  21.683  25.012  1.00  0.00     0.124 S 
ATOM     75  O   UNL A   1      45.583  21.351  25.401  1.00  0.00    -0.237 OA
ATOM     76  O   UNL A   1      43.215  20.651  25.255  1.00  0.00    -0.237 OA
ATOM     77  O   UNL A   1      44.078  22.397  23.747  1.00  0.00    -0.744 OA
ENDBRANCH  73  74
ENDBRANCH  41  66
BRANCH  53  78
ATOM     78  C   UNL A   1      46.330  27.053  33.982  1.00  0.00     0.058 A 
ATOM     79  C   UNL A   1      46.278  26.036  34.946  1.00  0.00     0.135 A 
ATOM     80  C   UNL A   1      47.585  27.596  33.664  1.00  0.00     0.135 A 
ATOM     81  F   UNL A   1      45.101  25.488  35.288  1.00  0.00    -0.206 F 
ATOM     82  C   UNL A   1      47.428  25.585  35.588  1.00  0.00     0.059 A 
ATOM     83  C   UNL A   1      48.751  27.144  34.276  1.00  0.00     0.059 A 
ATOM     84  F   UNL A   1      47.689  28.564  32.741  1.00  0.00    -0.206 F 
ATOM     85  C   UNL A   1      48.660  26.146  35.245  1.00  0.00     0.060 A 
BRANCH  85  86
ATOM     86  S   UNL A   1      50.150  25.531  36.058  1.00  0.00     0.124 S 
ATOM     87  O   UNL A   1      50.834  24.867  34.955  1.00  0.00    -0.237 OA
ATOM     88  O   UNL A   1      50.773  26.760  36.542  1.00  0.00    -0.237 OA
ATOM     89  O   UNL A   1      49.629  24.649  37.098  1.00  0.00    -0.744 OA
ENDBRANCH  85  86
ENDBRANCH  53  78
ENDBRANCH  27  28
ENDBRANCH  19  22
ENDBRANCH  17  18
ENDBRANCH   1  17
TORSDOF 16
ENDMDL
MODEL 2
REMARK VINA RESULT:     -10.3      5.861     11.706
REMARK SMILES CSC[C@H](C(=O)NCCCNC(=O)c1ccc(-c2c3nc(c(-c4c(F)cc(S(=O)(=O)[O-])cc4F)c4ccc([nH]4)c(-c4c(F)cc(S(=O)(=O)[O-])cc4F)c4nc(c(-c5c(F)cc(S(=O)(=O)[O-])cc5F)c5ccc2[nH]5)C=C4)C=C3)cc1)c1ccccc1
REMARK SMILES IDX 9 1 8 2 7 3 5 4 6 5 4 7 3 8 2 9 1 10 80 11 81 12 85 13 82 14
REMARK SMILES IDX 84 15 83 16 10 17 11 18 12 19 13 21 14 22 15 23 79 24 16 25
REMARK SMILES IDX 78 26 17 27 18 28 19 29 72 30 20 31 77 32 71 33 73 34 21 35
REMARK SMILES IDX 76 36 70 37 69 38 22 40 56 41 35 42 55 43 36 44 39 45 54 46
REMARK SMILES IDX 74 47 37 48 38 49 53 51 75 52 40 53 23 54 24 55 33 56 25 57
REMARK SMILES IDX 26 58 32 59 34 60 27 61 28 62 29 63 30 64 31 65 57 66 58 67
REMARK SMILES IDX 67 68 59 69 60 70 66 71 68 72 61 73 62 74 63 75 64 76 65 77
REMARK SMILES IDX 41 78 42 79 51 80 43 81 44 82 50 83 52 84 45 85 46 86 47 87
REMARK SMILES IDX 48 88 49 89
REMARK H PARENT 7 6 11 20 73 39 39 50
REMARK Flexibility Score: inf
ROOT
ATOM      1  C   UNL A   1      41.282  20.102  26.760  1.00  0.00     0.042 C 
ENDROOT
BRANCH   1   2
ATOM      2  C   UNL A   1      42.656  20.280  26.116  1.00  0.00     0.117 C 
BRANCH   2   3
ATOM      3  N   UNL A   1      42.719  21.534  25.389  1.00  0.00    -0.355 N 
ATOM      4  C   UNL A   1      43.455  22.661  25.544  1.00  0.00     0.228 C 
ATOM      5  O   UNL A   1      43.028  23.643  24.918  1.00  0.00    -0.274 OA
ATOM      6  H   UNL A   1      42.099  21.574  24.625  1.00  0.00     0.163 HD
BRANCH   4   7
ATOM      7  C   UNL A   1      44.796  22.786  26.292  1.00  0.00     0.118 C 
BRANCH   7   8
ATOM      8  C   UNL A   1      46.064  23.372  25.658  1.00  0.00     0.087 C 
BRANCH   8   9
ATOM      9  S   UNL A   1      46.115  25.081  25.002  1.00  0.00    -0.164 SA
ATOM     10  C   UNL A   1      47.799  25.207  24.354  1.00  0.00     0.085 C 
ENDBRANCH   8   9
ENDBRANCH   7   8
BRANCH   7  11
ATOM     11  C   UNL A   1      44.594  23.444  27.669  1.00  0.00    -0.035 A 
ATOM     12  C   UNL A   1      43.321  23.409  28.269  1.00  0.00     0.004 A 
ATOM     13  C   UNL A   1      45.644  24.058  28.370  1.00  0.00     0.004 A 
ATOM     14  C   UNL A   1      43.104  23.978  29.525  1.00  0.00     0.000 A 
ATOM     15  C   UNL A   1      45.420  24.641  29.620  1.00  0.00     0.000 A 
ATOM     16  C   UNL A   1      44.153  24.599  30.198  1.00  0.00     0.000 A 
ENDBRANCH   7  11
ENDBRANCH   4   7
ENDBRANCH   2   3
ENDBRANCH   1   2
BRANCH   1  17
ATOM     17  C   UNL A   1      40.634  21.405  27.209  1.00  0.00     0.118 C 
BRANCH  17  18
ATOM     18  N   UNL A   1      39.394  21.667  26.499  1.00  0.00    -0.352 N 
ATOM     19  C   UNL A   1      38.652  22.820  26.417  1.00  0.00     0.251 C 
ATOM     20  H   UNL A   1      39.030  20.900  26.000  1.00  0.00     0.163 HD
ATOM     21  O   UNL A   1      37.510  22.756  25.964  1.00  0.00    -0.269 OA
BRANCH  19  22
ATOM     22  C   UNL A   1      39.196  24.126  26.864  1.00  0.00     0.039 A 
ATOM     23  C   UNL A   1      39.834  24.943  25.923  1.00  0.00     0.014 A 
ATOM     24  C   UNL A   1      39.158  24.524  28.203  1.00  0.00     0.014 A 
ATOM     25  C   UNL A   1      40.403  26.159  26.318  1.00  0.00     0.010 A 
ATOM     26  C   UNL A   1      39.650  25.774  28.580  1.00  0.00     0.010 A 
ATOM     27  C   UNL A   1      40.304  26.593  27.649  1.00  0.00    -0.014 A 
BRANCH  27  28
ATOM     28  C   UNL A   1      40.932  27.865  28.097  1.00  0.00     0.031 A 
ATOM     29  C   UNL A   1      42.428  28.039  27.999  1.00  0.00     0.074 A 
ATOM     30  C   UNL A   1      40.175  28.842  28.633  1.00  0.00     0.049 A 
ATOM     31  N   UNL A   1      43.175  29.033  28.407  1.00  0.00    -0.248 NA
ATOM     32  C   UNL A   1      43.185  26.937  27.385  1.00  0.00     0.031 C 
ATOM     33  C   UNL A   1      38.725  28.784  28.822  1.00  0.00     0.029 A 
ATOM     34  N   UNL A   1      40.523  30.076  29.126  1.00  0.00    -0.354 N 
ATOM     35  C   UNL A   1      44.486  28.664  28.126  1.00  0.00     0.074 A 
ATOM     36  C   UNL A   1      44.437  27.336  27.556  1.00  0.00     0.031 C 
ATOM     37  C   UNL A   1      38.305  29.935  29.372  1.00  0.00     0.029 A 
ATOM     38  C   UNL A   1      39.457  30.802  29.604  1.00  0.00     0.049 A 
ATOM     39  H   UNL A   1      41.449  30.410  29.137  1.00  0.00     0.167 HD
ATOM     40  C   UNL A   1      45.625  29.375  28.303  1.00  0.00     0.037 A 
ATOM     41  C   UNL A   1      39.412  32.024  30.169  1.00  0.00     0.037 A 
ATOM     42  C   UNL A   1      45.667  30.715  28.825  1.00  0.00     0.049 A 
ATOM     43  C   UNL A   1      40.688  32.808  30.326  1.00  0.00     0.074 A 
ATOM     44  C   UNL A   1      46.764  31.542  28.991  1.00  0.00     0.029 A 
ATOM     45  N   UNL A   1      44.560  31.429  29.258  1.00  0.00    -0.354 N 
ATOM     46  N   UNL A   1      41.913  32.460  30.013  1.00  0.00    -0.248 NA
ATOM     47  C   UNL A   1      40.574  34.154  30.906  1.00  0.00     0.031 C 
ATOM     48  C   UNL A   1      46.324  32.746  29.551  1.00  0.00     0.029 A 
ATOM     49  C   UNL A   1      44.948  32.685  29.696  1.00  0.00     0.049 A 
ATOM     50  H   UNL A   1      43.633  31.094  29.254  1.00  0.00     0.167 HD
ATOM     51  C   UNL A   1      42.712  33.553  30.329  1.00  0.00     0.074 A 
ATOM     52  C   UNL A   1      41.830  34.578  30.850  1.00  0.00     0.031 C 
ATOM     53  C   UNL A   1      44.053  33.698  30.196  1.00  0.00     0.037 A 
BRANCH  40  54
ATOM     54  C   UNL A   1      46.924  28.719  27.916  1.00  0.00     0.058 A 
ATOM     55  C   UNL A   1      47.451  28.836  26.620  1.00  0.00     0.135 A 
ATOM     56  C   UNL A   1      47.663  27.988  28.859  1.00  0.00     0.135 A 
ATOM     57  F   UNL A   1      46.778  29.511  25.674  1.00  0.00    -0.206 F 
ATOM     58  C   UNL A   1      48.649  28.227  26.264  1.00  0.00     0.059 A 
ATOM     59  C   UNL A   1      48.879  27.392  28.532  1.00  0.00     0.059 A 
ATOM     60  F   UNL A   1      47.208  27.844  30.114  1.00  0.00    -0.206 F 
ATOM     61  C   UNL A   1      49.356  27.504  27.226  1.00  0.00     0.060 A 
BRANCH  61  62
ATOM     62  S   UNL A   1      50.910  26.718  26.751  1.00  0.00     0.124 S 
ATOM     63  O   UNL A   1      51.239  27.444  25.526  1.00  0.00    -0.237 OA
ATOM     64  O   UNL A   1      51.767  26.997  27.901  1.00  0.00    -0.237 OA
ATOM     65  O   UNL A   1      50.543  25.319  26.572  1.00  0.00    -0.744 OA
ENDBRANCH  61  62
ENDBRANCH  40  54
BRANCH  41  66
ATOM     66  C   UNL A   1      38.109  32.596  30.601  1.00  0.00     0.058 A 
ATOM     67  C   UNL A   1      37.672  32.470  31.929  1.00  0.00     0.135 A 
ATOM     68  C   UNL A   1      37.284  33.289  29.704  1.00  0.00     0.135 A 
ATOM     69  F   UNL A   1      38.425  31.810  32.822  1.00  0.00    -0.206 F 
ATOM     70  C   UNL A   1      36.454  32.993  32.348  1.00  0.00     0.059 A 
ATOM     71  C   UNL A   1      36.071  33.842  30.105  1.00  0.00     0.059 A 
ATOM     72  F   UNL A   1      37.665  33.452  28.428  1.00  0.00    -0.206 F 
ATOM     73  C   UNL A   1      35.660  33.680  31.428  1.00  0.00     0.060 A 
BRANCH  73  74
ATOM     74  S   UNL A   1      34.100  34.396  31.992  1.00  0.00     0.124 S 
ATOM     75  O   UNL A   1      34.558  35.616  32.647  1.00  0.00    -0.237 OA
ATOM     76  O   UNL A   1      33.374  34.578  30.738  1.00  0.00    -0.237 OA
ATOM     77  O   UNL A   1      33.560  33.368  32.876  1.00  0.00    -0.744 OA
ENDBRANCH  73  74
ENDBRANCH  41  66
BRANCH  53  78
ATOM     78  C   UNL A   1      44.649  35.024  30.579  1.00  0.00     0.058 A 
ATOM     79  C   UNL A   1      45.151  35.263  31.866  1.00  0.00     0.135 A 
ATOM     80  C   UNL A   1      44.765  36.049  29.625  1.00  0.00     0.135 A 
ATOM     81  F   UNL A   1      45.060  34.317  32.814  1.00  0.00    -0.206 F 
ATOM     82  C   UNL A   1      45.732  36.482  32.203  1.00  0.00     0.059 A 
ATOM     83  C   UNL A   1      45.363  37.266  29.934  1.00  0.00     0.059 A 
ATOM     84  F   UNL A   1      44.308  35.865  28.377  1.00  0.00    -0.206 F 
ATOM     85  C   UNL A   1      45.833  37.478  31.229  1.00  0.00     0.060 A 
BRANCH  85  86
ATOM     86  S   UNL A   1      46.619  39.043  31.666  1.00  0.00     0.124 S 
ATOM     87  O   UNL A   1      45.627  39.629  32.562  1.00  0.00    -0.237 OA
ATOM     88  O   UNL A   1      47.861  38.606  32.297  1.00  0.00    -0.237 OA
ATOM     89  O   UNL A   1      46.779  39.714  30.379  1.00  0.00    -0.744 OA
ENDBRANCH  85  86
ENDBRANCH  53  78
ENDBRANCH  27  28
ENDBRANCH  19  22
ENDBRANCH  17  18
ENDBRANCH   1  17
TORSDOF 16
ENDMDL
MODEL 3
REMARK VINA RESULT:     -10.3      3.299      4.353
REMARK SMILES CSC[C@H](C(=O)NCCCNC(=O)c1ccc(-c2c3nc(c(-c4c(F)cc(S(=O)(=O)[O-])cc4F)c4ccc([nH]4)c(-c4c(F)cc(S(=O)(=O)[O-])cc4F)c4nc(c(-c5c(F)cc(S(=O)(=O)[O-])cc5F)c5ccc2[nH]5)C=C4)C=C3)cc1)c1ccccc1
REMARK SMILES IDX 9 1 8 2 7 3 5 4 6 5 4 7 3 8 2 9 1 10 80 11 81 12 85 13 82 14
REMARK SMILES IDX 84 15 83 16 10 17 11 18 12 19 13 21 14 22 15 23 79 24 16 25
REMARK SMILES IDX 78 26 17 27 18 28 19 29 72 30 20 31 77 32 71 33 73 34 21 35
REMARK SMILES IDX 76 36 70 37 69 38 22 40 56 41 35 42 55 43 36 44 39 45 54 46
REMARK SMILES IDX 74 47 37 48 38 49 53 51 75 52 40 53 23 54 24 55 33 56 25 57
REMARK SMILES IDX 26 58 32 59 34 60 27 61 28 62 29 63 30 64 31 65 57 66 58 67
REMARK SMILES IDX 67 68 59 69 60 70 66 71 68 72 61 73 62 74 63 75 64 76 65 77
REMARK SMILES IDX 41 78 42 79 51 80 43 81 44 82 50 83 52 84 45 85 46 86 47 87
REMARK SMILES IDX 48 88 49 89
REMARK H PARENT 7 6 11 20 73 39 39 50
REMARK Flexibility Score: inf
ROOT
ATOM      1  C   UNL A   1      33.628  28.073  25.227  1.00  0.00     0.042 C 
ENDROOT
BRANCH   1   2
ATOM      2  C   UNL A   1      33.092  26.717  24.771  1.00  0.00     0.117 C 
BRANCH   2   3
ATOM      3  N   UNL A   1      33.331  25.708  25.785  1.00  0.00    -0.355 N 
ATOM      4  C   UNL A   1      33.697  24.404  25.728  1.00  0.00     0.228 C 
ATOM      5  O   UNL A   1      33.513  23.773  26.780  1.00  0.00    -0.274 OA
ATOM      6  H   UNL A   1      33.202  26.037  26.703  1.00  0.00     0.163 HD
BRANCH   4   7
ATOM      7  C   UNL A   1      34.417  23.702  24.560  1.00  0.00     0.118 C 
BRANCH   7   8
ATOM      8  C   UNL A   1      35.943  23.635  24.428  1.00  0.00     0.087 C 
BRANCH   8   9
ATOM      9  S   UNL A   1      37.042  23.676  25.892  1.00  0.00    -0.164 SA
ATOM     10  C   UNL A   1      37.992  22.146  25.718  1.00  0.00     0.085 C 
ENDBRANCH   8   9
ENDBRANCH   7   8
BRANCH   7  11
ATOM     11  C   UNL A   1      33.848  22.288  24.340  1.00  0.00    -0.035 A 
ATOM     12  C   UNL A   1      32.778  22.108  23.443  1.00  0.00     0.004 A 
ATOM     13  C   UNL A   1      34.376  21.157  24.982  1.00  0.00     0.004 A 
ATOM     14  C   UNL A   1      32.249  20.839  23.204  1.00  0.00     0.000 A 
ATOM     15  C   UNL A   1      33.834  19.890  24.753  1.00  0.00     0.000 A 
ATOM     16  C   UNL A   1      32.774  19.731  23.863  1.00  0.00     0.000 A 
ENDBRANCH   7  11
ENDBRANCH   4   7
ENDBRANCH   2   3
ENDBRANCH   1   2
BRANCH   1  17
ATOM     17  C   UNL A   1      33.680  28.243  26.740  1.00  0.00     0.118 C 
BRANCH  17  18
ATOM     18  N   UNL A   1      33.564  29.636  27.133  1.00  0.00    -0.352 N 
ATOM     19  C   UNL A   1      34.435  30.427  27.843  1.00  0.00     0.251 C 
ATOM     20  H   UNL A   1      32.734  30.082  26.848  1.00  0.00     0.163 HD
ATOM     21  O   UNL A   1      34.033  31.506  28.275  1.00  0.00    -0.269 OA
BRANCH  19  22
ATOM     22  C   UNL A   1      35.835  30.005  28.098  1.00  0.00     0.039 A 
ATOM     23  C   UNL A   1      36.172  29.542  29.374  1.00  0.00     0.014 A 
ATOM     24  C   UNL A   1      36.834  30.132  27.128  1.00  0.00     0.014 A 
ATOM     25  C   UNL A   1      37.492  29.182  29.666  1.00  0.00     0.010 A 
ATOM     26  C   UNL A   1      38.131  29.694  27.394  1.00  0.00     0.010 A 
ATOM     27  C   UNL A   1      38.483  29.241  28.674  1.00  0.00    -0.014 A 
BRANCH  27  28
ATOM     28  C   UNL A   1      39.899  28.897  28.972  1.00  0.00     0.031 A 
ATOM     29  C   UNL A   1      40.805  29.926  29.602  1.00  0.00     0.074 A 
ATOM     30  C   UNL A   1      40.387  27.687  28.637  1.00  0.00     0.049 A 
ATOM     31  N   UNL A   1      42.085  29.853  29.866  1.00  0.00    -0.248 NA
ATOM     32  C   UNL A   1      40.196  31.218  29.956  1.00  0.00     0.031 C 
ATOM     33  C   UNL A   1      39.628  26.617  27.987  1.00  0.00     0.029 A 
ATOM     34  N   UNL A   1      41.643  27.153  28.792  1.00  0.00    -0.354 N 
ATOM     35  C   UNL A   1      42.437  31.093  30.389  1.00  0.00     0.074 A 
ATOM     36  C   UNL A   1      41.248  31.916  30.360  1.00  0.00     0.031 C 
ATOM     37  C   UNL A   1      40.427  25.551  27.815  1.00  0.00     0.029 A 
ATOM     38  C   UNL A   1      41.762  25.870  28.313  1.00  0.00     0.049 A 
ATOM     39  H   UNL A   1      42.389  27.644  29.206  1.00  0.00     0.167 HD
ATOM     40  C   UNL A   1      43.634  31.503  30.871  1.00  0.00     0.037 A 
ATOM     41  C   UNL A   1      42.827  25.044  28.275  1.00  0.00     0.037 A 
ATOM     42  C   UNL A   1      44.804  30.667  30.943  1.00  0.00     0.049 A 
ATOM     43  C   UNL A   1      44.139  25.511  28.847  1.00  0.00     0.074 A 
ATOM     44  C   UNL A   1      46.048  30.969  31.466  1.00  0.00     0.029 A 
ATOM     45  N   UNL A   1      44.870  29.359  30.486  1.00  0.00    -0.354 N 
ATOM     46  N   UNL A   1      44.441  26.671  29.377  1.00  0.00    -0.248 NA
ATOM     47  C   UNL A   1      45.253  24.552  28.822  1.00  0.00     0.031 C 
ATOM     48  C   UNL A   1      46.876  29.854  31.299  1.00  0.00     0.029 A 
ATOM     49  C   UNL A   1      46.135  28.843  30.709  1.00  0.00     0.049 A 
ATOM     50  H   UNL A   1      44.126  28.869  30.065  1.00  0.00     0.167 HD
ATOM     51  C   UNL A   1      45.769  26.573  29.777  1.00  0.00     0.074 A 
ATOM     52  C   UNL A   1      46.211  25.237  29.434  1.00  0.00     0.031 C 
ATOM     53  C   UNL A   1      46.552  27.504  30.376  1.00  0.00     0.037 A 
BRANCH  40  54
ATOM     54  C   UNL A   1      43.737  32.918  31.372  1.00  0.00     0.058 A 
ATOM     55  C   UNL A   1      43.504  33.243  32.718  1.00  0.00     0.135 A 
ATOM     56  C   UNL A   1      44.101  33.959  30.502  1.00  0.00     0.135 A 
ATOM     57  F   UNL A   1      43.138  32.289  33.590  1.00  0.00    -0.206 F 
ATOM     58  C   UNL A   1      43.596  34.552  33.178  1.00  0.00     0.059 A 
ATOM     59  C   UNL A   1      44.225  35.273  30.947  1.00  0.00     0.059 A 
ATOM     60  F   UNL A   1      44.337  33.706  29.205  1.00  0.00    -0.206 F 
ATOM     61  C   UNL A   1      43.955  35.562  32.284  1.00  0.00     0.060 A 
BRANCH  61  62
ATOM     62  S   UNL A   1      44.071  37.257  32.894  1.00  0.00     0.124 S 
ATOM     63  O   UNL A   1      42.937  37.312  33.813  1.00  0.00    -0.237 OA
ATOM     64  O   UNL A   1      45.392  37.275  33.518  1.00  0.00    -0.237 OA
ATOM     65  O   UNL A   1      43.941  38.063  31.687  1.00  0.00    -0.744 OA
ENDBRANCH  61  62
ENDBRANCH  40  54
BRANCH  41  66
ATOM     66  C   UNL A   1      42.689  23.679  27.702  1.00  0.00     0.058 A 
ATOM     67  C   UNL A   1      42.447  22.571  28.529  1.00  0.00     0.135 A 
ATOM     68  C   UNL A   1      42.782  23.455  26.321  1.00  0.00     0.135 A 
ATOM     69  F   UNL A   1      42.356  22.735  29.858  1.00  0.00    -0.206 F 
ATOM     70  C   UNL A   1      42.323  21.287  28.010  1.00  0.00     0.059 A 
ATOM     71  C   UNL A   1      42.637  22.183  25.775  1.00  0.00     0.059 A 
ATOM     72  F   UNL A   1      42.995  24.483  25.486  1.00  0.00    -0.206 F 
ATOM     73  C   UNL A   1      42.418  21.103  26.630  1.00  0.00     0.060 A 
BRANCH  73  74
ATOM     74  S   UNL A   1      42.208  19.438  25.960  1.00  0.00     0.124 S 
ATOM     75  O   UNL A   1      43.048  19.494  24.769  1.00  0.00    -0.237 OA
ATOM     76  O   UNL A   1      42.701  18.603  27.051  1.00  0.00    -0.237 OA
ATOM     77  O   UNL A   1      40.771  19.354  25.717  1.00  0.00    -0.744 OA
ENDBRANCH  73  74
ENDBRANCH  41  66
BRANCH  53  78
ATOM     78  C   UNL A   1      47.953  27.100  30.741  1.00  0.00     0.058 A 
ATOM     79  C   UNL A   1      48.242  26.448  31.948  1.00  0.00     0.135 A 
ATOM     80  C   UNL A   1      49.010  27.323  29.843  1.00  0.00     0.135 A 
ATOM     81  F   UNL A   1      47.267  26.217  32.842  1.00  0.00    -0.206 F 
ATOM     82  C   UNL A   1      49.537  26.047  32.265  1.00  0.00     0.059 A 
ATOM     83  C   UNL A   1      50.307  26.909  30.128  1.00  0.00     0.059 A 
ATOM     84  F   UNL A   1      48.783  27.934  28.670  1.00  0.00    -0.206 F 
ATOM     85  C   UNL A   1      50.563  26.282  31.347  1.00  0.00     0.060 A 
BRANCH  85  86
ATOM     86  S   UNL A   1      52.233  25.728  31.751  1.00  0.00     0.124 S 
ATOM     87  O   UNL A   1      52.920  25.913  30.478  1.00  0.00    -0.237 OA
ATOM     88  O   UNL A   1      52.619  26.647  32.818  1.00  0.00    -0.237 OA
ATOM     89  O   UNL A   1      52.039  24.342  32.166  1.00  0.00    -0.744 OA
ENDBRANCH  85  86
ENDBRANCH  53  78
ENDBRANCH  27  28
ENDBRANCH  19  22
ENDBRANCH  17  18
ENDBRANCH   1  17
TORSDOF 16
ENDMDL
