MODEL 1
REMARK VINA RESULT:      -9.1      0.000      0.000
REMARK SMILES CC[NH+](CC)CCS[C@H](F)C(=O)NCCCNC(=O)c1ccc(-c2c3nc(c(-c4c(F)cc(S(=O)(=O)[O-])cc4F)c4ccc([nH]4)c(-c4c(F)cc(S(=O)(=O)[O-])cc4F)c4nc(c(-c5c(F)cc(S(=O)(=O)[O-])cc5F)c5ccc2[nH]5)C=C4)C=C3)cc1
REMARK SMILES IDX 14 1 13 2 11 3 12 4 9 6 10 7 8 8 7 9 6 10 3 11 2 13 1 14
REMARK SMILES IDX 4 15 5 16 15 17 16 18 17 19 18 20 19 22 20 23 21 24 85 25
REMARK SMILES IDX 22 26 84 27 23 28 24 29 25 30 78 31 26 32 83 33 77 34 79 35
REMARK SMILES IDX 27 36 82 37 76 38 75 39 28 41 62 42 41 43 61 44 42 45 45 46
REMARK SMILES IDX 60 47 80 48 43 49 44 50 59 52 81 53 46 54 29 55 30 56 39 57
REMARK SMILES IDX 31 58 32 59 38 60 40 61 33 62 34 63 35 64 36 65 37 66 63 67
REMARK SMILES IDX 64 68 73 69 65 70 66 71 72 72 74 73 67 74 68 75 69 76 70 77
REMARK SMILES IDX 71 78 47 79 48 80 57 81 49 82 50 83 56 84 58 85 51 86 52 87
REMARK SMILES IDX 53 88 54 89 55 90
REMARK H PARENT 13 5 3 12 17 21 79 40 45 51
REMARK Flexibility Score: inf
ROOT
ATOM      1  C   UNL A   1      32.188  28.419  25.075  1.00  0.00     0.118 C 
ENDROOT
BRANCH   1   2
ATOM      2  N   UNL A   1      31.547  27.397  25.887  1.00  0.00    -0.353 N 
ATOM      3  C   UNL A   1      31.526  26.042  25.721  1.00  0.00     0.265 C 
ATOM      4  O   UNL A   1      30.966  25.382  26.605  1.00  0.00    -0.271 OA
ATOM      5  H   UNL A   1      31.055  27.732  26.671  1.00  0.00     0.163 HD
BRANCH   3   6
ATOM      6  C   UNL A   1      32.187  25.368  24.518  1.00  0.00     0.313 C 
ATOM      7  F   UNL A   1      31.883  25.919  23.312  1.00  0.00    -0.225 F 
BRANCH   6   8
ATOM      8  S   UNL A   1      33.995  25.284  24.699  1.00  0.00    -0.110 SA
BRANCH   8   9
ATOM      9  C   UNL A   1      34.142  24.206  26.166  1.00  0.00     0.134 C 
BRANCH   9  10
ATOM     10  C   UNL A   1      35.410  23.324  26.279  1.00  0.00     0.273 C 
BRANCH  10  11
ATOM     11  N   UNL A   1      36.557  23.506  25.380  1.00  0.00    -0.335 N 
ATOM     12  H   UNL A   1      36.246  24.325  24.858  1.00  0.00     0.348 HD
BRANCH  11  13
ATOM     13  C   UNL A   1      37.806  23.964  25.985  1.00  0.00     0.258 C 
ATOM     14  C   UNL A   1      38.736  22.810  26.355  1.00  0.00     0.071 C 
ENDBRANCH  11  13
BRANCH  11  15
ATOM     15  C   UNL A   1      36.737  22.470  24.361  1.00  0.00     0.258 C 
ATOM     16  C   UNL A   1      36.538  22.879  22.909  1.00  0.00     0.071 C 
ENDBRANCH  11  15
ENDBRANCH  10  11
ENDBRANCH   9  10
ENDBRANCH   8   9
ENDBRANCH   6   8
ENDBRANCH   3   6
ENDBRANCH   1   2
BRANCH   1  17
ATOM     17  C   UNL A   1      33.460  28.965  25.702  1.00  0.00     0.042 C 
BRANCH  17  18
ATOM     18  C   UNL A   1      33.468  28.960  27.226  1.00  0.00     0.118 C 
BRANCH  18  19
ATOM     19  N   UNL A   1      33.586  30.281  27.832  1.00  0.00    -0.352 N 
ATOM     20  C   UNL A   1      34.645  30.883  28.477  1.00  0.00     0.251 C 
ATOM     21  H   UNL A   1      32.774  30.834  27.771  1.00  0.00     0.163 HD
ATOM     22  O   UNL A   1      34.489  31.986  28.998  1.00  0.00    -0.269 OA
BRANCH  20  23
ATOM     23  C   UNL A   1      35.945  30.186  28.598  1.00  0.00     0.039 A 
ATOM     24  C   UNL A   1      36.796  30.135  27.492  1.00  0.00     0.014 A 
ATOM     25  C   UNL A   1      36.351  29.628  29.808  1.00  0.00     0.014 A 
ATOM     26  C   UNL A   1      38.100  29.652  27.642  1.00  0.00     0.010 A 
ATOM     27  C   UNL A   1      37.684  29.274  29.989  1.00  0.00     0.010 A 
ATOM     28  C   UNL A   1      38.581  29.293  28.911  1.00  0.00    -0.014 A 
BRANCH  28  29
ATOM     29  C   UNL A   1      40.015  28.970  29.149  1.00  0.00     0.031 A 
ATOM     30  C   UNL A   1      40.961  30.030  29.652  1.00  0.00     0.074 A 
ATOM     31  C   UNL A   1      40.497  27.761  28.792  1.00  0.00     0.049 A 
ATOM     32  N   UNL A   1      42.263  29.984  29.780  1.00  0.00    -0.248 NA
ATOM     33  C   UNL A   1      40.373  31.332  30.007  1.00  0.00     0.031 C 
ATOM     34  C   UNL A   1      39.713  26.675  28.199  1.00  0.00     0.029 A 
ATOM     35  N   UNL A   1      41.769  27.247  28.855  1.00  0.00    -0.354 N 
ATOM     36  C   UNL A   1      42.650  31.259  30.177  1.00  0.00     0.074 A 
ATOM     37  C   UNL A   1      41.453  32.069  30.222  1.00  0.00     0.031 C 
ATOM     38  C   UNL A   1      40.511  25.619  27.979  1.00  0.00     0.029 A 
ATOM     39  C   UNL A   1      41.873  25.962  28.376  1.00  0.00     0.049 A 
ATOM     40  H   UNL A   1      42.536  27.751  29.211  1.00  0.00     0.167 HD
ATOM     41  C   UNL A   1      43.887  31.710  30.501  1.00  0.00     0.037 A 
ATOM     42  C   UNL A   1      42.940  25.150  28.258  1.00  0.00     0.037 A 
ATOM     43  C   UNL A   1      45.063  30.882  30.530  1.00  0.00     0.049 A 
ATOM     44  C   UNL A   1      44.286  25.637  28.716  1.00  0.00     0.074 A 
ATOM     45  C   UNL A   1      46.337  31.210  30.959  1.00  0.00     0.029 A 
ATOM     46  N   UNL A   1      45.108  29.558  30.120  1.00  0.00    -0.354 N 
ATOM     47  N   UNL A   1      44.618  26.820  29.175  1.00  0.00    -0.248 NA
ATOM     48  C   UNL A   1      45.399  24.681  28.652  1.00  0.00     0.031 C 
ATOM     49  C   UNL A   1      47.159  30.091  30.781  1.00  0.00     0.029 A 
ATOM     50  C   UNL A   1      46.390  29.057  30.274  1.00  0.00     0.049 A 
ATOM     51  H   UNL A   1      44.341  29.048  29.770  1.00  0.00     0.167 HD
ATOM     52  C   UNL A   1      45.975  26.747  29.468  1.00  0.00     0.074 A 
ATOM     53  C   UNL A   1      46.397  25.398  29.149  1.00  0.00     0.031 C 
ATOM     54  C   UNL A   1      46.794  27.711  29.954  1.00  0.00     0.037 A 
BRANCH  41  55
ATOM     55  C   UNL A   1      44.021  33.163  30.864  1.00  0.00     0.058 A 
ATOM     56  C   UNL A   1      44.279  34.147  29.896  1.00  0.00     0.135 A 
ATOM     57  C   UNL A   1      43.890  33.579  32.199  1.00  0.00     0.135 A 
ATOM     58  F   UNL A   1      44.427  33.804  28.606  1.00  0.00    -0.206 F 
ATOM     59  C   UNL A   1      44.453  35.483  30.242  1.00  0.00     0.059 A 
ATOM     60  C   UNL A   1      44.030  34.915  32.565  1.00  0.00     0.059 A 
ATOM     61  F   UNL A   1      43.639  32.682  33.165  1.00  0.00    -0.206 F 
ATOM     62  C   UNL A   1      44.334  35.855  31.582  1.00  0.00     0.060 A 
BRANCH  62  63
ATOM     63  S   UNL A   1      44.586  37.588  32.023  1.00  0.00     0.124 S 
ATOM     64  O   UNL A   1      43.632  37.748  33.116  1.00  0.00    -0.237 OA
ATOM     65  O   UNL A   1      45.995  37.615  32.403  1.00  0.00    -0.237 OA
ATOM     66  O   UNL A   1      44.258  38.302  30.793  1.00  0.00    -0.744 OA
ENDBRANCH  62  63
ENDBRANCH  41  55
BRANCH  42  67
ATOM     67  C   UNL A   1      42.764  23.779  27.714  1.00  0.00     0.058 A 
ATOM     68  C   UNL A   1      42.580  22.683  28.570  1.00  0.00     0.135 A 
ATOM     69  C   UNL A   1      42.723  23.543  26.331  1.00  0.00     0.135 A 
ATOM     70  F   UNL A   1      42.617  22.859  29.899  1.00  0.00    -0.206 F 
ATOM     71  C   UNL A   1      42.362  21.402  28.076  1.00  0.00     0.059 A 
ATOM     72  C   UNL A   1      42.486  22.273  25.812  1.00  0.00     0.059 A 
ATOM     73  F   UNL A   1      42.874  24.563  25.471  1.00  0.00    -0.206 F 
ATOM     74  C   UNL A   1      42.311  21.207  26.695  1.00  0.00     0.060 A 
BRANCH  74  75
ATOM     75  S   UNL A   1      41.944  19.554  26.064  1.00  0.00     0.124 S 
ATOM     76  O   UNL A   1      42.838  19.472  24.916  1.00  0.00    -0.237 OA
ATOM     77  O   UNL A   1      42.286  18.707  27.203  1.00  0.00    -0.237 OA
ATOM     78  O   UNL A   1      40.519  19.625  25.754  1.00  0.00    -0.744 OA
ENDBRANCH  74  75
ENDBRANCH  42  67
BRANCH  54  79
ATOM     79  C   UNL A   1      48.231  27.340  30.190  1.00  0.00     0.058 A 
ATOM     80  C   UNL A   1      49.215  27.558  29.215  1.00  0.00     0.135 A 
ATOM     81  C   UNL A   1      48.634  26.810  31.426  1.00  0.00     0.135 A 
ATOM     82  F   UNL A   1      48.877  28.056  28.014  1.00  0.00    -0.206 F 
ATOM     83  C   UNL A   1      50.550  27.247  29.449  1.00  0.00     0.059 A 
ATOM     84  C   UNL A   1      49.967  26.513  31.690  1.00  0.00     0.059 A 
ATOM     85  F   UNL A   1      47.732  26.592  32.396  1.00  0.00    -0.206 F 
ATOM     86  C   UNL A   1      50.916  26.726  30.692  1.00  0.00     0.060 A 
BRANCH  86  87
ATOM     87  S   UNL A   1      52.657  26.362  31.000  1.00  0.00     0.124 S 
ATOM     88  O   UNL A   1      52.565  25.123  31.767  1.00  0.00    -0.237 OA
ATOM     89  O   UNL A   1      53.196  26.232  29.649  1.00  0.00    -0.237 OA
ATOM     90  O   UNL A   1      53.121  27.529  31.743  1.00  0.00    -0.744 OA
ENDBRANCH  86  87
ENDBRANCH  54  79
ENDBRANCH  28  29
ENDBRANCH  20  23
ENDBRANCH  18  19
ENDBRANCH  17  18
ENDBRANCH   1  17
TORSDOF 19
ENDMDL
MODEL 2
REMARK VINA RESULT:      -9.0      3.747      8.494
REMARK SMILES CC[NH+](CC)CCS[C@H](F)C(=O)NCCCNC(=O)c1ccc(-c2c3nc(c(-c4c(F)cc(S(=O)(=O)[O-])cc4F)c4ccc([nH]4)c(-c4c(F)cc(S(=O)(=O)[O-])cc4F)c4nc(c(-c5c(F)cc(S(=O)(=O)[O-])cc5F)c5ccc2[nH]5)C=C4)C=C3)cc1
REMARK SMILES IDX 14 1 13 2 11 3 12 4 9 6 10 7 8 8 7 9 6 10 3 11 2 13 1 14
REMARK SMILES IDX 4 15 5 16 15 17 16 18 17 19 18 20 19 22 20 23 21 24 85 25
REMARK SMILES IDX 22 26 84 27 23 28 24 29 25 30 78 31 26 32 83 33 77 34 79 35
REMARK SMILES IDX 27 36 82 37 76 38 75 39 28 41 62 42 41 43 61 44 42 45 45 46
REMARK SMILES IDX 60 47 80 48 43 49 44 50 59 52 81 53 46 54 29 55 30 56 39 57
REMARK SMILES IDX 31 58 32 59 38 60 40 61 33 62 34 63 35 64 36 65 37 66 63 67
REMARK SMILES IDX 64 68 73 69 65 70 66 71 72 72 74 73 67 74 68 75 69 76 70 77
REMARK SMILES IDX 71 78 47 79 48 80 57 81 49 82 50 83 56 84 58 85 51 86 52 87
REMARK SMILES IDX 53 88 54 89 55 90
REMARK H PARENT 13 5 3 12 17 21 79 40 45 51
REMARK Flexibility Score: inf
ROOT
ATOM      1  C   UNL A   1      37.251  22.402  25.394  1.00  0.00     0.118 C 
ENDROOT
BRANCH   1   2
ATOM      2  N   UNL A   1      36.183  22.268  26.371  1.00  0.00    -0.353 N 
ATOM      3  C   UNL A   1      35.020  21.557  26.294  1.00  0.00     0.265 C 
ATOM      4  O   UNL A   1      34.306  21.547  27.305  1.00  0.00    -0.271 OA
ATOM      5  H   UNL A   1      36.317  22.764  27.210  1.00  0.00     0.163 HD
BRANCH   3   6
ATOM      6  C   UNL A   1      34.629  20.784  25.034  1.00  0.00     0.313 C 
ATOM      7  F   UNL A   1      35.370  19.668  24.792  1.00  0.00    -0.225 F 
BRANCH   6   8
ATOM      8  S   UNL A   1      32.865  20.345  25.029  1.00  0.00    -0.110 SA
BRANCH   8   9
ATOM      9  C   UNL A   1      32.911  18.736  25.894  1.00  0.00     0.134 C 
BRANCH   9  10
ATOM     10  C   UNL A   1      32.181  17.546  25.224  1.00  0.00     0.273 C 
BRANCH  10  11
ATOM     11  N   UNL A   1      32.877  16.632  24.310  1.00  0.00    -0.335 N 
ATOM     12  H   UNL A   1      32.079  16.145  23.903  1.00  0.00     0.348 HD
BRANCH  11  13
ATOM     13  C   UNL A   1      33.522  17.227  23.142  1.00  0.00     0.258 C 
ATOM     14  C   UNL A   1      32.539  17.981  22.249  1.00  0.00     0.071 C 
ENDBRANCH  11  13
BRANCH  11  15
ATOM     15  C   UNL A   1      33.664  15.573  24.946  1.00  0.00     0.258 C 
ATOM     16  C   UNL A   1      35.134  15.861  25.211  1.00  0.00     0.071 C 
ENDBRANCH  11  15
ENDBRANCH  10  11
ENDBRANCH   9  10
ENDBRANCH   8   9
ENDBRANCH   6   8
ENDBRANCH   3   6
ENDBRANCH   1   2
BRANCH   1  17
ATOM     17  C   UNL A   1      38.110  21.154  25.278  1.00  0.00     0.042 C 
BRANCH  17  18
ATOM     18  C   UNL A   1      39.364  21.166  26.144  1.00  0.00     0.118 C 
BRANCH  18  19
ATOM     19  N   UNL A   1      40.194  19.974  26.019  1.00  0.00    -0.352 N 
ATOM     20  C   UNL A   1      41.562  19.818  26.090  1.00  0.00     0.251 C 
ATOM     21  H   UNL A   1      39.694  19.141  25.857  1.00  0.00     0.163 HD
ATOM     22  O   UNL A   1      42.060  18.718  25.860  1.00  0.00    -0.269 OA
BRANCH  20  23
ATOM     23  C   UNL A   1      42.435  20.979  26.378  1.00  0.00     0.039 A 
ATOM     24  C   UNL A   1      42.936  21.734  25.316  1.00  0.00     0.014 A 
ATOM     25  C   UNL A   1      42.719  21.356  27.688  1.00  0.00     0.014 A 
ATOM     26  C   UNL A   1      43.600  22.938  25.574  1.00  0.00     0.010 A 
ATOM     27  C   UNL A   1      43.256  22.614  27.941  1.00  0.00     0.010 A 
ATOM     28  C   UNL A   1      43.694  23.429  26.887  1.00  0.00    -0.014 A 
BRANCH  28  29
ATOM     29  C   UNL A   1      44.206  24.795  27.184  1.00  0.00     0.031 A 
ATOM     30  C   UNL A   1      43.268  25.874  27.661  1.00  0.00     0.074 A 
ATOM     31  C   UNL A   1      45.490  25.103  26.903  1.00  0.00     0.049 A 
ATOM     32  N   UNL A   1      43.495  27.152  27.830  1.00  0.00    -0.248 NA
ATOM     33  C   UNL A   1      41.878  25.474  27.932  1.00  0.00     0.031 C 
ATOM     34  C   UNL A   1      46.483  24.182  26.342  1.00  0.00     0.029 A 
ATOM     35  N   UNL A   1      46.178  26.285  27.030  1.00  0.00    -0.354 N 
ATOM     36  C   UNL A   1      42.270  27.711  28.174  1.00  0.00     0.074 A 
ATOM     37  C   UNL A   1      41.294  26.644  28.141  1.00  0.00     0.031 C 
ATOM     38  C   UNL A   1      47.653  24.823  26.201  1.00  0.00     0.029 A 
ATOM     39  C   UNL A   1      47.489  26.210  26.620  1.00  0.00     0.049 A 
ATOM     40  H   UNL A   1      45.771  27.108  27.384  1.00  0.00     0.167 HD
ATOM     41  C   UNL A   1      41.985  28.993  28.511  1.00  0.00     0.037 A 
ATOM     42  C   UNL A   1      48.452  27.151  26.576  1.00  0.00     0.037 A 
ATOM     43  C   UNL A   1      42.971  30.035  28.617  1.00  0.00     0.049 A 
ATOM     44  C   UNL A   1      48.140  28.543  27.049  1.00  0.00     0.074 A 
ATOM     45  C   UNL A   1      42.807  31.333  29.067  1.00  0.00     0.029 A 
ATOM     46  N   UNL A   1      44.309  29.895  28.276  1.00  0.00    -0.354 N 
ATOM     47  N   UNL A   1      46.994  29.033  27.457  1.00  0.00    -0.248 NA
ATOM     48  C   UNL A   1      49.249  29.505  27.067  1.00  0.00     0.031 C 
ATOM     49  C   UNL A   1      44.041  31.987  28.971  1.00  0.00     0.029 A 
ATOM     50  C   UNL A   1      44.980  31.087  28.494  1.00  0.00     0.049 A 
ATOM     51  H   UNL A   1      44.720  29.070  27.930  1.00  0.00     0.167 HD
ATOM     52  C   UNL A   1      47.247  30.358  27.794  1.00  0.00     0.074 A 
ATOM     53  C   UNL A   1      48.658  30.586  27.557  1.00  0.00     0.031 C 
ATOM     54  C   UNL A   1      46.386  31.298  28.255  1.00  0.00     0.037 A 
BRANCH  41  55
ATOM     55  C   UNL A   1      40.549  29.329  28.804  1.00  0.00     0.058 A 
ATOM     56  C   UNL A   1      40.082  29.505  30.117  1.00  0.00     0.135 A 
ATOM     57  C   UNL A   1      39.624  29.478  27.758  1.00  0.00     0.135 A 
ATOM     58  F   UNL A   1      40.920  29.360  31.156  1.00  0.00    -0.206 F 
ATOM     59  C   UNL A   1      38.743  29.765  30.386  1.00  0.00     0.059 A 
ATOM     60  C   UNL A   1      38.285  29.769  28.001  1.00  0.00     0.059 A 
ATOM     61  F   UNL A   1      40.015  29.325  26.482  1.00  0.00    -0.206 F 
ATOM     62  C   UNL A   1      37.851  29.887  29.321  1.00  0.00     0.060 A 
BRANCH  62  63
ATOM     63  S   UNL A   1      36.110  30.202  29.684  1.00  0.00     0.124 S 
ATOM     64  O   UNL A   1      36.053  31.657  29.585  1.00  0.00    -0.237 OA
ATOM     65  O   UNL A   1      35.429  29.469  28.621  1.00  0.00    -0.237 OA
ATOM     66  O   UNL A   1      35.940  29.656  31.026  1.00  0.00    -0.744 OA
ENDBRANCH  62  63
ENDBRANCH  41  55
BRANCH  42  67
ATOM     67  C   UNL A   1      49.811  26.789  26.097  1.00  0.00     0.058 A 
ATOM     68  C   UNL A   1      50.722  26.139  26.942  1.00  0.00     0.135 A 
ATOM     69  C   UNL A   1      50.207  27.035  24.773  1.00  0.00     0.135 A 
ATOM     70  F   UNL A   1      50.390  25.888  28.217  1.00  0.00    -0.206 F 
ATOM     71  C   UNL A   1      51.979  25.747  26.494  1.00  0.00     0.059 A 
ATOM     72  C   UNL A   1      51.451  26.634  24.296  1.00  0.00     0.059 A 
ATOM     73  F   UNL A   1      49.362  27.636  23.920  1.00  0.00    -0.206 F 
ATOM     74  C   UNL A   1      52.333  25.994  25.167  1.00  0.00     0.060 A 
BRANCH  74  75
ATOM     75  S   UNL A   1      53.935  25.406  24.572  1.00  0.00     0.124 S 
ATOM     76  O   UNL A   1      53.823  23.970  24.796  1.00  0.00    -0.237 OA
ATOM     77  O   UNL A   1      53.921  25.837  23.177  1.00  0.00    -0.237 OA
ATOM     78  O   UNL A   1      54.886  26.110  25.427  1.00  0.00    -0.744 OA
ENDBRANCH  74  75
ENDBRANCH  42  67
BRANCH  54  79
ATOM     79  C   UNL A   1      46.947  32.659  28.553  1.00  0.00     0.058 A 
ATOM     80  C   UNL A   1      47.459  32.981  29.818  1.00  0.00     0.135 A 
ATOM     81  C   UNL A   1      47.023  33.633  27.544  1.00  0.00     0.135 A 
ATOM     82  F   UNL A   1      47.403  32.086  30.817  1.00  0.00    -0.206 F 
ATOM     83  C   UNL A   1      48.012  34.230  30.080  1.00  0.00     0.059 A 
ATOM     84  C   UNL A   1      47.592  34.880  27.777  1.00  0.00     0.059 A 
ATOM     85  F   UNL A   1      46.555  33.370  26.313  1.00  0.00    -0.206 F 
ATOM     86  C   UNL A   1      48.075  35.173  29.052  1.00  0.00     0.060 A 
BRANCH  86  87
ATOM     87  S   UNL A   1      48.829  36.777  29.391  1.00  0.00     0.124 S 
ATOM     88  O   UNL A   1      49.758  36.444  30.465  1.00  0.00    -0.237 OA
ATOM     89  O   UNL A   1      49.439  37.116  28.108  1.00  0.00    -0.237 OA
ATOM     90  O   UNL A   1      47.694  37.610  29.776  1.00  0.00    -0.744 OA
ENDBRANCH  86  87
ENDBRANCH  54  79
ENDBRANCH  28  29
ENDBRANCH  20  23
ENDBRANCH  18  19
ENDBRANCH  17  18
ENDBRANCH   1  17
TORSDOF 19
ENDMDL
MODEL 3
REMARK VINA RESULT:      -8.6      3.995     10.698
REMARK SMILES CC[NH+](CC)CCS[C@H](F)C(=O)NCCCNC(=O)c1ccc(-c2c3nc(c(-c4c(F)cc(S(=O)(=O)[O-])cc4F)c4ccc([nH]4)c(-c4c(F)cc(S(=O)(=O)[O-])cc4F)c4nc(c(-c5c(F)cc(S(=O)(=O)[O-])cc5F)c5ccc2[nH]5)C=C4)C=C3)cc1
REMARK SMILES IDX 14 1 13 2 11 3 12 4 9 6 10 7 8 8 7 9 6 10 3 11 2 13 1 14
REMARK SMILES IDX 4 15 5 16 15 17 16 18 17 19 18 20 19 22 20 23 21 24 85 25
REMARK SMILES IDX 22 26 84 27 23 28 24 29 25 30 78 31 26 32 83 33 77 34 79 35
REMARK SMILES IDX 27 36 82 37 76 38 75 39 28 41 62 42 41 43 61 44 42 45 45 46
REMARK SMILES IDX 60 47 80 48 43 49 44 50 59 52 81 53 46 54 29 55 30 56 39 57
REMARK SMILES IDX 31 58 32 59 38 60 40 61 33 62 34 63 35 64 36 65 37 66 63 67
REMARK SMILES IDX 64 68 73 69 65 70 66 71 72 72 74 73 67 74 68 75 69 76 70 77
REMARK SMILES IDX 71 78 47 79 48 80 57 81 49 82 50 83 56 84 58 85 51 86 52 87
REMARK SMILES IDX 53 88 54 89 55 90
REMARK H PARENT 13 5 3 12 17 21 79 40 45 51
REMARK Flexibility Score: inf
ROOT
ATOM      1  C   UNL A   1      43.479  22.890  28.436  1.00  0.00     0.118 C 
ENDROOT
BRANCH   1   2
ATOM      2  N   UNL A   1      44.620  22.763  27.545  1.00  0.00    -0.353 N 
ATOM      3  C   UNL A   1      45.574  23.684  27.219  1.00  0.00     0.265 C 
ATOM      4  O   UNL A   1      46.494  23.297  26.488  1.00  0.00    -0.271 OA
ATOM      5  H   UNL A   1      44.720  21.885  27.113  1.00  0.00     0.163 HD
BRANCH   3   6
ATOM      6  C   UNL A   1      45.527  25.116  27.753  1.00  0.00     0.313 C 
ATOM      7  F   UNL A   1      46.190  25.314  28.925  1.00  0.00    -0.225 F 
BRANCH   6   8
ATOM      8  S   UNL A   1      46.117  26.317  26.522  1.00  0.00    -0.110 SA
BRANCH   8   9
ATOM      9  C   UNL A   1      46.512  27.741  27.595  1.00  0.00     0.134 C 
BRANCH   9  10
ATOM     10  C   UNL A   1      45.327  28.584  28.127  1.00  0.00     0.273 C 
BRANCH  10  11
ATOM     11  N   UNL A   1      44.575  29.492  27.253  1.00  0.00    -0.335 N 
ATOM     12  H   UNL A   1      45.061  29.334  26.371  1.00  0.00     0.348 HD
BRANCH  11  13
ATOM     13  C   UNL A   1      43.199  29.117  26.934  1.00  0.00     0.258 C 
ATOM     14  C   UNL A   1      43.099  28.282  25.659  1.00  0.00     0.071 C 
ENDBRANCH  11  13
BRANCH  11  15
ATOM     15  C   UNL A   1      44.752  30.922  27.517  1.00  0.00     0.258 C 
ATOM     16  C   UNL A   1      44.351  31.889  26.413  1.00  0.00     0.071 C 
ENDBRANCH  11  15
ENDBRANCH  10  11
ENDBRANCH   9  10
ENDBRANCH   8   9
ENDBRANCH   6   8
ENDBRANCH   3   6
ENDBRANCH   1   2
BRANCH   1  17
ATOM     17  C   UNL A   1      42.233  22.197  27.909  1.00  0.00     0.042 C 
BRANCH  17  18
ATOM     18  C   UNL A   1      42.028  22.322  26.404  1.00  0.00     0.118 C 
BRANCH  18  19
ATOM     19  N   UNL A   1      40.659  22.086  25.961  1.00  0.00    -0.352 N 
ATOM     20  C   UNL A   1      39.521  22.848  26.110  1.00  0.00     0.251 C 
ATOM     21  H   UNL A   1      40.526  21.240  25.473  1.00  0.00     0.163 HD
ATOM     22  O   UNL A   1      38.439  22.404  25.730  1.00  0.00    -0.269 OA
BRANCH  20  23
ATOM     23  C   UNL A   1      39.584  24.167  26.779  1.00  0.00     0.039 A 
ATOM     24  C   UNL A   1      39.014  24.316  28.045  1.00  0.00     0.014 A 
ATOM     25  C   UNL A   1      40.245  25.241  26.189  1.00  0.00     0.014 A 
ATOM     26  C   UNL A   1      39.231  25.494  28.769  1.00  0.00     0.010 A 
ATOM     27  C   UNL A   1      40.573  26.353  26.957  1.00  0.00     0.010 A 
ATOM     28  C   UNL A   1      40.081  26.490  28.263  1.00  0.00    -0.014 A 
BRANCH  28  29
ATOM     29  C   UNL A   1      40.501  27.660  29.083  1.00  0.00     0.031 A 
ATOM     30  C   UNL A   1      41.790  27.621  29.863  1.00  0.00     0.074 A 
ATOM     31  C   UNL A   1      39.664  28.708  29.230  1.00  0.00     0.049 A 
ATOM     32  N   UNL A   1      42.251  28.474  30.742  1.00  0.00    -0.248 NA
ATOM     33  C   UNL A   1      42.649  26.441  29.669  1.00  0.00     0.031 C 
ATOM     34  C   UNL A   1      38.340  28.833  28.613  1.00  0.00     0.029 A 
ATOM     35  N   UNL A   1      39.791  29.863  29.964  1.00  0.00    -0.354 N 
ATOM     36  C   UNL A   1      43.420  27.909  31.241  1.00  0.00     0.074 A 
ATOM     37  C   UNL A   1      43.571  26.620  30.603  1.00  0.00     0.031 C 
ATOM     38  C   UNL A   1      37.793  30.005  28.970  1.00  0.00     0.029 A 
ATOM     39  C   UNL A   1      38.703  30.700  29.873  1.00  0.00     0.049 A 
ATOM     40  H   UNL A   1      40.587  30.072  30.503  1.00  0.00     0.167 HD
ATOM     41  C   UNL A   1      44.302  28.426  32.130  1.00  0.00     0.037 A 
ATOM     42  C   UNL A   1      38.457  31.889  30.456  1.00  0.00     0.037 A 
ATOM     43  C   UNL A   1      44.188  29.741  32.704  1.00  0.00     0.049 A 
ATOM     44  C   UNL A   1      39.494  32.490  31.362  1.00  0.00     0.074 A 
ATOM     45  C   UNL A   1      45.088  30.405  33.519  1.00  0.00     0.029 A 
ATOM     46  N   UNL A   1      43.111  30.595  32.517  1.00  0.00    -0.354 N 
ATOM     47  N   UNL A   1      40.637  31.980  31.753  1.00  0.00    -0.248 NA
ATOM     48  C   UNL A   1      39.215  33.829  31.898  1.00  0.00     0.031 C 
ATOM     49  C   UNL A   1      44.541  31.651  33.848  1.00  0.00     0.029 A 
ATOM     50  C   UNL A   1      43.317  31.776  33.211  1.00  0.00     0.049 A 
ATOM     51  H   UNL A   1      42.317  30.391  31.972  1.00  0.00     0.167 HD
ATOM     52  C   UNL A   1      41.222  32.941  32.569  1.00  0.00     0.074 A 
ATOM     53  C   UNL A   1      40.313  34.069  32.603  1.00  0.00     0.031 C 
ATOM     54  C   UNL A   1      42.404  32.890  33.232  1.00  0.00     0.037 A 
BRANCH  41  55
ATOM     55  C   UNL A   1      45.474  27.569  32.522  1.00  0.00     0.058 A 
ATOM     56  C   UNL A   1      46.718  27.677  31.878  1.00  0.00     0.135 A 
ATOM     57  C   UNL A   1      45.354  26.625  33.554  1.00  0.00     0.135 A 
ATOM     58  F   UNL A   1      46.885  28.553  30.874  1.00  0.00    -0.206 F 
ATOM     59  C   UNL A   1      47.784  26.848  32.208  1.00  0.00     0.059 A 
ATOM     60  C   UNL A   1      46.416  25.806  33.923  1.00  0.00     0.059 A 
ATOM     61  F   UNL A   1      44.189  26.482  34.207  1.00  0.00    -0.206 F 
ATOM     62  C   UNL A   1      47.620  25.909  33.228  1.00  0.00     0.060 A 
BRANCH  62  63
ATOM     63  S   UNL A   1      49.004  24.822  33.631  1.00  0.00     0.124 S 
ATOM     64  O   UNL A   1      48.306  23.629  34.101  1.00  0.00    -0.237 OA
ATOM     65  O   UNL A   1      49.687  24.691  32.348  1.00  0.00    -0.237 OA
ATOM     66  O   UNL A   1      49.733  25.566  34.653  1.00  0.00    -0.744 OA
ENDBRANCH  62  63
ENDBRANCH  41  55
BRANCH  42  67
ATOM     67  C   UNL A   1      37.185  32.599  30.165  1.00  0.00     0.058 A 
ATOM     68  C   UNL A   1      36.024  32.326  30.903  1.00  0.00     0.135 A 
ATOM     69  C   UNL A   1      37.116  33.601  29.184  1.00  0.00     0.135 A 
ATOM     70  F   UNL A   1      36.040  31.373  31.847  1.00  0.00    -0.206 F 
ATOM     71  C   UNL A   1      34.838  33.017  30.679  1.00  0.00     0.059 A 
ATOM     72  C   UNL A   1      35.947  34.321  28.955  1.00  0.00     0.059 A 
ATOM     73  F   UNL A   1      38.206  33.913  28.465  1.00  0.00    -0.206 F 
ATOM     74  C   UNL A   1      34.811  34.018  29.707  1.00  0.00     0.060 A 
BRANCH  74  75
ATOM     75  S   UNL A   1      33.291  34.969  29.481  1.00  0.00     0.124 S 
ATOM     76  O   UNL A   1      33.792  36.176  28.837  1.00  0.00    -0.237 OA
ATOM     77  O   UNL A   1      32.494  34.079  28.641  1.00  0.00    -0.237 OA
ATOM     78  O   UNL A   1      32.797  35.136  30.845  1.00  0.00    -0.744 OA
ENDBRANCH  74  75
ENDBRANCH  42  67
BRANCH  54  79
ATOM     79  C   UNL A   1      42.793  34.096  34.038  1.00  0.00     0.058 A 
ATOM     80  C   UNL A   1      42.590  34.150  35.424  1.00  0.00     0.135 A 
ATOM     81  C   UNL A   1      43.427  35.188  33.422  1.00  0.00     0.135 A 
ATOM     82  F   UNL A   1      41.981  33.133  36.057  1.00  0.00    -0.206 F 
ATOM     83  C   UNL A   1      42.985  35.253  36.173  1.00  0.00     0.059 A 
ATOM     84  C   UNL A   1      43.851  36.291  34.155  1.00  0.00     0.059 A 
ATOM     85  F   UNL A   1      43.653  35.181  32.099  1.00  0.00    -0.206 F 
ATOM     86  C   UNL A   1      43.617  36.318  35.530  1.00  0.00     0.060 A 
BRANCH  86  87
ATOM     87  S   UNL A   1      44.161  37.729  36.516  1.00  0.00     0.124 S 
ATOM     88  O   UNL A   1      43.159  37.748  37.577  1.00  0.00    -0.237 OA
ATOM     89  O   UNL A   1      45.506  37.330  36.921  1.00  0.00    -0.237 OA
ATOM     90  O   UNL A   1      44.102  38.843  35.575  1.00  0.00    -0.744 OA
ENDBRANCH  86  87
ENDBRANCH  54  79
ENDBRANCH  28  29
ENDBRANCH  20  23
ENDBRANCH  18  19
ENDBRANCH  17  18
ENDBRANCH   1  17
TORSDOF 19
ENDMDL
