MODEL 1
REMARK VINA RESULT:     -11.9      0.000      0.000
REMARK SMILES O=C(NCCCNC(=O)c1cccc(Nc2ccnc3ccc(F)cc23)c1)c1ccc(-c2c3nc(c(-c4c(F)cc(S(=O)(=O)[O-])cc4F)c4ccc([nH]4)c(-c4c(F)cc(S(=O)(=O)[O-])cc4F)c4nc(c(-c5c(F)cc(S(=O)(=O)[O-])cc5F)c5ccc2[nH]5)C=C4)C=C3)cc1
REMARK SMILES IDX 4 1 3 2 1 3 2 4 28 6 29 7 93 8 30 9 92 10 31 11 32 12 33 13
REMARK SMILES IDX 86 14 34 15 91 16 85 17 87 18 35 19 90 20 84 21 83 22 36 24
REMARK SMILES IDX 70 25 49 26 69 27 50 28 53 29 68 30 88 31 51 32 52 33 67 35
REMARK SMILES IDX 89 36 54 37 37 38 38 39 47 40 39 41 40 42 46 43 48 44 41 45
REMARK SMILES IDX 42 46 43 47 44 48 45 49 71 50 72 51 81 52 73 53 74 54 80 55
REMARK SMILES IDX 82 56 75 57 76 58 77 59 78 60 79 61 55 62 56 63 65 64 57 65
REMARK SMILES IDX 58 66 64 67 66 68 59 69 60 70 61 71 62 72 63 73 5 74 6 75
REMARK SMILES IDX 7 76 8 77 9 79 10 80 11 81 27 82 12 83 14 84 13 85 15 86
REMARK SMILES IDX 16 88 17 89 26 90 18 91 20 92 25 93 19 94 21 95 23 96 22 97
REMARK SMILES IDX 24 98
REMARK H PARENT 3 5 87 23 53 34 7 78 15 87
REMARK Flexibility Score: inf
ROOT
ATOM      1  C   UNL A   1      33.585  28.231  26.875  1.00  0.00     0.118 C 
ENDROOT
BRANCH   1   2
ATOM      2  N   UNL A   1      33.433  29.593  27.368  1.00  0.00    -0.352 N 
ATOM      3  O   UNL A   1      33.886  31.516  28.425  1.00  0.00    -0.269 OA
ATOM      4  C   UNL A   1      34.304  30.427  28.029  1.00  0.00     0.251 C 
ATOM      5  H   UNL A   1      32.548  29.987  27.198  1.00  0.00     0.163 HD
BRANCH   4   6
ATOM      6  C   UNL A   1      35.713  30.046  28.301  1.00  0.00     0.039 A 
ATOM      7  C   UNL A   1      36.114  29.507  29.525  1.00  0.00     0.014 A 
ATOM      8  C   UNL A   1      36.652  30.178  27.271  1.00  0.00     0.014 A 
ATOM      9  C   UNL A   1      37.464  29.238  29.763  1.00  0.00     0.010 A 
ATOM     10  C   UNL A   1      37.994  29.838  27.486  1.00  0.00     0.010 A 
ATOM     11  C   UNL A   1      38.421  29.399  28.748  1.00  0.00    -0.014 A 
BRANCH  11  12
ATOM     12  C   UNL A   1      39.852  29.075  29.008  1.00  0.00     0.031 A 
ATOM     13  C   UNL A   1      40.779  30.095  29.615  1.00  0.00     0.074 A 
ATOM     14  C   UNL A   1      40.320  27.850  28.698  1.00  0.00     0.049 A 
ATOM     15  N   UNL A   1      42.053  29.989  29.900  1.00  0.00    -0.248 NA
ATOM     16  C   UNL A   1      40.204  31.410  29.939  1.00  0.00     0.031 C 
ATOM     17  C   UNL A   1      39.530  26.776  28.093  1.00  0.00     0.029 A 
ATOM     18  N   UNL A   1      41.568  27.298  28.848  1.00  0.00    -0.354 N 
ATOM     19  C   UNL A   1      42.437  31.220  30.420  1.00  0.00     0.074 A 
ATOM     20  C   UNL A   1      41.265  32.071  30.383  1.00  0.00     0.031 C 
ATOM     21  C   UNL A   1      40.302  25.688  27.949  1.00  0.00     0.029 A 
ATOM     22  C   UNL A   1      41.655  26.001  28.398  1.00  0.00     0.049 A 
ATOM     23  H   UNL A   1      42.329  27.783  29.241  1.00  0.00     0.167 HD
ATOM     24  C   UNL A   1      43.648  31.604  30.895  1.00  0.00     0.037 A 
ATOM     25  C   UNL A   1      42.707  25.161  28.331  1.00  0.00     0.037 A 
ATOM     26  C   UNL A   1      44.810  30.752  30.933  1.00  0.00     0.049 A 
ATOM     27  C   UNL A   1      44.048  25.618  28.834  1.00  0.00     0.074 A 
ATOM     28  C   UNL A   1      46.072  31.039  31.428  1.00  0.00     0.029 A 
ATOM     29  N   UNL A   1      44.860  29.450  30.454  1.00  0.00    -0.354 N 
ATOM     30  N   UNL A   1      44.379  26.773  29.359  1.00  0.00    -0.248 NA
ATOM     31  C   UNL A   1      45.156  24.659  28.736  1.00  0.00     0.031 C 
ATOM     32  C   UNL A   1      46.896  29.932  31.199  1.00  0.00     0.029 A 
ATOM     33  C   UNL A   1      46.134  28.931  30.618  1.00  0.00     0.049 A 
ATOM     34  H   UNL A   1      44.100  28.967  30.055  1.00  0.00     0.167 HD
ATOM     35  C   UNL A   1      45.730  26.672  29.676  1.00  0.00     0.074 A 
ATOM     36  C   UNL A   1      46.149  25.340  29.295  1.00  0.00     0.031 C 
ATOM     37  C   UNL A   1      46.544  27.600  30.237  1.00  0.00     0.037 A 
BRANCH  24  38
ATOM     38  C   UNL A   1      43.788  33.020  31.391  1.00  0.00     0.058 A 
ATOM     39  C   UNL A   1      44.162  34.071  30.537  1.00  0.00     0.135 A 
ATOM     40  C   UNL A   1      43.512  33.336  32.731  1.00  0.00     0.135 A 
ATOM     41  F   UNL A   1      44.448  33.827  29.249  1.00  0.00    -0.206 F 
ATOM     42  C   UNL A   1      44.293  35.376  31.004  1.00  0.00     0.059 A 
ATOM     43  C   UNL A   1      43.609  34.640  33.213  1.00  0.00     0.059 A 
ATOM     44  F   UNL A   1      43.145  32.373  33.592  1.00  0.00    -0.206 F 
ATOM     45  C   UNL A   1      44.019  35.649  32.344  1.00  0.00     0.060 A 
BRANCH  45  46
ATOM     46  S   UNL A   1      44.214  37.345  32.937  1.00  0.00     0.124 S 
ATOM     47  O   UNL A   1      45.517  37.274  33.590  1.00  0.00    -0.237 OA
ATOM     48  O   UNL A   1      44.167  38.116  31.698  1.00  0.00    -0.237 OA
ATOM     49  O   UNL A   1      43.073  37.528  33.829  1.00  0.00    -0.744 OA
ENDBRANCH  45  46
ENDBRANCH  24  38
BRANCH  25  50
ATOM     50  C   UNL A   1      42.521  23.798  27.764  1.00  0.00     0.058 A 
ATOM     51  C   UNL A   1      42.562  23.578  26.380  1.00  0.00     0.135 A 
ATOM     52  C   UNL A   1      42.340  22.685  28.600  1.00  0.00     0.135 A 
ATOM     53  F   UNL A   1      42.725  24.610  25.541  1.00  0.00    -0.206 F 
ATOM     54  C   UNL A   1      42.426  22.302  25.843  1.00  0.00     0.059 A 
ATOM     55  C   UNL A   1      42.229  21.396  28.088  1.00  0.00     0.059 A 
ATOM     56  F   UNL A   1      42.309  22.841  29.933  1.00  0.00    -0.206 F 
ATOM     57  C   UNL A   1      42.267  21.216  26.707  1.00  0.00     0.060 A 
BRANCH  57  58
ATOM     58  S   UNL A   1      42.161  19.557  26.001  1.00  0.00     0.124 S 
ATOM     59  O   UNL A   1      40.739  19.457  25.697  1.00  0.00    -0.237 OA
ATOM     60  O   UNL A   1      43.055  19.656  24.853  1.00  0.00    -0.237 OA
ATOM     61  O   UNL A   1      42.638  18.701  27.084  1.00  0.00    -0.744 OA
ENDBRANCH  57  58
ENDBRANCH  25  50
BRANCH  37  62
ATOM     62  C   UNL A   1      47.968  27.199  30.511  1.00  0.00     0.058 A 
ATOM     63  C   UNL A   1      49.006  27.494  29.615  1.00  0.00     0.135 A 
ATOM     64  C   UNL A   1      48.304  26.557  31.713  1.00  0.00     0.135 A 
ATOM     65  F   UNL A   1      48.740  28.099  28.446  1.00  0.00    -0.206 F 
ATOM     66  C   UNL A   1      50.326  27.147  29.891  1.00  0.00     0.059 A 
ATOM     67  C   UNL A   1      49.619  26.226  32.024  1.00  0.00     0.059 A 
ATOM     68  F   UNL A   1      47.350  26.259  32.610  1.00  0.00    -0.206 F 
ATOM     69  C   UNL A   1      50.623  26.516  31.101  1.00  0.00     0.060 A 
BRANCH  69  70
ATOM     70  S   UNL A   1      52.343  26.108  31.467  1.00  0.00     0.124 S 
ATOM     71  O   UNL A   1      52.695  27.151  32.424  1.00  0.00    -0.237 OA
ATOM     72  O   UNL A   1      52.235  24.758  32.011  1.00  0.00    -0.237 OA
ATOM     73  O   UNL A   1      52.999  26.204  30.166  1.00  0.00    -0.744 OA
ENDBRANCH  69  70
ENDBRANCH  37  62
ENDBRANCH  11  12
ENDBRANCH   4   6
ENDBRANCH   1   2
BRANCH   1  74
ATOM     74  C   UNL A   1      34.272  28.135  25.512  1.00  0.00     0.042 C 
BRANCH  74  75
ATOM     75  C   UNL A   1      33.405  28.427  24.289  1.00  0.00     0.118 C 
BRANCH  75  76
ATOM     76  N   UNL A   1      33.841  27.787  23.057  1.00  0.00    -0.352 N 
ATOM     77  C   UNL A   1      33.310  26.675  22.446  1.00  0.00     0.251 C 
ATOM     78  H   UNL A   1      34.611  28.201  22.605  1.00  0.00     0.163 HD
ATOM     79  O   UNL A   1      33.566  26.413  21.274  1.00  0.00    -0.269 OA
BRANCH  77  80
ATOM     80  C   UNL A   1      32.509  25.725  23.240  1.00  0.00     0.041 A 
ATOM     81  C   UNL A   1      31.136  25.708  22.977  1.00  0.00     0.014 A 
ATOM     82  C   UNL A   1      33.080  24.896  24.226  1.00  0.00     0.039 A 
ATOM     83  C   UNL A   1      30.320  24.827  23.668  1.00  0.00     0.003 A 
ATOM     84  C   UNL A   1      32.260  23.996  24.920  1.00  0.00     0.039 A 
ATOM     85  C   UNL A   1      30.882  23.976  24.616  1.00  0.00     0.026 A 
BRANCH  84  86
ATOM     86  N   UNL A   1      32.775  22.993  25.777  1.00  0.00    -0.355 N 
ATOM     87  H   UNL A   1      32.510  23.012  26.726  1.00  0.00     0.167 HD
BRANCH  86  88
ATOM     88  C   UNL A   1      33.654  21.962  25.347  1.00  0.00     0.050 A 
ATOM     89  C   UNL A   1      33.065  20.753  24.946  1.00  0.00     0.047 A 
ATOM     90  C   UNL A   1      35.073  22.038  25.413  1.00  0.00     0.027 A 
ATOM     91  C   UNL A   1      33.859  19.655  24.719  1.00  0.00     0.114 A 
ATOM     92  C   UNL A   1      35.786  20.862  25.057  1.00  0.00     0.072 A 
ATOM     93  C   UNL A   1      35.827  23.162  25.839  1.00  0.00     0.051 A 
ATOM     94  N   UNL A   1      35.200  19.701  24.751  1.00  0.00    -0.256 NA
ATOM     95  C   UNL A   1      37.172  20.869  25.032  1.00  0.00     0.032 A 
ATOM     96  C   UNL A   1      37.223  23.120  25.832  1.00  0.00     0.124 A 
ATOM     97  C   UNL A   1      37.903  21.993  25.402  1.00  0.00     0.041 A 
ATOM     98  F   UNL A   1      37.924  24.184  26.247  1.00  0.00    -0.207 F 
ENDBRANCH  86  88
ENDBRANCH  84  86
ENDBRANCH  77  80
ENDBRANCH  75  76
ENDBRANCH  74  75
ENDBRANCH   1  74
TORSDOF 15
ENDMDL
MODEL 2
REMARK VINA RESULT:     -11.9      2.696      3.456
REMARK SMILES O=C(NCCCNC(=O)c1cccc(Nc2ccnc3ccc(F)cc23)c1)c1ccc(-c2c3nc(c(-c4c(F)cc(S(=O)(=O)[O-])cc4F)c4ccc([nH]4)c(-c4c(F)cc(S(=O)(=O)[O-])cc4F)c4nc(c(-c5c(F)cc(S(=O)(=O)[O-])cc5F)c5ccc2[nH]5)C=C4)C=C3)cc1
REMARK SMILES IDX 4 1 3 2 1 3 2 4 28 6 29 7 93 8 30 9 92 10 31 11 32 12 33 13
REMARK SMILES IDX 86 14 34 15 91 16 85 17 87 18 35 19 90 20 84 21 83 22 36 24
REMARK SMILES IDX 70 25 49 26 69 27 50 28 53 29 68 30 88 31 51 32 52 33 67 35
REMARK SMILES IDX 89 36 54 37 37 38 38 39 47 40 39 41 40 42 46 43 48 44 41 45
REMARK SMILES IDX 42 46 43 47 44 48 45 49 71 50 72 51 81 52 73 53 74 54 80 55
REMARK SMILES IDX 82 56 75 57 76 58 77 59 78 60 79 61 55 62 56 63 65 64 57 65
REMARK SMILES IDX 58 66 64 67 66 68 59 69 60 70 61 71 62 72 63 73 5 74 6 75
REMARK SMILES IDX 7 76 8 77 9 79 10 80 11 81 27 82 12 83 14 84 13 85 15 86
REMARK SMILES IDX 16 88 17 89 26 90 18 91 20 92 25 93 19 94 21 95 23 96 22 97
REMARK SMILES IDX 24 98
REMARK H PARENT 3 5 87 23 53 34 7 78 15 87
REMARK Flexibility Score: inf
ROOT
ATOM      1  C   UNL A   1      35.127  29.388  27.605  1.00  0.00     0.118 C 
ENDROOT
BRANCH   1   2
ATOM      2  N   UNL A   1      35.198  30.011  28.919  1.00  0.00    -0.352 N 
ATOM      3  O   UNL A   1      36.025  30.702  30.883  1.00  0.00    -0.269 OA
ATOM      4  C   UNL A   1      36.257  30.231  29.769  1.00  0.00     0.251 C 
ATOM      5  H   UNL A   1      34.334  30.335  29.260  1.00  0.00     0.163 HD
BRANCH   4   6
ATOM      6  C   UNL A   1      37.654  29.893  29.398  1.00  0.00     0.039 A 
ATOM      7  C   UNL A   1      38.128  30.022  28.092  1.00  0.00     0.014 A 
ATOM      8  C   UNL A   1      38.536  29.493  30.410  1.00  0.00     0.014 A 
ATOM      9  C   UNL A   1      39.427  29.617  27.775  1.00  0.00     0.010 A 
ATOM     10  C   UNL A   1      39.861  29.157  30.104  1.00  0.00     0.010 A 
ATOM     11  C   UNL A   1      40.310  29.181  28.775  1.00  0.00    -0.014 A 
BRANCH  11  12
ATOM     12  C   UNL A   1      41.703  28.785  28.426  1.00  0.00     0.031 A 
ATOM     13  C   UNL A   1      42.819  29.797  28.426  1.00  0.00     0.074 A 
ATOM     14  C   UNL A   1      41.968  27.501  28.111  1.00  0.00     0.049 A 
ATOM     15  N   UNL A   1      44.087  29.631  28.139  1.00  0.00    -0.248 NA
ATOM     16  C   UNL A   1      42.467  31.178  28.788  1.00  0.00     0.031 C 
ATOM     17  C   UNL A   1      40.975  26.426  28.062  1.00  0.00     0.029 A 
ATOM     18  N   UNL A   1      43.145  26.880  27.776  1.00  0.00    -0.354 N 
ATOM     19  C   UNL A   1      44.679  30.882  28.270  1.00  0.00     0.074 A 
ATOM     20  C   UNL A   1      43.625  31.806  28.633  1.00  0.00     0.031 C 
ATOM     21  C   UNL A   1      41.588  25.275  27.744  1.00  0.00     0.029 A 
ATOM     22  C   UNL A   1      43.005  25.537  27.512  1.00  0.00     0.049 A 
ATOM     23  H   UNL A   1      44.009  27.350  27.730  1.00  0.00     0.167 HD
ATOM     24  C   UNL A   1      45.981  31.227  28.113  1.00  0.00     0.037 A 
ATOM     25  C   UNL A   1      43.906  24.620  27.108  1.00  0.00     0.037 A 
ATOM     26  C   UNL A   1      47.029  30.302  27.756  1.00  0.00     0.049 A 
ATOM     27  C   UNL A   1      45.338  25.032  26.909  1.00  0.00     0.074 A 
ATOM     28  C   UNL A   1      48.383  30.551  27.608  1.00  0.00     0.029 A 
ATOM     29  N   UNL A   1      46.841  28.954  27.482  1.00  0.00    -0.354 N 
ATOM     30  N   UNL A   1      45.885  26.213  27.077  1.00  0.00    -0.248 NA
ATOM     31  C   UNL A   1      46.275  23.990  26.469  1.00  0.00     0.031 C 
ATOM     32  C   UNL A   1      49.004  29.367  27.195  1.00  0.00     0.029 A 
ATOM     33  C   UNL A   1      48.049  28.365  27.143  1.00  0.00     0.049 A 
ATOM     34  H   UNL A   1      45.976  28.486  27.524  1.00  0.00     0.167 HD
ATOM     35  C   UNL A   1      47.235  26.050  26.785  1.00  0.00     0.074 A 
ATOM     36  C   UNL A   1      47.422  24.656  26.442  1.00  0.00     0.031 C 
ATOM     37  C   UNL A   1      48.227  26.974  26.806  1.00  0.00     0.037 A 
BRANCH  24  38
ATOM     38  C   UNL A   1      46.349  32.676  28.303  1.00  0.00     0.058 A 
ATOM     39  C   UNL A   1      46.290  33.601  27.247  1.00  0.00     0.135 A 
ATOM     40  C   UNL A   1      46.731  33.155  29.567  1.00  0.00     0.135 A 
ATOM     41  F   UNL A   1      45.940  33.199  26.016  1.00  0.00    -0.206 F 
ATOM     42  C   UNL A   1      46.634  34.938  27.429  1.00  0.00     0.059 A 
ATOM     43  C   UNL A   1      47.052  34.494  29.778  1.00  0.00     0.059 A 
ATOM     44  F   UNL A   1      46.800  32.318  30.615  1.00  0.00    -0.206 F 
ATOM     45  C   UNL A   1      47.018  35.373  28.698  1.00  0.00     0.060 A 
BRANCH  45  46
ATOM     46  S   UNL A   1      47.480  37.106  28.912  1.00  0.00     0.124 S 
ATOM     47  O   UNL A   1      46.262  37.785  28.481  1.00  0.00    -0.237 OA
ATOM     48  O   UNL A   1      47.772  37.177  30.341  1.00  0.00    -0.237 OA
ATOM     49  O   UNL A   1      48.633  37.264  28.032  1.00  0.00    -0.744 OA
ENDBRANCH  45  46
ENDBRANCH  24  38
BRANCH  25  50
ATOM     50  C   UNL A   1      43.468  23.220  26.867  1.00  0.00     0.058 A 
ATOM     51  C   UNL A   1      43.372  22.704  25.567  1.00  0.00     0.135 A 
ATOM     52  C   UNL A   1      43.176  22.359  27.937  1.00  0.00     0.135 A 
ATOM     53  F   UNL A   1      43.634  23.489  24.512  1.00  0.00    -0.206 F 
ATOM     54  C   UNL A   1      42.998  21.384  25.334  1.00  0.00     0.059 A 
ATOM     55  C   UNL A   1      42.827  21.028  27.731  1.00  0.00     0.059 A 
ATOM     56  F   UNL A   1      43.267  22.800  29.201  1.00  0.00    -0.206 F 
ATOM     57  C   UNL A   1      42.734  20.552  26.424  1.00  0.00     0.060 A 
BRANCH  57  58
ATOM     58  S   UNL A   1      42.318  18.822  26.112  1.00  0.00     0.124 S 
ATOM     59  O   UNL A   1      43.240  18.489  25.032  1.00  0.00    -0.237 OA
ATOM     60  O   UNL A   1      42.596  18.203  27.404  1.00  0.00    -0.237 OA
ATOM     61  O   UNL A   1      40.907  18.878  25.744  1.00  0.00    -0.744 OA
ENDBRANCH  57  58
ENDBRANCH  25  50
BRANCH  37  62
ATOM     62  C   UNL A   1      49.620  26.503  26.483  1.00  0.00     0.058 A 
ATOM     63  C   UNL A   1      50.474  25.983  27.467  1.00  0.00     0.135 A 
ATOM     64  C   UNL A   1      50.085  26.525  25.158  1.00  0.00     0.135 A 
ATOM     65  F   UNL A   1      50.083  25.947  28.751  1.00  0.00    -0.206 F 
ATOM     66  C   UNL A   1      51.749  25.520  27.153  1.00  0.00     0.059 A 
ATOM     67  C   UNL A   1      51.344  26.041  24.816  1.00  0.00     0.059 A 
ATOM     68  F   UNL A   1      49.306  27.004  24.175  1.00  0.00    -0.206 F 
ATOM     69  C   UNL A   1      52.173  25.550  25.823  1.00  0.00     0.060 A 
BRANCH  69  70
ATOM     70  S   UNL A   1      53.813  24.909  25.422  1.00  0.00     0.124 S 
ATOM     71  O   UNL A   1      53.519  23.509  25.135  1.00  0.00    -0.237 OA
ATOM     72  O   UNL A   1      54.196  25.726  24.274  1.00  0.00    -0.237 OA
ATOM     73  O   UNL A   1      54.579  25.152  26.640  1.00  0.00    -0.744 OA
ENDBRANCH  69  70
ENDBRANCH  37  62
ENDBRANCH  11  12
ENDBRANCH   4   6
ENDBRANCH   1   2
BRANCH   1  74
ATOM     74  C   UNL A   1      33.714  28.982  27.183  1.00  0.00     0.042 C 
BRANCH  74  75
ATOM     75  C   UNL A   1      33.158  29.652  25.929  1.00  0.00     0.118 C 
BRANCH  75  76
ATOM     76  N   UNL A   1      33.675  29.132  24.672  1.00  0.00    -0.352 N 
ATOM     77  C   UNL A   1      33.173  28.103  23.911  1.00  0.00     0.251 C 
ATOM     78  H   UNL A   1      34.483  29.572  24.324  1.00  0.00     0.163 HD
ATOM     79  O   UNL A   1      33.513  27.957  22.739  1.00  0.00    -0.269 OA
BRANCH  77  80
ATOM     80  C   UNL A   1      32.299  27.096  24.539  1.00  0.00     0.041 A 
ATOM     81  C   UNL A   1      30.928  27.239  24.306  1.00  0.00     0.014 A 
ATOM     82  C   UNL A   1      32.803  26.059  25.349  1.00  0.00     0.039 A 
ATOM     83  C   UNL A   1      30.044  26.319  24.846  1.00  0.00     0.003 A 
ATOM     84  C   UNL A   1      31.913  25.120  25.889  1.00  0.00     0.039 A 
ATOM     85  C   UNL A   1      30.537  25.269  25.615  1.00  0.00     0.026 A 
BRANCH  84  86
ATOM     86  N   UNL A   1      32.347  23.941  26.543  1.00  0.00    -0.355 N 
ATOM     87  H   UNL A   1      32.258  23.894  27.523  1.00  0.00     0.167 HD
BRANCH  86  88
ATOM     88  C   UNL A   1      32.903  22.822  25.866  1.00  0.00     0.050 A 
ATOM     89  C   UNL A   1      32.011  21.815  25.466  1.00  0.00     0.047 A 
ATOM     90  C   UNL A   1      34.297  22.607  25.683  1.00  0.00     0.027 A 
ATOM     91  C   UNL A   1      32.503  20.621  24.996  1.00  0.00     0.114 A 
ATOM     92  C   UNL A   1      34.674  21.369  25.095  1.00  0.00     0.072 A 
ATOM     93  C   UNL A   1      35.334  23.494  26.070  1.00  0.00     0.051 A 
ATOM     94  N   UNL A   1      33.810  20.397  24.790  1.00  0.00    -0.256 NA
ATOM     95  C   UNL A   1      36.007  21.106  24.822  1.00  0.00     0.032 A 
ATOM     96  C   UNL A   1      36.668  23.179  25.809  1.00  0.00     0.124 A 
ATOM     97  C   UNL A   1      37.013  22.006  25.159  1.00  0.00     0.041 A 
ATOM     98  F   UNL A   1      37.640  24.020  26.189  1.00  0.00    -0.207 F 
ENDBRANCH  86  88
ENDBRANCH  84  86
ENDBRANCH  77  80
ENDBRANCH  75  76
ENDBRANCH  74  75
ENDBRANCH   1  74
TORSDOF 15
ENDMDL
MODEL 3
REMARK VINA RESULT:     -11.8      2.835      3.779
REMARK SMILES O=C(NCCCNC(=O)c1cccc(Nc2ccnc3ccc(F)cc23)c1)c1ccc(-c2c3nc(c(-c4c(F)cc(S(=O)(=O)[O-])cc4F)c4ccc([nH]4)c(-c4c(F)cc(S(=O)(=O)[O-])cc4F)c4nc(c(-c5c(F)cc(S(=O)(=O)[O-])cc5F)c5ccc2[nH]5)C=C4)C=C3)cc1
REMARK SMILES IDX 4 1 3 2 1 3 2 4 28 6 29 7 93 8 30 9 92 10 31 11 32 12 33 13
REMARK SMILES IDX 86 14 34 15 91 16 85 17 87 18 35 19 90 20 84 21 83 22 36 24
REMARK SMILES IDX 70 25 49 26 69 27 50 28 53 29 68 30 88 31 51 32 52 33 67 35
REMARK SMILES IDX 89 36 54 37 37 38 38 39 47 40 39 41 40 42 46 43 48 44 41 45
REMARK SMILES IDX 42 46 43 47 44 48 45 49 71 50 72 51 81 52 73 53 74 54 80 55
REMARK SMILES IDX 82 56 75 57 76 58 77 59 78 60 79 61 55 62 56 63 65 64 57 65
REMARK SMILES IDX 58 66 64 67 66 68 59 69 60 70 61 71 62 72 63 73 5 74 6 75
REMARK SMILES IDX 7 76 8 77 9 79 10 80 11 81 27 82 12 83 14 84 13 85 15 86
REMARK SMILES IDX 16 88 17 89 26 90 18 91 20 92 25 93 19 94 21 95 23 96 22 97
REMARK SMILES IDX 24 98
REMARK H PARENT 3 5 87 23 53 34 7 78 15 87
REMARK Flexibility Score: inf
ROOT
ATOM      1  C   UNL A   1      35.506  31.408  28.175  1.00  0.00     0.118 C 
ENDROOT
BRANCH   1   2
ATOM      2  N   UNL A   1      35.452  31.031  29.581  1.00  0.00    -0.352 N 
ATOM      3  O   UNL A   1      36.033  30.122  31.545  1.00  0.00    -0.269 OA
ATOM      4  C   UNL A   1      36.372  30.416  30.398  1.00  0.00     0.251 C 
ATOM      5  H   UNL A   1      34.605  31.257  30.028  1.00  0.00     0.163 HD
BRANCH   4   6
ATOM      6  C   UNL A   1      37.740  30.075  29.934  1.00  0.00     0.039 A 
ATOM      7  C   UNL A   1      38.077  30.031  28.580  1.00  0.00     0.014 A 
ATOM      8  C   UNL A   1      38.735  29.853  30.894  1.00  0.00     0.014 A 
ATOM      9  C   UNL A   1      39.355  29.628  28.189  1.00  0.00     0.010 A 
ATOM     10  C   UNL A   1      40.038  29.520  30.501  1.00  0.00     0.010 A 
ATOM     11  C   UNL A   1      40.353  29.368  29.142  1.00  0.00    -0.014 A 
BRANCH  11  12
ATOM     12  C   UNL A   1      41.722  28.972  28.708  1.00  0.00     0.031 A 
ATOM     13  C   UNL A   1      42.844  29.976  28.670  1.00  0.00     0.074 A 
ATOM     14  C   UNL A   1      41.959  27.694  28.349  1.00  0.00     0.049 A 
ATOM     15  N   UNL A   1      44.092  29.809  28.311  1.00  0.00    -0.248 NA
ATOM     16  C   UNL A   1      42.522  31.351  29.084  1.00  0.00     0.031 C 
ATOM     17  C   UNL A   1      40.957  26.627  28.328  1.00  0.00     0.029 A 
ATOM     18  N   UNL A   1      43.111  27.074  27.935  1.00  0.00    -0.354 N 
ATOM     19  C   UNL A   1      44.700  31.053  28.438  1.00  0.00     0.074 A 
ATOM     20  C   UNL A   1      43.675  31.975  28.880  1.00  0.00     0.031 C 
ATOM     21  C   UNL A   1      41.542  25.480  27.951  1.00  0.00     0.029 A 
ATOM     22  C   UNL A   1      42.947  25.739  27.647  1.00  0.00     0.049 A 
ATOM     23  H   UNL A   1      43.975  27.539  27.853  1.00  0.00     0.167 HD
ATOM     24  C   UNL A   1      45.995  31.394  28.219  1.00  0.00     0.037 A 
ATOM     25  C   UNL A   1      43.817  24.826  27.173  1.00  0.00     0.037 A 
ATOM     26  C   UNL A   1      47.014  30.471  27.783  1.00  0.00     0.049 A 
ATOM     27  C   UNL A   1      45.239  25.234  26.906  1.00  0.00     0.074 A 
ATOM     28  C   UNL A   1      48.360  30.714  27.567  1.00  0.00     0.029 A 
ATOM     29  N   UNL A   1      46.801  29.131  27.489  1.00  0.00    -0.354 N 
ATOM     30  N   UNL A   1      45.804  26.406  27.072  1.00  0.00    -0.248 NA
ATOM     31  C   UNL A   1      46.143  24.196  26.391  1.00  0.00     0.031 C 
ATOM     32  C   UNL A   1      48.948  29.538  27.093  1.00  0.00     0.029 A 
ATOM     33  C   UNL A   1      47.984  28.543  27.070  1.00  0.00     0.049 A 
ATOM     34  H   UNL A   1      45.936  28.667  27.566  1.00  0.00     0.167 HD
ATOM     35  C   UNL A   1      47.134  26.242  26.703  1.00  0.00     0.074 A 
ATOM     36  C   UNL A   1      47.292  24.855  26.317  1.00  0.00     0.031 C 
ATOM     37  C   UNL A   1      48.134  27.159  26.690  1.00  0.00     0.037 A 
BRANCH  24  38
ATOM     38  C   UNL A   1      46.383  32.836  28.423  1.00  0.00     0.058 A 
ATOM     39  C   UNL A   1      46.855  33.308  29.659  1.00  0.00     0.135 A 
ATOM     40  C   UNL A   1      46.314  33.750  27.359  1.00  0.00     0.135 A 
ATOM     41  F   UNL A   1      46.933  32.482  30.714  1.00  0.00    -0.206 F 
ATOM     42  C   UNL A   1      47.209  34.643  29.841  1.00  0.00     0.059 A 
ATOM     43  C   UNL A   1      46.690  35.083  27.512  1.00  0.00     0.059 A 
ATOM     44  F   UNL A   1      45.876  33.354  26.154  1.00  0.00    -0.206 F 
ATOM     45  C   UNL A   1      47.118  35.523  28.762  1.00  0.00     0.060 A 
BRANCH  45  46
ATOM     46  S   UNL A   1      47.561  37.255  29.022  1.00  0.00     0.124 S 
ATOM     47  O   UNL A   1      48.985  37.145  29.326  1.00  0.00    -0.237 OA
ATOM     48  O   UNL A   1      47.235  37.857  27.733  1.00  0.00    -0.237 OA
ATOM     49  O   UNL A   1      46.710  37.662  30.134  1.00  0.00    -0.744 OA
ENDBRANCH  45  46
ENDBRANCH  24  38
BRANCH  25  50
ATOM     50  C   UNL A   1      43.356  23.434  26.923  1.00  0.00     0.058 A 
ATOM     51  C   UNL A   1      43.142  22.965  25.620  1.00  0.00     0.135 A 
ATOM     52  C   UNL A   1      43.161  22.536  27.985  1.00  0.00     0.135 A 
ATOM     53  F   UNL A   1      43.308  23.787  24.575  1.00  0.00    -0.206 F 
ATOM     54  C   UNL A   1      42.745  21.654  25.376  1.00  0.00     0.059 A 
ATOM     55  C   UNL A   1      42.791  21.213  27.764  1.00  0.00     0.059 A 
ATOM     56  F   UNL A   1      43.367  22.932  29.250  1.00  0.00    -0.206 F 
ATOM     57  C   UNL A   1      42.580  20.783  26.455  1.00  0.00     0.060 A 
BRANCH  57  58
ATOM     58  S   UNL A   1      42.133  19.065  26.121  1.00  0.00     0.124 S 
ATOM     59  O   UNL A   1      42.467  18.424  27.387  1.00  0.00    -0.237 OA
ATOM     60  O   UNL A   1      40.711  19.173  25.814  1.00  0.00    -0.237 OA
ATOM     61  O   UNL A   1      42.985  18.712  24.989  1.00  0.00    -0.744 OA
ENDBRANCH  57  58
ENDBRANCH  25  50
BRANCH  37  62
ATOM     62  C   UNL A   1      49.503  26.687  26.281  1.00  0.00     0.058 A 
ATOM     63  C   UNL A   1      50.003  26.898  24.987  1.00  0.00     0.135 A 
ATOM     64  C   UNL A   1      50.345  26.062  27.215  1.00  0.00     0.135 A 
ATOM     65  F   UNL A   1      49.238  27.483  24.053  1.00  0.00    -0.206 F 
ATOM     66  C   UNL A   1      51.284  26.487  24.627  1.00  0.00     0.059 A 
ATOM     67  C   UNL A   1      51.638  25.669  26.885  1.00  0.00     0.059 A 
ATOM     68  F   UNL A   1      49.919  25.843  28.469  1.00  0.00    -0.206 F 
ATOM     69  C   UNL A   1      52.095  25.876  25.585  1.00  0.00     0.060 A 
BRANCH  69  70
ATOM     70  S   UNL A   1      53.768  25.384  25.117  1.00  0.00     0.124 S 
ATOM     71  O   UNL A   1      53.793  25.737  23.702  1.00  0.00    -0.237 OA
ATOM     72  O   UNL A   1      54.594  26.211  25.992  1.00  0.00    -0.237 OA
ATOM     73  O   UNL A   1      53.795  23.954  25.407  1.00  0.00    -0.744 OA
ENDBRANCH  69  70
ENDBRANCH  37  62
ENDBRANCH  11  12
ENDBRANCH   4   6
ENDBRANCH   1   2
BRANCH   1  74
ATOM     74  C   UNL A   1      34.400  30.788  27.321  1.00  0.00     0.042 C 
BRANCH  74  75
ATOM     75  C   UNL A   1      34.250  29.271  27.396  1.00  0.00     0.118 C 
BRANCH  75  76
ATOM     76  N   UNL A   1      32.931  28.801  27.795  1.00  0.00    -0.352 N 
ATOM     77  C   UNL A   1      32.092  27.952  27.112  1.00  0.00     0.251 C 
ATOM     78  H   UNL A   1      32.600  29.131  28.661  1.00  0.00     0.163 HD
ATOM     79  O   UNL A   1      31.153  27.398  27.679  1.00  0.00    -0.269 OA
BRANCH  77  80
ATOM     80  C   UNL A   1      32.254  27.789  25.657  1.00  0.00     0.041 A 
ATOM     81  C   UNL A   1      31.677  28.780  24.857  1.00  0.00     0.014 A 
ATOM     82  C   UNL A   1      32.929  26.689  25.091  1.00  0.00     0.039 A 
ATOM     83  C   UNL A   1      31.805  28.708  23.480  1.00  0.00     0.003 A 
ATOM     84  C   UNL A   1      33.071  26.617  23.698  1.00  0.00     0.039 A 
ATOM     85  C   UNL A   1      32.505  27.644  22.915  1.00  0.00     0.026 A 
BRANCH  84  86
ATOM     86  N   UNL A   1      33.899  25.661  23.060  1.00  0.00    -0.355 N 
ATOM     87  H   UNL A   1      34.592  25.987  22.441  1.00  0.00     0.167 HD
BRANCH  86  88
ATOM     88  C   UNL A   1      33.787  24.259  23.263  1.00  0.00     0.050 A 
ATOM     89  C   UNL A   1      32.710  23.611  22.640  1.00  0.00     0.047 A 
ATOM     90  C   UNL A   1      34.614  23.507  24.144  1.00  0.00     0.027 A 
ATOM     91  C   UNL A   1      32.426  22.306  22.961  1.00  0.00     0.114 A 
ATOM     92  C   UNL A   1      34.275  22.139  24.317  1.00  0.00     0.072 A 
ATOM     93  C   UNL A   1      35.712  24.012  24.888  1.00  0.00     0.051 A 
ATOM     94  N   UNL A   1      33.199  21.564  23.768  1.00  0.00    -0.256 NA
ATOM     95  C   UNL A   1      35.066  21.319  25.106  1.00  0.00     0.032 A 
ATOM     96  C   UNL A   1      36.465  23.163  25.700  1.00  0.00     0.124 A 
ATOM     97  C   UNL A   1      36.172  21.812  25.792  1.00  0.00     0.041 A 
ATOM     98  F   UNL A   1      37.493  23.653  26.407  1.00  0.00    -0.207 F 
ENDBRANCH  86  88
ENDBRANCH  84  86
ENDBRANCH  77  80
ENDBRANCH  75  76
ENDBRANCH  74  75
ENDBRANCH   1  74
TORSDOF 15
ENDMDL
