MODEL 1
REMARK VINA RESULT:     -13.6      0.000      0.000
REMARK SMILES O=C(NCCCNC(=O)c1ccc2c(c1)[C@@H]1C=CC[C@@H]1[C@H](c1ccncc1)N2)c1ccc(-c2c3nc(c(-c4c(F)cc(S(=O)(=O)[O-])cc4F)c4ccc([nH]4)c(-c4c(F)cc(S(=O)(=O)[O-])cc4F)c4nc(c(-c5c(F)cc(S(=O)(=O)[O-])cc5F)c5ccc2[nH]5)C=C4)C=C3)cc1
REMARK SMILES IDX 4 1 3 2 1 3 2 4 29 6 30 7 94 8 31 9 93 10 32 11 33 12 34 13
REMARK SMILES IDX 87 14 35 15 92 16 86 17 88 18 36 19 91 20 85 21 84 22 37 24
REMARK SMILES IDX 71 25 50 26 70 27 51 28 54 29 69 30 89 31 52 32 53 33 68 35
REMARK SMILES IDX 90 36 55 37 38 38 39 39 48 40 40 41 41 42 47 43 49 44 42 45
REMARK SMILES IDX 43 46 44 47 45 48 46 49 72 50 73 51 82 52 74 53 75 54 81 55
REMARK SMILES IDX 83 56 76 57 77 58 78 59 79 60 80 61 56 62 57 63 66 64 58 65
REMARK SMILES IDX 59 66 65 67 67 68 60 69 61 70 62 71 63 72 64 73 5 74 6 75
REMARK SMILES IDX 7 76 8 77 9 79 10 80 11 81 15 82 12 83 14 84 13 85 16 86
REMARK SMILES IDX 28 87 17 88 20 89 21 90 18 92 19 93 22 94 23 95 27 96 24 97
REMARK SMILES IDX 26 98 25 99
REMARK H PARENT 3 5 88 23 54 34 7 78 28 91
REMARK Flexibility Score: inf
ROOT
ATOM      1  C   UNL A   1      38.557  23.963  26.420  1.00  0.00     0.118 C 
ENDROOT
BRANCH   1   2
ATOM      2  N   UNL A   1      39.988  23.980  26.137  1.00  0.00    -0.352 N 
ATOM      3  O   UNL A   1      42.102  24.742  26.083  1.00  0.00    -0.269 OA
ATOM      4  C   UNL A   1      40.983  24.820  26.583  1.00  0.00     0.251 C 
ATOM      5  H   UNL A   1      40.293  23.273  25.524  1.00  0.00     0.163 HD
BRANCH   4   6
ATOM      6  C   UNL A   1      40.707  25.830  27.630  1.00  0.00     0.039 A 
ATOM      7  C   UNL A   1      41.469  26.994  27.725  1.00  0.00     0.014 A 
ATOM      8  C   UNL A   1      39.659  25.615  28.531  1.00  0.00     0.014 A 
ATOM      9  C   UNL A   1      41.327  27.826  28.828  1.00  0.00     0.010 A 
ATOM     10  C   UNL A   1      39.440  26.520  29.578  1.00  0.00     0.010 A 
ATOM     11  C   UNL A   1      40.306  27.606  29.768  1.00  0.00    -0.014 A 
BRANCH  11  12
ATOM     12  C   UNL A   1      40.167  28.544  30.914  1.00  0.00     0.031 A 
ATOM     13  C   UNL A   1      41.096  28.474  32.099  1.00  0.00     0.074 A 
ATOM     14  C   UNL A   1      39.228  29.511  30.851  1.00  0.00     0.049 A 
ATOM     15  N   UNL A   1      41.154  29.258  33.146  1.00  0.00    -0.248 NA
ATOM     16  C   UNL A   1      42.078  27.378  32.120  1.00  0.00     0.031 C 
ATOM     17  C   UNL A   1      38.257  29.671  29.765  1.00  0.00     0.029 A 
ATOM     18  N   UNL A   1      38.957  30.559  31.693  1.00  0.00    -0.354 N 
ATOM     19  C   UNL A   1      42.151  28.737  33.963  1.00  0.00     0.074 A 
ATOM     20  C   UNL A   1      42.659  27.555  33.299  1.00  0.00     0.031 C 
ATOM     21  C   UNL A   1      37.548  30.791  29.970  1.00  0.00     0.029 A 
ATOM     22  C   UNL A   1      37.968  31.393  31.230  1.00  0.00     0.049 A 
ATOM     23  H   UNL A   1      39.426  30.699  32.548  1.00  0.00     0.167 HD
ATOM     24  C   UNL A   1      42.605  29.204  35.151  1.00  0.00     0.037 A 
ATOM     25  C   UNL A   1      37.452  32.519  31.756  1.00  0.00     0.037 A 
ATOM     26  C   UNL A   1      42.121  30.402  35.790  1.00  0.00     0.049 A 
ATOM     27  C   UNL A   1      37.989  33.027  33.062  1.00  0.00     0.074 A 
ATOM     28  C   UNL A   1      42.550  30.981  36.971  1.00  0.00     0.029 A 
ATOM     29  N   UNL A   1      41.104  31.207  35.298  1.00  0.00    -0.354 N 
ATOM     30  N   UNL A   1      38.951  32.534  33.804  1.00  0.00    -0.248 NA
ATOM     31  C   UNL A   1      37.369  34.242  33.605  1.00  0.00     0.031 C 
ATOM     32  C   UNL A   1      41.769  32.117  37.213  1.00  0.00     0.029 A 
ATOM     33  C   UNL A   1      40.880  32.268  36.160  1.00  0.00     0.049 A 
ATOM     34  H   UNL A   1      40.612  31.047  34.460  1.00  0.00     0.167 HD
ATOM     35  C   UNL A   1      39.063  33.387  34.895  1.00  0.00     0.074 A 
ATOM     36  C   UNL A   1      38.082  34.437  34.706  1.00  0.00     0.031 C 
ATOM     37  C   UNL A   1      39.901  33.306  35.957  1.00  0.00     0.037 A 
BRANCH  24  38
ATOM     38  C   UNL A   1      43.671  28.408  35.854  1.00  0.00     0.058 A 
ATOM     39  C   UNL A   1      43.355  27.370  36.746  1.00  0.00     0.135 A 
ATOM     40  C   UNL A   1      45.029  28.664  35.605  1.00  0.00     0.135 A 
ATOM     41  F   UNL A   1      42.074  27.091  37.033  1.00  0.00    -0.206 F 
ATOM     42  C   UNL A   1      44.348  26.634  37.386  1.00  0.00     0.059 A 
ATOM     43  C   UNL A   1      46.038  27.925  36.216  1.00  0.00     0.059 A 
ATOM     44  F   UNL A   1      45.388  29.643  34.758  1.00  0.00    -0.206 F 
ATOM     45  C   UNL A   1      45.687  26.922  37.117  1.00  0.00     0.060 A 
BRANCH  45  46
ATOM     46  S   UNL A   1      46.966  25.963  37.959  1.00  0.00     0.124 S 
ATOM     47  O   UNL A   1      46.449  24.605  37.818  1.00  0.00    -0.237 OA
ATOM     48  O   UNL A   1      48.158  26.271  37.174  1.00  0.00    -0.237 OA
ATOM     49  O   UNL A   1      46.957  26.501  39.316  1.00  0.00    -0.744 OA
ENDBRANCH  45  46
ENDBRANCH  24  38
BRANCH  25  50
ATOM     50  C   UNL A   1      36.376  33.246  31.034  1.00  0.00     0.058 A 
ATOM     51  C   UNL A   1      35.057  33.239  31.508  1.00  0.00     0.135 A 
ATOM     52  C   UNL A   1      36.653  33.988  29.876  1.00  0.00     0.135 A 
ATOM     53  F   UNL A   1      34.744  32.541  32.610  1.00  0.00    -0.206 F 
ATOM     54  C   UNL A   1      34.046  33.934  30.854  1.00  0.00     0.059 A 
ATOM     55  C   UNL A   1      35.664  34.713  29.219  1.00  0.00     0.059 A 
ATOM     56  F   UNL A   1      37.905  34.041  29.395  1.00  0.00    -0.206 F 
ATOM     57  C   UNL A   1      34.362  34.672  29.711  1.00  0.00     0.060 A 
BRANCH  57  58
ATOM     58  S   UNL A   1      33.057  35.622  28.901  1.00  0.00     0.124 S 
ATOM     59  O   UNL A   1      32.426  34.602  28.069  1.00  0.00    -0.237 OA
ATOM     60  O   UNL A   1      32.271  36.098  30.034  1.00  0.00    -0.237 OA
ATOM     61  O   UNL A   1      33.795  36.656  28.182  1.00  0.00    -0.744 OA
ENDBRANCH  57  58
ENDBRANCH  25  50
BRANCH  37  62
ATOM     62  C   UNL A   1      39.811  34.402  36.980  1.00  0.00     0.058 A 
ATOM     63  C   UNL A   1      40.553  35.586  36.856  1.00  0.00     0.135 A 
ATOM     64  C   UNL A   1      38.956  34.273  38.086  1.00  0.00     0.135 A 
ATOM     65  F   UNL A   1      41.390  35.754  35.820  1.00  0.00    -0.206 F 
ATOM     66  C   UNL A   1      40.476  36.595  37.812  1.00  0.00     0.059 A 
ATOM     67  C   UNL A   1      38.845  35.278  39.042  1.00  0.00     0.059 A 
ATOM     68  F   UNL A   1      38.217  33.164  38.244  1.00  0.00    -0.206 F 
ATOM     69  C   UNL A   1      39.622  36.429  38.904  1.00  0.00     0.060 A 
BRANCH  69  70
ATOM     70  S   UNL A   1      39.517  37.746  40.133  1.00  0.00     0.124 S 
ATOM     71  O   UNL A   1      39.204  36.992  41.344  1.00  0.00    -0.237 OA
ATOM     72  O   UNL A   1      40.851  38.336  40.080  1.00  0.00    -0.237 OA
ATOM     73  O   UNL A   1      38.443  38.596  39.628  1.00  0.00    -0.744 OA
ENDBRANCH  69  70
ENDBRANCH  37  62
ENDBRANCH  11  12
ENDBRANCH   4   6
ENDBRANCH   1   2
BRANCH   1  74
ATOM     74  C   UNL A   1      37.834  22.793  25.772  1.00  0.00     0.042 C 
BRANCH  74  75
ATOM     75  C   UNL A   1      36.344  23.016  25.571  1.00  0.00     0.118 C 
BRANCH  75  76
ATOM     76  N   UNL A   1      35.533  22.377  26.601  1.00  0.00    -0.352 N 
ATOM     77  C   UNL A   1      34.248  22.632  27.008  1.00  0.00     0.251 C 
ATOM     78  H   UNL A   1      35.981  21.644  27.083  1.00  0.00     0.163 HD
ATOM     79  O   UNL A   1      33.809  22.096  28.023  1.00  0.00    -0.269 OA
BRANCH  77  80
ATOM     80  C   UNL A   1      33.381  23.546  26.235  1.00  0.00     0.040 A 
ATOM     81  C   UNL A   1      32.104  23.128  25.862  1.00  0.00     0.016 A 
ATOM     82  C   UNL A   1      33.829  24.813  25.863  1.00  0.00     0.020 A 
ATOM     83  C   UNL A   1      31.272  23.995  25.148  1.00  0.00     0.027 A 
ATOM     84  C   UNL A   1      32.961  25.720  25.239  1.00  0.00    -0.017 A 
ATOM     85  C   UNL A   1      31.698  25.287  24.808  1.00  0.00     0.038 A 
ATOM     86  C   UNL A   1      33.396  27.159  25.077  1.00  0.00     0.049 C 
ATOM     87  N   UNL A   1      30.834  26.138  24.128  1.00  0.00    -0.378 N 
ATOM     88  C   UNL A   1      33.701  27.819  26.401  1.00  0.00    -0.023 C 
ATOM     89  C   UNL A   1      32.286  28.083  24.551  1.00  0.00     0.031 C 
ATOM     90  C   UNL A   1      31.371  27.367  23.558  1.00  0.00     0.114 C 
ATOM     91  H   UNL A   1      29.881  25.915  24.032  1.00  0.00     0.161 HD
ATOM     92  C   UNL A   1      32.714  28.632  26.799  1.00  0.00    -0.030 C 
ATOM     93  C   UNL A   1      31.600  28.661  25.803  1.00  0.00     0.034 C 
BRANCH  90  94
ATOM     94  C   UNL A   1      30.285  28.287  23.028  1.00  0.00    -0.022 A 
ATOM     95  C   UNL A   1      28.942  27.981  23.299  1.00  0.00     0.026 A 
ATOM     96  C   UNL A   1      30.547  29.416  22.243  1.00  0.00     0.026 A 
ATOM     97  C   UNL A   1      27.946  28.803  22.796  1.00  0.00     0.111 A 
ATOM     98  C   UNL A   1      29.481  30.184  21.798  1.00  0.00     0.111 A 
ATOM     99  N   UNL A   1      28.187  29.906  22.062  1.00  0.00    -0.265 NA
ENDBRANCH  90  94
ENDBRANCH  77  80
ENDBRANCH  75  76
ENDBRANCH  74  75
ENDBRANCH   1  74
TORSDOF 14
ENDMDL
MODEL 2
REMARK VINA RESULT:     -13.6      1.077      2.366
REMARK SMILES O=C(NCCCNC(=O)c1ccc2c(c1)[C@@H]1C=CC[C@@H]1[C@H](c1ccncc1)N2)c1ccc(-c2c3nc(c(-c4c(F)cc(S(=O)(=O)[O-])cc4F)c4ccc([nH]4)c(-c4c(F)cc(S(=O)(=O)[O-])cc4F)c4nc(c(-c5c(F)cc(S(=O)(=O)[O-])cc5F)c5ccc2[nH]5)C=C4)C=C3)cc1
REMARK SMILES IDX 4 1 3 2 1 3 2 4 29 6 30 7 94 8 31 9 93 10 32 11 33 12 34 13
REMARK SMILES IDX 87 14 35 15 92 16 86 17 88 18 36 19 91 20 85 21 84 22 37 24
REMARK SMILES IDX 71 25 50 26 70 27 51 28 54 29 69 30 89 31 52 32 53 33 68 35
REMARK SMILES IDX 90 36 55 37 38 38 39 39 48 40 40 41 41 42 47 43 49 44 42 45
REMARK SMILES IDX 43 46 44 47 45 48 46 49 72 50 73 51 82 52 74 53 75 54 81 55
REMARK SMILES IDX 83 56 76 57 77 58 78 59 79 60 80 61 56 62 57 63 66 64 58 65
REMARK SMILES IDX 59 66 65 67 67 68 60 69 61 70 62 71 63 72 64 73 5 74 6 75
REMARK SMILES IDX 7 76 8 77 9 79 10 80 11 81 15 82 12 83 14 84 13 85 16 86
REMARK SMILES IDX 28 87 17 88 20 89 21 90 18 92 19 93 22 94 23 95 27 96 24 97
REMARK SMILES IDX 26 98 25 99
REMARK H PARENT 3 5 88 23 54 34 7 78 28 91
REMARK Flexibility Score: inf
ROOT
ATOM      1  C   UNL A   1      40.961  22.982  27.216  1.00  0.00     0.118 C 
ENDROOT
BRANCH   1   2
ATOM      2  N   UNL A   1      41.239  23.916  26.130  1.00  0.00    -0.352 N 
ATOM      3  O   UNL A   1      41.377  25.876  25.038  1.00  0.00    -0.269 OA
ATOM      4  C   UNL A   1      41.277  25.291  26.114  1.00  0.00     0.251 C 
ATOM      5  H   UNL A   1      41.430  23.491  25.263  1.00  0.00     0.163 HD
BRANCH   4   6
ATOM      6  C   UNL A   1      41.166  26.066  27.371  1.00  0.00     0.039 A 
ATOM      7  C   UNL A   1      40.088  25.885  28.236  1.00  0.00     0.014 A 
ATOM      8  C   UNL A   1      42.167  26.988  27.698  1.00  0.00     0.014 A 
ATOM      9  C   UNL A   1      39.900  26.758  29.300  1.00  0.00     0.010 A 
ATOM     10  C   UNL A   1      42.035  27.789  28.839  1.00  0.00     0.010 A 
ATOM     11  C   UNL A   1      40.873  27.718  29.622  1.00  0.00    -0.014 A 
BRANCH  11  12
ATOM     12  C   UNL A   1      40.648  28.608  30.793  1.00  0.00     0.031 A 
ATOM     13  C   UNL A   1      41.544  28.551  32.002  1.00  0.00     0.074 A 
ATOM     14  C   UNL A   1      39.657  29.523  30.731  1.00  0.00     0.049 A 
ATOM     15  N   UNL A   1      41.527  29.302  33.075  1.00  0.00    -0.248 NA
ATOM     16  C   UNL A   1      42.586  27.512  32.020  1.00  0.00     0.031 C 
ATOM     17  C   UNL A   1      38.711  29.664  29.621  1.00  0.00     0.029 A 
ATOM     18  N   UNL A   1      39.303  30.525  31.597  1.00  0.00    -0.354 N 
ATOM     19  C   UNL A   1      42.528  28.811  33.906  1.00  0.00     0.074 A 
ATOM     20  C   UNL A   1      43.122  27.683  33.221  1.00  0.00     0.031 C 
ATOM     21  C   UNL A   1      37.933  30.734  29.839  1.00  0.00     0.029 A 
ATOM     22  C   UNL A   1      38.282  31.317  31.130  1.00  0.00     0.049 A 
ATOM     23  H   UNL A   1      39.738  30.663  32.470  1.00  0.00     0.167 HD
ATOM     24  C   UNL A   1      42.921  29.263  35.121  1.00  0.00     0.037 A 
ATOM     25  C   UNL A   1      37.687  32.395  31.675  1.00  0.00     0.037 A 
ATOM     26  C   UNL A   1      42.351  30.410  35.782  1.00  0.00     0.049 A 
ATOM     27  C   UNL A   1      38.156  32.889  33.013  1.00  0.00     0.074 A 
ATOM     28  C   UNL A   1      42.712  30.974  36.994  1.00  0.00     0.029 A 
ATOM     29  N   UNL A   1      41.304  31.174  35.285  1.00  0.00    -0.354 N 
ATOM     30  N   UNL A   1      39.123  32.426  33.768  1.00  0.00    -0.248 NA
ATOM     31  C   UNL A   1      37.452  34.048  33.574  1.00  0.00     0.031 C 
ATOM     32  C   UNL A   1      41.860  32.055  37.247  1.00  0.00     0.029 A 
ATOM     33  C   UNL A   1      40.995  32.191  36.173  1.00  0.00     0.049 A 
ATOM     34  H   UNL A   1      40.846  31.014  34.428  1.00  0.00     0.167 HD
ATOM     35  C   UNL A   1      39.154  33.247  34.887  1.00  0.00     0.074 A 
ATOM     36  C   UNL A   1      38.121  34.246  34.702  1.00  0.00     0.031 C 
ATOM     37  C   UNL A   1      39.964  33.179  35.972  1.00  0.00     0.037 A 
BRANCH  24  38
ATOM     38  C   UNL A   1      44.010  28.506  35.831  1.00  0.00     0.058 A 
ATOM     39  C   UNL A   1      45.367  28.819  35.656  1.00  0.00     0.135 A 
ATOM     40  C   UNL A   1      43.688  27.474  36.728  1.00  0.00     0.135 A 
ATOM     41  F   UNL A   1      45.733  29.786  34.800  1.00  0.00    -0.206 F 
ATOM     42  C   UNL A   1      46.367  28.118  36.324  1.00  0.00     0.059 A 
ATOM     43  C   UNL A   1      44.670  26.775  37.423  1.00  0.00     0.059 A 
ATOM     44  F   UNL A   1      42.405  27.135  36.935  1.00  0.00    -0.206 F 
ATOM     45  C   UNL A   1      46.008  27.094  37.203  1.00  0.00     0.060 A 
BRANCH  45  46
ATOM     46  S   UNL A   1      47.316  26.189  38.058  1.00  0.00     0.124 S 
ATOM     47  O   UNL A   1      48.478  27.026  37.780  1.00  0.00    -0.237 OA
ATOM     48  O   UNL A   1      46.849  26.193  39.441  1.00  0.00    -0.237 OA
ATOM     49  O   UNL A   1      47.311  24.884  37.403  1.00  0.00    -0.744 OA
ENDBRANCH  45  46
ENDBRANCH  24  38
BRANCH  25  50
ATOM     50  C   UNL A   1      36.592  33.083  30.943  1.00  0.00     0.058 A 
ATOM     51  C   UNL A   1      35.260  32.970  31.364  1.00  0.00     0.135 A 
ATOM     52  C   UNL A   1      36.862  33.895  29.831  1.00  0.00     0.135 A 
ATOM     53  F   UNL A   1      34.953  32.203  32.421  1.00  0.00    -0.206 F 
ATOM     54  C   UNL A   1      34.230  33.629  30.702  1.00  0.00     0.059 A 
ATOM     55  C   UNL A   1      35.852  34.584  29.168  1.00  0.00     0.059 A 
ATOM     56  F   UNL A   1      38.124  34.050  29.402  1.00  0.00    -0.206 F 
ATOM     57  C   UNL A   1      34.538  34.437  29.606  1.00  0.00     0.060 A 
BRANCH  57  58
ATOM     58  S   UNL A   1      33.204  35.337  28.787  1.00  0.00     0.124 S 
ATOM     59  O   UNL A   1      33.949  36.322  28.010  1.00  0.00    -0.237 OA
ATOM     60  O   UNL A   1      32.545  34.285  28.020  1.00  0.00    -0.237 OA
ATOM     61  O   UNL A   1      32.427  35.869  29.902  1.00  0.00    -0.744 OA
ENDBRANCH  57  58
ENDBRANCH  25  50
BRANCH  37  62
ATOM     62  C   UNL A   1      39.782  34.234  37.026  1.00  0.00     0.058 A 
ATOM     63  C   UNL A   1      39.026  33.994  38.183  1.00  0.00     0.135 A 
ATOM     64  C   UNL A   1      40.389  35.491  36.883  1.00  0.00     0.135 A 
ATOM     65  F   UNL A   1      38.420  32.809  38.362  1.00  0.00    -0.206 F 
ATOM     66  C   UNL A   1      38.850  34.978  39.151  1.00  0.00     0.059 A 
ATOM     67  C   UNL A   1      40.245  36.482  37.849  1.00  0.00     0.059 A 
ATOM     68  F   UNL A   1      41.130  35.766  35.799  1.00  0.00    -0.206 F 
ATOM     69  C   UNL A   1      39.460  36.221  38.973  1.00  0.00     0.060 A 
BRANCH  69  70
ATOM     70  S   UNL A   1      39.238  37.488  40.238  1.00  0.00     0.124 S 
ATOM     71  O   UNL A   1      40.586  38.039  40.341  1.00  0.00    -0.237 OA
ATOM     72  O   UNL A   1      38.238  38.365  39.636  1.00  0.00    -0.237 OA
ATOM     73  O   UNL A   1      38.779  36.731  41.398  1.00  0.00    -0.744 OA
ENDBRANCH  69  70
ENDBRANCH  37  62
ENDBRANCH  11  12
ENDBRANCH   4   6
ENDBRANCH   1   2
BRANCH   1  74
ATOM     74  C   UNL A   1      40.121  21.792  26.780  1.00  0.00     0.042 C 
BRANCH  74  75
ATOM     75  C   UNL A   1      38.844  22.166  26.047  1.00  0.00     0.118 C 
BRANCH  75  76
ATOM     76  N   UNL A   1      38.098  21.003  25.582  1.00  0.00    -0.352 N 
ATOM     77  C   UNL A   1      36.816  20.900  25.103  1.00  0.00     0.251 C 
ATOM     78  H   UNL A   1      38.594  20.153  25.618  1.00  0.00     0.163 HD
ATOM     79  O   UNL A   1      36.312  19.792  24.935  1.00  0.00    -0.269 OA
BRANCH  77  80
ATOM     80  C   UNL A   1      36.032  22.112  24.785  1.00  0.00     0.040 A 
ATOM     81  C   UNL A   1      36.083  22.641  23.497  1.00  0.00     0.016 A 
ATOM     82  C   UNL A   1      35.255  22.738  25.759  1.00  0.00     0.020 A 
ATOM     83  C   UNL A   1      35.328  23.776  23.184  1.00  0.00     0.027 A 
ATOM     84  C   UNL A   1      34.419  23.811  25.422  1.00  0.00    -0.017 A 
ATOM     85  C   UNL A   1      34.509  24.386  24.145  1.00  0.00     0.038 A 
ATOM     86  C   UNL A   1      33.410  24.301  26.435  1.00  0.00     0.049 C 
ATOM     87  N   UNL A   1      33.744  25.492  23.794  1.00  0.00    -0.378 N 
ATOM     88  C   UNL A   1      32.441  23.219  26.851  1.00  0.00    -0.023 C 
ATOM     89  C   UNL A   1      32.435  25.351  25.877  1.00  0.00     0.031 C 
ATOM     90  C   UNL A   1      33.108  26.265  24.853  1.00  0.00     0.114 C 
ATOM     91  H   UNL A   1      33.635  25.749  22.851  1.00  0.00     0.161 HD
ATOM     92  C   UNL A   1      31.247  23.357  26.262  1.00  0.00    -0.030 C 
ATOM     93  C   UNL A   1      31.216  24.557  25.372  1.00  0.00     0.034 C 
BRANCH  90  94
ATOM     94  C   UNL A   1      32.147  27.312  24.314  1.00  0.00    -0.022 A 
ATOM     95  C   UNL A   1      31.680  27.191  22.997  1.00  0.00     0.026 A 
ATOM     96  C   UNL A   1      31.725  28.423  25.053  1.00  0.00     0.026 A 
ATOM     97  C   UNL A   1      30.823  28.157  22.492  1.00  0.00     0.111 A 
ATOM     98  C   UNL A   1      30.854  29.328  24.464  1.00  0.00     0.111 A 
ATOM     99  N   UNL A   1      30.390  29.216  23.202  1.00  0.00    -0.265 NA
ENDBRANCH  90  94
ENDBRANCH  77  80
ENDBRANCH  75  76
ENDBRANCH  74  75
ENDBRANCH   1  74
TORSDOF 14
ENDMDL
MODEL 3
REMARK VINA RESULT:     -13.5      6.754     12.250
REMARK SMILES O=C(NCCCNC(=O)c1ccc2c(c1)[C@@H]1C=CC[C@@H]1[C@H](c1ccncc1)N2)c1ccc(-c2c3nc(c(-c4c(F)cc(S(=O)(=O)[O-])cc4F)c4ccc([nH]4)c(-c4c(F)cc(S(=O)(=O)[O-])cc4F)c4nc(c(-c5c(F)cc(S(=O)(=O)[O-])cc5F)c5ccc2[nH]5)C=C4)C=C3)cc1
REMARK SMILES IDX 4 1 3 2 1 3 2 4 29 6 30 7 94 8 31 9 93 10 32 11 33 12 34 13
REMARK SMILES IDX 87 14 35 15 92 16 86 17 88 18 36 19 91 20 85 21 84 22 37 24
REMARK SMILES IDX 71 25 50 26 70 27 51 28 54 29 69 30 89 31 52 32 53 33 68 35
REMARK SMILES IDX 90 36 55 37 38 38 39 39 48 40 40 41 41 42 47 43 49 44 42 45
REMARK SMILES IDX 43 46 44 47 45 48 46 49 72 50 73 51 82 52 74 53 75 54 81 55
REMARK SMILES IDX 83 56 76 57 77 58 78 59 79 60 80 61 56 62 57 63 66 64 58 65
REMARK SMILES IDX 59 66 65 67 67 68 60 69 61 70 62 71 63 72 64 73 5 74 6 75
REMARK SMILES IDX 7 76 8 77 9 79 10 80 11 81 15 82 12 83 14 84 13 85 16 86
REMARK SMILES IDX 28 87 17 88 20 89 21 90 18 92 19 93 22 94 23 95 27 96 24 97
REMARK SMILES IDX 26 98 25 99
REMARK H PARENT 3 5 88 23 54 34 7 78 28 91
REMARK Flexibility Score: inf
ROOT
ATOM      1  C   UNL A   1      35.357  30.130  27.716  1.00  0.00     0.118 C 
ENDROOT
BRANCH   1   2
ATOM      2  N   UNL A   1      35.329  30.222  29.172  1.00  0.00    -0.352 N 
ATOM      3  O   UNL A   1      36.031  30.014  31.297  1.00  0.00    -0.269 OA
ATOM      4  C   UNL A   1      36.324  30.042  30.104  1.00  0.00     0.251 C 
ATOM      5  H   UNL A   1      34.449  30.451  29.551  1.00  0.00     0.163 HD
BRANCH   4   6
ATOM      6  C   UNL A   1      37.730  29.849  29.682  1.00  0.00     0.039 A 
ATOM      7  C   UNL A   1      38.116  30.038  28.356  1.00  0.00     0.014 A 
ATOM      8  C   UNL A   1      38.687  29.480  30.634  1.00  0.00     0.014 A 
ATOM      9  C   UNL A   1      39.388  29.660  27.944  1.00  0.00     0.010 A 
ATOM     10  C   UNL A   1      40.003  29.211  30.236  1.00  0.00     0.010 A 
ATOM     11  C   UNL A   1      40.352  29.247  28.878  1.00  0.00    -0.014 A 
BRANCH  11  12
ATOM     12  C   UNL A   1      41.713  28.886  28.398  1.00  0.00     0.031 A 
ATOM     13  C   UNL A   1      42.840  29.886  28.417  1.00  0.00     0.074 A 
ATOM     14  C   UNL A   1      41.945  27.618  27.998  1.00  0.00     0.049 A 
ATOM     15  N   UNL A   1      44.099  29.713  28.099  1.00  0.00    -0.248 NA
ATOM     16  C   UNL A   1      42.515  31.259  28.835  1.00  0.00     0.031 C 
ATOM     17  C   UNL A   1      40.931  26.563  27.917  1.00  0.00     0.029 A 
ATOM     18  N   UNL A   1      43.105  26.991  27.622  1.00  0.00    -0.354 N 
ATOM     19  C   UNL A   1      44.708  30.955  28.246  1.00  0.00     0.074 A 
ATOM     20  C   UNL A   1      43.675  31.879  28.664  1.00  0.00     0.031 C 
ATOM     21  C   UNL A   1      41.524  25.407  27.586  1.00  0.00     0.029 A 
ATOM     22  C   UNL A   1      42.946  25.649  27.372  1.00  0.00     0.049 A 
ATOM     23  H   UNL A   1      43.968  27.457  27.538  1.00  0.00     0.167 HD
ATOM     24  C   UNL A   1      46.007  31.290  28.059  1.00  0.00     0.037 A 
ATOM     25  C   UNL A   1      43.841  24.712  27.009  1.00  0.00     0.037 A 
ATOM     26  C   UNL A   1      47.038  30.358  27.678  1.00  0.00     0.049 A 
ATOM     27  C   UNL A   1      45.278  25.105  26.830  1.00  0.00     0.074 A 
ATOM     28  C   UNL A   1      48.392  30.594  27.508  1.00  0.00     0.029 A 
ATOM     29  N   UNL A   1      46.833  29.012  27.415  1.00  0.00    -0.354 N 
ATOM     30  N   UNL A   1      45.837  26.279  27.002  1.00  0.00    -0.248 NA
ATOM     31  C   UNL A   1      46.206  24.050  26.405  1.00  0.00     0.031 C 
ATOM     32  C   UNL A   1      48.999  29.398  27.107  1.00  0.00     0.029 A 
ATOM     33  C   UNL A   1      48.030  28.407  27.067  1.00  0.00     0.049 A 
ATOM     34  H   UNL A   1      45.963  28.553  27.466  1.00  0.00     0.167 HD
ATOM     35  C   UNL A   1      47.186  26.101  26.721  1.00  0.00     0.074 A 
ATOM     36  C   UNL A   1      47.361  24.702  26.385  1.00  0.00     0.031 C 
ATOM     37  C   UNL A   1      48.188  27.014  26.737  1.00  0.00     0.037 A 
BRANCH  24  38
ATOM     38  C   UNL A   1      46.390  32.734  28.243  1.00  0.00     0.058 A 
ATOM     39  C   UNL A   1      46.296  33.665  27.197  1.00  0.00     0.135 A 
ATOM     40  C   UNL A   1      46.824  33.199  29.495  1.00  0.00     0.135 A 
ATOM     41  F   UNL A   1      45.900  33.273  25.975  1.00  0.00    -0.206 F 
ATOM     42  C   UNL A   1      46.645  35.001  27.378  1.00  0.00     0.059 A 
ATOM     43  C   UNL A   1      47.156  34.534  29.704  1.00  0.00     0.059 A 
ATOM     44  F   UNL A   1      46.930  32.351  30.531  1.00  0.00    -0.206 F 
ATOM     45  C   UNL A   1      47.078  35.425  28.635  1.00  0.00     0.060 A 
BRANCH  45  46
ATOM     46  S   UNL A   1      47.534  37.158  28.856  1.00  0.00     0.124 S 
ATOM     47  O   UNL A   1      46.225  37.783  29.020  1.00  0.00    -0.237 OA
ATOM     48  O   UNL A   1      48.369  37.115  30.052  1.00  0.00    -0.237 OA
ATOM     49  O   UNL A   1      48.236  37.486  27.618  1.00  0.00    -0.744 OA
ENDBRANCH  45  46
ENDBRANCH  24  38
BRANCH  25  50
ATOM     50  C   UNL A   1      43.400  23.307  26.808  1.00  0.00     0.058 A 
ATOM     51  C   UNL A   1      43.309  22.757  25.522  1.00  0.00     0.135 A 
ATOM     52  C   UNL A   1      43.093  22.480  27.899  1.00  0.00     0.135 A 
ATOM     53  F   UNL A   1      43.590  23.510  24.449  1.00  0.00    -0.206 F 
ATOM     54  C   UNL A   1      42.920  21.437  25.322  1.00  0.00     0.059 A 
ATOM     55  C   UNL A   1      42.727  21.149  27.726  1.00  0.00     0.059 A 
ATOM     56  F   UNL A   1      43.184  22.956  29.151  1.00  0.00    -0.206 F 
ATOM     57  C   UNL A   1      42.634  20.640  26.433  1.00  0.00     0.060 A 
BRANCH  57  58
ATOM     58  S   UNL A   1      42.187  18.910  26.171  1.00  0.00     0.124 S 
ATOM     59  O   UNL A   1      42.432  18.341  27.491  1.00  0.00    -0.237 OA
ATOM     60  O   UNL A   1      40.789  19.009  25.767  1.00  0.00    -0.237 OA
ATOM     61  O   UNL A   1      43.106  18.484  25.119  1.00  0.00    -0.744 OA
ENDBRANCH  57  58
ENDBRANCH  25  50
BRANCH  37  62
ATOM     62  C   UNL A   1      49.567  26.516  26.411  1.00  0.00     0.058 A 
ATOM     63  C   UNL A   1      50.097  26.615  25.116  1.00  0.00     0.135 A 
ATOM     64  C   UNL A   1      50.374  25.953  27.412  1.00  0.00     0.135 A 
ATOM     65  F   UNL A   1      49.362  27.139  24.123  1.00  0.00    -0.206 F 
ATOM     66  C   UNL A   1      51.371  26.142  24.815  1.00  0.00     0.059 A 
ATOM     67  C   UNL A   1      51.659  25.495  27.139  1.00  0.00     0.059 A 
ATOM     68  F   UNL A   1      49.917  25.846  28.669  1.00  0.00    -0.206 F 
ATOM     69  C   UNL A   1      52.143  25.580  25.833  1.00  0.00     0.060 A 
BRANCH  69  70
ATOM     70  S   UNL A   1      53.799  24.980  25.439  1.00  0.00     0.124 S 
ATOM     71  O   UNL A   1      53.559  23.551  25.266  1.00  0.00    -0.237 OA
ATOM     72  O   UNL A   1      54.122  25.721  24.224  1.00  0.00    -0.237 OA
ATOM     73  O   UNL A   1      54.580  25.348  26.616  1.00  0.00    -0.744 OA
ENDBRANCH  69  70
ENDBRANCH  37  62
ENDBRANCH  11  12
ENDBRANCH   4   6
ENDBRANCH   1   2
BRANCH   1  74
ATOM     74  C   UNL A   1      34.848  28.797  27.192  1.00  0.00     0.042 C 
BRANCH  74  75
ATOM     75  C   UNL A   1      33.543  28.890  26.417  1.00  0.00     0.118 C 
BRANCH  75  76
ATOM     76  N   UNL A   1      33.739  29.290  25.028  1.00  0.00    -0.352 N 
ATOM     77  C   UNL A   1      33.823  28.532  23.887  1.00  0.00     0.251 C 
ATOM     78  H   UNL A   1      33.824  30.261  24.887  1.00  0.00     0.163 HD
ATOM     79  O   UNL A   1      34.173  29.053  22.831  1.00  0.00    -0.269 OA
BRANCH  77  80
ATOM     80  C   UNL A   1      33.493  27.092  23.914  1.00  0.00     0.040 A 
ATOM     81  C   UNL A   1      32.553  26.587  23.018  1.00  0.00     0.016 A 
ATOM     82  C   UNL A   1      34.101  26.236  24.832  1.00  0.00     0.020 A 
ATOM     83  C   UNL A   1      32.252  25.222  23.025  1.00  0.00     0.027 A 
ATOM     84  C   UNL A   1      33.878  24.854  24.773  1.00  0.00    -0.017 A 
ATOM     85  C   UNL A   1      32.890  24.347  23.915  1.00  0.00     0.038 A 
ATOM     86  C   UNL A   1      34.738  23.935  25.610  1.00  0.00     0.049 C 
ATOM     87  N   UNL A   1      32.594  22.989  23.874  1.00  0.00    -0.378 N 
ATOM     88  C   UNL A   1      36.207  24.068  25.286  1.00  0.00    -0.023 C 
ATOM     89  C   UNL A   1      34.519  22.443  25.313  1.00  0.00     0.031 C 
ATOM     90  C   UNL A   1      33.062  22.140  24.962  1.00  0.00     0.114 C 
ATOM     91  H   UNL A   1      32.080  22.609  23.127  1.00  0.00     0.161 HD
ATOM     92  C   UNL A   1      36.650  23.057  24.530  1.00  0.00    -0.030 C 
ATOM     93  C   UNL A   1      35.560  22.077  24.239  1.00  0.00     0.034 C 
BRANCH  90  94
ATOM     94  C   UNL A   1      32.845  20.662  24.684  1.00  0.00    -0.022 A 
ATOM     95  C   UNL A   1      32.449  20.264  23.398  1.00  0.00     0.026 A 
ATOM     96  C   UNL A   1      32.982  19.667  25.657  1.00  0.00     0.026 A 
ATOM     97  C   UNL A   1      32.225  18.920  23.145  1.00  0.00     0.111 A 
ATOM     98  C   UNL A   1      32.749  18.346  25.303  1.00  0.00     0.111 A 
ATOM     99  N   UNL A   1      32.379  17.950  24.067  1.00  0.00    -0.265 NA
ENDBRANCH  90  94
ENDBRANCH  77  80
ENDBRANCH  75  76
ENDBRANCH  74  75
ENDBRANCH   1  74
TORSDOF 14
ENDMDL
