MODEL 1
REMARK VINA RESULT:     -13.5      0.000      0.000
REMARK SMILES O=C(NCCCNC(=O)c1ccccc1NC(=O)c1ccc2c(c1)C(=O)N(Cc1ccccc1)C2=O)c1ccc(-c2c3nc(c(-c4c(F)cc(S(=O)(=O)[O-])cc4F)c4ccc([nH]4)c(-c4c(F)cc(S(=O)(=O)[O-])cc4F)c4nc(c(-c5c(F)cc(S(=O)(=O)[O-])cc5F)c5ccc2[nH]5)C=C4)C=C3)cc1
REMARK SMILES IDX 5 1 4 2 3 3 1 4 2 5 37 7 38 8 102 9 39 10 101 11 40 12 41 13
REMARK SMILES IDX 42 14 95 15 43 16 100 17 94 18 96 19 44 20 99 21 93 22 92 23
REMARK SMILES IDX 45 25 79 26 58 27 78 28 59 29 62 30 77 31 97 32 60 33 61 34
REMARK SMILES IDX 76 36 98 37 63 38 46 39 47 40 56 41 48 42 49 43 55 44 57 45
REMARK SMILES IDX 50 46 51 47 52 48 53 49 54 50 80 51 81 52 90 53 82 54 83 55
REMARK SMILES IDX 89 56 91 57 84 58 85 59 86 60 87 61 88 62 64 63 65 64 74 65
REMARK SMILES IDX 66 66 67 67 73 68 75 69 68 70 69 71 70 72 71 73 72 74 6 75
REMARK SMILES IDX 7 76 8 77 9 79 10 80 11 81 15 82 12 83 14 84 13 85 16 86
REMARK SMILES IDX 17 87 18 89 19 90 20 91 24 92 21 93 23 94 22 95 25 96 35 97
REMARK SMILES IDX 26 98 27 99 36 100 28 101 29 102 30 103 34 104 31 105 33 106
REMARK SMILES IDX 32 107
REMARK H PARENT 3 6 96 24 62 35 7 78 16 88
REMARK Flexibility Score: inf
ROOT
ATOM      1  C   UNL A   1      33.903  28.771  27.161  1.00  0.00     0.042 C 
ENDROOT
BRANCH   1   2
ATOM      2  C   UNL A   1      35.274  29.309  27.536  1.00  0.00     0.118 C 
BRANCH   2   3
ATOM      3  N   UNL A   1      35.235  30.195  28.691  1.00  0.00    -0.352 N 
ATOM      4  O   UNL A   1      35.947  31.113  30.619  1.00  0.00    -0.269 OA
ATOM      5  C   UNL A   1      36.222  30.493  29.597  1.00  0.00     0.251 C 
ATOM      6  H   UNL A   1      34.373  30.646  28.845  1.00  0.00     0.163 HD
BRANCH   5   7
ATOM      7  C   UNL A   1      37.610  30.050  29.342  1.00  0.00     0.039 A 
ATOM      8  C   UNL A   1      38.122  30.047  28.044  1.00  0.00     0.014 A 
ATOM      9  C   UNL A   1      38.413  29.656  30.416  1.00  0.00     0.014 A 
ATOM     10  C   UNL A   1      39.380  29.516  27.798  1.00  0.00     0.010 A 
ATOM     11  C   UNL A   1      39.720  29.221  30.179  1.00  0.00     0.010 A 
ATOM     12  C   UNL A   1      40.207  29.136  28.866  1.00  0.00    -0.014 A 
BRANCH  12  13
ATOM     13  C   UNL A   1      41.621  28.791  28.586  1.00  0.00     0.031 A 
ATOM     14  C   UNL A   1      42.704  29.830  28.618  1.00  0.00     0.074 A 
ATOM     15  C   UNL A   1      41.906  27.505  28.301  1.00  0.00     0.049 A 
ATOM     16  N   UNL A   1      43.981  29.685  28.373  1.00  0.00    -0.248 NA
ATOM     17  C   UNL A   1      42.313  31.208  28.959  1.00  0.00     0.031 C 
ATOM     18  C   UNL A   1      40.918  26.423  28.217  1.00  0.00     0.029 A 
ATOM     19  N   UNL A   1      43.096  26.882  28.030  1.00  0.00    -0.354 N 
ATOM     20  C   UNL A   1      44.542  30.949  28.502  1.00  0.00     0.074 A 
ATOM     21  C   UNL A   1      43.466  31.855  28.843  1.00  0.00     0.031 C 
ATOM     22  C   UNL A   1      41.543  25.270  27.947  1.00  0.00     0.029 A 
ATOM     23  C   UNL A   1      42.962  25.540  27.763  1.00  0.00     0.049 A 
ATOM     24  H   UNL A   1      43.962  27.350  28.028  1.00  0.00     0.167 HD
ATOM     25  C   UNL A   1      45.839  31.309  28.347  1.00  0.00     0.037 A 
ATOM     26  C   UNL A   1      43.873  24.630  27.371  1.00  0.00     0.037 A 
ATOM     27  C   UNL A   1      46.900  30.383  28.039  1.00  0.00     0.049 A 
ATOM     28  C   UNL A   1      45.295  25.069  27.189  1.00  0.00     0.074 A 
ATOM     29  C   UNL A   1      48.259  30.634  27.954  1.00  0.00     0.029 A 
ATOM     30  N   UNL A   1      46.723  29.037  27.752  1.00  0.00    -0.354 N 
ATOM     31  N   UNL A   1      45.819  26.254  27.388  1.00  0.00    -0.248 NA
ATOM     32  C   UNL A   1      46.247  24.056  26.717  1.00  0.00     0.031 C 
ATOM     33  C   UNL A   1      48.897  29.453  27.563  1.00  0.00     0.029 A 
ATOM     34  C   UNL A   1      47.942  28.456  27.446  1.00  0.00     0.049 A 
ATOM     35  H   UNL A   1      45.859  28.566  27.764  1.00  0.00     0.167 HD
ATOM     36  C   UNL A   1      47.163  26.131  27.062  1.00  0.00     0.074 A 
ATOM     37  C   UNL A   1      47.377  24.748  26.685  1.00  0.00     0.031 C 
ATOM     38  C   UNL A   1      48.130  27.080  27.064  1.00  0.00     0.037 A 
BRANCH  25  39
ATOM     39  C   UNL A   1      46.204  32.759  28.490  1.00  0.00     0.058 A 
ATOM     40  C   UNL A   1      46.631  33.298  29.713  1.00  0.00     0.135 A 
ATOM     41  C   UNL A   1      46.239  33.592  27.358  1.00  0.00     0.135 A 
ATOM     42  F   UNL A   1      46.605  32.550  30.827  1.00  0.00    -0.206 F 
ATOM     43  C   UNL A   1      47.085  34.611  29.809  1.00  0.00     0.059 A 
ATOM     44  C   UNL A   1      46.705  34.902  27.428  1.00  0.00     0.059 A 
ATOM     45  F   UNL A   1      45.838  33.126  26.166  1.00  0.00    -0.206 F 
ATOM     46  C   UNL A   1      47.126  35.403  28.659  1.00  0.00     0.060 A 
BRANCH  46  47
ATOM     47  S   UNL A   1      47.772  37.084  28.790  1.00  0.00     0.124 S 
ATOM     48  O   UNL A   1      47.854  37.251  30.238  1.00  0.00    -0.237 OA
ATOM     49  O   UNL A   1      49.049  36.983  28.092  1.00  0.00    -0.237 OA
ATOM     50  O   UNL A   1      46.758  37.893  28.122  1.00  0.00    -0.744 OA
ENDBRANCH  46  47
ENDBRANCH  25  39
BRANCH  26  51
ATOM     51  C   UNL A   1      43.448  23.240  27.066  1.00  0.00     0.058 A 
ATOM     52  C   UNL A   1      43.144  22.330  28.087  1.00  0.00     0.135 A 
ATOM     53  C   UNL A   1      43.333  22.797  25.737  1.00  0.00     0.135 A 
ATOM     54  F   UNL A   1      43.239  22.707  29.371  1.00  0.00    -0.206 F 
ATOM     55  C   UNL A   1      42.765  21.022  27.805  1.00  0.00     0.059 A 
ATOM     56  C   UNL A   1      42.930  21.503  25.430  1.00  0.00     0.059 A 
ATOM     57  F   UNL A   1      43.593  23.636  24.722  1.00  0.00    -0.206 F 
ATOM     58  C   UNL A   1      42.664  20.617  26.473  1.00  0.00     0.060 A 
BRANCH  58  59
ATOM     59  S   UNL A   1      42.156  18.923  26.111  1.00  0.00     0.124 S 
ATOM     60  O   UNL A   1      43.038  18.586  25.000  1.00  0.00    -0.237 OA
ATOM     61  O   UNL A   1      42.428  18.242  27.372  1.00  0.00    -0.237 OA
ATOM     62  O   UNL A   1      40.742  19.064  25.777  1.00  0.00    -0.744 OA
ENDBRANCH  58  59
ENDBRANCH  26  51
BRANCH  38  63
ATOM     63  C   UNL A   1      49.503  26.651  26.638  1.00  0.00     0.058 A 
ATOM     64  C   UNL A   1      50.406  26.090  27.554  1.00  0.00     0.135 A 
ATOM     65  C   UNL A   1      49.903  26.755  25.297  1.00  0.00     0.135 A 
ATOM     66  F   UNL A   1      50.074  25.983  28.850  1.00  0.00    -0.206 F 
ATOM     67  C   UNL A   1      51.668  25.662  27.158  1.00  0.00     0.059 A 
ATOM     68  C   UNL A   1      51.150  26.309  24.873  1.00  0.00     0.059 A 
ATOM     69  F   UNL A   1      49.072  27.280  24.382  1.00  0.00    -0.206 F 
ATOM     70  C   UNL A   1      52.029  25.772  25.814  1.00  0.00     0.060 A 
BRANCH  70  71
ATOM     71  S   UNL A   1      53.652  25.170  25.303  1.00  0.00     0.124 S 
ATOM     72  O   UNL A   1      54.507  25.703  26.359  1.00  0.00    -0.237 OA
ATOM     73  O   UNL A   1      53.465  23.723  25.309  1.00  0.00    -0.237 OA
ATOM     74  O   UNL A   1      53.837  25.767  23.985  1.00  0.00    -0.744 OA
ENDBRANCH  70  71
ENDBRANCH  38  63
ENDBRANCH  12  13
ENDBRANCH   5   7
ENDBRANCH   2   3
ENDBRANCH   1   2
BRANCH   1  75
ATOM     75  C   UNL A   1      33.783  28.366  25.702  1.00  0.00     0.118 C 
BRANCH  75  76
ATOM     76  N   UNL A   1      32.690  29.051  25.026  1.00  0.00    -0.352 N 
ATOM     77  C   UNL A   1      31.524  28.530  24.538  1.00  0.00     0.253 C 
ATOM     78  H   UNL A   1      32.808  30.021  24.903  1.00  0.00     0.163 HD
ATOM     79  O   UNL A   1      30.772  29.212  23.848  1.00  0.00    -0.269 OA
BRANCH  77  80
ATOM     80  C   UNL A   1      31.159  27.140  24.855  1.00  0.00     0.063 A 
ATOM     81  C   UNL A   1      30.650  26.919  26.147  1.00  0.00     0.016 A 
ATOM     82  C   UNL A   1      31.318  26.090  23.927  1.00  0.00     0.054 A 
ATOM     83  C   UNL A   1      30.269  25.641  26.535  1.00  0.00     0.001 A 
ATOM     84  C   UNL A   1      30.983  24.810  24.377  1.00  0.00     0.027 A 
ATOM     85  C   UNL A   1      30.439  24.585  25.651  1.00  0.00     0.002 A 
BRANCH  82  86
ATOM     86  N   UNL A   1      31.844  26.356  22.627  1.00  0.00    -0.321 N 
ATOM     87  C   UNL A   1      32.986  25.932  21.964  1.00  0.00     0.255 C 
ATOM     88  H   UNL A   1      31.283  26.963  22.093  1.00  0.00     0.170 HD
ATOM     89  O   UNL A   1      33.296  26.380  20.865  1.00  0.00    -0.269 OA
BRANCH  87  90
ATOM     90  C   UNL A   1      33.778  24.824  22.521  1.00  0.00     0.041 A 
ATOM     91  C   UNL A   1      34.593  25.067  23.650  1.00  0.00     0.015 A 
ATOM     92  C   UNL A   1      33.421  23.537  22.120  1.00  0.00     0.028 A 
ATOM     93  C   UNL A   1      34.871  24.017  24.537  1.00  0.00     0.015 A 
ATOM     94  C   UNL A   1      33.676  22.541  23.033  1.00  0.00     0.054 A 
ATOM     95  C   UNL A   1      34.323  22.779  24.234  1.00  0.00     0.053 A 
ATOM     96  C   UNL A   1      32.926  21.300  23.147  1.00  0.00     0.261 C 
ATOM     97  C   UNL A   1      33.923  21.701  25.147  1.00  0.00     0.261 C 
ATOM     98  O   UNL A   1      32.207  20.884  22.268  1.00  0.00    -0.269 OA
ATOM     99  N   UNL A   1      33.096  20.874  24.437  1.00  0.00    -0.270 N 
ATOM    100  O   UNL A   1      34.180  21.699  26.338  1.00  0.00    -0.269 OA
BRANCH  99 101
ATOM    101  C   UNL A   1      32.265  19.843  25.018  1.00  0.00     0.164 C 
BRANCH 101 102
ATOM    102  C   UNL A   1      32.967  18.514  25.055  1.00  0.00    -0.028 A 
ATOM    103  C   UNL A   1      34.133  18.310  24.309  1.00  0.00     0.005 A 
ATOM    104  C   UNL A   1      32.430  17.448  25.792  1.00  0.00     0.005 A 
ATOM    105  C   UNL A   1      34.742  17.055  24.291  1.00  0.00     0.000 A 
ATOM    106  C   UNL A   1      33.031  16.193  25.761  1.00  0.00     0.000 A 
ATOM    107  C   UNL A   1      34.185  15.997  25.008  1.00  0.00     0.000 A 
ENDBRANCH 101 102
ENDBRANCH  99 101
ENDBRANCH  87  90
ENDBRANCH  82  86
ENDBRANCH  77  80
ENDBRANCH  75  76
ENDBRANCH   1  75
TORSDOF 17
ENDMDL
MODEL 2
REMARK VINA RESULT:     -13.1      0.542      7.913
REMARK SMILES O=C(NCCCNC(=O)c1ccccc1NC(=O)c1ccc2c(c1)C(=O)N(Cc1ccccc1)C2=O)c1ccc(-c2c3nc(c(-c4c(F)cc(S(=O)(=O)[O-])cc4F)c4ccc([nH]4)c(-c4c(F)cc(S(=O)(=O)[O-])cc4F)c4nc(c(-c5c(F)cc(S(=O)(=O)[O-])cc5F)c5ccc2[nH]5)C=C4)C=C3)cc1
REMARK SMILES IDX 5 1 4 2 3 3 1 4 2 5 37 7 38 8 102 9 39 10 101 11 40 12 41 13
REMARK SMILES IDX 42 14 95 15 43 16 100 17 94 18 96 19 44 20 99 21 93 22 92 23
REMARK SMILES IDX 45 25 79 26 58 27 78 28 59 29 62 30 77 31 97 32 60 33 61 34
REMARK SMILES IDX 76 36 98 37 63 38 46 39 47 40 56 41 48 42 49 43 55 44 57 45
REMARK SMILES IDX 50 46 51 47 52 48 53 49 54 50 80 51 81 52 90 53 82 54 83 55
REMARK SMILES IDX 89 56 91 57 84 58 85 59 86 60 87 61 88 62 64 63 65 64 74 65
REMARK SMILES IDX 66 66 67 67 73 68 75 69 68 70 69 71 70 72 71 73 72 74 6 75
REMARK SMILES IDX 7 76 8 77 9 79 10 80 11 81 15 82 12 83 14 84 13 85 16 86
REMARK SMILES IDX 17 87 18 89 19 90 20 91 24 92 21 93 23 94 22 95 25 96 35 97
REMARK SMILES IDX 26 98 27 99 36 100 28 101 29 102 30 103 34 104 31 105 33 106
REMARK SMILES IDX 32 107
REMARK H PARENT 3 6 96 24 62 35 7 78 16 88
REMARK Flexibility Score: inf
ROOT
ATOM      1  C   UNL A   1      34.073  29.680  26.784  1.00  0.00     0.042 C 
ENDROOT
BRANCH   1   2
ATOM      2  C   UNL A   1      35.138  29.308  27.803  1.00  0.00     0.118 C 
BRANCH   2   3
ATOM      3  N   UNL A   1      35.210  30.251  28.911  1.00  0.00    -0.352 N 
ATOM      4  O   UNL A   1      36.100  31.254  30.719  1.00  0.00    -0.269 OA
ATOM      5  C   UNL A   1      36.278  30.580  29.710  1.00  0.00     0.251 C 
ATOM      6  H   UNL A   1      34.371  30.722  29.117  1.00  0.00     0.163 HD
BRANCH   5   7
ATOM      7  C   UNL A   1      37.632  30.105  29.356  1.00  0.00     0.039 A 
ATOM      8  C   UNL A   1      38.046  30.082  28.023  1.00  0.00     0.014 A 
ATOM      9  C   UNL A   1      38.505  29.701  30.370  1.00  0.00     0.014 A 
ATOM     10  C   UNL A   1      39.271  29.521  27.689  1.00  0.00     0.010 A 
ATOM     11  C   UNL A   1      39.781  29.237  30.041  1.00  0.00     0.010 A 
ATOM     12  C   UNL A   1      40.167  29.131  28.696  1.00  0.00    -0.014 A 
BRANCH  12  13
ATOM     13  C   UNL A   1      41.549  28.754  28.315  1.00  0.00     0.031 A 
ATOM     14  C   UNL A   1      41.891  27.357  27.887  1.00  0.00     0.074 A 
ATOM     15  C   UNL A   1      42.495  29.713  28.364  1.00  0.00     0.049 A 
ATOM     16  N   UNL A   1      43.057  26.870  27.547  1.00  0.00    -0.248 NA
ATOM     17  C   UNL A   1      40.797  26.373  27.840  1.00  0.00     0.031 C 
ATOM     18  C   UNL A   1      42.267  31.098  28.794  1.00  0.00     0.029 A 
ATOM     19  N   UNL A   1      43.828  29.682  28.053  1.00  0.00    -0.354 N 
ATOM     20  C   UNL A   1      42.847  25.525  27.272  1.00  0.00     0.074 A 
ATOM     21  C   UNL A   1      41.440  25.266  27.489  1.00  0.00     0.031 C 
ATOM     22  C   UNL A   1      43.410  31.788  28.691  1.00  0.00     0.029 A 
ATOM     23  C   UNL A   1      44.467  30.882  28.262  1.00  0.00     0.049 A 
ATOM     24  H   UNL A   1      44.286  28.880  27.713  1.00  0.00     0.167 HD
ATOM     25  C   UNL A   1      43.754  24.600  26.877  1.00  0.00     0.037 A 
ATOM     26  C   UNL A   1      45.767  31.212  28.163  1.00  0.00     0.037 A 
ATOM     27  C   UNL A   1      45.145  24.888  26.635  1.00  0.00     0.049 A 
ATOM     28  C   UNL A   1      46.746  30.156  27.742  1.00  0.00     0.074 A 
ATOM     29  C   UNL A   1      46.123  24.041  26.142  1.00  0.00     0.029 A 
ATOM     30  N   UNL A   1      45.760  26.108  26.881  1.00  0.00    -0.354 N 
ATOM     31  N   UNL A   1      46.515  28.908  27.415  1.00  0.00    -0.248 NA
ATOM     32  C   UNL A   1      48.160  30.546  27.689  1.00  0.00     0.031 C 
ATOM     33  C   UNL A   1      47.339  24.733  26.141  1.00  0.00     0.029 A 
ATOM     34  C   UNL A   1      47.111  26.022  26.592  1.00  0.00     0.049 A 
ATOM     35  H   UNL A   1      45.302  26.914  27.212  1.00  0.00     0.167 HD
ATOM     36  C   UNL A   1      47.756  28.360  27.121  1.00  0.00     0.074 A 
ATOM     37  C   UNL A   1      48.729  29.422  27.276  1.00  0.00     0.031 C 
ATOM     38  C   UNL A   1      48.064  27.090  26.764  1.00  0.00     0.037 A 
BRANCH  25  39
ATOM     39  C   UNL A   1      43.297  23.182  26.686  1.00  0.00     0.058 A 
ATOM     40  C   UNL A   1      43.219  22.594  25.415  1.00  0.00     0.135 A 
ATOM     41  C   UNL A   1      43.047  22.365  27.803  1.00  0.00     0.135 A 
ATOM     42  F   UNL A   1      43.434  23.331  24.314  1.00  0.00    -0.206 F 
ATOM     43  C   UNL A   1      42.913  21.244  25.256  1.00  0.00     0.059 A 
ATOM     44  C   UNL A   1      42.757  21.010  27.669  1.00  0.00     0.059 A 
ATOM     45  F   UNL A   1      43.106  22.880  29.040  1.00  0.00    -0.206 F 
ATOM     46  C   UNL A   1      42.692  20.459  26.391  1.00  0.00     0.060 A 
BRANCH  46  47
ATOM     47  S   UNL A   1      42.355  18.699  26.169  1.00  0.00     0.124 S 
ATOM     48  O   UNL A   1      40.945  18.717  25.793  1.00  0.00    -0.237 OA
ATOM     49  O   UNL A   1      43.288  18.334  25.108  1.00  0.00    -0.237 OA
ATOM     50  O   UNL A   1      42.647  18.127  27.480  1.00  0.00    -0.744 OA
ENDBRANCH  46  47
ENDBRANCH  25  39
BRANCH  26  51
ATOM     51  C   UNL A   1      46.216  32.580  28.529  1.00  0.00     0.058 A 
ATOM     52  C   UNL A   1      46.305  33.598  27.571  1.00  0.00     0.135 A 
ATOM     53  C   UNL A   1      46.561  32.894  29.855  1.00  0.00     0.135 A 
ATOM     54  F   UNL A   1      45.986  33.346  26.292  1.00  0.00    -0.206 F 
ATOM     55  C   UNL A   1      46.744  34.875  27.907  1.00  0.00     0.059 A 
ATOM     56  C   UNL A   1      46.975  34.169  30.220  1.00  0.00     0.059 A 
ATOM     57  F   UNL A   1      46.473  31.959  30.813  1.00  0.00    -0.206 F 
ATOM     58  C   UNL A   1      47.080  35.149  29.234  1.00  0.00     0.060 A 
BRANCH  58  59
ATOM     59  S   UNL A   1      47.632  36.812  29.669  1.00  0.00     0.124 S 
ATOM     60  O   UNL A   1      48.193  37.272  28.404  1.00  0.00    -0.237 OA
ATOM     61  O   UNL A   1      46.389  37.452  30.087  1.00  0.00    -0.237 OA
ATOM     62  O   UNL A   1      48.596  36.574  30.739  1.00  0.00    -0.744 OA
ENDBRANCH  58  59
ENDBRANCH  26  51
BRANCH  38  63
ATOM     63  C   UNL A   1      49.513  26.782  26.527  1.00  0.00     0.058 A 
ATOM     64  C   UNL A   1      50.088  26.930  25.257  1.00  0.00     0.135 A 
ATOM     65  C   UNL A   1      50.344  26.384  27.585  1.00  0.00     0.135 A 
ATOM     66  F   UNL A   1      49.330  27.296  24.210  1.00  0.00    -0.206 F 
ATOM     67  C   UNL A   1      51.438  26.678  25.038  1.00  0.00     0.059 A 
ATOM     68  C   UNL A   1      51.701  26.151  27.396  1.00  0.00     0.059 A 
ATOM     69  F   UNL A   1      49.840  26.234  28.821  1.00  0.00    -0.206 F 
ATOM     70  C   UNL A   1      52.237  26.292  26.116  1.00  0.00     0.060 A 
BRANCH  70  71
ATOM     71  S   UNL A   1      53.996  26.012  25.829  1.00  0.00     0.124 S 
ATOM     72  O   UNL A   1      54.362  25.222  27.001  1.00  0.00    -0.237 OA
ATOM     73  O   UNL A   1      53.997  25.296  24.558  1.00  0.00    -0.237 OA
ATOM     74  O   UNL A   1      54.553  27.360  25.783  1.00  0.00    -0.744 OA
ENDBRANCH  70  71
ENDBRANCH  38  63
ENDBRANCH  12  13
ENDBRANCH   5   7
ENDBRANCH   2   3
ENDBRANCH   1   2
BRANCH   1  75
ATOM     75  C   UNL A   1      33.997  28.727  25.604  1.00  0.00     0.118 C 
BRANCH  75  76
ATOM     76  N   UNL A   1      33.183  29.254  24.519  1.00  0.00    -0.352 N 
ATOM     77  C   UNL A   1      32.101  28.687  23.904  1.00  0.00     0.253 C 
ATOM     78  H   UNL A   1      33.449  30.140  24.180  1.00  0.00     0.163 HD
ATOM     79  O   UNL A   1      31.620  29.187  22.893  1.00  0.00    -0.269 OA
BRANCH  77  80
ATOM     80  C   UNL A   1      31.500  27.469  24.470  1.00  0.00     0.063 A 
ATOM     81  C   UNL A   1      31.222  27.505  25.848  1.00  0.00     0.016 A 
ATOM     82  C   UNL A   1      31.227  26.329  23.686  1.00  0.00     0.054 A 
ATOM     83  C   UNL A   1      30.645  26.406  26.471  1.00  0.00     0.001 A 
ATOM     84  C   UNL A   1      30.706  25.222  24.361  1.00  0.00     0.027 A 
ATOM     85  C   UNL A   1      30.390  25.262  25.728  1.00  0.00     0.002 A 
BRANCH  82  86
ATOM     86  N   UNL A   1      31.530  26.330  22.290  1.00  0.00    -0.321 N 
ATOM     87  C   UNL A   1      32.557  25.772  21.545  1.00  0.00     0.255 C 
ATOM     88  H   UNL A   1      30.877  26.828  21.747  1.00  0.00     0.170 HD
ATOM     89  O   UNL A   1      32.676  25.993  20.345  1.00  0.00    -0.269 OA
BRANCH  87  90
ATOM     90  C   UNL A   1      33.451  24.783  22.171  1.00  0.00     0.041 A 
ATOM     91  C   UNL A   1      34.304  25.200  23.218  1.00  0.00     0.015 A 
ATOM     92  C   UNL A   1      33.163  23.440  21.929  1.00  0.00     0.028 A 
ATOM     93  C   UNL A   1      34.698  24.273  24.194  1.00  0.00     0.015 A 
ATOM     94  C   UNL A   1      33.533  22.569  22.927  1.00  0.00     0.054 A 
ATOM     95  C   UNL A   1      34.222  22.977  24.056  1.00  0.00     0.053 A 
ATOM     96  C   UNL A   1      32.877  21.303  23.216  1.00  0.00     0.261 C 
ATOM     97  C   UNL A   1      33.944  21.983  25.101  1.00  0.00     0.261 C 
ATOM     98  O   UNL A   1      32.144  20.749  22.430  1.00  0.00    -0.269 OA
ATOM     99  N   UNL A   1      33.141  21.033  24.532  1.00  0.00    -0.270 N 
ATOM    100  O   UNL A   1      34.261  22.128  26.269  1.00  0.00    -0.269 OA
BRANCH  99 101
ATOM    101  C   UNL A   1      32.413  20.022  25.267  1.00  0.00     0.164 C 
BRANCH 101 102
ATOM    102  C   UNL A   1      33.019  18.657  25.087  1.00  0.00    -0.028 A 
ATOM    103  C   UNL A   1      32.345  17.519  25.545  1.00  0.00     0.005 A 
ATOM    104  C   UNL A   1      34.290  18.516  24.512  1.00  0.00     0.005 A 
ATOM    105  C   UNL A   1      32.943  16.263  25.440  1.00  0.00     0.000 A 
ATOM    106  C   UNL A   1      34.891  17.263  24.421  1.00  0.00     0.000 A 
ATOM    107  C   UNL A   1      34.217  16.138  24.889  1.00  0.00     0.000 A 
ENDBRANCH 101 102
ENDBRANCH  99 101
ENDBRANCH  87  90
ENDBRANCH  82  86
ENDBRANCH  77  80
ENDBRANCH  75  76
ENDBRANCH   1  75
TORSDOF 17
ENDMDL
MODEL 3
REMARK VINA RESULT:     -13.0      4.727      6.089
REMARK SMILES O=C(NCCCNC(=O)c1ccccc1NC(=O)c1ccc2c(c1)C(=O)N(Cc1ccccc1)C2=O)c1ccc(-c2c3nc(c(-c4c(F)cc(S(=O)(=O)[O-])cc4F)c4ccc([nH]4)c(-c4c(F)cc(S(=O)(=O)[O-])cc4F)c4nc(c(-c5c(F)cc(S(=O)(=O)[O-])cc5F)c5ccc2[nH]5)C=C4)C=C3)cc1
REMARK SMILES IDX 5 1 4 2 3 3 1 4 2 5 37 7 38 8 102 9 39 10 101 11 40 12 41 13
REMARK SMILES IDX 42 14 95 15 43 16 100 17 94 18 96 19 44 20 99 21 93 22 92 23
REMARK SMILES IDX 45 25 79 26 58 27 78 28 59 29 62 30 77 31 97 32 60 33 61 34
REMARK SMILES IDX 76 36 98 37 63 38 46 39 47 40 56 41 48 42 49 43 55 44 57 45
REMARK SMILES IDX 50 46 51 47 52 48 53 49 54 50 80 51 81 52 90 53 82 54 83 55
REMARK SMILES IDX 89 56 91 57 84 58 85 59 86 60 87 61 88 62 64 63 65 64 74 65
REMARK SMILES IDX 66 66 67 67 73 68 75 69 68 70 69 71 70 72 71 73 72 74 6 75
REMARK SMILES IDX 7 76 8 77 9 79 10 80 11 81 15 82 12 83 14 84 13 85 16 86
REMARK SMILES IDX 17 87 18 89 19 90 20 91 24 92 21 93 23 94 22 95 25 96 35 97
REMARK SMILES IDX 26 98 27 99 36 100 28 101 29 102 30 103 34 104 31 105 33 106
REMARK SMILES IDX 32 107
REMARK H PARENT 3 6 96 24 62 35 7 78 16 88
REMARK Flexibility Score: inf
ROOT
ATOM      1  C   UNL A   1      33.178  28.305  25.692  1.00  0.00     0.042 C 
ENDROOT
BRANCH   1   2
ATOM      2  C   UNL A   1      34.356  29.021  26.330  1.00  0.00     0.118 C 
BRANCH   2   3
ATOM      3  N   UNL A   1      34.027  30.371  26.765  1.00  0.00    -0.352 N 
ATOM      4  O   UNL A   1      34.066  32.181  28.103  1.00  0.00    -0.269 OA
ATOM      5  C   UNL A   1      34.605  31.138  27.747  1.00  0.00     0.251 C 
ATOM      6  H   UNL A   1      33.280  30.796  26.285  1.00  0.00     0.163 HD
BRANCH   5   7
ATOM      7  C   UNL A   1      35.865  30.693  28.379  1.00  0.00     0.039 A 
ATOM      8  C   UNL A   1      37.079  31.287  28.026  1.00  0.00     0.014 A 
ATOM      9  C   UNL A   1      35.829  29.690  29.350  1.00  0.00     0.014 A 
ATOM     10  C   UNL A   1      38.268  30.782  28.532  1.00  0.00     0.010 A 
ATOM     11  C   UNL A   1      37.019  29.255  29.939  1.00  0.00     0.010 A 
ATOM     12  C   UNL A   1      38.248  29.790  29.524  1.00  0.00    -0.014 A 
BRANCH  12  13
ATOM     13  C   UNL A   1      39.516  29.437  30.206  1.00  0.00     0.031 A 
ATOM     14  C   UNL A   1      40.000  30.196  31.406  1.00  0.00     0.074 A 
ATOM     15  C   UNL A   1      40.226  28.403  29.710  1.00  0.00     0.049 A 
ATOM     16  N   UNL A   1      41.098  30.020  32.095  1.00  0.00    -0.248 NA
ATOM     17  C   UNL A   1      39.156  31.297  31.898  1.00  0.00     0.031 C 
ATOM     18  C   UNL A   1      39.854  27.617  28.527  1.00  0.00     0.029 A 
ATOM     19  N   UNL A   1      41.398  27.831  30.127  1.00  0.00    -0.354 N 
ATOM     20  C   UNL A   1      41.094  30.998  33.081  1.00  0.00     0.074 A 
ATOM     21  C   UNL A   1      39.885  31.773  32.901  1.00  0.00     0.031 C 
ATOM     22  C   UNL A   1      40.760  26.651  28.333  1.00  0.00     0.029 A 
ATOM     23  C   UNL A   1      41.815  26.793  29.326  1.00  0.00     0.049 A 
ATOM     24  H   UNL A   1      41.894  28.132  30.922  1.00  0.00     0.167 HD
ATOM     25  C   UNL A   1      42.022  31.221  34.042  1.00  0.00     0.037 A 
ATOM     26  C   UNL A   1      42.943  26.060  29.359  1.00  0.00     0.037 A 
ATOM     27  C   UNL A   1      43.203  30.417  34.223  1.00  0.00     0.049 A 
ATOM     28  C   UNL A   1      43.957  26.348  30.425  1.00  0.00     0.074 A 
ATOM     29  C   UNL A   1      44.155  30.503  35.225  1.00  0.00     0.029 A 
ATOM     30  N   UNL A   1      43.604  29.390  33.380  1.00  0.00    -0.354 N 
ATOM     31  N   UNL A   1      43.900  27.230  31.394  1.00  0.00    -0.248 NA
ATOM     32  C   UNL A   1      45.193  25.557  30.398  1.00  0.00     0.031 C 
ATOM     33  C   UNL A   1      45.158  29.566  34.957  1.00  0.00     0.029 A 
ATOM     34  C   UNL A   1      44.811  28.867  33.813  1.00  0.00     0.049 A 
ATOM     35  H   UNL A   1      43.104  29.081  32.590  1.00  0.00     0.167 HD
ATOM     36  C   UNL A   1      45.094  27.102  32.090  1.00  0.00     0.074 A 
ATOM     37  C   UNL A   1      45.838  26.036  31.452  1.00  0.00     0.031 C 
ATOM     38  C   UNL A   1      45.539  27.811  33.156  1.00  0.00     0.037 A 
BRANCH  25  39
ATOM     39  C   UNL A   1      41.824  32.382  34.976  1.00  0.00     0.058 A 
ATOM     40  C   UNL A   1      42.387  33.641  34.721  1.00  0.00     0.135 A 
ATOM     41  C   UNL A   1      40.962  32.260  36.079  1.00  0.00     0.135 A 
ATOM     42  F   UNL A   1      43.228  33.810  33.689  1.00  0.00    -0.206 F 
ATOM     43  C   UNL A   1      42.099  34.742  35.524  1.00  0.00     0.059 A 
ATOM     44  C   UNL A   1      40.645  33.350  36.885  1.00  0.00     0.059 A 
ATOM     45  F   UNL A   1      40.400  31.077  36.368  1.00  0.00    -0.206 F 
ATOM     46  C   UNL A   1      41.220  34.588  36.600  1.00  0.00     0.060 A 
BRANCH  46  47
ATOM     47  S   UNL A   1      40.811  36.038  37.595  1.00  0.00     0.124 S 
ATOM     48  O   UNL A   1      39.765  36.659  36.789  1.00  0.00    -0.237 OA
ATOM     49  O   UNL A   1      40.371  35.440  38.851  1.00  0.00    -0.237 OA
ATOM     50  O   UNL A   1      42.071  36.772  37.662  1.00  0.00    -0.744 OA
ENDBRANCH  46  47
ENDBRANCH  25  39
BRANCH  26  51
ATOM     51  C   UNL A   1      43.192  25.035  28.313  1.00  0.00     0.058 A 
ATOM     52  C   UNL A   1      43.034  23.668  28.580  1.00  0.00     0.135 A 
ATOM     53  C   UNL A   1      43.589  25.409  27.018  1.00  0.00     0.135 A 
ATOM     54  F   UNL A   1      42.657  23.263  29.802  1.00  0.00    -0.206 F 
ATOM     55  C   UNL A   1      43.285  22.705  27.609  1.00  0.00     0.059 A 
ATOM     56  C   UNL A   1      43.819  24.466  26.023  1.00  0.00     0.059 A 
ATOM     57  F   UNL A   1      43.734  26.706  26.706  1.00  0.00    -0.206 F 
ATOM     58  C   UNL A   1      43.681  23.114  26.334  1.00  0.00     0.060 A 
BRANCH  58  59
ATOM     59  S   UNL A   1      43.989  21.861  25.071  1.00  0.00     0.124 S 
ATOM     60  O   UNL A   1      42.936  20.895  25.358  1.00  0.00    -0.237 OA
ATOM     61  O   UNL A   1      43.838  22.623  23.836  1.00  0.00    -0.237 OA
ATOM     62  O   UNL A   1      45.349  21.421  25.364  1.00  0.00    -0.744 OA
ENDBRANCH  58  59
ENDBRANCH  26  51
BRANCH  38  63
ATOM     63  C   UNL A   1      46.896  27.457  33.689  1.00  0.00     0.058 A 
ATOM     64  C   UNL A   1      47.054  26.481  34.683  1.00  0.00     0.135 A 
ATOM     65  C   UNL A   1      48.050  28.063  33.170  1.00  0.00     0.135 A 
ATOM     66  F   UNL A   1      45.977  25.883  35.220  1.00  0.00    -0.206 F 
ATOM     67  C   UNL A   1      48.311  26.126  35.157  1.00  0.00     0.059 A 
ATOM     68  C   UNL A   1      49.319  27.706  33.610  1.00  0.00     0.059 A 
ATOM     69  F   UNL A   1      47.950  29.000  32.212  1.00  0.00    -0.206 F 
ATOM     70  C   UNL A   1      49.439  26.742  34.612  1.00  0.00     0.060 A 
BRANCH  70  71
ATOM     71  S   UNL A   1      51.068  26.240  35.203  1.00  0.00     0.124 S 
ATOM     72  O   UNL A   1      51.249  24.965  34.517  1.00  0.00    -0.237 OA
ATOM     73  O   UNL A   1      51.919  27.333  34.742  1.00  0.00    -0.237 OA
ATOM     74  O   UNL A   1      50.894  26.156  36.649  1.00  0.00    -0.744 OA
ENDBRANCH  70  71
ENDBRANCH  38  63
ENDBRANCH  12  13
ENDBRANCH   5   7
ENDBRANCH   2   3
ENDBRANCH   1   2
BRANCH   1  75
ATOM     75  C   UNL A   1      33.259  28.222  24.178  1.00  0.00     0.118 C 
BRANCH  75  76
ATOM     76  N   UNL A   1      31.976  28.478  23.540  1.00  0.00    -0.352 N 
ATOM     77  C   UNL A   1      31.236  27.650  22.742  1.00  0.00     0.253 C 
ATOM     78  H   UNL A   1      31.589  29.368  23.705  1.00  0.00     0.163 HD
ATOM     79  O   UNL A   1      30.248  28.070  22.147  1.00  0.00    -0.269 OA
BRANCH  77  80
ATOM     80  C   UNL A   1      31.621  26.237  22.605  1.00  0.00     0.063 A 
ATOM     81  C   UNL A   1      32.564  25.952  21.601  1.00  0.00     0.016 A 
ATOM     82  C   UNL A   1      31.075  25.224  23.420  1.00  0.00     0.054 A 
ATOM     83  C   UNL A   1      32.998  24.648  21.403  1.00  0.00     0.001 A 
ATOM     84  C   UNL A   1      31.488  23.918  23.147  1.00  0.00     0.027 A 
ATOM     85  C   UNL A   1      32.456  23.629  22.174  1.00  0.00     0.002 A 
BRANCH  82  86
ATOM     86  N   UNL A   1      30.114  25.554  24.425  1.00  0.00    -0.321 N 
ATOM     87  C   UNL A   1      29.952  25.159  25.744  1.00  0.00     0.255 C 
ATOM     88  H   UNL A   1      29.429  26.190  24.118  1.00  0.00     0.170 HD
ATOM     89  O   UNL A   1      28.975  25.497  26.402  1.00  0.00    -0.269 OA
BRANCH  87  90
ATOM     90  C   UNL A   1      31.038  24.430  26.420  1.00  0.00     0.041 A 
ATOM     91  C   UNL A   1      30.830  23.081  26.787  1.00  0.00     0.015 A 
ATOM     92  C   UNL A   1      32.310  25.000  26.354  1.00  0.00     0.028 A 
ATOM     93  C   UNL A   1      31.929  22.213  26.866  1.00  0.00     0.015 A 
ATOM     94  C   UNL A   1      33.357  24.112  26.398  1.00  0.00     0.054 A 
ATOM     95  C   UNL A   1      33.176  22.752  26.583  1.00  0.00     0.053 A 
ATOM     96  C   UNL A   1      34.660  24.326  25.787  1.00  0.00     0.261 C 
ATOM     97  C   UNL A   1      34.359  22.088  26.020  1.00  0.00     0.261 C 
ATOM     98  O   UNL A   1      35.054  25.418  25.446  1.00  0.00    -0.269 OA
ATOM     99  N   UNL A   1      35.184  23.081  25.566  1.00  0.00    -0.270 N 
ATOM    100  O   UNL A   1      34.445  20.882  25.869  1.00  0.00    -0.269 OA
BRANCH  99 101
ATOM    101  C   UNL A   1      36.326  22.872  24.704  1.00  0.00     0.164 C 
BRANCH 101 102
ATOM    102  C   UNL A   1      37.598  22.721  25.490  1.00  0.00    -0.028 A 
ATOM    103  C   UNL A   1      38.127  23.807  26.195  1.00  0.00     0.005 A 
ATOM    104  C   UNL A   1      38.299  21.506  25.476  1.00  0.00     0.005 A 
ATOM    105  C   UNL A   1      39.344  23.681  26.865  1.00  0.00     0.000 A 
ATOM    106  C   UNL A   1      39.521  21.386  26.133  1.00  0.00     0.000 A 
ATOM    107  C   UNL A   1      40.044  22.476  26.824  1.00  0.00     0.000 A 
ENDBRANCH 101 102
ENDBRANCH  99 101
ENDBRANCH  87  90
ENDBRANCH  82  86
ENDBRANCH  77  80
ENDBRANCH  75  76
ENDBRANCH   1  75
TORSDOF 17
ENDMDL
