MODEL 1
REMARK VINA RESULT:     -13.4      0.000      0.000
REMARK SMILES CC(C)=Cc1c(C(=O)NCCCNC(=O)c2ccc(-c3c4nc(c(-c5c(F)cc(S(=O)(=O)[O-])cc5F)c5ccc([nH]5)c(-c5c(F)cc(S(=O)(=O)[O-])cc5F)c5nc(c(-c6c(F)cc(S(=O)(=O)[O-])cc6F)c6ccc3[nH]6)C=C5)C=C4)cc2)nnn1-c1ccc(C(C)C)cc1
REMARK SMILES IDX 11 1 10 2 9 3 7 4 8 5 6 7 5 8 84 9 82 10 83 11 4 12 1 13
REMARK SMILES IDX 2 14 3 15 85 16 86 17 93 18 87 19 92 20 88 21 89 22 90 23
REMARK SMILES IDX 91 24 12 25 13 26 14 27 15 29 16 30 17 31 81 32 18 33 80 34
REMARK SMILES IDX 19 35 20 36 21 37 74 38 22 39 79 40 73 41 75 42 23 43 78 44
REMARK SMILES IDX 72 45 71 46 24 48 58 49 37 50 57 51 38 52 41 53 56 54 76 55
REMARK SMILES IDX 39 56 40 57 55 59 77 60 42 61 25 62 26 63 35 64 27 65 28 66
REMARK SMILES IDX 34 67 36 68 29 69 30 70 31 71 32 72 33 73 59 74 60 75 69 76
REMARK SMILES IDX 61 77 62 78 68 79 70 80 63 81 64 82 65 83 66 84 67 85 43 86
REMARK SMILES IDX 44 87 53 88 45 89 46 90 52 91 54 92 47 93 48 94 49 95 50 96
REMARK SMILES IDX 51 97
REMARK H PARENT 9 6 13 28 75 47 41 58
REMARK Flexibility Score: inf
ROOT
ATOM      1  C   UNL A   1      36.126  22.497  25.247  1.00  0.00     0.042 C 
ENDROOT
BRANCH   1   2
ATOM      2  C   UNL A   1      34.914  23.431  25.266  1.00  0.00     0.118 C 
BRANCH   2   3
ATOM      3  N   UNL A   1      34.030  23.170  26.370  1.00  0.00    -0.351 N 
ATOM      4  C   UNL A   1      32.703  23.428  26.589  1.00  0.00     0.274 C 
ATOM      5  O   UNL A   1      32.261  22.931  27.630  1.00  0.00    -0.267 OA
ATOM      6  H   UNL A   1      34.468  22.713  27.123  1.00  0.00     0.163 HD
BRANCH   4   7
ATOM      7  C   UNL A   1      31.823  24.203  25.708  1.00  0.00     0.178 A 
ATOM      8  C   UNL A   1      31.253  25.479  25.702  1.00  0.00     0.100 A 
ATOM      9  N   UNL A   1      30.557  25.519  24.490  1.00  0.00    -0.213 N 
ATOM     10  N   UNL A   1      31.349  23.526  24.595  1.00  0.00    -0.124 NA
ATOM     11  N   UNL A   1      30.522  24.299  23.926  1.00  0.00    -0.061 NA
BRANCH   8  12
ATOM     12  C   UNL A   1      31.203  26.613  26.557  1.00  0.00     0.029 C 
ATOM     13  C   UNL A   1      33.501  27.512  25.924  1.00  0.00     0.039 C 
ATOM     14  C   UNL A   1      32.194  27.524  26.676  1.00  0.00    -0.074 C 
ATOM     15  C   UNL A   1      32.050  28.691  27.625  1.00  0.00     0.039 C 
ENDBRANCH   8  12
BRANCH   9  16
ATOM     16  C   UNL A   1      29.877  26.594  23.872  1.00  0.00     0.067 A 
ATOM     17  C   UNL A   1      28.480  26.598  23.907  1.00  0.00     0.029 A 
ATOM     18  C   UNL A   1      30.576  27.660  23.297  1.00  0.00     0.029 A 
ATOM     19  C   UNL A   1      27.790  27.716  23.452  1.00  0.00     0.006 A 
ATOM     20  C   UNL A   1      29.875  28.762  22.812  1.00  0.00     0.006 A 
ATOM     21  C   UNL A   1      28.478  28.811  22.907  1.00  0.00    -0.045 A 
BRANCH  21  22
ATOM     22  C   UNL A   1      27.736  30.047  22.439  1.00  0.00     0.013 C 
ATOM     23  C   UNL A   1      27.664  31.099  23.546  1.00  0.00     0.012 C 
ATOM     24  C   UNL A   1      28.375  30.611  21.169  1.00  0.00     0.012 C 
ENDBRANCH  21  22
ENDBRANCH   9  16
ENDBRANCH   4   7
ENDBRANCH   2   3
ENDBRANCH   1   2
BRANCH   1  25
ATOM     25  C   UNL A   1      37.402  23.235  25.577  1.00  0.00     0.118 C 
BRANCH  25  26
ATOM     26  N   UNL A   1      38.429  22.322  26.124  1.00  0.00    -0.352 N 
ATOM     27  C   UNL A   1      39.679  22.612  26.668  1.00  0.00     0.251 C 
ATOM     28  H   UNL A   1      38.195  21.367  26.100  1.00  0.00     0.163 HD
ATOM     29  O   UNL A   1      40.524  21.753  26.797  1.00  0.00    -0.269 OA
BRANCH  27  30
ATOM     30  C   UNL A   1      39.919  24.001  27.092  1.00  0.00     0.039 A 
ATOM     31  C   UNL A   1      39.024  25.057  26.896  1.00  0.00     0.014 A 
ATOM     32  C   UNL A   1      41.070  24.179  27.831  1.00  0.00     0.014 A 
ATOM     33  C   UNL A   1      39.303  26.273  27.521  1.00  0.00     0.010 A 
ATOM     34  C   UNL A   1      41.075  25.170  28.749  1.00  0.00     0.010 A 
ATOM     35  C   UNL A   1      40.347  26.307  28.450  1.00  0.00    -0.014 A 
BRANCH  35  36
ATOM     36  C   UNL A   1      40.787  27.472  29.195  1.00  0.00     0.031 A 
ATOM     37  C   UNL A   1      41.861  28.245  28.529  1.00  0.00     0.074 A 
ATOM     38  C   UNL A   1      39.977  27.992  30.151  1.00  0.00     0.049 A 
ATOM     39  N   UNL A   1      43.102  28.335  28.871  1.00  0.00    -0.248 NA
ATOM     40  C   UNL A   1      41.569  28.819  27.202  1.00  0.00     0.031 C 
ATOM     41  C   UNL A   1      38.655  27.511  30.598  1.00  0.00     0.029 A 
ATOM     42  N   UNL A   1      40.099  29.161  30.828  1.00  0.00    -0.354 N 
ATOM     43  C   UNL A   1      43.669  29.214  27.952  1.00  0.00     0.074 A 
ATOM     44  C   UNL A   1      42.785  29.213  26.820  1.00  0.00     0.031 C 
ATOM     45  C   UNL A   1      38.016  28.487  31.279  1.00  0.00     0.029 A 
ATOM     46  C   UNL A   1      38.937  29.589  31.470  1.00  0.00     0.049 A 
ATOM     47  H   UNL A   1      40.941  29.668  30.862  1.00  0.00     0.167 HD
ATOM     48  C   UNL A   1      44.626  30.111  28.328  1.00  0.00     0.037 A 
ATOM     49  C   UNL A   1      38.757  30.791  32.076  1.00  0.00     0.037 A 
ATOM     50  C   UNL A   1      45.117  29.794  29.652  1.00  0.00     0.049 A 
ATOM     51  C   UNL A   1      40.120  31.344  32.321  1.00  0.00     0.074 A 
ATOM     52  C   UNL A   1      45.703  28.684  30.232  1.00  0.00     0.029 A 
ATOM     53  N   UNL A   1      44.645  30.554  30.699  1.00  0.00    -0.354 N 
ATOM     54  N   UNL A   1      40.994  30.781  33.116  1.00  0.00    -0.248 NA
ATOM     55  C   UNL A   1      40.686  32.208  31.295  1.00  0.00     0.031 C 
ATOM     56  C   UNL A   1      45.118  28.595  31.530  1.00  0.00     0.029 A 
ATOM     57  C   UNL A   1      44.282  29.699  31.710  1.00  0.00     0.049 A 
ATOM     58  H   UNL A   1      44.579  31.536  30.719  1.00  0.00     0.167 HD
ATOM     59  C   UNL A   1      42.210  30.879  32.449  1.00  0.00     0.074 A 
ATOM     60  C   UNL A   1      41.967  31.832  31.366  1.00  0.00     0.031 C 
ATOM     61  C   UNL A   1      43.203  29.957  32.644  1.00  0.00     0.037 A 
BRANCH  48  62
ATOM     62  C   UNL A   1      44.832  31.485  27.713  1.00  0.00     0.058 A 
ATOM     63  C   UNL A   1      46.046  31.741  27.038  1.00  0.00     0.135 A 
ATOM     64  C   UNL A   1      44.044  32.628  27.979  1.00  0.00     0.135 A 
ATOM     65  F   UNL A   1      46.866  30.733  26.698  1.00  0.00    -0.206 F 
ATOM     66  C   UNL A   1      46.497  33.033  26.764  1.00  0.00     0.059 A 
ATOM     67  C   UNL A   1      44.451  33.920  27.665  1.00  0.00     0.059 A 
ATOM     68  F   UNL A   1      42.881  32.578  28.632  1.00  0.00    -0.206 F 
ATOM     69  C   UNL A   1      45.700  34.118  27.109  1.00  0.00     0.060 A 
BRANCH  69  70
ATOM     70  S   UNL A   1      46.334  35.788  26.894  1.00  0.00     0.124 S 
ATOM     71  O   UNL A   1      46.737  35.764  25.493  1.00  0.00    -0.237 OA
ATOM     72  O   UNL A   1      45.162  36.597  27.211  1.00  0.00    -0.237 OA
ATOM     73  O   UNL A   1      47.421  35.862  27.864  1.00  0.00    -0.744 OA
ENDBRANCH  69  70
ENDBRANCH  48  62
BRANCH  49  74
ATOM     74  C   UNL A   1      37.515  31.611  32.103  1.00  0.00     0.058 A 
ATOM     75  C   UNL A   1      36.909  32.004  33.309  1.00  0.00     0.135 A 
ATOM     76  C   UNL A   1      37.036  32.246  30.937  1.00  0.00     0.135 A 
ATOM     77  F   UNL A   1      37.318  31.473  34.471  1.00  0.00    -0.206 F 
ATOM     78  C   UNL A   1      35.910  32.987  33.360  1.00  0.00     0.059 A 
ATOM     79  C   UNL A   1      36.038  33.220  30.961  1.00  0.00     0.059 A 
ATOM     80  F   UNL A   1      37.589  31.995  29.740  1.00  0.00    -0.206 F 
ATOM     81  C   UNL A   1      35.491  33.603  32.179  1.00  0.00     0.060 A 
BRANCH  81  82
ATOM     82  S   UNL A   1      34.312  34.974  32.252  1.00  0.00     0.124 S 
ATOM     83  O   UNL A   1      33.173  34.358  32.924  1.00  0.00    -0.237 OA
ATOM     84  O   UNL A   1      35.044  35.971  33.025  1.00  0.00    -0.237 OA
ATOM     85  O   UNL A   1      34.097  35.313  30.848  1.00  0.00    -0.744 OA
ENDBRANCH  81  82
ENDBRANCH  49  74
BRANCH  61  86
ATOM     86  C   UNL A   1      43.063  28.980  33.789  1.00  0.00     0.058 A 
ATOM     87  C   UNL A   1      43.317  29.290  35.138  1.00  0.00     0.135 A 
ATOM     88  C   UNL A   1      42.477  27.734  33.529  1.00  0.00     0.135 A 
ATOM     89  F   UNL A   1      43.775  30.496  35.493  1.00  0.00    -0.206 F 
ATOM     90  C   UNL A   1      43.040  28.394  36.173  1.00  0.00     0.059 A 
ATOM     91  C   UNL A   1      42.165  26.834  34.545  1.00  0.00     0.059 A 
ATOM     92  F   UNL A   1      42.145  27.400  32.270  1.00  0.00    -0.206 F 
ATOM     93  C   UNL A   1      42.461  27.165  35.866  1.00  0.00     0.060 A 
BRANCH  93  94
ATOM     94  S   UNL A   1      42.036  26.032  37.207  1.00  0.00     0.124 S 
ATOM     95  O   UNL A   1      43.008  26.395  38.233  1.00  0.00    -0.237 OA
ATOM     96  O   UNL A   1      40.649  26.388  37.496  1.00  0.00    -0.237 OA
ATOM     97  O   UNL A   1      42.220  24.712  36.610  1.00  0.00    -0.744 OA
ENDBRANCH  93  94
ENDBRANCH  61  86
ENDBRANCH  35  36
ENDBRANCH  27  30
ENDBRANCH  25  26
ENDBRANCH   1  25
TORSDOF 16
ENDMDL
MODEL 2
REMARK VINA RESULT:     -13.1      1.168      1.934
REMARK SMILES CC(C)=Cc1c(C(=O)NCCCNC(=O)c2ccc(-c3c4nc(c(-c5c(F)cc(S(=O)(=O)[O-])cc5F)c5ccc([nH]5)c(-c5c(F)cc(S(=O)(=O)[O-])cc5F)c5nc(c(-c6c(F)cc(S(=O)(=O)[O-])cc6F)c6ccc3[nH]6)C=C5)C=C4)cc2)nnn1-c1ccc(C(C)C)cc1
REMARK SMILES IDX 11 1 10 2 9 3 7 4 8 5 6 7 5 8 84 9 82 10 83 11 4 12 1 13
REMARK SMILES IDX 2 14 3 15 85 16 86 17 93 18 87 19 92 20 88 21 89 22 90 23
REMARK SMILES IDX 91 24 12 25 13 26 14 27 15 29 16 30 17 31 81 32 18 33 80 34
REMARK SMILES IDX 19 35 20 36 21 37 74 38 22 39 79 40 73 41 75 42 23 43 78 44
REMARK SMILES IDX 72 45 71 46 24 48 58 49 37 50 57 51 38 52 41 53 56 54 76 55
REMARK SMILES IDX 39 56 40 57 55 59 77 60 42 61 25 62 26 63 35 64 27 65 28 66
REMARK SMILES IDX 34 67 36 68 29 69 30 70 31 71 32 72 33 73 59 74 60 75 69 76
REMARK SMILES IDX 61 77 62 78 68 79 70 80 63 81 64 82 65 83 66 84 67 85 43 86
REMARK SMILES IDX 44 87 53 88 45 89 46 90 52 91 54 92 47 93 48 94 49 95 50 96
REMARK SMILES IDX 51 97
REMARK H PARENT 9 6 13 28 75 47 41 58
REMARK Flexibility Score: inf
ROOT
ATOM      1  C   UNL A   1      35.873  22.279  25.520  1.00  0.00     0.042 C 
ENDROOT
BRANCH   1   2
ATOM      2  C   UNL A   1      34.640  23.138  25.812  1.00  0.00     0.118 C 
BRANCH   2   3
ATOM      3  N   UNL A   1      33.423  22.372  25.831  1.00  0.00    -0.351 N 
ATOM      4  C   UNL A   1      32.107  22.699  25.649  1.00  0.00     0.274 C 
ATOM      5  O   UNL A   1      31.347  21.726  25.616  1.00  0.00    -0.267 OA
ATOM      6  H   UNL A   1      33.566  21.415  26.013  1.00  0.00     0.163 HD
BRANCH   4   7
ATOM      7  C   UNL A   1      31.576  24.058  25.487  1.00  0.00     0.178 A 
ATOM      8  C   UNL A   1      31.340  24.943  24.432  1.00  0.00     0.100 A 
ATOM      9  N   UNL A   1      30.767  26.052  25.059  1.00  0.00    -0.213 N 
ATOM     10  N   UNL A   1      31.257  24.715  26.666  1.00  0.00    -0.124 NA
ATOM     11  N   UNL A   1      30.859  25.939  26.395  1.00  0.00    -0.061 NA
BRANCH   8  12
ATOM     12  C   UNL A   1      31.547  24.982  23.026  1.00  0.00     0.029 C 
ATOM     13  C   UNL A   1      33.685  26.363  23.121  1.00  0.00     0.039 C 
ATOM     14  C   UNL A   1      32.577  25.615  22.424  1.00  0.00    -0.074 C 
ATOM     15  C   UNL A   1      32.702  25.611  20.918  1.00  0.00     0.039 C 
ENDBRANCH   8  12
BRANCH   9  16
ATOM     16  C   UNL A   1      30.210  27.223  24.495  1.00  0.00     0.067 A 
ATOM     17  C   UNL A   1      30.887  28.431  24.678  1.00  0.00     0.029 A 
ATOM     18  C   UNL A   1      29.048  27.172  23.718  1.00  0.00     0.029 A 
ATOM     19  C   UNL A   1      30.451  29.566  24.004  1.00  0.00     0.006 A 
ATOM     20  C   UNL A   1      28.599  28.321  23.071  1.00  0.00     0.006 A 
ATOM     21  C   UNL A   1      29.310  29.523  23.188  1.00  0.00    -0.045 A 
BRANCH  21  22
ATOM     22  C   UNL A   1      28.848  30.747  22.423  1.00  0.00     0.013 C 
ATOM     23  C   UNL A   1      28.060  30.351  21.174  1.00  0.00     0.012 C 
ATOM     24  C   UNL A   1      28.035  31.674  23.329  1.00  0.00     0.012 C 
ENDBRANCH  21  22
ENDBRANCH   9  16
ENDBRANCH   4   7
ENDBRANCH   2   3
ENDBRANCH   1   2
BRANCH   1  25
ATOM     25  C   UNL A   1      37.152  23.014  25.848  1.00  0.00     0.118 C 
BRANCH  25  26
ATOM     26  N   UNL A   1      38.217  22.080  26.277  1.00  0.00    -0.352 N 
ATOM     27  C   UNL A   1      39.519  22.347  26.695  1.00  0.00     0.251 C 
ATOM     28  H   UNL A   1      37.968  21.128  26.265  1.00  0.00     0.163 HD
ATOM     29  O   UNL A   1      40.361  21.476  26.727  1.00  0.00    -0.269 OA
BRANCH  27  30
ATOM     30  C   UNL A   1      39.820  23.727  27.110  1.00  0.00     0.039 A 
ATOM     31  C   UNL A   1      38.869  24.745  27.232  1.00  0.00     0.014 A 
ATOM     32  C   UNL A   1      41.126  23.931  27.504  1.00  0.00     0.014 A 
ATOM     33  C   UNL A   1      39.271  25.946  27.819  1.00  0.00     0.010 A 
ATOM     34  C   UNL A   1      41.356  24.881  28.436  1.00  0.00     0.010 A 
ATOM     35  C   UNL A   1      40.533  25.991  28.417  1.00  0.00    -0.014 A 
BRANCH  35  36
ATOM     36  C   UNL A   1      41.124  27.145  29.071  1.00  0.00     0.031 A 
ATOM     37  C   UNL A   1      42.276  27.727  28.344  1.00  0.00     0.074 A 
ATOM     38  C   UNL A   1      40.399  27.829  29.990  1.00  0.00     0.049 A 
ATOM     39  N   UNL A   1      43.524  27.686  28.672  1.00  0.00    -0.248 NA
ATOM     40  C   UNL A   1      42.039  28.234  26.979  1.00  0.00     0.031 C 
ATOM     41  C   UNL A   1      39.034  27.551  30.478  1.00  0.00     0.029 A 
ATOM     42  N   UNL A   1      40.674  29.021  30.577  1.00  0.00    -0.354 N 
ATOM     43  C   UNL A   1      44.181  28.419  27.687  1.00  0.00     0.074 A 
ATOM     44  C   UNL A   1      43.288  28.444  26.563  1.00  0.00     0.031 C 
ATOM     45  C   UNL A   1      38.530  28.646  31.088  1.00  0.00     0.029 A 
ATOM     46  C   UNL A   1      39.583  29.635  31.192  1.00  0.00     0.049 A 
ATOM     47  H   UNL A   1      41.573  29.421  30.570  1.00  0.00     0.167 HD
ATOM     48  C   UNL A   1      45.247  29.215  27.991  1.00  0.00     0.037 A 
ATOM     49  C   UNL A   1      39.562  30.891  31.707  1.00  0.00     0.037 A 
ATOM     50  C   UNL A   1      45.715  28.937  29.332  1.00  0.00     0.049 A 
ATOM     51  C   UNL A   1      40.986  31.287  31.903  1.00  0.00     0.074 A 
ATOM     52  C   UNL A   1      46.167  27.808  29.990  1.00  0.00     0.029 A 
ATOM     53  N   UNL A   1      45.355  29.824  30.322  1.00  0.00    -0.354 N 
ATOM     54  N   UNL A   1      41.795  30.680  32.734  1.00  0.00    -0.248 NA
ATOM     55  C   UNL A   1      41.640  31.997  30.814  1.00  0.00     0.031 C 
ATOM     56  C   UNL A   1      45.594  27.888  31.294  1.00  0.00     0.029 A 
ATOM     57  C   UNL A   1      44.903  29.097  31.396  1.00  0.00     0.049 A 
ATOM     58  H   UNL A   1      45.411  30.805  30.269  1.00  0.00     0.167 HD
ATOM     59  C   UNL A   1      43.004  30.576  32.056  1.00  0.00     0.074 A 
ATOM     60  C   UNL A   1      42.866  31.471  30.906  1.00  0.00     0.031 C 
ATOM     61  C   UNL A   1      43.878  29.555  32.313  1.00  0.00     0.037 A 
BRANCH  48  62
ATOM     62  C   UNL A   1      45.613  30.504  27.274  1.00  0.00     0.058 A 
ATOM     63  C   UNL A   1      46.955  30.690  26.876  1.00  0.00     0.135 A 
ATOM     64  C   UNL A   1      44.803  31.660  27.203  1.00  0.00     0.135 A 
ATOM     65  F   UNL A   1      47.817  29.659  26.866  1.00  0.00    -0.206 F 
ATOM     66  C   UNL A   1      47.478  31.944  26.556  1.00  0.00     0.059 A 
ATOM     67  C   UNL A   1      45.292  32.908  26.834  1.00  0.00     0.059 A 
ATOM     68  F   UNL A   1      43.519  31.676  27.567  1.00  0.00    -0.206 F 
ATOM     69  C   UNL A   1      46.639  33.052  26.566  1.00  0.00     0.060 A 
BRANCH  69  70
ATOM     70  S   UNL A   1      47.332  34.691  26.298  1.00  0.00     0.124 S 
ATOM     71  O   UNL A   1      46.132  35.464  25.999  1.00  0.00    -0.237 OA
ATOM     72  O   UNL A   1      47.966  34.963  27.583  1.00  0.00    -0.237 OA
ATOM     73  O   UNL A   1      48.250  34.489  25.181  1.00  0.00    -0.744 OA
ENDBRANCH  69  70
ENDBRANCH  48  62
BRANCH  49  74
ATOM     74  C   UNL A   1      38.431  31.860  31.680  1.00  0.00     0.058 A 
ATOM     75  C   UNL A   1      37.850  32.293  30.475  1.00  0.00     0.135 A 
ATOM     76  C   UNL A   1      37.724  32.186  32.857  1.00  0.00     0.135 A 
ATOM     77  F   UNL A   1      38.439  32.006  29.304  1.00  0.00    -0.206 F 
ATOM     78  C   UNL A   1      36.630  32.983  30.438  1.00  0.00     0.059 A 
ATOM     79  C   UNL A   1      36.512  32.877  32.846  1.00  0.00     0.059 A 
ATOM     80  F   UNL A   1      38.152  31.765  34.057  1.00  0.00    -0.206 F 
ATOM     81  C   UNL A   1      35.958  33.257  31.630  1.00  0.00     0.060 A 
BRANCH  81  82
ATOM     82  S   UNL A   1      34.314  34.012  31.580  1.00  0.00     0.124 S 
ATOM     83  O   UNL A   1      33.905  33.755  30.204  1.00  0.00    -0.237 OA
ATOM     84  O   UNL A   1      33.599  33.264  32.607  1.00  0.00    -0.237 OA
ATOM     85  O   UNL A   1      34.573  35.413  31.901  1.00  0.00    -0.744 OA
ENDBRANCH  81  82
ENDBRANCH  49  74
BRANCH  61  86
ATOM     86  C   UNL A   1      43.635  28.689  33.528  1.00  0.00     0.058 A 
ATOM     87  C   UNL A   1      43.954  29.059  34.849  1.00  0.00     0.135 A 
ATOM     88  C   UNL A   1      42.887  27.515  33.367  1.00  0.00     0.135 A 
ATOM     89  F   UNL A   1      44.571  30.217  35.109  1.00  0.00    -0.206 F 
ATOM     90  C   UNL A   1      43.583  28.284  35.949  1.00  0.00     0.059 A 
ATOM     91  C   UNL A   1      42.480  26.740  34.450  1.00  0.00     0.059 A 
ATOM     92  F   UNL A   1      42.489  27.139  32.140  1.00  0.00    -0.206 F 
ATOM     93  C   UNL A   1      42.842  27.122  35.740  1.00  0.00     0.060 A 
BRANCH  93  94
ATOM     94  S   UNL A   1      42.300  26.155  37.165  1.00  0.00     0.124 S 
ATOM     95  O   UNL A   1      42.441  24.787  36.678  1.00  0.00    -0.237 OA
ATOM     96  O   UNL A   1      43.246  26.559  38.201  1.00  0.00    -0.237 OA
ATOM     97  O   UNL A   1      40.926  26.603  37.379  1.00  0.00    -0.744 OA
ENDBRANCH  93  94
ENDBRANCH  61  86
ENDBRANCH  35  36
ENDBRANCH  27  30
ENDBRANCH  25  26
ENDBRANCH   1  25
TORSDOF 16
ENDMDL
MODEL 3
REMARK VINA RESULT:     -13.1      3.242      8.181
REMARK SMILES CC(C)=Cc1c(C(=O)NCCCNC(=O)c2ccc(-c3c4nc(c(-c5c(F)cc(S(=O)(=O)[O-])cc5F)c5ccc([nH]5)c(-c5c(F)cc(S(=O)(=O)[O-])cc5F)c5nc(c(-c6c(F)cc(S(=O)(=O)[O-])cc6F)c6ccc3[nH]6)C=C5)C=C4)cc2)nnn1-c1ccc(C(C)C)cc1
REMARK SMILES IDX 11 1 10 2 9 3 7 4 8 5 6 7 5 8 84 9 82 10 83 11 4 12 1 13
REMARK SMILES IDX 2 14 3 15 85 16 86 17 93 18 87 19 92 20 88 21 89 22 90 23
REMARK SMILES IDX 91 24 12 25 13 26 14 27 15 29 16 30 17 31 81 32 18 33 80 34
REMARK SMILES IDX 19 35 20 36 21 37 74 38 22 39 79 40 73 41 75 42 23 43 78 44
REMARK SMILES IDX 72 45 71 46 24 48 58 49 37 50 57 51 38 52 41 53 56 54 76 55
REMARK SMILES IDX 39 56 40 57 55 59 77 60 42 61 25 62 26 63 35 64 27 65 28 66
REMARK SMILES IDX 34 67 36 68 29 69 30 70 31 71 32 72 33 73 59 74 60 75 69 76
REMARK SMILES IDX 61 77 62 78 68 79 70 80 63 81 64 82 65 83 66 84 67 85 43 86
REMARK SMILES IDX 44 87 53 88 45 89 46 90 52 91 54 92 47 93 48 94 49 95 50 96
REMARK SMILES IDX 51 97
REMARK H PARENT 9 6 13 28 75 47 41 58
REMARK Flexibility Score: inf
ROOT
ATOM      1  C   UNL A   1      31.401  32.155  26.548  1.00  0.00     0.042 C 
ENDROOT
BRANCH   1   2
ATOM      2  C   UNL A   1      31.640  30.719  26.074  1.00  0.00     0.118 C 
BRANCH   2   3
ATOM      3  N   UNL A   1      30.925  30.409  24.865  1.00  0.00    -0.351 N 
ATOM      4  C   UNL A   1      31.013  29.384  23.962  1.00  0.00     0.274 C 
ATOM      5  O   UNL A   1      30.128  29.397  23.100  1.00  0.00    -0.267 OA
ATOM      6  H   UNL A   1      30.231  31.069  24.640  1.00  0.00     0.163 HD
BRANCH   4   7
ATOM      7  C   UNL A   1      32.029  28.325  23.962  1.00  0.00     0.178 A 
ATOM      8  C   UNL A   1      32.204  27.079  24.568  1.00  0.00     0.100 A 
ATOM      9  N   UNL A   1      33.418  26.628  24.044  1.00  0.00    -0.213 N 
ATOM     10  N   UNL A   1      33.173  28.599  23.228  1.00  0.00    -0.124 NA
ATOM     11  N   UNL A   1      34.031  27.611  23.361  1.00  0.00    -0.061 NA
BRANCH   8  12
ATOM     12  C   UNL A   1      31.520  26.261  25.509  1.00  0.00     0.029 C 
ATOM     13  C   UNL A   1      30.215  24.920  23.781  1.00  0.00     0.039 C 
ATOM     14  C   UNL A   1      30.627  25.302  25.180  1.00  0.00    -0.074 C 
ATOM     15  C   UNL A   1      29.942  24.494  26.257  1.00  0.00     0.039 C 
ENDBRANCH   8  12
BRANCH   9  16
ATOM     16  C   UNL A   1      34.062  25.378  24.196  1.00  0.00     0.067 A 
ATOM     17  C   UNL A   1      34.071  24.503  23.107  1.00  0.00     0.029 A 
ATOM     18  C   UNL A   1      34.731  25.046  25.378  1.00  0.00     0.029 A 
ATOM     19  C   UNL A   1      34.830  23.341  23.172  1.00  0.00     0.006 A 
ATOM     20  C   UNL A   1      35.463  23.863  25.448  1.00  0.00     0.006 A 
ATOM     21  C   UNL A   1      35.539  23.011  24.337  1.00  0.00    -0.045 A 
BRANCH  21  22
ATOM     22  C   UNL A   1      36.395  21.763  24.405  1.00  0.00     0.013 C 
ATOM     23  C   UNL A   1      37.712  22.037  25.132  1.00  0.00     0.012 C 
ATOM     24  C   UNL A   1      35.623  20.614  25.055  1.00  0.00     0.012 C 
ENDBRANCH  21  22
ENDBRANCH   9  16
ENDBRANCH   4   7
ENDBRANCH   2   3
ENDBRANCH   1   2
BRANCH   1  25
ATOM     25  C   UNL A   1      32.584  32.688  27.322  1.00  0.00     0.118 C 
BRANCH  25  26
ATOM     26  N   UNL A   1      32.408  34.117  27.661  1.00  0.00    -0.352 N 
ATOM     27  C   UNL A   1      33.017  34.877  28.658  1.00  0.00     0.251 C 
ATOM     28  H   UNL A   1      31.764  34.604  27.100  1.00  0.00     0.163 HD
ATOM     29  O   UNL A   1      32.559  35.943  29.006  1.00  0.00    -0.269 OA
BRANCH  27  30
ATOM     30  C   UNL A   1      34.248  34.334  29.257  1.00  0.00     0.039 A 
ATOM     31  C   UNL A   1      34.298  33.618  30.457  1.00  0.00     0.014 A 
ATOM     32  C   UNL A   1      35.372  34.471  28.470  1.00  0.00     0.014 A 
ATOM     33  C   UNL A   1      35.502  33.002  30.799  1.00  0.00     0.010 A 
ATOM     34  C   UNL A   1      36.336  33.532  28.589  1.00  0.00     0.010 A 
ATOM     35  C   UNL A   1      36.519  32.975  29.840  1.00  0.00    -0.014 A 
BRANCH  35  36
ATOM     36  C   UNL A   1      37.835  32.387  30.011  1.00  0.00     0.031 A 
ATOM     37  C   UNL A   1      37.940  30.991  29.525  1.00  0.00     0.074 A 
ATOM     38  C   UNL A   1      38.906  33.199  30.184  1.00  0.00     0.049 A 
ATOM     39  N   UNL A   1      38.055  29.914  30.226  1.00  0.00    -0.248 NA
ATOM     40  C   UNL A   1      37.675  30.743  28.095  1.00  0.00     0.031 C 
ATOM     41  C   UNL A   1      38.942  34.673  30.260  1.00  0.00     0.029 A 
ATOM     42  N   UNL A   1      40.226  32.883  30.178  1.00  0.00    -0.354 N 
ATOM     43  C   UNL A   1      38.164  28.885  29.293  1.00  0.00     0.074 A 
ATOM     44  C   UNL A   1      37.621  29.410  28.072  1.00  0.00     0.031 C 
ATOM     45  C   UNL A   1      40.202  35.115  30.059  1.00  0.00     0.029 A 
ATOM     46  C   UNL A   1      41.086  33.969  30.017  1.00  0.00     0.049 A 
ATOM     47  H   UNL A   1      40.550  31.960  30.279  1.00  0.00     0.167 HD
ATOM     48  C   UNL A   1      38.986  27.817  29.511  1.00  0.00     0.037 A 
ATOM     49  C   UNL A   1      42.429  33.900  29.823  1.00  0.00     0.037 A 
ATOM     50  C   UNL A   1      39.432  27.800  30.888  1.00  0.00     0.049 A 
ATOM     51  C   UNL A   1      42.846  32.538  30.266  1.00  0.00     0.074 A 
ATOM     52  C   UNL A   1      38.797  27.765  32.115  1.00  0.00     0.029 A 
ATOM     53  N   UNL A   1      40.708  28.251  31.143  1.00  0.00    -0.354 N 
ATOM     54  N   UNL A   1      42.741  32.118  31.501  1.00  0.00    -0.248 NA
ATOM     55  C   UNL A   1      42.882  31.489  29.258  1.00  0.00     0.031 C 
ATOM     56  C   UNL A   1      39.547  28.652  32.943  1.00  0.00     0.029 A 
ATOM     57  C   UNL A   1      40.646  29.109  32.213  1.00  0.00     0.049 A 
ATOM     58  H   UNL A   1      41.521  28.002  30.646  1.00  0.00     0.167 HD
ATOM     59  C   UNL A   1      42.284  30.810  31.403  1.00  0.00     0.074 A 
ATOM     60  C   UNL A   1      42.459  30.456  29.995  1.00  0.00     0.031 C 
ATOM     61  C   UNL A   1      41.528  30.245  32.395  1.00  0.00     0.037 A 
BRANCH  48  62
ATOM     62  C   UNL A   1      39.715  27.035  28.431  1.00  0.00     0.058 A 
ATOM     63  C   UNL A   1      39.633  25.626  28.454  1.00  0.00     0.135 A 
ATOM     64  C   UNL A   1      40.693  27.562  27.557  1.00  0.00     0.135 A 
ATOM     65  F   UNL A   1      38.719  25.005  29.219  1.00  0.00    -0.206 F 
ATOM     66  C   UNL A   1      40.531  24.809  27.766  1.00  0.00     0.059 A 
ATOM     67  C   UNL A   1      41.562  26.765  26.821  1.00  0.00     0.059 A 
ATOM     68  F   UNL A   1      40.930  28.870  27.428  1.00  0.00    -0.206 F 
ATOM     69  C   UNL A   1      41.511  25.393  26.973  1.00  0.00     0.060 A 
BRANCH  69  70
ATOM     70  S   UNL A   1      42.761  24.356  26.199  1.00  0.00     0.124 S 
ATOM     71  O   UNL A   1      42.020  23.116  25.997  1.00  0.00    -0.237 OA
ATOM     72  O   UNL A   1      43.079  25.116  24.995  1.00  0.00    -0.237 OA
ATOM     73  O   UNL A   1      43.821  24.304  27.200  1.00  0.00    -0.744 OA
ENDBRANCH  69  70
ENDBRANCH  48  62
BRANCH  49  74
ATOM     74  C   UNL A   1      43.262  34.780  28.958  1.00  0.00     0.058 A 
ATOM     75  C   UNL A   1      43.773  36.007  29.416  1.00  0.00     0.135 A 
ATOM     76  C   UNL A   1      43.791  34.310  27.737  1.00  0.00     0.135 A 
ATOM     77  F   UNL A   1      43.348  36.519  30.582  1.00  0.00    -0.206 F 
ATOM     78  C   UNL A   1      44.767  36.710  28.722  1.00  0.00     0.059 A 
ATOM     79  C   UNL A   1      44.775  34.995  27.024  1.00  0.00     0.059 A 
ATOM     80  F   UNL A   1      43.423  33.118  27.240  1.00  0.00    -0.206 F 
ATOM     81  C   UNL A   1      45.275  36.188  27.531  1.00  0.00     0.060 A 
BRANCH  81  82
ATOM     82  S   UNL A   1      46.661  37.012  26.709  1.00  0.00     0.124 S 
ATOM     83  O   UNL A   1      46.072  38.294  26.337  1.00  0.00    -0.237 OA
ATOM     84  O   UNL A   1      47.666  37.055  27.765  1.00  0.00    -0.237 OA
ATOM     85  O   UNL A   1      46.971  36.122  25.593  1.00  0.00    -0.744 OA
ENDBRANCH  81  82
ENDBRANCH  49  74
BRANCH  61  86
ATOM     86  C   UNL A   1      41.416  30.971  33.716  1.00  0.00     0.058 A 
ATOM     87  C   UNL A   1      40.348  31.815  34.076  1.00  0.00     0.135 A 
ATOM     88  C   UNL A   1      42.339  30.659  34.724  1.00  0.00     0.135 A 
ATOM     89  F   UNL A   1      39.362  32.082  33.213  1.00  0.00    -0.206 F 
ATOM     90  C   UNL A   1      40.224  32.352  35.359  1.00  0.00     0.059 A 
ATOM     91  C   UNL A   1      42.221  31.159  36.019  1.00  0.00     0.059 A 
ATOM     92  F   UNL A   1      43.345  29.806  34.470  1.00  0.00    -0.206 F 
ATOM     93  C   UNL A   1      41.167  32.016  36.328  1.00  0.00     0.060 A 
BRANCH  93  94
ATOM     94  S   UNL A   1      40.969  32.652  38.006  1.00  0.00     0.124 S 
ATOM     95  O   UNL A   1      41.403  34.038  37.862  1.00  0.00    -0.237 OA
ATOM     96  O   UNL A   1      39.543  32.459  38.253  1.00  0.00    -0.237 OA
ATOM     97  O   UNL A   1      41.851  31.801  38.800  1.00  0.00    -0.744 OA
ENDBRANCH  93  94
ENDBRANCH  61  86
ENDBRANCH  35  36
ENDBRANCH  27  30
ENDBRANCH  25  26
ENDBRANCH   1  25
TORSDOF 16
ENDMDL
