MODEL 1
REMARK VINA RESULT:     -13.3      0.000      0.000
REMARK SMILES C=C(C)[C@@H]1CC=C(CN2C[C@]34C=C[C@H](O3)[C@H](C(=O)NCCCNC(=O)c3ccc(-c5c6nc(c(-c7c(F)cc(S(=O)(=O)[O-])cc7F)c7ccc([nH]7)c(-c7c(F)cc(S(=O)(=O)[O-])cc7F)c7nc(c(-c8c(F)cc(S(=O)(=O)[O-])cc8F)c8ccc5[nH]8)C=C7)C=C6)cc3)[C@@H]4C2=O)CC1
REMARK SMILES IDX 21 1 20 2 19 3 17 4 18 5 16 7 9 8 10 9 93 10 11 11 92 12
REMARK SMILES IDX 94 13 12 14 15 15 13 16 14 17 8 18 7 19 4 20 5 21 96 22 6 23
REMARK SMILES IDX 95 24 2 25 1 26 3 27 22 28 23 29 24 30 25 32 26 33 27 34
REMARK SMILES IDX 91 35 28 36 90 37 29 38 30 39 31 40 84 41 32 42 89 43 83 44
REMARK SMILES IDX 85 45 33 46 88 47 82 48 81 49 34 51 68 52 47 53 67 54 48 55
REMARK SMILES IDX 51 56 66 57 86 58 49 59 50 60 65 62 87 63 52 64 35 65 36 66
REMARK SMILES IDX 45 67 37 68 38 69 44 70 46 71 39 72 40 73 41 74 42 75 43 76
REMARK SMILES IDX 69 77 70 78 79 79 71 80 72 81 78 82 80 83 73 84 74 85 75 86
REMARK SMILES IDX 76 87 77 88 53 89 54 90 63 91 55 92 56 93 62 94 64 95 57 96
REMARK SMILES IDX 58 97 59 98 60 99 61 100
REMARK H PARENT 19 6 23 31 85 50 51 61
REMARK Flexibility Score: inf
ROOT
ATOM      1  C   UNL A   1      39.274  22.068  26.461  1.00  0.00     0.042 C 
ENDROOT
BRANCH   1   2
ATOM      2  C   UNL A   1      38.040  22.274  25.571  1.00  0.00     0.117 C 
BRANCH   2   3
ATOM      3  N   UNL A   1      36.879  22.715  26.321  1.00  0.00    -0.356 N 
ATOM      4  C   UNL A   1      35.552  22.469  26.208  1.00  0.00     0.227 C 
ATOM      5  O   UNL A   1      34.819  23.203  26.875  1.00  0.00    -0.275 OA
ATOM      6  H   UNL A   1      37.102  23.317  27.067  1.00  0.00     0.163 HD
BRANCH   4   7
ATOM      7  C   UNL A   1      35.016  21.283  25.415  1.00  0.00     0.127 C 
ATOM      8  N   UNL A   1      33.434  23.389  23.038  1.00  0.00    -0.335 N 
ATOM      9  C   UNL A   1      32.430  22.333  23.056  1.00  0.00     0.160 C 
ATOM     10  C   UNL A   1      34.680  22.930  23.411  1.00  0.00     0.230 C 
ATOM     11  C   UNL A   1      33.030  21.380  24.061  1.00  0.00     0.117 C 
ATOM     12  C   UNL A   1      34.562  21.539  23.964  1.00  0.00     0.132 C 
ATOM     13  O   UNL A   1      35.732  23.526  23.243  1.00  0.00    -0.274 OA
ATOM     14  C   UNL A   1      32.657  19.944  24.226  1.00  0.00     0.009 C 
ATOM     15  O   UNL A   1      32.778  21.818  25.422  1.00  0.00    -0.360 OA
ATOM     16  C   UNL A   1      33.090  19.616  25.454  1.00  0.00     0.004 C 
ATOM     17  C   UNL A   1      33.668  20.870  26.062  1.00  0.00     0.155 C 
BRANCH   8  18
ATOM     18  C   UNL A   1      33.243  24.742  22.550  1.00  0.00     0.150 C 
BRANCH  18  19
ATOM     19  C   UNL A   1      33.272  25.714  23.689  1.00  0.00    -0.055 C 
ATOM     20  C   UNL A   1      33.370  27.457  25.992  1.00  0.00     0.018 C 
ATOM     21  C   UNL A   1      33.730  28.005  24.595  1.00  0.00     0.035 C 
ATOM     22  C   UNL A   1      32.244  26.416  25.895  1.00  0.00     0.013 C 
ATOM     23  C   UNL A   1      33.770  26.953  23.530  1.00  0.00    -0.025 C 
ATOM     24  C   UNL A   1      32.655  25.252  24.990  1.00  0.00     0.033 C 
BRANCH  20  25
ATOM     25  C   UNL A   1      33.025  28.547  27.000  1.00  0.00    -0.077 C 
ATOM     26  C   UNL A   1      31.799  28.607  27.547  1.00  0.00     0.008 C 
ATOM     27  C   UNL A   1      34.075  29.566  27.351  1.00  0.00     0.039 C 
ENDBRANCH  20  25
ENDBRANCH  18  19
ENDBRANCH   8  18
ENDBRANCH   4   7
ENDBRANCH   2   3
ENDBRANCH   1   2
BRANCH   1  28
ATOM     28  C   UNL A   1      39.911  23.331  27.037  1.00  0.00     0.118 C 
BRANCH  28  29
ATOM     29  N   UNL A   1      40.632  24.102  26.038  1.00  0.00    -0.352 N 
ATOM     30  C   UNL A   1      41.031  25.417  26.075  1.00  0.00     0.251 C 
ATOM     31  H   UNL A   1      40.869  23.612  25.217  1.00  0.00     0.163 HD
ATOM     32  O   UNL A   1      41.470  25.940  25.056  1.00  0.00    -0.269 OA
BRANCH  30  33
ATOM     33  C   UNL A   1      40.903  26.213  27.321  1.00  0.00     0.039 A 
ATOM     34  C   UNL A   1      41.855  27.203  27.578  1.00  0.00     0.014 A 
ATOM     35  C   UNL A   1      39.874  25.987  28.240  1.00  0.00     0.014 A 
ATOM     36  C   UNL A   1      41.740  28.002  28.720  1.00  0.00     0.010 A 
ATOM     37  C   UNL A   1      39.717  26.836  29.339  1.00  0.00     0.010 A 
ATOM     38  C   UNL A   1      40.649  27.853  29.593  1.00  0.00    -0.014 A 
BRANCH  38  39
ATOM     39  C   UNL A   1      40.475  28.774  30.751  1.00  0.00     0.031 A 
ATOM     40  C   UNL A   1      41.336  28.641  31.981  1.00  0.00     0.074 A 
ATOM     41  C   UNL A   1      39.515  29.720  30.704  1.00  0.00     0.049 A 
ATOM     42  N   UNL A   1      41.340  29.371  33.068  1.00  0.00    -0.248 NA
ATOM     43  C   UNL A   1      42.305  27.533  32.004  1.00  0.00     0.031 C 
ATOM     44  C   UNL A   1      38.576  29.916  29.596  1.00  0.00     0.029 A 
ATOM     45  N   UNL A   1      39.170  30.699  31.603  1.00  0.00    -0.354 N 
ATOM     46  C   UNL A   1      42.297  28.807  33.906  1.00  0.00     0.074 A 
ATOM     47  C   UNL A   1      42.820  27.645  33.221  1.00  0.00     0.031 C 
ATOM     48  C   UNL A   1      37.793  30.974  29.863  1.00  0.00     0.029 A 
ATOM     49  C   UNL A   1      38.144  31.509  31.173  1.00  0.00     0.049 A 
ATOM     50  H   UNL A   1      39.614  30.811  32.475  1.00  0.00     0.167 HD
ATOM     51  C   UNL A   1      42.715  29.231  35.122  1.00  0.00     0.037 A 
ATOM     52  C   UNL A   1      37.553  32.566  31.765  1.00  0.00     0.037 A 
ATOM     53  C   UNL A   1      42.208  30.404  35.789  1.00  0.00     0.049 A 
ATOM     54  C   UNL A   1      38.042  33.018  33.115  1.00  0.00     0.074 A 
ATOM     55  C   UNL A   1      42.623  30.959  36.988  1.00  0.00     0.029 A 
ATOM     56  N   UNL A   1      41.170  31.198  35.321  1.00  0.00    -0.354 N 
ATOM     57  N   UNL A   1      39.011  32.525  33.850  1.00  0.00    -0.248 NA
ATOM     58  C   UNL A   1      37.360  34.174  33.714  1.00  0.00     0.031 C 
ATOM     59  C   UNL A   1      41.800  32.053  37.273  1.00  0.00     0.029 A 
ATOM     60  C   UNL A   1      40.909  32.217  36.224  1.00  0.00     0.049 A 
ATOM     61  H   UNL A   1      40.689  31.057  34.475  1.00  0.00     0.167 HD
ATOM     62  C   UNL A   1      39.073  33.329  34.983  1.00  0.00     0.074 A 
ATOM     63  C   UNL A   1      38.058  34.350  34.828  1.00  0.00     0.031 C 
ATOM     64  C   UNL A   1      39.896  33.230  36.058  1.00  0.00     0.037 A 
BRANCH  51  65
ATOM     65  C   UNL A   1      43.780  28.426  35.823  1.00  0.00     0.058 A 
ATOM     66  C   UNL A   1      43.460  27.378  36.701  1.00  0.00     0.135 A 
ATOM     67  C   UNL A   1      45.140  28.667  35.563  1.00  0.00     0.135 A 
ATOM     68  F   UNL A   1      42.178  27.111  36.995  1.00  0.00    -0.206 F 
ATOM     69  C   UNL A   1      44.448  26.614  37.313  1.00  0.00     0.059 A 
ATOM     70  C   UNL A   1      46.144  27.895  36.142  1.00  0.00     0.059 A 
ATOM     71  F   UNL A   1      45.504  29.656  34.731  1.00  0.00    -0.206 F 
ATOM     72  C   UNL A   1      45.788  26.877  37.025  1.00  0.00     0.060 A 
BRANCH  72  73
ATOM     73  S   UNL A   1      47.055  25.859  37.809  1.00  0.00     0.124 S 
ATOM     74  O   UNL A   1      47.212  24.784  36.834  1.00  0.00    -0.237 OA
ATOM     75  O   UNL A   1      48.177  26.785  37.916  1.00  0.00    -0.237 OA
ATOM     76  O   UNL A   1      46.445  25.469  39.077  1.00  0.00    -0.744 OA
ENDBRANCH  72  73
ENDBRANCH  51  65
BRANCH  52  77
ATOM     77  C   UNL A   1      36.450  33.294  31.076  1.00  0.00     0.058 A 
ATOM     78  C   UNL A   1      36.711  34.126  29.977  1.00  0.00     0.135 A 
ATOM     79  C   UNL A   1      35.119  33.180  31.507  1.00  0.00     0.135 A 
ATOM     80  F   UNL A   1      37.968  34.272  29.529  1.00  0.00    -0.206 F 
ATOM     81  C   UNL A   1      35.698  34.842  29.348  1.00  0.00     0.059 A 
ATOM     82  C   UNL A   1      34.085  33.864  30.876  1.00  0.00     0.059 A 
ATOM     83  F   UNL A   1      34.812  32.386  32.544  1.00  0.00    -0.206 F 
ATOM     84  C   UNL A   1      34.387  34.704  29.805  1.00  0.00     0.060 A 
BRANCH  84  85
ATOM     85  S   UNL A   1      33.075  35.616  28.963  1.00  0.00     0.124 S 
ATOM     86  O   UNL A   1      32.447  34.565  28.172  1.00  0.00    -0.237 OA
ATOM     87  O   UNL A   1      32.292  36.130  30.081  1.00  0.00    -0.237 OA
ATOM     88  O   UNL A   1      33.805  36.627  28.203  1.00  0.00    -0.744 OA
ENDBRANCH  84  85
ENDBRANCH  52  77
BRANCH  64  89
ATOM     89  C   UNL A   1      39.753  34.273  37.134  1.00  0.00     0.058 A 
ATOM     90  C   UNL A   1      40.364  35.532  37.031  1.00  0.00     0.135 A 
ATOM     91  C   UNL A   1      38.974  34.016  38.274  1.00  0.00     0.135 A 
ATOM     92  F   UNL A   1      41.124  35.830  35.965  1.00  0.00    -0.206 F 
ATOM     93  C   UNL A   1      40.243  36.484  38.039  1.00  0.00     0.059 A 
ATOM     94  C   UNL A   1      38.811  34.966  39.279  1.00  0.00     0.059 A 
ATOM     95  F   UNL A   1      38.355  32.834  38.418  1.00  0.00    -0.206 F 
ATOM     96  C   UNL A   1      39.465  36.191  39.160  1.00  0.00     0.060 A 
BRANCH  96  97
ATOM     97  S   UNL A   1      39.311  37.436  40.457  1.00  0.00     0.124 S 
ATOM     98  O   UNL A   1      40.638  38.042  40.443  1.00  0.00    -0.237 OA
ATOM     99  O   UNL A   1      38.225  38.275  39.957  1.00  0.00    -0.237 OA
ATOM    100  O   UNL A   1      38.991  36.651  41.646  1.00  0.00    -0.744 OA
ENDBRANCH  96  97
ENDBRANCH  64  89
ENDBRANCH  38  39
ENDBRANCH  30  33
ENDBRANCH  28  29
ENDBRANCH   1  28
TORSDOF 16
ENDMDL
MODEL 2
REMARK VINA RESULT:     -13.0      6.594     12.152
REMARK SMILES C=C(C)[C@@H]1CC=C(CN2C[C@]34C=C[C@H](O3)[C@H](C(=O)NCCCNC(=O)c3ccc(-c5c6nc(c(-c7c(F)cc(S(=O)(=O)[O-])cc7F)c7ccc([nH]7)c(-c7c(F)cc(S(=O)(=O)[O-])cc7F)c7nc(c(-c8c(F)cc(S(=O)(=O)[O-])cc8F)c8ccc5[nH]8)C=C7)C=C6)cc3)[C@@H]4C2=O)CC1
REMARK SMILES IDX 21 1 20 2 19 3 17 4 18 5 16 7 9 8 10 9 93 10 11 11 92 12
REMARK SMILES IDX 94 13 12 14 15 15 13 16 14 17 8 18 7 19 4 20 5 21 96 22 6 23
REMARK SMILES IDX 95 24 2 25 1 26 3 27 22 28 23 29 24 30 25 32 26 33 27 34
REMARK SMILES IDX 91 35 28 36 90 37 29 38 30 39 31 40 84 41 32 42 89 43 83 44
REMARK SMILES IDX 85 45 33 46 88 47 82 48 81 49 34 51 68 52 47 53 67 54 48 55
REMARK SMILES IDX 51 56 66 57 86 58 49 59 50 60 65 62 87 63 52 64 35 65 36 66
REMARK SMILES IDX 45 67 37 68 38 69 44 70 46 71 39 72 40 73 41 74 42 75 43 76
REMARK SMILES IDX 69 77 70 78 79 79 71 80 72 81 78 82 80 83 73 84 74 85 75 86
REMARK SMILES IDX 76 87 77 88 53 89 54 90 63 91 55 92 56 93 62 94 64 95 57 96
REMARK SMILES IDX 58 97 59 98 60 99 61 100
REMARK H PARENT 19 6 23 31 85 50 51 61
REMARK Flexibility Score: inf
ROOT
ATOM      1  C   UNL A   1      34.182  31.590  27.588  1.00  0.00     0.042 C 
ENDROOT
BRANCH   1   2
ATOM      2  C   UNL A   1      33.381  30.325  27.248  1.00  0.00     0.117 C 
BRANCH   2   3
ATOM      3  N   UNL A   1      34.024  29.514  26.232  1.00  0.00    -0.356 N 
ATOM      4  C   UNL A   1      33.556  28.792  25.186  1.00  0.00     0.227 C 
ATOM      5  O   UNL A   1      34.371  28.027  24.665  1.00  0.00    -0.275 OA
ATOM      6  H   UNL A   1      35.004  29.482  26.321  1.00  0.00     0.163 HD
BRANCH   4   7
ATOM      7  C   UNL A   1      32.160  29.010  24.615  1.00  0.00     0.127 C 
ATOM      8  N   UNL A   1      31.058  25.808  25.668  1.00  0.00    -0.335 N 
ATOM      9  C   UNL A   1      30.305  25.869  24.422  1.00  0.00     0.160 C 
ATOM     10  C   UNL A   1      31.353  27.062  26.160  1.00  0.00     0.230 C 
ATOM     11  C   UNL A   1      30.724  27.220  23.896  1.00  0.00     0.117 C 
ATOM     12  C   UNL A   1      31.027  28.101  25.127  1.00  0.00     0.132 C 
ATOM     13  O   UNL A   1      31.743  27.302  27.292  1.00  0.00    -0.274 OA
ATOM     14  C   UNL A   1      30.006  28.004  22.848  1.00  0.00     0.009 C 
ATOM     15  O   UNL A   1      32.025  27.159  23.256  1.00  0.00    -0.360 OA
ATOM     16  C   UNL A   1      30.915  28.884  22.395  1.00  0.00     0.004 C 
ATOM     17  C   UNL A   1      32.204  28.591  23.122  1.00  0.00     0.155 C 
BRANCH   8  18
ATOM     18  C   UNL A   1      31.357  24.608  26.428  1.00  0.00     0.150 C 
BRANCH  18  19
ATOM     19  C   UNL A   1      32.615  23.972  25.919  1.00  0.00    -0.055 C 
ATOM     20  C   UNL A   1      35.122  22.810  25.077  1.00  0.00     0.018 C 
ATOM     21  C   UNL A   1      33.792  22.119  24.712  1.00  0.00     0.035 C 
ATOM     22  C   UNL A   1      34.967  24.338  25.054  1.00  0.00     0.013 C 
ATOM     23  C   UNL A   1      32.591  22.761  25.335  1.00  0.00    -0.025 C 
ATOM     24  C   UNL A   1      33.881  24.790  26.035  1.00  0.00     0.033 C 
BRANCH  20  25
ATOM     25  C   UNL A   1      36.294  22.363  24.211  1.00  0.00    -0.077 C 
ATOM     26  C   UNL A   1      36.565  22.991  23.054  1.00  0.00     0.008 C 
ATOM     27  C   UNL A   1      37.124  21.193  24.664  1.00  0.00     0.039 C 
ENDBRANCH  20  25
ENDBRANCH  18  19
ENDBRANCH   8  18
ENDBRANCH   4   7
ENDBRANCH   2   3
ENDBRANCH   1   2
BRANCH   1  28
ATOM     28  C   UNL A   1      35.543  31.372  28.245  1.00  0.00     0.118 C 
BRANCH  28  29
ATOM     29  N   UNL A   1      35.437  30.901  29.616  1.00  0.00    -0.352 N 
ATOM     30  C   UNL A   1      36.344  30.190  30.364  1.00  0.00     0.251 C 
ATOM     31  H   UNL A   1      34.595  31.126  30.074  1.00  0.00     0.163 HD
ATOM     32  O   UNL A   1      35.997  29.726  31.447  1.00  0.00    -0.269 OA
BRANCH  30  33
ATOM     33  C   UNL A   1      37.719  29.948  29.861  1.00  0.00     0.039 A 
ATOM     34  C   UNL A   1      38.749  29.788  30.793  1.00  0.00     0.014 A 
ATOM     35  C   UNL A   1      38.007  29.894  28.495  1.00  0.00     0.014 A 
ATOM     36  C   UNL A   1      40.048  29.516  30.355  1.00  0.00     0.010 A 
ATOM     37  C   UNL A   1      39.289  29.545  28.062  1.00  0.00     0.010 A 
ATOM     38  C   UNL A   1      40.326  29.354  28.987  1.00  0.00    -0.014 A 
BRANCH  38  39
ATOM     39  C   UNL A   1      41.689  28.961  28.532  1.00  0.00     0.031 A 
ATOM     40  C   UNL A   1      42.802  29.975  28.460  1.00  0.00     0.074 A 
ATOM     41  C   UNL A   1      41.919  27.686  28.156  1.00  0.00     0.049 A 
ATOM     42  N   UNL A   1      44.053  29.803  28.114  1.00  0.00    -0.248 NA
ATOM     43  C   UNL A   1      42.464  31.367  28.801  1.00  0.00     0.031 C 
ATOM     44  C   UNL A   1      40.912  26.622  28.123  1.00  0.00     0.029 A 
ATOM     45  N   UNL A   1      43.068  27.064  27.734  1.00  0.00    -0.354 N 
ATOM     46  C   UNL A   1      44.647  31.060  28.183  1.00  0.00     0.074 A 
ATOM     47  C   UNL A   1      43.607  31.994  28.558  1.00  0.00     0.031 C 
ATOM     48  C   UNL A   1      41.497  25.473  27.746  1.00  0.00     0.029 A 
ATOM     49  C   UNL A   1      42.907  25.722  27.473  1.00  0.00     0.049 A 
ATOM     50  H   UNL A   1      43.927  27.534  27.629  1.00  0.00     0.167 HD
ATOM     51  C   UNL A   1      45.941  31.400  27.974  1.00  0.00     0.037 A 
ATOM     52  C   UNL A   1      43.796  24.796  27.062  1.00  0.00     0.037 A 
ATOM     53  C   UNL A   1      46.978  30.461  27.625  1.00  0.00     0.049 A 
ATOM     54  C   UNL A   1      45.229  25.201  26.842  1.00  0.00     0.074 A 
ATOM     55  C   UNL A   1      48.333  30.696  27.469  1.00  0.00     0.029 A 
ATOM     56  N   UNL A   1      46.776  29.112  27.369  1.00  0.00    -0.354 N 
ATOM     57  N   UNL A   1      45.788  26.377  27.001  1.00  0.00    -0.248 NA
ATOM     58  C   UNL A   1      46.153  24.151  26.392  1.00  0.00     0.031 C 
ATOM     59  C   UNL A   1      48.942  29.503  27.064  1.00  0.00     0.029 A 
ATOM     60  C   UNL A   1      47.976  28.510  27.024  1.00  0.00     0.049 A 
ATOM     61  H   UNL A   1      45.908  28.651  27.423  1.00  0.00     0.167 HD
ATOM     62  C   UNL A   1      47.135  26.200  26.700  1.00  0.00     0.074 A 
ATOM     63  C   UNL A   1      47.308  24.802  26.368  1.00  0.00     0.031 C 
ATOM     64  C   UNL A   1      48.137  27.115  26.696  1.00  0.00     0.037 A 
BRANCH  51  65
ATOM     65  C   UNL A   1      46.322  32.851  28.118  1.00  0.00     0.058 A 
ATOM     66  C   UNL A   1      46.201  33.758  27.053  1.00  0.00     0.135 A 
ATOM     67  C   UNL A   1      46.756  33.353  29.356  1.00  0.00     0.135 A 
ATOM     68  F   UNL A   1      45.803  33.332  25.844  1.00  0.00    -0.206 F 
ATOM     69  C   UNL A   1      46.517  35.105  27.204  1.00  0.00     0.059 A 
ATOM     70  C   UNL A   1      47.049  34.703  29.538  1.00  0.00     0.059 A 
ATOM     71  F   UNL A   1      46.889  32.532  30.410  1.00  0.00    -0.206 F 
ATOM     72  C   UNL A   1      46.937  35.569  28.451  1.00  0.00     0.060 A 
BRANCH  72  73
ATOM     73  S   UNL A   1      47.318  37.323  28.635  1.00  0.00     0.124 S 
ATOM     74  O   UNL A   1      46.445  37.698  29.744  1.00  0.00    -0.237 OA
ATOM     75  O   UNL A   1      48.746  37.302  28.934  1.00  0.00    -0.237 OA
ATOM     76  O   UNL A   1      46.960  37.889  27.338  1.00  0.00    -0.744 OA
ENDBRANCH  72  73
ENDBRANCH  51  65
BRANCH  52  77
ATOM     77  C   UNL A   1      43.368  23.384  26.856  1.00  0.00     0.058 A 
ATOM     78  C   UNL A   1      43.098  22.545  27.948  1.00  0.00     0.135 A 
ATOM     79  C   UNL A   1      43.230  22.842  25.569  1.00  0.00     0.135 A 
ATOM     80  F   UNL A   1      43.221  23.014  29.200  1.00  0.00    -0.206 F 
ATOM     81  C   UNL A   1      42.735  21.214  27.774  1.00  0.00     0.059 A 
ATOM     82  C   UNL A   1      42.840  21.521  25.368  1.00  0.00     0.059 A 
ATOM     83  F   UNL A   1      43.460  23.605  24.489  1.00  0.00    -0.206 F 
ATOM     84  C   UNL A   1      42.609  20.711  26.478  1.00  0.00     0.060 A 
BRANCH  84  85
ATOM     85  S   UNL A   1      42.110  18.989  26.263  1.00  0.00     0.124 S 
ATOM     86  O   UNL A   1      42.269  18.465  27.614  1.00  0.00    -0.237 OA
ATOM     87  O   UNL A   1      40.738  19.124  25.786  1.00  0.00    -0.237 OA
ATOM     88  O   UNL A   1      43.061  18.486  25.275  1.00  0.00    -0.744 OA
ENDBRANCH  84  85
ENDBRANCH  52  77
BRANCH  64  89
ATOM     89  C   UNL A   1      49.517  26.622  26.352  1.00  0.00     0.058 A 
ATOM     90  C   UNL A   1      50.054  26.765  25.063  1.00  0.00     0.135 A 
ATOM     91  C   UNL A   1      50.322  26.018  27.332  1.00  0.00     0.135 A 
ATOM     92  F   UNL A   1      49.328  27.331  24.086  1.00  0.00    -0.206 F 
ATOM     93  C   UNL A   1      51.324  26.289  24.747  1.00  0.00     0.059 A 
ATOM     94  C   UNL A   1      51.607  25.566  27.047  1.00  0.00     0.059 A 
ATOM     95  F   UNL A   1      49.865  25.869  28.585  1.00  0.00    -0.206 F 
ATOM     96  C   UNL A   1      52.092  25.690  25.746  1.00  0.00     0.060 A 
BRANCH  96  97
ATOM     97  S   UNL A   1      53.738  25.083  25.326  1.00  0.00     0.124 S 
ATOM     98  O   UNL A   1      54.535  25.598  26.435  1.00  0.00    -0.237 OA
ATOM     99  O   UNL A   1      53.542  23.636  25.305  1.00  0.00    -0.237 OA
ATOM    100  O   UNL A   1      54.004  25.691  24.026  1.00  0.00    -0.744 OA
ENDBRANCH  96  97
ENDBRANCH  64  89
ENDBRANCH  38  39
ENDBRANCH  30  33
ENDBRANCH  28  29
ENDBRANCH   1  28
TORSDOF 16
ENDMDL
MODEL 3
REMARK VINA RESULT:     -12.8      6.684     11.723
REMARK SMILES C=C(C)[C@@H]1CC=C(CN2C[C@]34C=C[C@H](O3)[C@H](C(=O)NCCCNC(=O)c3ccc(-c5c6nc(c(-c7c(F)cc(S(=O)(=O)[O-])cc7F)c7ccc([nH]7)c(-c7c(F)cc(S(=O)(=O)[O-])cc7F)c7nc(c(-c8c(F)cc(S(=O)(=O)[O-])cc8F)c8ccc5[nH]8)C=C7)C=C6)cc3)[C@@H]4C2=O)CC1
REMARK SMILES IDX 21 1 20 2 19 3 17 4 18 5 16 7 9 8 10 9 93 10 11 11 92 12
REMARK SMILES IDX 94 13 12 14 15 15 13 16 14 17 8 18 7 19 4 20 5 21 96 22 6 23
REMARK SMILES IDX 95 24 2 25 1 26 3 27 22 28 23 29 24 30 25 32 26 33 27 34
REMARK SMILES IDX 91 35 28 36 90 37 29 38 30 39 31 40 84 41 32 42 89 43 83 44
REMARK SMILES IDX 85 45 33 46 88 47 82 48 81 49 34 51 68 52 47 53 67 54 48 55
REMARK SMILES IDX 51 56 66 57 86 58 49 59 50 60 65 62 87 63 52 64 35 65 36 66
REMARK SMILES IDX 45 67 37 68 38 69 44 70 46 71 39 72 40 73 41 74 42 75 43 76
REMARK SMILES IDX 69 77 70 78 79 79 71 80 72 81 78 82 80 83 73 84 74 85 75 86
REMARK SMILES IDX 76 87 77 88 53 89 54 90 63 91 55 92 56 93 62 94 64 95 57 96
REMARK SMILES IDX 58 97 59 98 60 99 61 100
REMARK H PARENT 19 6 23 31 85 50 51 61
REMARK Flexibility Score: inf
ROOT
ATOM      1  C   UNL A   1      34.234  31.206  27.625  1.00  0.00     0.042 C 
ENDROOT
BRANCH   1   2
ATOM      2  C   UNL A   1      33.296  30.113  27.092  1.00  0.00     0.117 C 
BRANCH   2   3
ATOM      3  N   UNL A   1      33.835  29.435  25.928  1.00  0.00    -0.356 N 
ATOM      4  C   UNL A   1      33.266  28.851  24.847  1.00  0.00     0.227 C 
ATOM      5  O   UNL A   1      34.021  28.156  24.162  1.00  0.00    -0.275 OA
ATOM      6  H   UNL A   1      34.819  29.390  25.923  1.00  0.00     0.163 HD
BRANCH   4   7
ATOM      7  C   UNL A   1      31.828  29.143  24.436  1.00  0.00     0.127 C 
ATOM      8  N   UNL A   1      30.770  25.851  25.227  1.00  0.00    -0.335 N 
ATOM      9  C   UNL A   1      29.907  26.056  24.070  1.00  0.00     0.160 C 
ATOM     10  C   UNL A   1      31.132  27.039  25.825  1.00  0.00     0.230 C 
ATOM     11  C   UNL A   1      30.300  27.455  23.661  1.00  0.00     0.117 C 
ATOM     12  C   UNL A   1      30.730  28.190  24.948  1.00  0.00     0.132 C 
ATOM     13  O   UNL A   1      31.628  27.149  26.935  1.00  0.00    -0.274 OA
ATOM     14  C   UNL A   1      29.503  28.357  22.778  1.00  0.00     0.009 C 
ATOM     15  O   UNL A   1      31.535  27.456  22.899  1.00  0.00    -0.360 OA
ATOM     16  C   UNL A   1      30.381  29.275  22.343  1.00  0.00     0.004 C 
ATOM     17  C   UNL A   1      31.727  28.892  22.908  1.00  0.00     0.155 C 
BRANCH   8  18
ATOM     18  C   UNL A   1      31.117  24.571  25.817  1.00  0.00     0.150 C 
BRANCH  18  19
ATOM     19  C   UNL A   1      32.580  24.299  25.644  1.00  0.00    -0.055 C 
ATOM     20  C   UNL A   1      35.414  23.926  25.228  1.00  0.00     0.018 C 
ATOM     21  C   UNL A   1      34.731  23.315  26.469  1.00  0.00     0.035 C 
ATOM     22  C   UNL A   1      34.474  23.887  24.014  1.00  0.00     0.013 C 
ATOM     23  C   UNL A   1      33.295  23.711  26.620  1.00  0.00    -0.025 C 
ATOM     24  C   UNL A   1      33.180  24.653  24.303  1.00  0.00     0.033 C 
BRANCH  20  25
ATOM     25  C   UNL A   1      36.760  23.287  24.901  1.00  0.00    -0.077 C 
ATOM     26  C   UNL A   1      36.925  22.589  23.765  1.00  0.00     0.008 C 
ATOM     27  C   UNL A   1      37.888  23.435  25.886  1.00  0.00     0.039 C 
ENDBRANCH  20  25
ENDBRANCH  18  19
ENDBRANCH   8  18
ENDBRANCH   4   7
ENDBRANCH   2   3
ENDBRANCH   1   2
BRANCH   1  28
ATOM     28  C   UNL A   1      35.567  30.732  28.200  1.00  0.00     0.118 C 
BRANCH  28  29
ATOM     29  N   UNL A   1      35.513  30.511  29.635  1.00  0.00    -0.352 N 
ATOM     30  C   UNL A   1      36.487  30.031  30.479  1.00  0.00     0.251 C 
ATOM     31  H   UNL A   1      34.657  30.738  30.065  1.00  0.00     0.163 HD
ATOM     32  O   UNL A   1      36.191  29.743  31.635  1.00  0.00    -0.269 OA
BRANCH  30  33
ATOM     33  C   UNL A   1      37.875  29.827  29.996  1.00  0.00     0.039 A 
ATOM     34  C   UNL A   1      38.865  29.515  30.932  1.00  0.00     0.014 A 
ATOM     35  C   UNL A   1      38.214  29.955  28.646  1.00  0.00     0.014 A 
ATOM     36  C   UNL A   1      40.175  29.274  30.507  1.00  0.00     0.010 A 
ATOM     37  C   UNL A   1      39.505  29.638  28.215  1.00  0.00     0.010 A 
ATOM     38  C   UNL A   1      40.502  29.295  29.140  1.00  0.00    -0.014 A 
BRANCH  38  39
ATOM     39  C   UNL A   1      41.874  28.936  28.685  1.00  0.00     0.031 A 
ATOM     40  C   UNL A   1      42.195  27.536  28.225  1.00  0.00     0.074 A 
ATOM     41  C   UNL A   1      42.845  29.872  28.711  1.00  0.00     0.049 A 
ATOM     42  N   UNL A   1      43.325  27.057  27.771  1.00  0.00    -0.248 NA
ATOM     43  C   UNL A   1      41.113  26.541  28.304  1.00  0.00     0.031 C 
ATOM     44  C   UNL A   1      42.679  31.247  29.189  1.00  0.00     0.029 A 
ATOM     45  N   UNL A   1      44.162  29.815  28.324  1.00  0.00    -0.354 N 
ATOM     46  C   UNL A   1      43.096  25.707  27.522  1.00  0.00     0.074 A 
ATOM     47  C   UNL A   1      41.732  25.433  27.921  1.00  0.00     0.031 C 
ATOM     48  C   UNL A   1      43.835  31.913  29.028  1.00  0.00     0.029 A 
ATOM     49  C   UNL A   1      44.834  31.007  28.472  1.00  0.00     0.049 A 
ATOM     50  H   UNL A   1      44.585  28.999  27.974  1.00  0.00     0.167 HD
ATOM     51  C   UNL A   1      43.937  24.787  26.991  1.00  0.00     0.037 A 
ATOM     52  C   UNL A   1      46.110  31.336  28.191  1.00  0.00     0.037 A 
ATOM     53  C   UNL A   1      45.287  25.072  26.573  1.00  0.00     0.049 A 
ATOM     54  C   UNL A   1      47.021  30.295  27.597  1.00  0.00     0.074 A 
ATOM     55  C   UNL A   1      46.191  24.226  25.953  1.00  0.00     0.029 A 
ATOM     56  N   UNL A   1      45.931  26.290  26.740  1.00  0.00    -0.354 N 
ATOM     57  N   UNL A   1      46.757  29.048  27.285  1.00  0.00    -0.248 NA
ATOM     58  C   UNL A   1      48.402  30.707  27.312  1.00  0.00     0.031 C 
ATOM     59  C   UNL A   1      47.399  24.914  25.795  1.00  0.00     0.029 A 
ATOM     60  C   UNL A   1      47.231  26.207  26.264  1.00  0.00     0.049 A 
ATOM     61  H   UNL A   1      45.526  27.092  27.138  1.00  0.00     0.167 HD
ATOM     62  C   UNL A   1      47.931  28.537  26.740  1.00  0.00     0.074 A 
ATOM     63  C   UNL A   1      48.898  29.615  26.748  1.00  0.00     0.031 C 
ATOM     64  C   UNL A   1      48.185  27.288  26.276  1.00  0.00     0.037 A 
BRANCH  51  65
ATOM     65  C   UNL A   1      43.429  23.378  26.826  1.00  0.00     0.058 A 
ATOM     66  C   UNL A   1      43.061  22.864  25.573  1.00  0.00     0.135 A 
ATOM     67  C   UNL A   1      43.369  22.510  27.930  1.00  0.00     0.135 A 
ATOM     68  F   UNL A   1      43.087  23.652  24.486  1.00  0.00    -0.206 F 
ATOM     69  C   UNL A   1      42.630  21.550  25.421  1.00  0.00     0.059 A 
ATOM     70  C   UNL A   1      42.969  21.182  27.796  1.00  0.00     0.059 A 
ATOM     71  F   UNL A   1      43.710  22.946  29.153  1.00  0.00    -0.206 F 
ATOM     72  C   UNL A   1      42.591  20.715  26.538  1.00  0.00     0.060 A 
BRANCH  72  73
ATOM     73  S   UNL A   1      42.054  19.006  26.319  1.00  0.00     0.124 S 
ATOM     74  O   UNL A   1      42.172  18.486  27.679  1.00  0.00    -0.237 OA
ATOM     75  O   UNL A   1      40.692  19.168  25.821  1.00  0.00    -0.237 OA
ATOM     76  O   UNL A   1      43.010  18.466  25.358  1.00  0.00    -0.744 OA
ENDBRANCH  72  73
ENDBRANCH  51  65
BRANCH  52  77
ATOM     77  C   UNL A   1      46.602  32.720  28.438  1.00  0.00     0.058 A 
ATOM     78  C   UNL A   1      46.524  33.702  27.439  1.00  0.00     0.135 A 
ATOM     79  C   UNL A   1      47.166  33.086  29.670  1.00  0.00     0.135 A 
ATOM     80  F   UNL A   1      45.999  33.402  26.242  1.00  0.00    -0.206 F 
ATOM     81  C   UNL A   1      47.014  34.989  27.641  1.00  0.00     0.059 A 
ATOM     82  C   UNL A   1      47.636  34.374  29.906  1.00  0.00     0.059 A 
ATOM     83  F   UNL A   1      47.250  32.190  30.665  1.00  0.00    -0.206 F 
ATOM     84  C   UNL A   1      47.569  35.315  28.879  1.00  0.00     0.060 A 
BRANCH  84  85
ATOM     85  S   UNL A   1      48.176  36.996  29.141  1.00  0.00     0.124 S 
ATOM     86  O   UNL A   1      49.009  36.827  30.326  1.00  0.00    -0.237 OA
ATOM     87  O   UNL A   1      48.885  37.263  27.894  1.00  0.00    -0.237 OA
ATOM     88  O   UNL A   1      46.953  37.768  29.335  1.00  0.00    -0.744 OA
ENDBRANCH  84  85
ENDBRANCH  52  77
BRANCH  64  89
ATOM     89  C   UNL A   1      49.556  27.029  25.709  1.00  0.00     0.058 A 
ATOM     90  C   UNL A   1      49.840  27.208  24.346  1.00  0.00     0.135 A 
ATOM     91  C   UNL A   1      50.606  26.617  26.547  1.00  0.00     0.135 A 
ATOM     92  F   UNL A   1      48.873  27.596  23.499  1.00  0.00    -0.206 F 
ATOM     93  C   UNL A   1      51.104  26.949  23.826  1.00  0.00     0.059 A 
ATOM     94  C   UNL A   1      51.887  26.385  26.054  1.00  0.00     0.059 A 
ATOM     95  F   UNL A   1      50.395  26.444  27.861  1.00  0.00    -0.206 F 
ATOM     96  C   UNL A   1      52.121  26.536  24.688  1.00  0.00     0.060 A 
BRANCH  96  97
ATOM     97  S   UNL A   1      53.758  26.208  24.003  1.00  0.00     0.124 S 
ATOM     98  O   UNL A   1      54.511  27.369  24.469  1.00  0.00    -0.237 OA
ATOM     99  O   UNL A   1      54.108  24.935  24.625  1.00  0.00    -0.237 OA
ATOM    100  O   UNL A   1      53.520  26.150  22.564  1.00  0.00    -0.744 OA
ENDBRANCH  96  97
ENDBRANCH  64  89
ENDBRANCH  38  39
ENDBRANCH  30  33
ENDBRANCH  28  29
ENDBRANCH   1  28
TORSDOF 16
ENDMDL
