MODEL 1
REMARK VINA RESULT:     -10.2      0.000      0.000
REMARK SMILES O=C(CCCNC(=O)N1CC[C@@H](C(=O)NCCCNC(=O)c2ccc(-c3c4nc(c(-c5c(F)cc(S(=O)(=O)[O-])cc5F)c5ccc([nH]5)c(-c5c(F)cc(S(=O)(=O)[O-])cc5F)c5nc(c(-c6c(F)cc(S(=O)(=O)[O-])cc6F)c6ccc3[nH]6)C=C5)C=C4)cc2)C1)NC1CC1
REMARK SMILES IDX 13 1 14 2 15 3 12 5 9 6 10 7 88 8 11 9 7 10 6 11 8 13 5 14
REMARK SMILES IDX 4 15 3 16 2 17 1 18 89 19 90 21 91 22 92 23 16 24 17 25
REMARK SMILES IDX 18 26 19 27 20 28 21 30 22 31 23 32 87 33 24 34 86 35 25 36
REMARK SMILES IDX 26 37 27 38 80 39 28 40 85 41 79 42 81 43 29 44 84 45 78 46
REMARK SMILES IDX 77 47 30 49 64 50 43 51 63 52 44 53 47 54 62 55 82 56 45 57
REMARK SMILES IDX 46 58 61 60 83 61 48 62 31 63 32 64 41 65 33 66 34 67 40 68
REMARK SMILES IDX 42 69 35 70 36 71 37 72 38 73 39 74 65 75 66 76 75 77 67 78
REMARK SMILES IDX 68 79 74 80 76 81 69 82 70 83 71 84 72 85 73 86 49 87 50 88
REMARK SMILES IDX 59 89 51 90 52 91 58 92 60 93 53 94 54 95 55 96 56 97 57 98
REMARK H PARENT 15 4 6 12 89 20 19 29 81 48 47 59
REMARK Flexibility Score: inf
ROOT
ATOM      1  C   UNL A   1      33.808  25.167  24.536  1.00  0.00     0.224 C 
ATOM      2  O   UNL A   1      34.289  24.267  25.238  1.00  0.00    -0.275 OA
ATOM      3  N   UNL A   1      34.067  26.431  24.944  1.00  0.00    -0.356 N 
ATOM      4  H   UNL A   1      34.652  26.467  25.735  1.00  0.00     0.163 HD
ENDROOT
BRANCH   1   5
ATOM      5  C   UNL A   1      33.099  24.778  23.249  1.00  0.00     0.100 C 
ATOM      6  N   UNL A   1      32.147  22.645  22.878  1.00  0.00    -0.324 N 
ATOM      7  C   UNL A   1      31.190  23.402  23.675  1.00  0.00     0.122 C 
ATOM      8  C   UNL A   1      33.358  23.414  22.640  1.00  0.00     0.134 C 
ATOM      9  C   UNL A   1      31.576  24.841  23.409  1.00  0.00     0.037 C 
BRANCH   6  10
ATOM     10  C   UNL A   1      32.135  21.300  22.678  1.00  0.00     0.317 C 
ATOM     11  N   UNL A   1      32.592  20.498  23.670  1.00  0.00    -0.338 N 
ATOM     12  H   UNL A   1      32.953  19.623  23.400  1.00  0.00     0.165 HD
ATOM     13  O   UNL A   1      31.691  20.780  21.657  1.00  0.00    -0.249 OA
BRANCH  11  14
ATOM     14  C   UNL A   1      32.601  20.795  25.092  1.00  0.00     0.118 C 
BRANCH  14  15
ATOM     15  C   UNL A   1      34.008  20.802  25.686  1.00  0.00     0.031 C 
BRANCH  15  16
ATOM     16  C   UNL A   1      35.049  19.980  24.931  1.00  0.00     0.102 C 
BRANCH  16  17
ATOM     17  C   UNL A   1      36.419  20.625  24.948  1.00  0.00     0.220 C 
ATOM     18  O   UNL A   1      37.444  19.953  24.892  1.00  0.00    -0.275 OA
ATOM     19  N   UNL A   1      36.381  22.001  25.064  1.00  0.00    -0.353 N 
ATOM     20  H   UNL A   1      35.496  22.430  25.098  1.00  0.00     0.163 HD
BRANCH  19  21
ATOM     21  C   UNL A   1      37.527  22.849  25.140  1.00  0.00     0.082 C 
ATOM     22  C   UNL A   1      37.629  23.848  26.266  1.00  0.00     0.027 C 
ATOM     23  C   UNL A   1      38.613  22.722  26.170  1.00  0.00     0.027 C 
ENDBRANCH  19  21
ENDBRANCH  16  17
ENDBRANCH  15  16
ENDBRANCH  14  15
ENDBRANCH  11  14
ENDBRANCH   6  10
ENDBRANCH   1   5
BRANCH   3  24
ATOM     24  C   UNL A   1      33.669  27.746  24.468  1.00  0.00     0.117 C 
BRANCH  24  25
ATOM     25  C   UNL A   1      32.899  28.538  25.515  1.00  0.00     0.042 C 
BRANCH  25  26
ATOM     26  C   UNL A   1      33.645  28.681  26.833  1.00  0.00     0.118 C 
BRANCH  26  27
ATOM     27  N   UNL A   1      33.570  30.034  27.369  1.00  0.00    -0.352 N 
ATOM     28  C   UNL A   1      34.456  30.717  28.164  1.00  0.00     0.251 C 
ATOM     29  H   UNL A   1      32.759  30.535  27.123  1.00  0.00     0.163 HD
ATOM     30  O   UNL A   1      34.096  31.766  28.700  1.00  0.00    -0.269 OA
BRANCH  28  31
ATOM     31  C   UNL A   1      35.821  30.197  28.389  1.00  0.00     0.039 A 
ATOM     32  C   UNL A   1      36.742  30.232  27.339  1.00  0.00     0.014 A 
ATOM     33  C   UNL A   1      36.193  29.661  29.624  1.00  0.00     0.014 A 
ATOM     34  C   UNL A   1      38.053  29.800  27.554  1.00  0.00     0.010 A 
ATOM     35  C   UNL A   1      37.520  29.321  29.864  1.00  0.00     0.010 A 
ATOM     36  C   UNL A   1      38.466  29.383  28.830  1.00  0.00    -0.014 A 
BRANCH  36  37
ATOM     37  C   UNL A   1      39.879  29.017  29.108  1.00  0.00     0.031 A 
ATOM     38  C   UNL A   1      40.825  30.037  29.687  1.00  0.00     0.074 A 
ATOM     39  C   UNL A   1      40.322  27.788  28.778  1.00  0.00     0.049 A 
ATOM     40  N   UNL A   1      42.108  29.934  29.917  1.00  0.00    -0.248 NA
ATOM     41  C   UNL A   1      40.260  31.354  30.028  1.00  0.00     0.031 C 
ATOM     42  C   UNL A   1      39.512  26.730  28.167  1.00  0.00     0.029 A 
ATOM     43  N   UNL A   1      41.566  27.220  28.899  1.00  0.00    -0.354 N 
ATOM     44  C   UNL A   1      42.504  31.166  30.424  1.00  0.00     0.074 A 
ATOM     45  C   UNL A   1      41.338  32.022  30.411  1.00  0.00     0.031 C 
ATOM     46  C   UNL A   1      40.273  25.639  27.986  1.00  0.00     0.029 A 
ATOM     47  C   UNL A   1      41.634  25.930  28.423  1.00  0.00     0.049 A 
ATOM     48  H   UNL A   1      42.338  27.691  29.288  1.00  0.00     0.167 HD
ATOM     49  C   UNL A   1      43.722  31.540  30.883  1.00  0.00     0.037 A 
ATOM     50  C   UNL A   1      42.679  25.083  28.333  1.00  0.00     0.037 A 
ATOM     51  C   UNL A   1      44.872  30.674  30.912  1.00  0.00     0.049 A 
ATOM     52  C   UNL A   1      44.028  25.535  28.829  1.00  0.00     0.074 A 
ATOM     53  C   UNL A   1      46.137  30.943  31.400  1.00  0.00     0.029 A 
ATOM     54  N   UNL A   1      44.896  29.371  30.436  1.00  0.00    -0.354 N 
ATOM     55  N   UNL A   1      44.367  26.685  29.361  1.00  0.00    -0.248 NA
ATOM     56  C   UNL A   1      45.134  24.576  28.713  1.00  0.00     0.031 C 
ATOM     57  C   UNL A   1      46.941  29.822  31.176  1.00  0.00     0.029 A 
ATOM     58  C   UNL A   1      46.161  28.833  30.598  1.00  0.00     0.049 A 
ATOM     59  H   UNL A   1      44.127  28.899  30.041  1.00  0.00     0.167 HD
ATOM     60  C   UNL A   1      45.719  26.576  29.669  1.00  0.00     0.074 A 
ATOM     61  C   UNL A   1      46.129  25.243  29.281  1.00  0.00     0.031 C 
ATOM     62  C   UNL A   1      46.549  27.497  30.219  1.00  0.00     0.037 A 
BRANCH  49  63
ATOM     63  C   UNL A   1      43.877  32.940  31.413  1.00  0.00     0.058 A 
ATOM     64  C   UNL A   1      43.675  33.236  32.770  1.00  0.00     0.135 A 
ATOM     65  C   UNL A   1      44.304  33.981  30.573  1.00  0.00     0.135 A 
ATOM     66  F   UNL A   1      43.249  32.283  33.615  1.00  0.00    -0.206 F 
ATOM     67  C   UNL A   1      43.881  34.515  33.274  1.00  0.00     0.059 A 
ATOM     68  C   UNL A   1      44.544  35.263  31.062  1.00  0.00     0.059 A 
ATOM     69  F   UNL A   1      44.508  33.755  29.266  1.00  0.00    -0.206 F 
ATOM     70  C   UNL A   1      44.324  35.521  32.414  1.00  0.00     0.060 A 
BRANCH  70  71
ATOM     71  S   UNL A   1      44.625  37.164  33.097  1.00  0.00     0.124 S 
ATOM     72  O   UNL A   1      43.319  37.490  33.662  1.00  0.00    -0.237 OA
ATOM     73  O   UNL A   1      45.688  36.907  34.064  1.00  0.00    -0.237 OA
ATOM     74  O   UNL A   1      45.018  37.952  31.933  1.00  0.00    -0.744 OA
ENDBRANCH  70  71
ENDBRANCH  49  63
BRANCH  50  75
ATOM     75  C   UNL A   1      42.500  23.724  27.752  1.00  0.00     0.058 A 
ATOM     76  C   UNL A   1      42.387  22.593  28.575  1.00  0.00     0.135 A 
ATOM     77  C   UNL A   1      42.466  23.524  26.363  1.00  0.00     0.135 A 
ATOM     78  F   UNL A   1      42.418  22.730  29.910  1.00  0.00    -0.206 F 
ATOM     79  C   UNL A   1      42.285  21.311  28.044  1.00  0.00     0.059 A 
ATOM     80  C   UNL A   1      42.331  22.256  25.808  1.00  0.00     0.059 A 
ATOM     81  F   UNL A   1      42.551  24.572  25.529  1.00  0.00    -0.206 F 
ATOM     82  C   UNL A   1      42.262  21.152  26.659  1.00  0.00     0.060 A 
BRANCH  82  83
ATOM     83  S   UNL A   1      42.123  19.485  25.979  1.00  0.00     0.124 S 
ATOM     84  O   UNL A   1      40.685  19.371  25.775  1.00  0.00    -0.237 OA
ATOM     85  O   UNL A   1      42.935  19.579  24.769  1.00  0.00    -0.237 OA
ATOM     86  O   UNL A   1      42.680  18.645  27.035  1.00  0.00    -0.744 OA
ENDBRANCH  82  83
ENDBRANCH  50  75
BRANCH  62  87
ATOM     87  C   UNL A   1      47.973  27.086  30.467  1.00  0.00     0.058 A 
ATOM     88  C   UNL A   1      49.002  27.407  29.568  1.00  0.00     0.135 A 
ATOM     89  C   UNL A   1      48.322  26.409  31.649  1.00  0.00     0.135 A 
ATOM     90  F   UNL A   1      48.722  28.046  28.422  1.00  0.00    -0.206 F 
ATOM     91  C   UNL A   1      50.323  27.053  29.821  1.00  0.00     0.059 A 
ATOM     92  C   UNL A   1      49.641  26.073  31.936  1.00  0.00     0.059 A 
ATOM     93  F   UNL A   1      47.378  26.087  32.547  1.00  0.00    -0.206 F 
ATOM     94  C   UNL A   1      50.633  26.389  31.009  1.00  0.00     0.060 A 
BRANCH  94  95
ATOM     95  S   UNL A   1      52.359  25.973  31.340  1.00  0.00     0.124 S 
ATOM     96  O   UNL A   1      52.929  25.995  29.998  1.00  0.00    -0.237 OA
ATOM     97  O   UNL A   1      52.776  27.056  32.225  1.00  0.00    -0.237 OA
ATOM     98  O   UNL A   1      52.277  24.656  31.966  1.00  0.00    -0.744 OA
ENDBRANCH  94  95
ENDBRANCH  62  87
ENDBRANCH  36  37
ENDBRANCH  28  31
ENDBRANCH  26  27
ENDBRANCH  25  26
ENDBRANCH  24  25
ENDBRANCH   3  24
TORSDOF 19
ENDMDL
MODEL 2
REMARK VINA RESULT:     -10.0      2.906      9.378
REMARK SMILES O=C(CCCNC(=O)N1CC[C@@H](C(=O)NCCCNC(=O)c2ccc(-c3c4nc(c(-c5c(F)cc(S(=O)(=O)[O-])cc5F)c5ccc([nH]5)c(-c5c(F)cc(S(=O)(=O)[O-])cc5F)c5nc(c(-c6c(F)cc(S(=O)(=O)[O-])cc6F)c6ccc3[nH]6)C=C5)C=C4)cc2)C1)NC1CC1
REMARK SMILES IDX 13 1 14 2 15 3 12 5 9 6 10 7 88 8 11 9 7 10 6 11 8 13 5 14
REMARK SMILES IDX 4 15 3 16 2 17 1 18 89 19 90 21 91 22 92 23 16 24 17 25
REMARK SMILES IDX 18 26 19 27 20 28 21 30 22 31 23 32 87 33 24 34 86 35 25 36
REMARK SMILES IDX 26 37 27 38 80 39 28 40 85 41 79 42 81 43 29 44 84 45 78 46
REMARK SMILES IDX 77 47 30 49 64 50 43 51 63 52 44 53 47 54 62 55 82 56 45 57
REMARK SMILES IDX 46 58 61 60 83 61 48 62 31 63 32 64 41 65 33 66 34 67 40 68
REMARK SMILES IDX 42 69 35 70 36 71 37 72 38 73 39 74 65 75 66 76 75 77 67 78
REMARK SMILES IDX 68 79 74 80 76 81 69 82 70 83 71 84 72 85 73 86 49 87 50 88
REMARK SMILES IDX 59 89 51 90 52 91 58 92 60 93 53 94 54 95 55 96 56 97 57 98
REMARK H PARENT 15 4 6 12 89 20 19 29 81 48 47 59
REMARK Flexibility Score: inf
ROOT
ATOM      1  C   UNL A   1      32.305  23.584  26.754  1.00  0.00     0.224 C 
ATOM      2  O   UNL A   1      31.619  23.023  27.620  1.00  0.00    -0.275 OA
ATOM      3  N   UNL A   1      33.414  22.917  26.361  1.00  0.00    -0.356 N 
ATOM      4  H   UNL A   1      33.506  22.036  26.792  1.00  0.00     0.163 HD
ENDROOT
BRANCH   1   5
ATOM      5  C   UNL A   1      31.781  24.873  26.142  1.00  0.00     0.100 C 
ATOM      6  N   UNL A   1      31.923  25.373  23.835  1.00  0.00    -0.324 N 
ATOM      7  C   UNL A   1      30.777  24.490  24.006  1.00  0.00     0.122 C 
ATOM      8  C   UNL A   1      32.611  25.591  25.097  1.00  0.00     0.134 C 
ATOM      9  C   UNL A   1      30.421  24.659  25.467  1.00  0.00     0.037 C 
BRANCH   6  10
ATOM     10  C   UNL A   1      32.532  25.674  22.657  1.00  0.00     0.317 C 
ATOM     11  N   UNL A   1      31.923  26.555  21.826  1.00  0.00    -0.338 N 
ATOM     12  H   UNL A   1      32.124  26.468  20.866  1.00  0.00     0.165 HD
ATOM     13  O   UNL A   1      33.626  25.218  22.333  1.00  0.00    -0.249 OA
BRANCH  11  14
ATOM     14  C   UNL A   1      31.007  27.615  22.205  1.00  0.00     0.118 C 
BRANCH  14  15
ATOM     15  C   UNL A   1      31.703  28.961  22.394  1.00  0.00     0.031 C 
BRANCH  15  16
ATOM     16  C   UNL A   1      32.924  28.952  23.310  1.00  0.00     0.102 C 
BRANCH  16  17
ATOM     17  C   UNL A   1      32.578  29.314  24.739  1.00  0.00     0.220 C 
ATOM     18  O   UNL A   1      31.416  29.333  25.132  1.00  0.00    -0.275 OA
ATOM     19  N   UNL A   1      33.678  29.643  25.507  1.00  0.00    -0.353 N 
ATOM     20  H   UNL A   1      34.563  29.589  25.080  1.00  0.00     0.163 HD
BRANCH  19  21
ATOM     21  C   UNL A   1      33.630  30.056  26.873  1.00  0.00     0.082 C 
ATOM     22  C   UNL A   1      34.682  29.553  27.830  1.00  0.00     0.027 C 
ATOM     23  C   UNL A   1      34.598  31.013  27.507  1.00  0.00     0.027 C 
ENDBRANCH  19  21
ENDBRANCH  16  17
ENDBRANCH  15  16
ENDBRANCH  14  15
ENDBRANCH  11  14
ENDBRANCH   6  10
ENDBRANCH   1   5
BRANCH   3  24
ATOM     24  C   UNL A   1      34.498  23.217  25.440  1.00  0.00     0.117 C 
BRANCH  24  25
ATOM     25  C   UNL A   1      35.814  23.488  26.156  1.00  0.00     0.042 C 
BRANCH  25  26
ATOM     26  C   UNL A   1      36.983  23.709  25.207  1.00  0.00     0.118 C 
BRANCH  26  27
ATOM     27  N   UNL A   1      38.079  22.780  25.452  1.00  0.00    -0.352 N 
ATOM     28  C   UNL A   1      39.301  22.993  26.039  1.00  0.00     0.251 C 
ATOM     29  H   UNL A   1      37.917  21.857  25.150  1.00  0.00     0.163 HD
ATOM     30  O   UNL A   1      40.175  22.131  25.937  1.00  0.00    -0.269 OA
BRANCH  28  31
ATOM     31  C   UNL A   1      39.575  24.246  26.772  1.00  0.00     0.039 A 
ATOM     32  C   UNL A   1      39.057  24.406  28.060  1.00  0.00     0.014 A 
ATOM     33  C   UNL A   1      40.327  25.271  26.192  1.00  0.00     0.014 A 
ATOM     34  C   UNL A   1      39.357  25.560  28.789  1.00  0.00     0.010 A 
ATOM     35  C   UNL A   1      40.703  26.374  26.951  1.00  0.00     0.010 A 
ATOM     36  C   UNL A   1      40.220  26.533  28.258  1.00  0.00    -0.014 A 
BRANCH  36  37
ATOM     37  C   UNL A   1      40.637  27.717  29.052  1.00  0.00     0.031 A 
ATOM     38  C   UNL A   1      41.960  27.718  29.773  1.00  0.00     0.074 A 
ATOM     39  C   UNL A   1      39.795  28.763  29.175  1.00  0.00     0.049 A 
ATOM     40  N   UNL A   1      42.458  28.617  30.581  1.00  0.00    -0.248 NA
ATOM     41  C   UNL A   1      42.826  26.543  29.581  1.00  0.00     0.031 C 
ATOM     42  C   UNL A   1      38.466  28.858  28.564  1.00  0.00     0.029 A 
ATOM     43  N   UNL A   1      39.923  29.943  29.865  1.00  0.00    -0.354 N 
ATOM     44  C   UNL A   1      43.687  28.118  30.996  1.00  0.00     0.074 A 
ATOM     45  C   UNL A   1      43.834  26.809  30.398  1.00  0.00     0.031 C 
ATOM     46  C   UNL A   1      37.913  30.037  28.888  1.00  0.00     0.029 A 
ATOM     47  C   UNL A   1      38.823  30.764  29.766  1.00  0.00     0.049 A 
ATOM     48  H   UNL A   1      40.726  30.180  30.383  1.00  0.00     0.167 HD
ATOM     49  C   UNL A   1      44.620  28.709  31.780  1.00  0.00     0.037 A 
ATOM     50  C   UNL A   1      38.569  31.960  30.334  1.00  0.00     0.037 A 
ATOM     51  C   UNL A   1      44.474  30.022  32.353  1.00  0.00     0.049 A 
ATOM     52  C   UNL A   1      39.614  32.582  31.222  1.00  0.00     0.074 A 
ATOM     53  C   UNL A   1      45.380  30.727  33.124  1.00  0.00     0.029 A 
ATOM     54  N   UNL A   1      43.352  30.826  32.218  1.00  0.00    -0.354 N 
ATOM     55  N   UNL A   1      40.796  32.120  31.552  1.00  0.00    -0.248 NA
ATOM     56  C   UNL A   1      39.292  33.887  31.815  1.00  0.00     0.031 C 
ATOM     57  C   UNL A   1      44.790  31.938  33.496  1.00  0.00     0.029 A 
ATOM     58  C   UNL A   1      43.536  32.012  32.910  1.00  0.00     0.049 A 
ATOM     59  H   UNL A   1      42.546  30.590  31.705  1.00  0.00     0.167 HD
ATOM     60  C   UNL A   1      41.370  33.090  32.367  1.00  0.00     0.074 A 
ATOM     61  C   UNL A   1      40.412  34.172  32.463  1.00  0.00     0.031 C 
ATOM     62  C   UNL A   1      42.577  33.086  32.984  1.00  0.00     0.037 A 
BRANCH  49  63
ATOM     63  C   UNL A   1      45.893  27.955  32.053  1.00  0.00     0.058 A 
ATOM     64  C   UNL A   1      47.022  28.102  31.232  1.00  0.00     0.135 A 
ATOM     65  C   UNL A   1      46.012  27.135  33.187  1.00  0.00     0.135 A 
ATOM     66  F   UNL A   1      46.960  28.860  30.125  1.00  0.00    -0.206 F 
ATOM     67  C   UNL A   1      48.220  27.457  31.519  1.00  0.00     0.059 A 
ATOM     68  C   UNL A   1      47.210  26.502  33.509  1.00  0.00     0.059 A 
ATOM     69  F   UNL A   1      44.962  26.955  34.004  1.00  0.00    -0.206 F 
ATOM     70  C   UNL A   1      48.307  26.665  32.665  1.00  0.00     0.060 A 
BRANCH  70  71
ATOM     71  S   UNL A   1      49.884  25.871  33.041  1.00  0.00     0.124 S 
ATOM     72  O   UNL A   1      49.447  24.550  33.483  1.00  0.00    -0.237 OA
ATOM     73  O   UNL A   1      50.568  25.915  31.754  1.00  0.00    -0.237 OA
ATOM     74  O   UNL A   1      50.454  26.721  34.082  1.00  0.00    -0.744 OA
ENDBRANCH  70  71
ENDBRANCH  49  63
BRANCH  50  75
ATOM     75  C   UNL A   1      37.274  32.652  30.085  1.00  0.00     0.058 A 
ATOM     76  C   UNL A   1      37.155  33.630  29.086  1.00  0.00     0.135 A 
ATOM     77  C   UNL A   1      36.137  32.371  30.858  1.00  0.00     0.135 A 
ATOM     78  F   UNL A   1      38.215  33.939  28.322  1.00  0.00    -0.206 F 
ATOM     79  C   UNL A   1      35.970  34.330  28.887  1.00  0.00     0.059 A 
ATOM     80  C   UNL A   1      34.930  33.033  30.656  1.00  0.00     0.059 A 
ATOM     81  F   UNL A   1      36.188  31.431  31.815  1.00  0.00    -0.206 F 
ATOM     82  C   UNL A   1      34.863  34.027  29.680  1.00  0.00     0.060 A 
BRANCH  82  83
ATOM     83  S   UNL A   1      33.327  34.937  29.411  1.00  0.00     0.124 S 
ATOM     84  O   UNL A   1      33.824  36.194  28.864  1.00  0.00    -0.237 OA
ATOM     85  O   UNL A   1      32.617  34.070  28.475  1.00  0.00    -0.237 OA
ATOM     86  O   UNL A   1      32.744  35.016  30.746  1.00  0.00    -0.744 OA
ENDBRANCH  82  83
ENDBRANCH  50  75
BRANCH  62  87
ATOM     87  C   UNL A   1      42.948  34.299  33.789  1.00  0.00     0.058 A 
ATOM     88  C   UNL A   1      42.704  34.373  35.169  1.00  0.00     0.135 A 
ATOM     89  C   UNL A   1      43.607  35.381  33.181  1.00  0.00     0.135 A 
ATOM     90  F   UNL A   1      42.071  33.370  35.797  1.00  0.00    -0.206 F 
ATOM     91  C   UNL A   1      43.080  35.486  35.914  1.00  0.00     0.059 A 
ATOM     92  C   UNL A   1      44.021  36.490  33.913  1.00  0.00     0.059 A 
ATOM     93  F   UNL A   1      43.875  35.358  31.865  1.00  0.00    -0.206 F 
ATOM     94  C   UNL A   1      43.742  36.537  35.278  1.00  0.00     0.060 A 
BRANCH  94  95
ATOM     95  S   UNL A   1      44.260  37.956  36.267  1.00  0.00     0.124 S 
ATOM     96  O   UNL A   1      45.653  37.628  36.545  1.00  0.00    -0.237 OA
ATOM     97  O   UNL A   1      44.042  39.071  35.350  1.00  0.00    -0.237 OA
ATOM     98  O   UNL A   1      43.363  37.914  37.418  1.00  0.00    -0.744 OA
ENDBRANCH  94  95
ENDBRANCH  62  87
ENDBRANCH  36  37
ENDBRANCH  28  31
ENDBRANCH  26  27
ENDBRANCH  25  26
ENDBRANCH  24  25
ENDBRANCH   3  24
TORSDOF 19
ENDMDL
MODEL 3
REMARK VINA RESULT:     -10.0      4.885     10.631
REMARK SMILES O=C(CCCNC(=O)N1CC[C@@H](C(=O)NCCCNC(=O)c2ccc(-c3c4nc(c(-c5c(F)cc(S(=O)(=O)[O-])cc5F)c5ccc([nH]5)c(-c5c(F)cc(S(=O)(=O)[O-])cc5F)c5nc(c(-c6c(F)cc(S(=O)(=O)[O-])cc6F)c6ccc3[nH]6)C=C5)C=C4)cc2)C1)NC1CC1
REMARK SMILES IDX 13 1 14 2 15 3 12 5 9 6 10 7 88 8 11 9 7 10 6 11 8 13 5 14
REMARK SMILES IDX 4 15 3 16 2 17 1 18 89 19 90 21 91 22 92 23 16 24 17 25
REMARK SMILES IDX 18 26 19 27 20 28 21 30 22 31 23 32 87 33 24 34 86 35 25 36
REMARK SMILES IDX 26 37 27 38 80 39 28 40 85 41 79 42 81 43 29 44 84 45 78 46
REMARK SMILES IDX 77 47 30 49 64 50 43 51 63 52 44 53 47 54 62 55 82 56 45 57
REMARK SMILES IDX 46 58 61 60 83 61 48 62 31 63 32 64 41 65 33 66 34 67 40 68
REMARK SMILES IDX 42 69 35 70 36 71 37 72 38 73 39 74 65 75 66 76 75 77 67 78
REMARK SMILES IDX 68 79 74 80 76 81 69 82 70 83 71 84 72 85 73 86 49 87 50 88
REMARK SMILES IDX 59 89 51 90 52 91 58 92 60 93 53 94 54 95 55 96 56 97 57 98
REMARK H PARENT 15 4 6 12 89 20 19 29 81 48 47 59
REMARK Flexibility Score: inf
ROOT
ATOM      1  C   UNL A   1      34.768  22.116  24.904  1.00  0.00     0.224 C 
ATOM      2  O   UNL A   1      33.963  21.533  24.166  1.00  0.00    -0.275 OA
ATOM      3  N   UNL A   1      36.037  21.649  24.872  1.00  0.00    -0.356 N 
ATOM      4  H   UNL A   1      36.163  20.921  24.220  1.00  0.00     0.163 HD
ENDROOT
BRANCH   1   5
ATOM      5  C   UNL A   1      34.296  23.348  25.658  1.00  0.00     0.100 C 
ATOM      6  N   UNL A   1      32.102  24.216  25.493  1.00  0.00    -0.324 N 
ATOM      7  C   UNL A   1      32.046  23.101  26.429  1.00  0.00     0.122 C 
ATOM      8  C   UNL A   1      33.439  24.374  24.944  1.00  0.00     0.134 C 
ATOM      9  C   UNL A   1      33.478  22.965  26.897  1.00  0.00     0.037 C 
BRANCH   6  10
ATOM     10  C   UNL A   1      31.036  24.814  24.896  1.00  0.00     0.317 C 
ATOM     11  N   UNL A   1      30.525  25.933  25.466  1.00  0.00    -0.338 N 
ATOM     12  H   UNL A   1      29.574  26.119  25.297  1.00  0.00     0.165 HD
ATOM     13  O   UNL A   1      30.545  24.411  23.845  1.00  0.00    -0.249 OA
BRANCH  11  14
ATOM     14  C   UNL A   1      31.238  26.886  26.298  1.00  0.00     0.118 C 
BRANCH  14  15
ATOM     15  C   UNL A   1      32.186  27.777  25.499  1.00  0.00     0.031 C 
BRANCH  15  16
ATOM     16  C   UNL A   1      31.715  29.211  25.274  1.00  0.00     0.102 C 
BRANCH  16  17
ATOM     17  C   UNL A   1      30.690  29.316  24.164  1.00  0.00     0.220 C 
ATOM     18  O   UNL A   1      30.460  28.373  23.414  1.00  0.00    -0.275 OA
ATOM     19  N   UNL A   1      30.094  30.559  24.078  1.00  0.00    -0.353 N 
ATOM     20  H   UNL A   1      30.359  31.237  24.740  1.00  0.00     0.163 HD
BRANCH  19  21
ATOM     21  C   UNL A   1      29.122  30.936  23.102  1.00  0.00     0.082 C 
ATOM     22  C   UNL A   1      27.667  30.989  23.497  1.00  0.00     0.027 C 
ATOM     23  C   UNL A   1      28.383  32.244  23.100  1.00  0.00     0.027 C 
ENDBRANCH  19  21
ENDBRANCH  16  17
ENDBRANCH  15  16
ENDBRANCH  14  15
ENDBRANCH  11  14
ENDBRANCH   6  10
ENDBRANCH   1   5
BRANCH   3  24
ATOM     24  C   UNL A   1      37.255  21.988  25.591  1.00  0.00     0.117 C 
BRANCH  24  25
ATOM     25  C   UNL A   1      37.663  23.442  25.397  1.00  0.00     0.042 C 
BRANCH  25  26
ATOM     26  C   UNL A   1      38.513  23.987  26.534  1.00  0.00     0.118 C 
BRANCH  26  27
ATOM     27  N   UNL A   1      39.940  23.801  26.298  1.00  0.00    -0.352 N 
ATOM     28  C   UNL A   1      41.004  24.586  26.667  1.00  0.00     0.251 C 
ATOM     29  H   UNL A   1      40.176  22.987  25.798  1.00  0.00     0.163 HD
ATOM     30  O   UNL A   1      42.109  24.373  26.167  1.00  0.00    -0.269 OA
BRANCH  28  31
ATOM     31  C   UNL A   1      40.827  25.684  27.640  1.00  0.00     0.039 A 
ATOM     32  C   UNL A   1      39.762  25.626  28.543  1.00  0.00     0.014 A 
ATOM     33  C   UNL A   1      41.697  26.777  27.658  1.00  0.00     0.014 A 
ATOM     34  C   UNL A   1      39.617  26.626  29.508  1.00  0.00     0.010 A 
ATOM     35  C   UNL A   1      41.608  27.720  28.677  1.00  0.00     0.010 A 
ATOM     36  C   UNL A   1      40.565  27.657  29.613  1.00  0.00    -0.014 A 
BRANCH  36  37
ATOM     37  C   UNL A   1      40.491  28.673  30.695  1.00  0.00     0.031 A 
ATOM     38  C   UNL A   1      41.367  28.545  31.914  1.00  0.00     0.074 A 
ATOM     39  C   UNL A   1      39.591  29.671  30.606  1.00  0.00     0.049 A 
ATOM     40  N   UNL A   1      41.384  29.278  32.997  1.00  0.00    -0.248 NA
ATOM     41  C   UNL A   1      42.330  27.431  31.931  1.00  0.00     0.031 C 
ATOM     42  C   UNL A   1      38.655  29.873  29.496  1.00  0.00     0.029 A 
ATOM     43  N   UNL A   1      39.303  30.701  31.467  1.00  0.00    -0.354 N 
ATOM     44  C   UNL A   1      42.351  28.717  33.822  1.00  0.00     0.074 A 
ATOM     45  C   UNL A   1      42.858  27.544  33.141  1.00  0.00     0.031 C 
ATOM     46  C   UNL A   1      37.914  30.967  29.734  1.00  0.00     0.029 A 
ATOM     47  C   UNL A   1      38.286  31.520  31.031  1.00  0.00     0.049 A 
ATOM     48  H   UNL A   1      39.778  30.840  32.318  1.00  0.00     0.167 HD
ATOM     49  C   UNL A   1      42.797  29.153  35.024  1.00  0.00     0.037 A 
ATOM     50  C   UNL A   1      37.707  32.586  31.618  1.00  0.00     0.037 A 
ATOM     51  C   UNL A   1      42.302  30.334  35.684  1.00  0.00     0.049 A 
ATOM     52  C   UNL A   1      38.206  33.035  32.967  1.00  0.00     0.074 A 
ATOM     53  C   UNL A   1      42.720  30.886  36.881  1.00  0.00     0.029 A 
ATOM     54  N   UNL A   1      41.284  31.144  35.203  1.00  0.00    -0.354 N 
ATOM     55  N   UNL A   1      39.165  32.525  33.703  1.00  0.00    -0.248 NA
ATOM     56  C   UNL A   1      37.546  34.203  33.565  1.00  0.00     0.031 C 
ATOM     57  C   UNL A   1      41.922  32.003  37.150  1.00  0.00     0.029 A 
ATOM     58  C   UNL A   1      41.044  32.178  36.092  1.00  0.00     0.049 A 
ATOM     59  H   UNL A   1      40.802  31.004  34.355  1.00  0.00     0.167 HD
ATOM     60  C   UNL A   1      39.241  33.328  34.836  1.00  0.00     0.074 A 
ATOM     61  C   UNL A   1      38.245  34.367  34.679  1.00  0.00     0.031 C 
ATOM     62  C   UNL A   1      40.058  33.214  35.913  1.00  0.00     0.037 A 
BRANCH  49  63
ATOM     63  C   UNL A   1      43.887  28.368  35.701  1.00  0.00     0.058 A 
ATOM     64  C   UNL A   1      43.593  27.331  36.599  1.00  0.00     0.135 A 
ATOM     65  C   UNL A   1      45.237  28.604  35.393  1.00  0.00     0.135 A 
ATOM     66  F   UNL A   1      42.321  27.073  36.943  1.00  0.00    -0.206 F 
ATOM     67  C   UNL A   1      44.597  26.561  37.176  1.00  0.00     0.059 A 
ATOM     68  C   UNL A   1      46.257  27.827  35.937  1.00  0.00     0.059 A 
ATOM     69  F   UNL A   1      45.575  29.586  34.544  1.00  0.00    -0.206 F 
ATOM     70  C   UNL A   1      45.927  26.811  36.833  1.00  0.00     0.060 A 
BRANCH  70  71
ATOM     71  S   UNL A   1      47.211  25.773  37.560  1.00  0.00     0.124 S 
ATOM     72  O   UNL A   1      46.414  24.790  38.288  1.00  0.00    -0.237 OA
ATOM     73  O   UNL A   1      47.911  25.275  36.381  1.00  0.00    -0.237 OA
ATOM     74  O   UNL A   1      47.970  26.702  38.392  1.00  0.00    -0.744 OA
ENDBRANCH  70  71
ENDBRANCH  49  63
BRANCH  50  75
ATOM     75  C   UNL A   1      36.592  33.306  30.943  1.00  0.00     0.058 A 
ATOM     76  C   UNL A   1      35.259  33.101  31.328  1.00  0.00     0.135 A 
ATOM     77  C   UNL A   1      36.834  34.191  29.881  1.00  0.00     0.135 A 
ATOM     78  F   UNL A   1      34.974  32.261  32.336  1.00  0.00    -0.206 F 
ATOM     79  C   UNL A   1      34.204  33.718  30.663  1.00  0.00     0.059 A 
ATOM     80  C   UNL A   1      35.799  34.845  29.221  1.00  0.00     0.059 A 
ATOM     81  F   UNL A   1      38.092  34.439  29.482  1.00  0.00    -0.206 F 
ATOM     82  C   UNL A   1      34.484  34.585  29.607  1.00  0.00     0.060 A 
BRANCH  82  83
ATOM     83  S   UNL A   1      33.108  35.384  28.754  1.00  0.00     0.124 S 
ATOM     84  O   UNL A   1      32.480  34.251  28.086  1.00  0.00    -0.237 OA
ATOM     85  O   UNL A   1      32.359  35.970  29.861  1.00  0.00    -0.237 OA
ATOM     86  O   UNL A   1      33.770  36.346  27.877  1.00  0.00    -0.744 OA
ENDBRANCH  82  83
ENDBRANCH  50  75
BRANCH  62  87
ATOM     87  C   UNL A   1      39.935  34.256  36.989  1.00  0.00     0.058 A 
ATOM     88  C   UNL A   1      40.613  35.483  36.910  1.00  0.00     0.135 A 
ATOM     89  C   UNL A   1      39.084  34.046  38.087  1.00  0.00     0.135 A 
ATOM     90  F   UNL A   1      41.444  35.730  35.886  1.00  0.00    -0.206 F 
ATOM     91  C   UNL A   1      40.469  36.456  37.893  1.00  0.00     0.059 A 
ATOM     92  C   UNL A   1      38.901  35.018  39.065  1.00  0.00     0.059 A 
ATOM     93  F   UNL A   1      38.404  32.895  38.206  1.00  0.00    -0.206 F 
ATOM     94  C   UNL A   1      39.607  36.216  38.965  1.00  0.00     0.060 A 
BRANCH  94  95
ATOM     95  S   UNL A   1      39.400  37.506  40.211  1.00  0.00     0.124 S 
ATOM     96  O   UNL A   1      38.434  38.387  39.564  1.00  0.00    -0.237 OA
ATOM     97  O   UNL A   1      38.901  36.753  41.359  1.00  0.00    -0.237 OA
ATOM     98  O   UNL A   1      40.745  38.052  40.363  1.00  0.00    -0.744 OA
ENDBRANCH  94  95
ENDBRANCH  62  87
ENDBRANCH  36  37
ENDBRANCH  28  31
ENDBRANCH  26  27
ENDBRANCH  25  26
ENDBRANCH  24  25
ENDBRANCH   3  24
TORSDOF 19
ENDMDL
