MODEL 1
REMARK VINA RESULT:     -11.7      0.000      0.000
REMARK SMILES O=C(NCCCNC(=O)c1cccnc1C[N@@H+]1CCC[C@H]1c1ccccn1)c1ccc(-c2c3nc(c(-c4c(F)cc(S(=O)(=O)[O-])cc4F)c4ccc([nH]4)c(-c4c(F)cc(S(=O)(=O)[O-])cc4F)c4nc(c(-c5c(F)cc(S(=O)(=O)[O-])cc5F)c5ccc2[nH]5)C=C4)C=C3)cc1
REMARK SMILES IDX 5 1 4 2 3 3 1 4 2 5 28 7 29 8 93 9 30 10 92 11 31 12 32 13
REMARK SMILES IDX 33 14 86 15 34 16 91 17 85 18 87 19 35 20 90 21 84 22 83 23
REMARK SMILES IDX 36 25 70 26 49 27 69 28 50 29 53 30 68 31 88 32 51 33 52 34
REMARK SMILES IDX 67 36 89 37 54 38 37 39 38 40 47 41 39 42 40 43 46 44 48 45
REMARK SMILES IDX 41 46 42 47 43 48 44 49 45 50 71 51 72 52 81 53 73 54 74 55
REMARK SMILES IDX 80 56 82 57 75 58 76 59 77 60 78 61 79 62 55 63 56 64 65 65
REMARK SMILES IDX 57 66 58 67 64 68 66 69 59 70 60 71 61 72 62 73 63 74 6 75
REMARK SMILES IDX 7 76 8 77 9 79 10 80 11 81 15 82 12 83 14 84 13 85 16 86
REMARK SMILES IDX 17 87 18 88 21 89 19 91 20 92 22 93 23 94 27 95 24 96 26 97
REMARK SMILES IDX 25 98
REMARK H PARENT 3 6 87 24 53 35 7 78 17 90
REMARK Flexibility Score: inf
ROOT
ATOM      1  C   UNL A   1      34.114  28.065  26.061  1.00  0.00     0.042 C 
ENDROOT
BRANCH   1   2
ATOM      2  C   UNL A   1      33.634  28.400  27.464  1.00  0.00     0.118 C 
BRANCH   2   3
ATOM      3  N   UNL A   1      33.538  29.835  27.697  1.00  0.00    -0.352 N 
ATOM      4  O   UNL A   1      34.122  31.845  28.524  1.00  0.00    -0.269 OA
ATOM      5  C   UNL A   1      34.465  30.705  28.218  1.00  0.00     0.251 C 
ATOM      6  H   UNL A   1      32.679  30.244  27.444  1.00  0.00     0.163 HD
BRANCH   5   7
ATOM      7  C   UNL A   1      35.863  30.267  28.422  1.00  0.00     0.039 A 
ATOM      8  C   UNL A   1      36.803  30.393  27.397  1.00  0.00     0.014 A 
ATOM      9  C   UNL A   1      36.249  29.760  29.666  1.00  0.00     0.014 A 
ATOM     10  C   UNL A   1      38.085  29.885  27.563  1.00  0.00     0.010 A 
ATOM     11  C   UNL A   1      37.568  29.340  29.866  1.00  0.00     0.010 A 
ATOM     12  C   UNL A   1      38.491  29.386  28.810  1.00  0.00    -0.014 A 
BRANCH  12  13
ATOM     13  C   UNL A   1      39.920  29.047  29.020  1.00  0.00     0.031 A 
ATOM     14  C   UNL A   1      40.475  27.711  28.619  1.00  0.00     0.074 A 
ATOM     15  C   UNL A   1      40.711  29.975  29.597  1.00  0.00     0.049 A 
ATOM     16  N   UNL A   1      41.690  27.251  28.771  1.00  0.00    -0.248 NA
ATOM     17  C   UNL A   1      39.554  26.764  27.969  1.00  0.00     0.031 C 
ATOM     18  C   UNL A   1      40.265  31.299  30.045  1.00  0.00     0.029 A 
ATOM     19  N   UNL A   1      42.045  29.956  29.909  1.00  0.00    -0.354 N 
ATOM     20  C   UNL A   1      41.676  25.957  28.267  1.00  0.00     0.074 A 
ATOM     21  C   UNL A   1      40.329  25.699  27.806  1.00  0.00     0.031 C 
ATOM     22  C   UNL A   1      41.307  31.969  30.555  1.00  0.00     0.029 A 
ATOM     23  C   UNL A   1      42.476  31.100  30.537  1.00  0.00     0.049 A 
ATOM     24  H   UNL A   1      42.637  29.196  29.704  1.00  0.00     0.167 HD
ATOM     25  C   UNL A   1      42.701  25.073  28.199  1.00  0.00     0.037 A 
ATOM     26  C   UNL A   1      43.669  31.405  31.083  1.00  0.00     0.037 A 
ATOM     27  C   UNL A   1      44.043  25.361  28.638  1.00  0.00     0.049 A 
ATOM     28  C   UNL A   1      44.774  30.392  31.015  1.00  0.00     0.074 A 
ATOM     29  C   UNL A   1      45.170  24.566  28.525  1.00  0.00     0.029 A 
ATOM     30  N   UNL A   1      44.437  26.523  29.284  1.00  0.00    -0.354 N 
ATOM     31  N   UNL A   1      44.764  29.204  30.461  1.00  0.00    -0.248 NA
ATOM     32  C   UNL A   1      46.046  30.750  31.656  1.00  0.00     0.031 C 
ATOM     33  C   UNL A   1      46.231  25.220  29.159  1.00  0.00     0.029 A 
ATOM     34  C   UNL A   1      45.779  26.445  29.620  1.00  0.00     0.049 A 
ATOM     35  H   UNL A   1      43.851  27.290  29.476  1.00  0.00     0.167 HD
ATOM     36  C   UNL A   1      46.028  28.674  30.682  1.00  0.00     0.074 A 
ATOM     37  C   UNL A   1      46.786  29.682  31.396  1.00  0.00     0.031 C 
ATOM     38  C   UNL A   1      46.515  27.458  30.334  1.00  0.00     0.037 A 
BRANCH  25  39
ATOM     39  C   UNL A   1      42.429  23.698  27.653  1.00  0.00     0.058 A 
ATOM     40  C   UNL A   1      42.365  23.448  26.274  1.00  0.00     0.135 A 
ATOM     41  C   UNL A   1      42.342  22.599  28.524  1.00  0.00     0.135 A 
ATOM     42  F   UNL A   1      42.431  24.462  25.398  1.00  0.00    -0.206 F 
ATOM     43  C   UNL A   1      42.223  22.154  25.778  1.00  0.00     0.059 A 
ATOM     44  C   UNL A   1      42.221  21.296  28.049  1.00  0.00     0.059 A 
ATOM     45  F   UNL A   1      42.396  22.784  29.852  1.00  0.00    -0.206 F 
ATOM     46  C   UNL A   1      42.160  21.084  26.673  1.00  0.00     0.060 A 
BRANCH  46  47
ATOM     47  S   UNL A   1      42.025  19.411  26.010  1.00  0.00     0.124 S 
ATOM     48  O   UNL A   1      42.908  19.483  24.850  1.00  0.00    -0.237 OA
ATOM     49  O   UNL A   1      42.505  18.595  27.121  1.00  0.00    -0.237 OA
ATOM     50  O   UNL A   1      40.603  19.277  25.706  1.00  0.00    -0.744 OA
ENDBRANCH  46  47
ENDBRANCH  25  39
BRANCH  26  51
ATOM     51  C   UNL A   1      43.853  32.701  31.788  1.00  0.00     0.058 A 
ATOM     52  C   UNL A   1      43.582  32.830  33.156  1.00  0.00     0.135 A 
ATOM     53  C   UNL A   1      44.308  33.838  31.100  1.00  0.00     0.135 A 
ATOM     54  F   UNL A   1      43.143  31.773  33.857  1.00  0.00    -0.206 F 
ATOM     55  C   UNL A   1      43.731  34.046  33.815  1.00  0.00     0.059 A 
ATOM     56  C   UNL A   1      44.494  35.056  31.741  1.00  0.00     0.059 A 
ATOM     57  F   UNL A   1      44.601  33.761  29.792  1.00  0.00    -0.206 F 
ATOM     58  C   UNL A   1      44.185  35.154  33.096  1.00  0.00     0.060 A 
BRANCH  58  59
ATOM     59  S   UNL A   1      44.392  36.727  33.961  1.00  0.00     0.124 S 
ATOM     60  O   UNL A   1      45.283  36.344  35.051  1.00  0.00    -0.237 OA
ATOM     61  O   UNL A   1      44.975  37.574  32.926  1.00  0.00    -0.237 OA
ATOM     62  O   UNL A   1      43.029  37.075  34.351  1.00  0.00    -0.744 OA
ENDBRANCH  58  59
ENDBRANCH  26  51
BRANCH  38  63
ATOM     63  C   UNL A   1      47.935  27.152  30.717  1.00  0.00     0.058 A 
ATOM     64  C   UNL A   1      48.236  26.431  31.882  1.00  0.00     0.135 A 
ATOM     65  C   UNL A   1      48.998  27.525  29.879  1.00  0.00     0.135 A 
ATOM     66  F   UNL A   1      47.255  26.064  32.722  1.00  0.00    -0.206 F 
ATOM     67  C   UNL A   1      49.545  26.098  32.210  1.00  0.00     0.059 A 
ATOM     68  C   UNL A   1      50.312  27.180  30.174  1.00  0.00     0.059 A 
ATOM     69  F   UNL A   1      48.761  28.212  28.750  1.00  0.00    -0.206 F 
ATOM     70  C   UNL A   1      50.576  26.471  31.345  1.00  0.00     0.060 A 
BRANCH  70  71
ATOM     71  S   UNL A   1      52.264  25.979  31.754  1.00  0.00     0.124 S 
ATOM     72  O   UNL A   1      52.648  27.013  32.709  1.00  0.00    -0.237 OA
ATOM     73  O   UNL A   1      52.075  24.642  32.307  1.00  0.00    -0.237 OA
ATOM     74  O   UNL A   1      52.952  26.027  30.467  1.00  0.00    -0.744 OA
ENDBRANCH  70  71
ENDBRANCH  38  63
ENDBRANCH  12  13
ENDBRANCH   5   7
ENDBRANCH   2   3
ENDBRANCH   1   2
BRANCH   1  75
ATOM     75  C   UNL A   1      33.705  26.683  25.580  1.00  0.00     0.118 C 
BRANCH  75  76
ATOM     76  N   UNL A   1      32.469  26.219  26.194  1.00  0.00    -0.352 N 
ATOM     77  C   UNL A   1      31.171  26.466  25.840  1.00  0.00     0.253 C 
ATOM     78  H   UNL A   1      32.584  25.643  26.983  1.00  0.00     0.163 HD
ATOM     79  O   UNL A   1      30.246  26.029  26.521  1.00  0.00    -0.269 OA
BRANCH  77  80
ATOM     80  C   UNL A   1      30.874  27.206  24.603  1.00  0.00     0.067 A 
ATOM     81  C   UNL A   1      30.782  28.604  24.677  1.00  0.00     0.017 A 
ATOM     82  C   UNL A   1      30.770  26.581  23.360  1.00  0.00     0.107 A 
ATOM     83  C   UNL A   1      30.539  29.343  23.528  1.00  0.00     0.021 A 
ATOM     84  N   UNL A   1      30.586  27.320  22.224  1.00  0.00    -0.254 NA
ATOM     85  C   UNL A   1      30.456  28.660  22.332  1.00  0.00     0.111 A 
BRANCH  82  86
ATOM     86  C   UNL A   1      30.865  25.068  23.170  1.00  0.00     0.321 C 
BRANCH  86  87
ATOM     87  N   UNL A   1      32.146  24.398  23.497  1.00  0.00    -0.322 N 
ATOM     88  C   UNL A   1      33.140  24.448  22.428  1.00  0.00     0.263 C 
ATOM     89  C   UNL A   1      31.987  22.989  23.911  1.00  0.00     0.234 C 
ATOM     90  H   UNL A   1      32.487  24.947  24.286  1.00  0.00     0.349 HD
ATOM     91  C   UNL A   1      33.180  23.073  21.781  1.00  0.00     0.068 C 
ATOM     92  C   UNL A   1      32.447  22.136  22.726  1.00  0.00     0.078 C 
BRANCH  89  93
ATOM     93  C   UNL A   1      32.743  22.623  25.189  1.00  0.00     0.098 A 
ATOM     94  C   UNL A   1      33.886  21.821  25.172  1.00  0.00     0.030 A 
ATOM     95  N   UNL A   1      32.192  23.051  26.359  1.00  0.00    -0.255 NA
ATOM     96  C   UNL A   1      34.481  21.446  26.376  1.00  0.00     0.004 A 
ATOM     97  C   UNL A   1      32.795  22.675  27.512  1.00  0.00     0.111 A 
ATOM     98  C   UNL A   1      33.926  21.879  27.570  1.00  0.00     0.020 A 
ENDBRANCH  89  93
ENDBRANCH  86  87
ENDBRANCH  82  86
ENDBRANCH  77  80
ENDBRANCH  75  76
ENDBRANCH   1  75
TORSDOF 16
ENDMDL
MODEL 2
REMARK VINA RESULT:     -11.5      4.690      9.793
REMARK SMILES O=C(NCCCNC(=O)c1cccnc1C[N@@H+]1CCC[C@H]1c1ccccn1)c1ccc(-c2c3nc(c(-c4c(F)cc(S(=O)(=O)[O-])cc4F)c4ccc([nH]4)c(-c4c(F)cc(S(=O)(=O)[O-])cc4F)c4nc(c(-c5c(F)cc(S(=O)(=O)[O-])cc5F)c5ccc2[nH]5)C=C4)C=C3)cc1
REMARK SMILES IDX 5 1 4 2 3 3 1 4 2 5 28 7 29 8 93 9 30 10 92 11 31 12 32 13
REMARK SMILES IDX 33 14 86 15 34 16 91 17 85 18 87 19 35 20 90 21 84 22 83 23
REMARK SMILES IDX 36 25 70 26 49 27 69 28 50 29 53 30 68 31 88 32 51 33 52 34
REMARK SMILES IDX 67 36 89 37 54 38 37 39 38 40 47 41 39 42 40 43 46 44 48 45
REMARK SMILES IDX 41 46 42 47 43 48 44 49 45 50 71 51 72 52 81 53 73 54 74 55
REMARK SMILES IDX 80 56 82 57 75 58 76 59 77 60 78 61 79 62 55 63 56 64 65 65
REMARK SMILES IDX 57 66 58 67 64 68 66 69 59 70 60 71 61 72 62 73 63 74 6 75
REMARK SMILES IDX 7 76 8 77 9 79 10 80 11 81 15 82 12 83 14 84 13 85 16 86
REMARK SMILES IDX 17 87 18 88 21 89 19 91 20 92 22 93 23 94 27 95 24 96 26 97
REMARK SMILES IDX 25 98
REMARK H PARENT 3 6 87 24 53 35 7 78 17 90
REMARK Flexibility Score: inf
ROOT
ATOM      1  C   UNL A   1      37.631  23.173  25.776  1.00  0.00     0.042 C 
ENDROOT
BRANCH   1   2
ATOM      2  C   UNL A   1      38.532  24.197  26.447  1.00  0.00     0.118 C 
BRANCH   2   3
ATOM      3  N   UNL A   1      39.936  24.028  26.093  1.00  0.00    -0.352 N 
ATOM      4  O   UNL A   1      42.105  24.590  25.891  1.00  0.00    -0.269 OA
ATOM      5  C   UNL A   1      41.031  24.772  26.459  1.00  0.00     0.251 C 
ATOM      6  H   UNL A   1      40.129  23.266  25.500  1.00  0.00     0.163 HD
BRANCH   5   7
ATOM      7  C   UNL A   1      40.913  25.796  27.521  1.00  0.00     0.039 A 
ATOM      8  C   UNL A   1      39.967  25.657  28.538  1.00  0.00     0.014 A 
ATOM      9  C   UNL A   1      41.785  26.888  27.520  1.00  0.00     0.014 A 
ATOM     10  C   UNL A   1      39.795  26.674  29.470  1.00  0.00     0.010 A 
ATOM     11  C   UNL A   1      41.678  27.862  28.518  1.00  0.00     0.010 A 
ATOM     12  C   UNL A   1      40.672  27.768  29.491  1.00  0.00    -0.014 A 
BRANCH  12  13
ATOM     13  C   UNL A   1      40.599  28.728  30.621  1.00  0.00     0.031 A 
ATOM     14  C   UNL A   1      41.468  28.575  31.835  1.00  0.00     0.074 A 
ATOM     15  C   UNL A   1      39.715  29.743  30.531  1.00  0.00     0.049 A 
ATOM     16  N   UNL A   1      41.494  29.307  32.919  1.00  0.00    -0.248 NA
ATOM     17  C   UNL A   1      42.427  27.459  31.844  1.00  0.00     0.031 C 
ATOM     18  C   UNL A   1      38.807  29.969  29.400  1.00  0.00     0.029 A 
ATOM     19  N   UNL A   1      39.428  30.768  31.392  1.00  0.00    -0.354 N 
ATOM     20  C   UNL A   1      42.445  28.729  33.750  1.00  0.00     0.074 A 
ATOM     21  C   UNL A   1      42.973  27.579  33.049  1.00  0.00     0.031 C 
ATOM     22  C   UNL A   1      38.080  31.071  29.629  1.00  0.00     0.029 A 
ATOM     23  C   UNL A   1      38.417  31.588  30.949  1.00  0.00     0.049 A 
ATOM     24  H   UNL A   1      39.900  30.905  32.245  1.00  0.00     0.167 HD
ATOM     25  C   UNL A   1      42.833  29.129  34.984  1.00  0.00     0.037 A 
ATOM     26  C   UNL A   1      37.793  32.617  31.553  1.00  0.00     0.037 A 
ATOM     27  C   UNL A   1      42.315  30.295  35.653  1.00  0.00     0.049 A 
ATOM     28  C   UNL A   1      38.230  33.017  32.932  1.00  0.00     0.074 A 
ATOM     29  C   UNL A   1      42.712  30.836  36.864  1.00  0.00     0.029 A 
ATOM     30  N   UNL A   1      41.281  31.089  35.182  1.00  0.00    -0.354 N 
ATOM     31  N   UNL A   1      39.187  32.507  33.669  1.00  0.00    -0.248 NA
ATOM     32  C   UNL A   1      37.498  34.119  33.570  1.00  0.00     0.031 C 
ATOM     33  C   UNL A   1      41.877  31.920  37.153  1.00  0.00     0.029 A 
ATOM     34  C   UNL A   1      40.993  32.087  36.100  1.00  0.00     0.049 A 
ATOM     35  H   UNL A   1      40.818  30.963  34.322  1.00  0.00     0.167 HD
ATOM     36  C   UNL A   1      39.175  33.229  34.855  1.00  0.00     0.074 A 
ATOM     37  C   UNL A   1      38.135  34.228  34.727  1.00  0.00     0.031 C 
ATOM     38  C   UNL A   1      39.951  33.071  35.955  1.00  0.00     0.037 A 
BRANCH  25  39
ATOM     39  C   UNL A   1      43.855  28.304  35.719  1.00  0.00     0.058 A 
ATOM     40  C   UNL A   1      45.231  28.546  35.597  1.00  0.00     0.135 A 
ATOM     41  C   UNL A   1      43.439  27.329  36.642  1.00  0.00     0.135 A 
ATOM     42  F   UNL A   1      45.683  29.458  34.722  1.00  0.00    -0.206 F 
ATOM     43  C   UNL A   1      46.160  27.850  36.366  1.00  0.00     0.059 A 
ATOM     44  C   UNL A   1      44.350  26.636  37.435  1.00  0.00     0.059 A 
ATOM     45  F   UNL A   1      42.134  27.058  36.796  1.00  0.00    -0.206 F 
ATOM     46  C   UNL A   1      45.710  26.903  37.288  1.00  0.00     0.060 A 
BRANCH  46  47
ATOM     47  S   UNL A   1      46.927  26.045  38.308  1.00  0.00     0.124 S 
ATOM     48  O   UNL A   1      47.185  24.849  37.513  1.00  0.00    -0.237 OA
ATOM     49  O   UNL A   1      48.019  27.011  38.369  1.00  0.00    -0.237 OA
ATOM     50  O   UNL A   1      46.221  25.820  39.566  1.00  0.00    -0.744 OA
ENDBRANCH  46  47
ENDBRANCH  25  39
BRANCH  26  51
ATOM     51  C   UNL A   1      36.655  33.294  30.878  1.00  0.00     0.058 A 
ATOM     52  C   UNL A   1      36.862  34.174  29.808  1.00  0.00     0.135 A 
ATOM     53  C   UNL A   1      35.332  33.068  31.294  1.00  0.00     0.135 A 
ATOM     54  F   UNL A   1      38.108  34.424  29.376  1.00  0.00    -0.206 F 
ATOM     55  C   UNL A   1      35.801  34.827  29.189  1.00  0.00     0.059 A 
ATOM     56  C   UNL A   1      34.254  33.685  30.672  1.00  0.00     0.059 A 
ATOM     57  F   UNL A   1      35.079  32.218  32.303  1.00  0.00    -0.206 F 
ATOM     58  C   UNL A   1      34.501  34.578  29.631  1.00  0.00     0.060 A 
BRANCH  58  59
ATOM     59  S   UNL A   1      33.127  35.417  28.813  1.00  0.00     0.124 S 
ATOM     60  O   UNL A   1      33.830  36.422  28.024  1.00  0.00    -0.237 OA
ATOM     61  O   UNL A   1      32.507  34.332  28.059  1.00  0.00    -0.237 OA
ATOM     62  O   UNL A   1      32.335  35.928  29.928  1.00  0.00    -0.744 OA
ENDBRANCH  58  59
ENDBRANCH  26  51
BRANCH  38  63
ATOM     63  C   UNL A   1      39.705  34.003  37.107  1.00  0.00     0.058 A 
ATOM     64  C   UNL A   1      38.916  33.617  38.201  1.00  0.00     0.135 A 
ATOM     65  C   UNL A   1      40.316  35.267  37.147  1.00  0.00     0.135 A 
ATOM     66  F   UNL A   1      38.301  32.425  38.204  1.00  0.00    -0.206 F 
ATOM     67  C   UNL A   1      38.733  34.457  39.293  1.00  0.00     0.059 A 
ATOM     68  C   UNL A   1      40.167  36.112  38.241  1.00  0.00     0.059 A 
ATOM     69  F   UNL A   1      41.084  35.680  36.126  1.00  0.00    -0.206 F 
ATOM     70  C   UNL A   1      39.369  35.701  39.307  1.00  0.00     0.060 A 
BRANCH  70  71
ATOM     71  S   UNL A   1      39.170  36.754  40.759  1.00  0.00     0.124 S 
ATOM     72  O   UNL A   1      38.276  35.950  41.585  1.00  0.00    -0.237 OA
ATOM     73  O   UNL A   1      40.540  36.880  41.244  1.00  0.00    -0.237 OA
ATOM     74  O   UNL A   1      38.589  37.978  40.214  1.00  0.00    -0.744 OA
ENDBRANCH  70  71
ENDBRANCH  38  63
ENDBRANCH  12  13
ENDBRANCH   5   7
ENDBRANCH   2   3
ENDBRANCH   1   2
BRANCH   1  75
ATOM     75  C   UNL A   1      36.151  23.506  25.853  1.00  0.00     0.118 C 
BRANCH  75  76
ATOM     76  N   UNL A   1      35.449  22.705  26.847  1.00  0.00    -0.352 N 
ATOM     77  C   UNL A   1      34.199  22.150  26.798  1.00  0.00     0.253 C 
ATOM     78  H   UNL A   1      35.948  22.540  27.679  1.00  0.00     0.163 HD
ATOM     79  O   UNL A   1      33.748  21.546  27.770  1.00  0.00    -0.269 OA
BRANCH  77  80
ATOM     80  C   UNL A   1      33.412  22.219  25.558  1.00  0.00     0.067 A 
ATOM     81  C   UNL A   1      33.427  21.105  24.705  1.00  0.00     0.017 A 
ATOM     82  C   UNL A   1      32.590  23.303  25.249  1.00  0.00     0.107 A 
ATOM     83  C   UNL A   1      32.670  21.114  23.542  1.00  0.00     0.021 A 
ATOM     84  N   UNL A   1      31.804  23.283  24.129  1.00  0.00    -0.254 NA
ATOM     85  C   UNL A   1      31.874  22.216  23.303  1.00  0.00     0.111 A 
BRANCH  82  86
ATOM     86  C   UNL A   1      32.494  24.558  26.114  1.00  0.00     0.321 C 
BRANCH  86  87
ATOM     87  N   UNL A   1      32.521  25.879  25.444  1.00  0.00    -0.322 N 
ATOM     88  C   UNL A   1      33.833  26.521  25.434  1.00  0.00     0.263 C 
ATOM     89  C   UNL A   1      31.543  26.841  25.991  1.00  0.00     0.234 C 
ATOM     90  H   UNL A   1      32.265  25.644  24.484  1.00  0.00     0.349 HD
ATOM     91  C   UNL A   1      33.804  27.627  26.477  1.00  0.00     0.068 C 
ATOM     92  C   UNL A   1      32.342  27.838  26.834  1.00  0.00     0.078 C 
BRANCH  89  93
ATOM     93  C   UNL A   1      30.703  27.554  24.930  1.00  0.00     0.098 A 
ATOM     94  C   UNL A   1      29.687  26.904  24.226  1.00  0.00     0.030 A 
ATOM     95  N   UNL A   1      31.055  28.839  24.646  1.00  0.00    -0.255 NA
ATOM     96  C   UNL A   1      29.016  27.579  23.209  1.00  0.00     0.004 A 
ATOM     97  C   UNL A   1      30.381  29.470  23.656  1.00  0.00     0.111 A 
ATOM     98  C   UNL A   1      29.368  28.888  22.915  1.00  0.00     0.020 A 
ENDBRANCH  89  93
ENDBRANCH  86  87
ENDBRANCH  82  86
ENDBRANCH  77  80
ENDBRANCH  75  76
ENDBRANCH   1  75
TORSDOF 16
ENDMDL
MODEL 3
REMARK VINA RESULT:     -11.5      1.448      2.283
REMARK SMILES O=C(NCCCNC(=O)c1cccnc1C[N@@H+]1CCC[C@H]1c1ccccn1)c1ccc(-c2c3nc(c(-c4c(F)cc(S(=O)(=O)[O-])cc4F)c4ccc([nH]4)c(-c4c(F)cc(S(=O)(=O)[O-])cc4F)c4nc(c(-c5c(F)cc(S(=O)(=O)[O-])cc5F)c5ccc2[nH]5)C=C4)C=C3)cc1
REMARK SMILES IDX 5 1 4 2 3 3 1 4 2 5 28 7 29 8 93 9 30 10 92 11 31 12 32 13
REMARK SMILES IDX 33 14 86 15 34 16 91 17 85 18 87 19 35 20 90 21 84 22 83 23
REMARK SMILES IDX 36 25 70 26 49 27 69 28 50 29 53 30 68 31 88 32 51 33 52 34
REMARK SMILES IDX 67 36 89 37 54 38 37 39 38 40 47 41 39 42 40 43 46 44 48 45
REMARK SMILES IDX 41 46 42 47 43 48 44 49 45 50 71 51 72 52 81 53 73 54 74 55
REMARK SMILES IDX 80 56 82 57 75 58 76 59 77 60 78 61 79 62 55 63 56 64 65 65
REMARK SMILES IDX 57 66 58 67 64 68 66 69 59 70 60 71 61 72 62 73 63 74 6 75
REMARK SMILES IDX 7 76 8 77 9 79 10 80 11 81 15 82 12 83 14 84 13 85 16 86
REMARK SMILES IDX 17 87 18 88 21 89 19 91 20 92 22 93 23 94 27 95 24 96 26 97
REMARK SMILES IDX 25 98
REMARK H PARENT 3 6 87 24 53 35 7 78 17 90
REMARK Flexibility Score: inf
ROOT
ATOM      1  C   UNL A   1      33.595  27.899  25.738  1.00  0.00     0.042 C 
ENDROOT
BRANCH   1   2
ATOM      2  C   UNL A   1      33.662  28.212  27.224  1.00  0.00     0.118 C 
BRANCH   2   3
ATOM      3  N   UNL A   1      33.535  29.636  27.504  1.00  0.00    -0.352 N 
ATOM      4  O   UNL A   1      34.063  31.625  28.415  1.00  0.00    -0.269 OA
ATOM      5  C   UNL A   1      34.434  30.503  28.078  1.00  0.00     0.251 C 
ATOM      6  H   UNL A   1      32.674  30.039  27.245  1.00  0.00     0.163 HD
BRANCH   5   7
ATOM      7  C   UNL A   1      35.834  30.083  28.300  1.00  0.00     0.039 A 
ATOM      8  C   UNL A   1      36.772  30.167  27.269  1.00  0.00     0.014 A 
ATOM      9  C   UNL A   1      36.224  29.635  29.565  1.00  0.00     0.014 A 
ATOM     10  C   UNL A   1      38.057  29.673  27.457  1.00  0.00     0.010 A 
ATOM     11  C   UNL A   1      37.545  29.232  29.782  1.00  0.00     0.010 A 
ATOM     12  C   UNL A   1      38.467  29.235  28.725  1.00  0.00    -0.014 A 
BRANCH  12  13
ATOM     13  C   UNL A   1      39.898  28.913  28.948  1.00  0.00     0.031 A 
ATOM     14  C   UNL A   1      40.475  27.587  28.544  1.00  0.00     0.074 A 
ATOM     15  C   UNL A   1      40.670  29.847  29.540  1.00  0.00     0.049 A 
ATOM     16  N   UNL A   1      41.694  27.143  28.707  1.00  0.00    -0.248 NA
ATOM     17  C   UNL A   1      39.574  26.633  27.878  1.00  0.00     0.031 C 
ATOM     18  C   UNL A   1      40.201  31.162  29.992  1.00  0.00     0.029 A 
ATOM     19  N   UNL A   1      42.001  29.843  29.867  1.00  0.00    -0.354 N 
ATOM     20  C   UNL A   1      41.704  25.852  28.193  1.00  0.00     0.074 A 
ATOM     21  C   UNL A   1      40.366  25.579  27.716  1.00  0.00     0.031 C 
ATOM     22  C   UNL A   1      41.229  31.842  30.518  1.00  0.00     0.029 A 
ATOM     23  C   UNL A   1      42.410  30.990  30.508  1.00  0.00     0.049 A 
ATOM     24  H   UNL A   1      42.605  29.093  29.663  1.00  0.00     0.167 HD
ATOM     25  C   UNL A   1      42.740  24.982  28.132  1.00  0.00     0.037 A 
ATOM     26  C   UNL A   1      43.592  31.306  31.068  1.00  0.00     0.037 A 
ATOM     27  C   UNL A   1      44.074  25.285  28.587  1.00  0.00     0.049 A 
ATOM     28  C   UNL A   1      44.711  30.309  31.006  1.00  0.00     0.074 A 
ATOM     29  C   UNL A   1      45.213  24.505  28.482  1.00  0.00     0.029 A 
ATOM     30  N   UNL A   1      44.446  26.447  29.245  1.00  0.00    -0.354 N 
ATOM     31  N   UNL A   1      44.723  29.124  30.444  1.00  0.00    -0.248 NA
ATOM     32  C   UNL A   1      45.971  30.680  31.663  1.00  0.00     0.031 C 
ATOM     33  C   UNL A   1      46.258  25.169  29.131  1.00  0.00     0.029 A 
ATOM     34  C   UNL A   1      45.785  26.385  29.596  1.00  0.00     0.049 A 
ATOM     35  H   UNL A   1      43.846  27.205  29.436  1.00  0.00     0.167 HD
ATOM     36  C   UNL A   1      45.992  28.610  30.676  1.00  0.00     0.074 A 
ATOM     37  C   UNL A   1      46.728  29.622  31.404  1.00  0.00     0.031 C 
ATOM     38  C   UNL A   1      46.498  27.403  30.324  1.00  0.00     0.037 A 
BRANCH  25  39
ATOM     39  C   UNL A   1      42.493  23.608  27.573  1.00  0.00     0.058 A 
ATOM     40  C   UNL A   1      42.557  23.344  26.196  1.00  0.00     0.135 A 
ATOM     41  C   UNL A   1      42.299  22.520  28.441  1.00  0.00     0.135 A 
ATOM     42  F   UNL A   1      42.728  24.348  25.322  1.00  0.00    -0.206 F 
ATOM     43  C   UNL A   1      42.435  22.049  25.700  1.00  0.00     0.059 A 
ATOM     44  C   UNL A   1      42.197  21.214  27.967  1.00  0.00     0.059 A 
ATOM     45  F   UNL A   1      42.230  22.717  29.766  1.00  0.00    -0.206 F 
ATOM     46  C   UNL A   1      42.264  20.990  26.593  1.00  0.00     0.060 A 
BRANCH  46  47
ATOM     47  S   UNL A   1      42.157  19.313  25.934  1.00  0.00     0.124 S 
ATOM     48  O   UNL A   1      42.656  18.524  27.056  1.00  0.00    -0.237 OA
ATOM     49  O   UNL A   1      40.731  19.179  25.652  1.00  0.00    -0.237 OA
ATOM     50  O   UNL A   1      43.024  19.350  24.761  1.00  0.00    -0.744 OA
ENDBRANCH  46  47
ENDBRANCH  25  39
BRANCH  26  51
ATOM     51  C   UNL A   1      43.750  32.600  31.784  1.00  0.00     0.058 A 
ATOM     52  C   UNL A   1      43.498  32.707  33.158  1.00  0.00     0.135 A 
ATOM     53  C   UNL A   1      44.164  33.756  31.101  1.00  0.00     0.135 A 
ATOM     54  F   UNL A   1      43.099  31.631  33.853  1.00  0.00    -0.206 F 
ATOM     55  C   UNL A   1      43.623  33.921  33.827  1.00  0.00     0.059 A 
ATOM     56  C   UNL A   1      44.326  34.972  31.752  1.00  0.00     0.059 A 
ATOM     57  F   UNL A   1      44.438  33.701  29.788  1.00  0.00    -0.206 F 
ATOM     58  C   UNL A   1      44.035  35.048  33.113  1.00  0.00     0.060 A 
BRANCH  58  59
ATOM     59  S   UNL A   1      44.211  36.617  33.991  1.00  0.00     0.124 S 
ATOM     60  O   UNL A   1      45.080  37.360  33.086  1.00  0.00    -0.237 OA
ATOM     61  O   UNL A   1      42.830  37.080  34.076  1.00  0.00    -0.237 OA
ATOM     62  O   UNL A   1      44.811  36.223  35.262  1.00  0.00    -0.744 OA
ENDBRANCH  58  59
ENDBRANCH  26  51
BRANCH  38  63
ATOM     63  C   UNL A   1      47.918  27.113  30.721  1.00  0.00     0.058 A 
ATOM     64  C   UNL A   1      48.216  26.391  31.886  1.00  0.00     0.135 A 
ATOM     65  C   UNL A   1      48.985  27.504  29.897  1.00  0.00     0.135 A 
ATOM     66  F   UNL A   1      47.231  26.006  32.713  1.00  0.00    -0.206 F 
ATOM     67  C   UNL A   1      49.526  26.073  32.226  1.00  0.00     0.059 A 
ATOM     68  C   UNL A   1      50.300  27.174  30.204  1.00  0.00     0.059 A 
ATOM     69  F   UNL A   1      48.751  28.193  28.768  1.00  0.00    -0.206 F 
ATOM     70  C   UNL A   1      50.561  26.463  31.374  1.00  0.00     0.060 A 
BRANCH  70  71
ATOM     71  S   UNL A   1      52.250  25.990  31.798  1.00  0.00     0.124 S 
ATOM     72  O   UNL A   1      52.613  27.028  32.759  1.00  0.00    -0.237 OA
ATOM     73  O   UNL A   1      52.072  24.651  32.348  1.00  0.00    -0.237 OA
ATOM     74  O   UNL A   1      52.951  26.048  30.519  1.00  0.00    -0.744 OA
ENDBRANCH  70  71
ENDBRANCH  38  63
ENDBRANCH  12  13
ENDBRANCH   5   7
ENDBRANCH   2   3
ENDBRANCH   1   2
BRANCH   1  75
ATOM     75  C   UNL A   1      33.656  26.416  25.413  1.00  0.00     0.118 C 
BRANCH  75  76
ATOM     76  N   UNL A   1      33.033  26.097  24.136  1.00  0.00    -0.352 N 
ATOM     77  C   UNL A   1      32.021  25.222  23.852  1.00  0.00     0.253 C 
ATOM     78  H   UNL A   1      33.395  26.583  23.361  1.00  0.00     0.163 HD
ATOM     79  O   UNL A   1      31.661  25.042  22.691  1.00  0.00    -0.269 OA
BRANCH  77  80
ATOM     80  C   UNL A   1      31.314  24.535  24.944  1.00  0.00     0.067 A 
ATOM     81  C   UNL A   1      30.299  25.235  25.616  1.00  0.00     0.017 A 
ATOM     82  C   UNL A   1      31.553  23.200  25.272  1.00  0.00     0.107 A 
ATOM     83  C   UNL A   1      29.584  24.613  26.628  1.00  0.00     0.021 A 
ATOM     84  N   UNL A   1      30.806  22.576  26.234  1.00  0.00    -0.254 NA
ATOM     85  C   UNL A   1      29.867  23.289  26.894  1.00  0.00     0.111 A 
BRANCH  82  86
ATOM     86  C   UNL A   1      32.625  22.348  24.597  1.00  0.00     0.321 C 
BRANCH  86  87
ATOM     87  N   UNL A   1      33.239  21.245  25.373  1.00  0.00    -0.322 N 
ATOM     88  C   UNL A   1      34.002  21.683  26.539  1.00  0.00     0.263 C 
ATOM     89  C   UNL A   1      34.104  20.363  24.564  1.00  0.00     0.234 C 
ATOM     90  H   UNL A   1      32.425  20.721  25.693  1.00  0.00     0.349 HD
ATOM     91  C   UNL A   1      35.476  21.567  26.187  1.00  0.00     0.068 C 
ATOM     92  C   UNL A   1      35.547  20.720  24.926  1.00  0.00     0.078 C 
BRANCH  89  93
ATOM     93  C   UNL A   1      33.833  18.870  24.758  1.00  0.00     0.098 A 
ATOM     94  C   UNL A   1      34.729  17.890  24.324  1.00  0.00     0.030 A 
ATOM     95  N   UNL A   1      32.629  18.541  25.304  1.00  0.00    -0.255 NA
ATOM     96  C   UNL A   1      34.388  16.544  24.447  1.00  0.00     0.004 A 
ATOM     97  C   UNL A   1      32.329  17.225  25.416  1.00  0.00     0.111 A 
ATOM     98  C   UNL A   1      33.164  16.202  25.003  1.00  0.00     0.020 A 
ENDBRANCH  89  93
ENDBRANCH  86  87
ENDBRANCH  82  86
ENDBRANCH  77  80
ENDBRANCH  75  76
ENDBRANCH   1  75
TORSDOF 16
ENDMDL
