MODEL 1
REMARK VINA RESULT:      -9.5      0.000      0.000
REMARK SMILES O=C(CCS(=O)(=O)c1ccc2[nH]c(=O)oc2c1)NCCCNC(=O)c1ccc(-c2c3nc(c(-c4c(F)cc(S(=O)(=O)[O-])cc4F)c4ccc([nH]4)c(-c4c(F)cc(S(=O)(=O)[O-])cc4F)c4nc(c(-c5c(F)cc(S(=O)(=O)[O-])cc5F)c5ccc2[nH]5)C=C4)C=C3)cc1
REMARK SMILES IDX 20 1 19 2 18 3 1 4 2 5 3 7 4 8 5 9 6 10 7 11 8 12 9 13 17 14
REMARK SMILES IDX 10 15 16 16 11 17 15 18 12 19 13 20 14 22 21 23 22 24 23 25
REMARK SMILES IDX 24 27 25 28 26 29 90 30 27 31 89 32 28 33 29 34 30 35 83 36
REMARK SMILES IDX 31 37 88 38 82 39 84 40 32 41 87 42 81 43 80 44 33 46 67 47
REMARK SMILES IDX 46 48 66 49 47 50 50 51 65 52 85 53 48 54 49 55 64 57 86 58
REMARK SMILES IDX 51 59 34 60 35 61 44 62 36 63 37 64 43 65 45 66 38 67 39 68
REMARK SMILES IDX 40 69 41 70 42 71 68 72 69 73 78 74 70 75 71 76 77 77 79 78
REMARK SMILES IDX 72 79 73 80 74 81 75 82 76 83 52 84 53 85 62 86 54 87 55 88
REMARK SMILES IDX 61 89 63 90 56 91 57 92 58 93 59 94 60 95
REMARK H PARENT 18 6 12 21 22 26 84 45 50 56
REMARK Flexibility Score: inf
ROOT
ATOM      1  C   UNL A   1      34.542  33.606  31.031  1.00  0.00     0.042 C 
ENDROOT
BRANCH   1   2
ATOM      2  C   UNL A   1      35.324  34.604  31.901  1.00  0.00     0.117 C 
BRANCH   2   3
ATOM      3  N   UNL A   1      36.780  34.582  31.806  1.00  0.00    -0.356 N 
ATOM      4  O   UNL A   1      37.098  34.940  34.055  1.00  0.00    -0.275 OA
ATOM      5  C   UNL A   1      37.561  34.697  32.943  1.00  0.00     0.221 C 
ATOM      6  H   UNL A   1      37.210  34.486  30.926  1.00  0.00     0.163 HD
BRANCH   5   7
ATOM      7  C   UNL A   1      39.023  34.352  32.777  1.00  0.00     0.116 C 
BRANCH   7   8
ATOM      8  C   UNL A   1      39.457  33.242  33.745  1.00  0.00     0.152 C 
BRANCH   8   9
ATOM      9  S   UNL A   1      38.559  31.702  33.604  1.00  0.00     0.179 S 
ATOM     10  O   UNL A   1      37.803  31.502  34.828  1.00  0.00    -0.224 OA
ATOM     11  O   UNL A   1      37.887  31.715  32.318  1.00  0.00    -0.224 OA
BRANCH   9  12
ATOM     12  C   UNL A   1      39.749  30.372  33.536  1.00  0.00     0.071 A 
ATOM     13  C   UNL A   1      39.313  29.155  33.001  1.00  0.00     0.023 A 
ATOM     14  C   UNL A   1      41.105  30.557  33.815  1.00  0.00     0.069 A 
ATOM     15  C   UNL A   1      40.156  28.088  32.722  1.00  0.00     0.031 A 
ATOM     16  C   UNL A   1      41.950  29.504  33.491  1.00  0.00     0.157 A 
ATOM     17  C   UNL A   1      41.475  28.324  32.949  1.00  0.00     0.087 A 
ATOM     18  O   UNL A   1      43.337  29.508  33.550  1.00  0.00    -0.408 OA
ATOM     19  N   UNL A   1      42.552  27.572  32.604  1.00  0.00    -0.287 N 
ATOM     20  C   UNL A   1      43.678  28.281  32.943  1.00  0.00     0.417 A 
ATOM     21  H   UNL A   1      42.529  26.681  32.187  1.00  0.00     0.173 HD
ATOM     22  O   UNL A   1      44.819  27.901  32.763  1.00  0.00    -0.224 OA
ENDBRANCH   9  12
ENDBRANCH   8   9
ENDBRANCH   7   8
ENDBRANCH   5   7
ENDBRANCH   2   3
ENDBRANCH   1   2
BRANCH   1  23
ATOM     23  C   UNL A   1      35.266  32.588  30.138  1.00  0.00     0.118 C 
BRANCH  23  24
ATOM     24  N   UNL A   1      34.451  31.871  29.156  1.00  0.00    -0.352 N 
ATOM     25  C   UNL A   1      34.736  30.847  28.280  1.00  0.00     0.251 C 
ATOM     26  H   UNL A   1      33.518  32.182  29.115  1.00  0.00     0.163 HD
ATOM     27  O   UNL A   1      33.916  30.513  27.430  1.00  0.00    -0.269 OA
BRANCH  25  28
ATOM     28  C   UNL A   1      36.019  30.137  28.378  1.00  0.00     0.039 A 
ATOM     29  C   UNL A   1      36.933  30.172  27.320  1.00  0.00     0.014 A 
ATOM     30  C   UNL A   1      36.315  29.447  29.551  1.00  0.00     0.014 A 
ATOM     31  C   UNL A   1      38.212  29.648  27.509  1.00  0.00     0.010 A 
ATOM     32  C   UNL A   1      37.610  29.024  29.775  1.00  0.00     0.010 A 
ATOM     33  C   UNL A   1      38.579  29.148  28.768  1.00  0.00    -0.014 A 
BRANCH  33  34
ATOM     34  C   UNL A   1      39.975  28.803  29.121  1.00  0.00     0.031 A 
ATOM     35  C   UNL A   1      40.890  29.879  29.628  1.00  0.00     0.074 A 
ATOM     36  C   UNL A   1      40.447  27.584  28.794  1.00  0.00     0.049 A 
ATOM     37  N   UNL A   1      42.189  29.867  29.750  1.00  0.00    -0.248 NA
ATOM     38  C   UNL A   1      40.261  31.161  29.993  1.00  0.00     0.031 C 
ATOM     39  C   UNL A   1      39.650  26.488  28.230  1.00  0.00     0.029 A 
ATOM     40  N   UNL A   1      41.717  27.070  28.846  1.00  0.00    -0.354 N 
ATOM     41  C   UNL A   1      42.537  31.142  30.179  1.00  0.00     0.074 A 
ATOM     42  C   UNL A   1      41.319  31.919  30.238  1.00  0.00     0.031 C 
ATOM     43  C   UNL A   1      40.447  25.434  28.000  1.00  0.00     0.029 A 
ATOM     44  C   UNL A   1      41.817  25.792  28.344  1.00  0.00     0.049 A 
ATOM     45  H   UNL A   1      42.485  27.568  29.209  1.00  0.00     0.167 HD
ATOM     46  C   UNL A   1      43.763  31.611  30.509  1.00  0.00     0.037 A 
ATOM     47  C   UNL A   1      42.898  25.010  28.160  1.00  0.00     0.037 A 
ATOM     48  C   UNL A   1      44.956  30.807  30.463  1.00  0.00     0.049 A 
ATOM     49  C   UNL A   1      44.247  25.548  28.546  1.00  0.00     0.074 A 
ATOM     50  C   UNL A   1      46.242  31.154  30.836  1.00  0.00     0.029 A 
ATOM     51  N   UNL A   1      45.006  29.493  30.016  1.00  0.00    -0.354 N 
ATOM     52  N   UNL A   1      44.556  26.736  29.010  1.00  0.00    -0.248 NA
ATOM     53  C   UNL A   1      45.395  24.645  28.392  1.00  0.00     0.031 C 
ATOM     54  C   UNL A   1      47.078  30.065  30.569  1.00  0.00     0.029 A 
ATOM     55  C   UNL A   1      46.304  29.019  30.088  1.00  0.00     0.049 A 
ATOM     56  H   UNL A   1      44.233  28.976  29.694  1.00  0.00     0.167 HD
ATOM     57  C   UNL A   1      45.925  26.711  29.242  1.00  0.00     0.074 A 
ATOM     58  C   UNL A   1      46.386  25.390  28.865  1.00  0.00     0.031 C 
ATOM     59  C   UNL A   1      46.728  27.688  29.729  1.00  0.00     0.037 A 
BRANCH  46  60
ATOM     60  C   UNL A   1      43.870  33.045  30.953  1.00  0.00     0.058 A 
ATOM     61  C   UNL A   1      43.903  34.104  30.031  1.00  0.00     0.135 A 
ATOM     62  C   UNL A   1      43.914  33.370  32.318  1.00  0.00     0.135 A 
ATOM     63  F   UNL A   1      43.881  33.853  28.712  1.00  0.00    -0.206 F 
ATOM     64  C   UNL A   1      44.006  35.427  30.443  1.00  0.00     0.059 A 
ATOM     65  C   UNL A   1      43.983  34.689  32.756  1.00  0.00     0.059 A 
ATOM     66  F   UNL A   1      43.889  32.400  33.246  1.00  0.00    -0.206 F 
ATOM     67  C   UNL A   1      44.044  35.711  31.808  1.00  0.00     0.060 A 
BRANCH  67  68
ATOM     68  S   UNL A   1      44.169  37.436  32.325  1.00  0.00     0.124 S 
ATOM     69  O   UNL A   1      43.141  37.506  33.358  1.00  0.00    -0.237 OA
ATOM     70  O   UNL A   1      45.548  37.520  32.795  1.00  0.00    -0.237 OA
ATOM     71  O   UNL A   1      43.881  38.179  31.101  1.00  0.00    -0.744 OA
ENDBRANCH  67  68
ENDBRANCH  46  60
BRANCH  47  72
ATOM     72  C   UNL A   1      42.738  23.634  27.615  1.00  0.00     0.058 A 
ATOM     73  C   UNL A   1      42.523  22.544  28.472  1.00  0.00     0.135 A 
ATOM     74  C   UNL A   1      42.765  23.381  26.235  1.00  0.00     0.135 A 
ATOM     75  F   UNL A   1      42.489  22.734  29.801  1.00  0.00    -0.206 F 
ATOM     76  C   UNL A   1      42.362  21.251  27.985  1.00  0.00     0.059 A 
ATOM     77  C   UNL A   1      42.579  22.100  25.721  1.00  0.00     0.059 A 
ATOM     78  F   UNL A   1      42.943  24.390  25.368  1.00  0.00    -0.206 F 
ATOM     79  C   UNL A   1      42.389  21.040  26.606  1.00  0.00     0.060 A 
BRANCH  79  80
ATOM     80  S   UNL A   1      42.134  19.363  25.984  1.00  0.00     0.124 S 
ATOM     81  O   UNL A   1      42.595  18.560  27.111  1.00  0.00    -0.237 OA
ATOM     82  O   UNL A   1      40.697  19.347  25.730  1.00  0.00    -0.237 OA
ATOM     83  O   UNL A   1      42.975  19.318  24.790  1.00  0.00    -0.744 OA
ENDBRANCH  79  80
ENDBRANCH  47  72
BRANCH  59  84
ATOM     84  C   UNL A   1      48.177  27.355  29.945  1.00  0.00     0.058 A 
ATOM     85  C   UNL A   1      49.138  27.542  28.940  1.00  0.00     0.135 A 
ATOM     86  C   UNL A   1      48.618  26.936  31.210  1.00  0.00     0.135 A 
ATOM     87  F   UNL A   1      48.765  27.931  27.711  1.00  0.00    -0.206 F 
ATOM     88  C   UNL A   1      50.489  27.320  29.183  1.00  0.00     0.059 A 
ATOM     89  C   UNL A   1      49.966  26.737  31.484  1.00  0.00     0.059 A 
ATOM     90  F   UNL A   1      47.737  26.751  32.207  1.00  0.00    -0.206 F 
ATOM     91  C   UNL A   1      50.894  26.928  30.462  1.00  0.00     0.060 A 
BRANCH  91  92
ATOM     92  S   UNL A   1      52.657  26.718  30.781  1.00  0.00     0.124 S 
ATOM     93  O   UNL A   1      52.652  25.638  31.763  1.00  0.00    -0.237 OA
ATOM     94  O   UNL A   1      53.173  26.371  29.460  1.00  0.00    -0.237 OA
ATOM     95  O   UNL A   1      53.071  28.023  31.286  1.00  0.00    -0.744 OA
ENDBRANCH  91  92
ENDBRANCH  59  84
ENDBRANCH  33  34
ENDBRANCH  25  28
ENDBRANCH  23  24
ENDBRANCH   1  23
TORSDOF 16
ENDMDL
MODEL 2
REMARK VINA RESULT:      -9.5      3.818      6.505
REMARK SMILES O=C(CCS(=O)(=O)c1ccc2[nH]c(=O)oc2c1)NCCCNC(=O)c1ccc(-c2c3nc(c(-c4c(F)cc(S(=O)(=O)[O-])cc4F)c4ccc([nH]4)c(-c4c(F)cc(S(=O)(=O)[O-])cc4F)c4nc(c(-c5c(F)cc(S(=O)(=O)[O-])cc5F)c5ccc2[nH]5)C=C4)C=C3)cc1
REMARK SMILES IDX 20 1 19 2 18 3 1 4 2 5 3 7 4 8 5 9 6 10 7 11 8 12 9 13 17 14
REMARK SMILES IDX 10 15 16 16 11 17 15 18 12 19 13 20 14 22 21 23 22 24 23 25
REMARK SMILES IDX 24 27 25 28 26 29 90 30 27 31 89 32 28 33 29 34 30 35 83 36
REMARK SMILES IDX 31 37 88 38 82 39 84 40 32 41 87 42 81 43 80 44 33 46 67 47
REMARK SMILES IDX 46 48 66 49 47 50 50 51 65 52 85 53 48 54 49 55 64 57 86 58
REMARK SMILES IDX 51 59 34 60 35 61 44 62 36 63 37 64 43 65 45 66 38 67 39 68
REMARK SMILES IDX 40 69 41 70 42 71 68 72 69 73 78 74 70 75 71 76 77 77 79 78
REMARK SMILES IDX 72 79 73 80 74 81 75 82 76 83 52 84 53 85 62 86 54 87 55 88
REMARK SMILES IDX 61 89 63 90 56 91 57 92 58 93 59 94 60 95
REMARK H PARENT 18 6 12 21 22 26 84 45 50 56
REMARK Flexibility Score: inf
ROOT
ATOM      1  C   UNL A   1      32.737  29.531  25.614  1.00  0.00     0.042 C 
ENDROOT
BRANCH   1   2
ATOM      2  C   UNL A   1      31.480  28.666  25.436  1.00  0.00     0.117 C 
BRANCH   2   3
ATOM      3  N   UNL A   1      31.659  27.319  24.902  1.00  0.00    -0.356 N 
ATOM      4  O   UNL A   1      30.481  26.309  26.600  1.00  0.00    -0.275 OA
ATOM      5  C   UNL A   1      31.070  26.231  25.525  1.00  0.00     0.221 C 
ATOM      6  H   UNL A   1      32.202  27.184  24.093  1.00  0.00     0.163 HD
BRANCH   5   7
ATOM      7  C   UNL A   1      31.054  24.946  24.730  1.00  0.00     0.116 C 
BRANCH   7   8
ATOM      8  C   UNL A   1      31.802  25.094  23.397  1.00  0.00     0.152 C 
BRANCH   8   9
ATOM      9  S   UNL A   1      33.529  24.627  23.427  1.00  0.00     0.179 S 
ATOM     10  O   UNL A   1      33.970  24.429  22.058  1.00  0.00    -0.224 OA
ATOM     11  O   UNL A   1      34.211  25.571  24.293  1.00  0.00    -0.224 OA
BRANCH   9  12
ATOM     12  C   UNL A   1      33.655  23.033  24.223  1.00  0.00     0.071 A 
ATOM     13  C   UNL A   1      34.055  23.022  25.564  1.00  0.00     0.023 A 
ATOM     14  C   UNL A   1      33.205  21.853  23.627  1.00  0.00     0.069 A 
ATOM     15  C   UNL A   1      34.036  21.889  26.366  1.00  0.00     0.031 A 
ATOM     16  C   UNL A   1      33.143  20.734  24.447  1.00  0.00     0.157 A 
ATOM     17  C   UNL A   1      33.534  20.774  25.772  1.00  0.00     0.087 A 
ATOM     18  O   UNL A   1      32.605  19.497  24.119  1.00  0.00    -0.408 OA
ATOM     19  N   UNL A   1      33.207  19.580  26.331  1.00  0.00    -0.287 N 
ATOM     20  C   UNL A   1      32.631  18.810  25.350  1.00  0.00     0.417 A 
ATOM     21  H   UNL A   1      33.356  19.316  27.266  1.00  0.00     0.173 HD
ATOM     22  O   UNL A   1      32.211  17.679  25.511  1.00  0.00    -0.224 OA
ENDBRANCH   9  12
ENDBRANCH   8   9
ENDBRANCH   7   8
ENDBRANCH   5   7
ENDBRANCH   2   3
ENDBRANCH   1   2
BRANCH   1  23
ATOM     23  C   UNL A   1      33.628  29.397  26.858  1.00  0.00     0.118 C 
BRANCH  23  24
ATOM     24  N   UNL A   1      33.765  30.583  27.704  1.00  0.00    -0.352 N 
ATOM     25  C   UNL A   1      34.742  30.990  28.586  1.00  0.00     0.251 C 
ATOM     26  H   UNL A   1      33.012  31.212  27.629  1.00  0.00     0.163 HD
ATOM     27  O   UNL A   1      34.558  31.963  29.311  1.00  0.00    -0.269 OA
BRANCH  25  28
ATOM     28  C   UNL A   1      36.021  30.268  28.643  1.00  0.00     0.039 A 
ATOM     29  C   UNL A   1      36.854  30.207  27.522  1.00  0.00     0.014 A 
ATOM     30  C   UNL A   1      36.396  29.663  29.841  1.00  0.00     0.014 A 
ATOM     31  C   UNL A   1      38.137  29.677  27.656  1.00  0.00     0.010 A 
ATOM     32  C   UNL A   1      37.700  29.236  30.001  1.00  0.00     0.010 A 
ATOM     33  C   UNL A   1      38.592  29.267  28.919  1.00  0.00    -0.014 A 
BRANCH  33  34
ATOM     34  C   UNL A   1      40.007  28.927  29.194  1.00  0.00     0.031 A 
ATOM     35  C   UNL A   1      40.950  30.010  29.629  1.00  0.00     0.074 A 
ATOM     36  C   UNL A   1      40.458  27.703  28.857  1.00  0.00     0.049 A 
ATOM     37  N   UNL A   1      42.254  29.998  29.675  1.00  0.00    -0.248 NA
ATOM     38  C   UNL A   1      40.344  31.297  30.012  1.00  0.00     0.031 C 
ATOM     39  C   UNL A   1      39.630  26.599  28.358  1.00  0.00     0.029 A 
ATOM     40  N   UNL A   1      41.729  27.189  28.841  1.00  0.00    -0.354 N 
ATOM     41  C   UNL A   1      42.626  31.279  30.063  1.00  0.00     0.074 A 
ATOM     42  C   UNL A   1      41.414  32.058  30.183  1.00  0.00     0.031 C 
ATOM     43  C   UNL A   1      40.412  25.541  28.097  1.00  0.00     0.029 A 
ATOM     44  C   UNL A   1      41.800  25.904  28.353  1.00  0.00     0.049 A 
ATOM     45  H   UNL A   1      42.518  27.692  29.151  1.00  0.00     0.167 HD
ATOM     46  C   UNL A   1      43.869  31.753  30.313  1.00  0.00     0.037 A 
ATOM     47  C   UNL A   1      42.868  25.118  28.117  1.00  0.00     0.037 A 
ATOM     48  C   UNL A   1      45.058  30.947  30.208  1.00  0.00     0.049 A 
ATOM     49  C   UNL A   1      44.238  25.660  28.414  1.00  0.00     0.074 A 
ATOM     50  C   UNL A   1      46.363  31.298  30.499  1.00  0.00     0.029 A 
ATOM     51  N   UNL A   1      45.082  29.627  29.778  1.00  0.00    -0.354 N 
ATOM     52  N   UNL A   1      44.573  26.855  28.842  1.00  0.00    -0.248 NA
ATOM     53  C   UNL A   1      45.375  24.755  28.206  1.00  0.00     0.031 C 
ATOM     54  C   UNL A   1      47.183  30.205  30.199  1.00  0.00     0.029 A 
ATOM     55  C   UNL A   1      46.381  29.153  29.781  1.00  0.00     0.049 A 
ATOM     56  H   UNL A   1      44.291  29.105  29.510  1.00  0.00     0.167 HD
ATOM     57  C   UNL A   1      45.954  26.833  28.992  1.00  0.00     0.074 A 
ATOM     58  C   UNL A   1      46.392  25.505  28.608  1.00  0.00     0.031 C 
ATOM     59  C   UNL A   1      46.784  27.816  29.417  1.00  0.00     0.037 A 
BRANCH  46  60
ATOM     60  C   UNL A   1      44.003  33.193  30.729  1.00  0.00     0.058 A 
ATOM     61  C   UNL A   1      44.303  34.205  29.802  1.00  0.00     0.135 A 
ATOM     62  C   UNL A   1      43.802  33.573  32.066  1.00  0.00     0.135 A 
ATOM     63  F   UNL A   1      44.522  33.898  28.513  1.00  0.00    -0.206 F 
ATOM     64  C   UNL A   1      44.430  35.533  30.189  1.00  0.00     0.059 A 
ATOM     65  C   UNL A   1      43.890  34.902  32.470  1.00  0.00     0.059 A 
ATOM     66  F   UNL A   1      43.515  32.649  32.996  1.00  0.00    -0.206 F 
ATOM     67  C   UNL A   1      44.219  35.874  31.526  1.00  0.00     0.060 A 
BRANCH  67  68
ATOM     68  S   UNL A   1      44.379  37.605  32.008  1.00  0.00     0.124 S 
ATOM     69  O   UNL A   1      45.827  37.741  32.135  1.00  0.00    -0.237 OA
ATOM     70  O   UNL A   1      43.775  38.299  30.875  1.00  0.00    -0.237 OA
ATOM     71  O   UNL A   1      43.629  37.681  33.258  1.00  0.00    -0.744 OA
ENDBRANCH  67  68
ENDBRANCH  46  60
BRANCH  47  72
ATOM     72  C   UNL A   1      42.676  23.735  27.602  1.00  0.00     0.058 A 
ATOM     73  C   UNL A   1      42.560  22.651  28.486  1.00  0.00     0.135 A 
ATOM     74  C   UNL A   1      42.575  23.467  26.228  1.00  0.00     0.135 A 
ATOM     75  F   UNL A   1      42.650  22.854  29.810  1.00  0.00    -0.206 F 
ATOM     76  C   UNL A   1      42.371  21.351  28.029  1.00  0.00     0.059 A 
ATOM     77  C   UNL A   1      42.359  22.178  25.747  1.00  0.00     0.059 A 
ATOM     78  F   UNL A   1      42.655  24.470  25.339  1.00  0.00    -0.206 F 
ATOM     79  C   UNL A   1      42.270  21.125  26.655  1.00  0.00     0.060 A 
BRANCH  79  80
ATOM     80  S   UNL A   1      41.980  19.439  26.076  1.00  0.00     0.124 S 
ATOM     81  O   UNL A   1      42.441  18.655  27.216  1.00  0.00    -0.237 OA
ATOM     82  O   UNL A   1      40.540  19.440  25.840  1.00  0.00    -0.237 OA
ATOM     83  O   UNL A   1      42.805  19.351  24.874  1.00  0.00    -0.744 OA
ENDBRANCH  79  80
ENDBRANCH  47  72
BRANCH  59  84
ATOM     84  C   UNL A   1      48.243  27.485  29.551  1.00  0.00     0.058 A 
ATOM     85  C   UNL A   1      49.166  27.778  28.536  1.00  0.00     0.135 A 
ATOM     86  C   UNL A   1      48.734  26.958  30.756  1.00  0.00     0.135 A 
ATOM     87  F   UNL A   1      48.745  28.274  27.361  1.00  0.00    -0.206 F 
ATOM     88  C   UNL A   1      50.527  27.553  28.711  1.00  0.00     0.059 A 
ATOM     89  C   UNL A   1      50.092  26.754  30.964  1.00  0.00     0.059 A 
ATOM     90  F   UNL A   1      47.890  26.668  31.761  1.00  0.00    -0.206 F 
ATOM     91  C   UNL A   1      50.981  27.051  29.933  1.00  0.00     0.060 A 
BRANCH  91  92
ATOM     92  S   UNL A   1      52.757  26.837  30.171  1.00  0.00     0.124 S 
ATOM     93  O   UNL A   1      53.178  28.198  30.489  1.00  0.00    -0.237 OA
ATOM     94  O   UNL A   1      52.810  25.883  31.275  1.00  0.00    -0.237 OA
ATOM     95  O   UNL A   1      53.214  26.323  28.883  1.00  0.00    -0.744 OA
ENDBRANCH  91  92
ENDBRANCH  59  84
ENDBRANCH  33  34
ENDBRANCH  25  28
ENDBRANCH  23  24
ENDBRANCH   1  23
TORSDOF 16
ENDMDL
MODEL 3
REMARK VINA RESULT:      -9.5      1.712      2.604
REMARK SMILES O=C(CCS(=O)(=O)c1ccc2[nH]c(=O)oc2c1)NCCCNC(=O)c1ccc(-c2c3nc(c(-c4c(F)cc(S(=O)(=O)[O-])cc4F)c4ccc([nH]4)c(-c4c(F)cc(S(=O)(=O)[O-])cc4F)c4nc(c(-c5c(F)cc(S(=O)(=O)[O-])cc5F)c5ccc2[nH]5)C=C4)C=C3)cc1
REMARK SMILES IDX 20 1 19 2 18 3 1 4 2 5 3 7 4 8 5 9 6 10 7 11 8 12 9 13 17 14
REMARK SMILES IDX 10 15 16 16 11 17 15 18 12 19 13 20 14 22 21 23 22 24 23 25
REMARK SMILES IDX 24 27 25 28 26 29 90 30 27 31 89 32 28 33 29 34 30 35 83 36
REMARK SMILES IDX 31 37 88 38 82 39 84 40 32 41 87 42 81 43 80 44 33 46 67 47
REMARK SMILES IDX 46 48 66 49 47 50 50 51 65 52 85 53 48 54 49 55 64 57 86 58
REMARK SMILES IDX 51 59 34 60 35 61 44 62 36 63 37 64 43 65 45 66 38 67 39 68
REMARK SMILES IDX 40 69 41 70 42 71 68 72 69 73 78 74 70 75 71 76 77 77 79 78
REMARK SMILES IDX 72 79 73 80 74 81 75 82 76 83 52 84 53 85 62 86 54 87 55 88
REMARK SMILES IDX 61 89 63 90 56 91 57 92 58 93 59 94 60 95
REMARK H PARENT 18 6 12 21 22 26 84 45 50 56
REMARK Flexibility Score: inf
ROOT
ATOM      1  C   UNL A   1      33.107  33.230  27.884  1.00  0.00     0.042 C 
ENDROOT
BRANCH   1   2
ATOM      2  C   UNL A   1      33.252  34.687  28.349  1.00  0.00     0.117 C 
BRANCH   2   3
ATOM      3  N   UNL A   1      33.678  34.915  29.726  1.00  0.00    -0.356 N 
ATOM      4  O   UNL A   1      32.048  36.483  30.146  1.00  0.00    -0.275 OA
ATOM      5  C   UNL A   1      32.972  35.780  30.546  1.00  0.00     0.221 C 
ATOM      6  H   UNL A   1      34.472  34.451  30.074  1.00  0.00     0.163 HD
BRANCH   5   7
ATOM      7  C   UNL A   1      33.301  35.707  32.020  1.00  0.00     0.116 C 
BRANCH   7   8
ATOM      8  C   UNL A   1      34.666  35.047  32.264  1.00  0.00     0.152 C 
BRANCH   8   9
ATOM      9  S   UNL A   1      34.622  33.296  32.626  1.00  0.00     0.179 S 
ATOM     10  O   UNL A   1      33.464  33.034  33.462  1.00  0.00    -0.224 OA
ATOM     11  O   UNL A   1      34.796  32.595  31.367  1.00  0.00    -0.224 OA
BRANCH   9  12
ATOM     12  C   UNL A   1      36.051  32.903  33.622  1.00  0.00     0.071 A 
ATOM     13  C   UNL A   1      36.288  33.711  34.739  1.00  0.00     0.023 A 
ATOM     14  C   UNL A   1      36.806  31.743  33.436  1.00  0.00     0.069 A 
ATOM     15  C   UNL A   1      37.250  33.434  35.703  1.00  0.00     0.031 A 
ATOM     16  C   UNL A   1      37.733  31.446  34.426  1.00  0.00     0.157 A 
ATOM     17  C   UNL A   1      37.922  32.267  35.522  1.00  0.00     0.087 A 
ATOM     18  O   UNL A   1      38.493  30.288  34.527  1.00  0.00    -0.408 OA
ATOM     19  N   UNL A   1      38.769  31.627  36.370  1.00  0.00    -0.287 N 
ATOM     20  C   UNL A   1      39.105  30.428  35.791  1.00  0.00     0.417 A 
ATOM     21  H   UNL A   1      39.084  31.962  37.239  1.00  0.00     0.173 HD
ATOM     22  O   UNL A   1      39.844  29.598  36.287  1.00  0.00    -0.224 OA
ENDBRANCH   9  12
ENDBRANCH   8   9
ENDBRANCH   7   8
ENDBRANCH   5   7
ENDBRANCH   2   3
ENDBRANCH   1   2
BRANCH   1  23
ATOM     23  C   UNL A   1      34.222  32.200  28.125  1.00  0.00     0.118 C 
BRANCH  23  24
ATOM     24  N   UNL A   1      33.897  30.799  27.860  1.00  0.00    -0.352 N 
ATOM     25  C   UNL A   1      34.663  29.655  27.830  1.00  0.00     0.251 C 
ATOM     26  H   UNL A   1      32.944  30.643  27.665  1.00  0.00     0.163 HD
ATOM     27  O   UNL A   1      34.187  28.600  27.422  1.00  0.00    -0.269 OA
BRANCH  25  28
ATOM     28  C   UNL A   1      36.052  29.693  28.310  1.00  0.00     0.039 A 
ATOM     29  C   UNL A   1      36.354  29.383  29.639  1.00  0.00     0.014 A 
ATOM     30  C   UNL A   1      37.063  30.024  27.410  1.00  0.00     0.014 A 
ATOM     31  C   UNL A   1      37.689  29.249  30.020  1.00  0.00     0.010 A 
ATOM     32  C   UNL A   1      38.378  29.788  27.758  1.00  0.00     0.010 A 
ATOM     33  C   UNL A   1      38.703  29.368  29.057  1.00  0.00    -0.014 A 
BRANCH  33  34
ATOM     34  C   UNL A   1      40.112  29.000  29.321  1.00  0.00     0.031 A 
ATOM     35  C   UNL A   1      41.076  30.061  29.765  1.00  0.00     0.074 A 
ATOM     36  C   UNL A   1      40.540  27.772  28.968  1.00  0.00     0.049 A 
ATOM     37  N   UNL A   1      42.380  30.026  29.804  1.00  0.00    -0.248 NA
ATOM     38  C   UNL A   1      40.494  31.354  30.165  1.00  0.00     0.031 C 
ATOM     39  C   UNL A   1      39.691  26.689  28.460  1.00  0.00     0.029 A 
ATOM     40  N   UNL A   1      41.802  27.236  28.940  1.00  0.00    -0.354 N 
ATOM     41  C   UNL A   1      42.776  31.296  30.206  1.00  0.00     0.074 A 
ATOM     42  C   UNL A   1      41.578  32.094  30.340  1.00  0.00     0.031 C 
ATOM     43  C   UNL A   1      40.453  25.621  28.182  1.00  0.00     0.029 A 
ATOM     44  C   UNL A   1      41.848  25.956  28.437  1.00  0.00     0.049 A 
ATOM     45  H   UNL A   1      42.601  27.722  29.252  1.00  0.00     0.167 HD
ATOM     46  C   UNL A   1      44.028  31.745  30.455  1.00  0.00     0.037 A 
ATOM     47  C   UNL A   1      42.901  25.154  28.187  1.00  0.00     0.037 A 
ATOM     48  C   UNL A   1      45.202  30.920  30.335  1.00  0.00     0.049 A 
ATOM     49  C   UNL A   1      44.282  25.670  28.484  1.00  0.00     0.074 A 
ATOM     50  C   UNL A   1      46.515  31.245  30.624  1.00  0.00     0.029 A 
ATOM     51  N   UNL A   1      45.201  29.605  29.890  1.00  0.00    -0.354 N 
ATOM     52  N   UNL A   1      44.640  26.854  28.924  1.00  0.00    -0.248 NA
ATOM     53  C   UNL A   1      45.402  24.747  28.259  1.00  0.00     0.031 C 
ATOM     54  C   UNL A   1      47.313  30.142  30.308  1.00  0.00     0.029 A 
ATOM     55  C   UNL A   1      46.492  29.108  29.881  1.00  0.00     0.049 A 
ATOM     56  H   UNL A   1      44.400  29.100  29.620  1.00  0.00     0.167 HD
ATOM     57  C   UNL A   1      46.021  26.805  29.067  1.00  0.00     0.074 A 
ATOM     58  C   UNL A   1      46.434  25.475  28.665  1.00  0.00     0.031 C 
ATOM     59  C   UNL A   1      46.870  27.769  29.499  1.00  0.00     0.037 A 
BRANCH  46  60
ATOM     60  C   UNL A   1      44.188  33.177  30.887  1.00  0.00     0.058 A 
ATOM     61  C   UNL A   1      44.185  34.233  29.961  1.00  0.00     0.135 A 
ATOM     62  C   UNL A   1      44.319  33.504  32.247  1.00  0.00     0.135 A 
ATOM     63  F   UNL A   1      44.080  33.979  28.646  1.00  0.00    -0.206 F 
ATOM     64  C   UNL A   1      44.338  35.555  30.362  1.00  0.00     0.059 A 
ATOM     65  C   UNL A   1      44.439  34.823  32.674  1.00  0.00     0.059 A 
ATOM     66  F   UNL A   1      44.332  32.537  33.177  1.00  0.00    -0.206 F 
ATOM     67  C   UNL A   1      44.462  35.842  31.722  1.00  0.00     0.060 A 
BRANCH  67  68
ATOM     68  S   UNL A   1      44.649  37.565  32.224  1.00  0.00     0.124 S 
ATOM     69  O   UNL A   1      45.770  37.478  33.154  1.00  0.00    -0.237 OA
ATOM     70  O   UNL A   1      44.929  38.229  30.955  1.00  0.00    -0.237 OA
ATOM     71  O   UNL A   1      43.358  37.887  32.825  1.00  0.00    -0.744 OA
ENDBRANCH  67  68
ENDBRANCH  46  60
BRANCH  47  72
ATOM     72  C   UNL A   1      42.684  23.781  27.657  1.00  0.00     0.058 A 
ATOM     73  C   UNL A   1      42.553  22.689  28.529  1.00  0.00     0.135 A 
ATOM     74  C   UNL A   1      42.571  23.531  26.280  1.00  0.00     0.135 A 
ATOM     75  F   UNL A   1      42.654  22.875  29.854  1.00  0.00    -0.206 F 
ATOM     76  C   UNL A   1      42.340  21.398  28.057  1.00  0.00     0.059 A 
ATOM     77  C   UNL A   1      42.330  22.252  25.785  1.00  0.00     0.059 A 
ATOM     78  F   UNL A   1      42.663  24.543  25.402  1.00  0.00    -0.206 F 
ATOM     79  C   UNL A   1      42.227  21.190  26.681  1.00  0.00     0.060 A 
BRANCH  79  80
ATOM     80  S   UNL A   1      41.906  19.516  26.084  1.00  0.00     0.124 S 
ATOM     81  O   UNL A   1      42.326  18.712  27.226  1.00  0.00    -0.237 OA
ATOM     82  O   UNL A   1      40.471  19.556  25.822  1.00  0.00    -0.237 OA
ATOM     83  O   UNL A   1      42.750  19.417  24.897  1.00  0.00    -0.744 OA
ENDBRANCH  79  80
ENDBRANCH  47  72
BRANCH  59  84
ATOM     84  C   UNL A   1      48.324  27.411  29.623  1.00  0.00     0.058 A 
ATOM     85  C   UNL A   1      49.244  27.686  28.600  1.00  0.00     0.135 A 
ATOM     86  C   UNL A   1      48.813  26.877  30.825  1.00  0.00     0.135 A 
ATOM     87  F   UNL A   1      48.823  28.187  27.429  1.00  0.00    -0.206 F 
ATOM     88  C   UNL A   1      50.602  27.436  28.765  1.00  0.00     0.059 A 
ATOM     89  C   UNL A   1      50.169  26.648  31.023  1.00  0.00     0.059 A 
ATOM     90  F   UNL A   1      47.972  26.604  31.837  1.00  0.00    -0.206 F 
ATOM     91  C   UNL A   1      51.056  26.927  29.985  1.00  0.00     0.060 A 
BRANCH  91  92
ATOM     92  S   UNL A   1      52.829  26.680  30.209  1.00  0.00     0.124 S 
ATOM     93  O   UNL A   1      52.855  25.668  31.261  1.00  0.00    -0.237 OA
ATOM     94  O   UNL A   1      53.250  26.230  28.886  1.00  0.00    -0.237 OA
ATOM     95  O   UNL A   1      53.311  28.002  30.598  1.00  0.00    -0.744 OA
ENDBRANCH  91  92
ENDBRANCH  59  84
ENDBRANCH  33  34
ENDBRANCH  25  28
ENDBRANCH  23  24
ENDBRANCH   1  23
TORSDOF 16
ENDMDL
