MODEL 1
REMARK VINA RESULT:     -12.1      0.000      0.000
REMARK SMILES O=C(CCN1C(=O)/C(=C/c2cc(Br)cc(Br)c2O)SC1=S)NCCCNC(=O)c1ccc(-c2c3nc(c(-c4c(F)cc(S(=O)(=O)[O-])cc4F)c4ccc([nH]4)c(-c4c(F)cc(S(=O)(=O)[O-])cc4F)c4nc(c(-c5c(F)cc(S(=O)(=O)[O-])cc5F)c5ccc2[nH]5)C=C4)C=C3)cc1
REMARK SMILES IDX 23 1 22 2 1 3 2 4 3 6 4 7 5 8 6 9 20 10 7 11 8 12 19 13
REMARK SMILES IDX 21 14 9 15 10 16 11 17 17 18 12 19 15 20 13 21 14 22 16 23
REMARK SMILES IDX 18 24 24 26 25 27 26 28 27 29 28 31 29 32 30 33 94 34 31 35
REMARK SMILES IDX 93 36 32 37 33 38 34 39 87 40 35 41 92 42 86 43 88 44 36 45
REMARK SMILES IDX 91 46 85 47 84 48 37 50 71 51 50 52 70 53 51 54 54 55 69 56
REMARK SMILES IDX 89 57 52 58 53 59 68 61 90 62 55 63 38 64 39 65 48 66 40 67
REMARK SMILES IDX 41 68 47 69 49 70 42 71 43 72 44 73 45 74 46 75 72 76 73 77
REMARK SMILES IDX 82 78 74 79 75 80 81 81 83 82 76 83 77 84 78 85 79 86 80 87
REMARK SMILES IDX 56 88 57 89 66 90 58 91 59 92 65 93 67 94 60 95 61 96 62 97
REMARK SMILES IDX 63 98 64 99
REMARK H PARENT 22 5 18 25 26 30 88 49 54 60
REMARK Flexibility Score: inf
ROOT
ATOM      1  C   UNL A   1      31.697  30.478  26.466  1.00  0.00     0.117 C 
ENDROOT
BRANCH   1   2
ATOM      2  N   UNL A   1      31.878  30.112  25.077  1.00  0.00    -0.356 N 
ATOM      3  O   UNL A   1      33.846  28.946  25.354  1.00  0.00    -0.275 OA
ATOM      4  C   UNL A   1      32.930  29.338  24.641  1.00  0.00     0.221 C 
ATOM      5  H   UNL A   1      31.222  30.429  24.416  1.00  0.00     0.163 HD
BRANCH   4   6
ATOM      6  C   UNL A   1      32.865  29.015  23.167  1.00  0.00     0.122 C 
BRANCH   6   7
ATOM      7  C   UNL A   1      31.863  27.897  22.869  1.00  0.00     0.137 C 
BRANCH   7   8
ATOM      8  N   UNL A   1      32.257  26.582  23.400  1.00  0.00    -0.292 N 
ATOM      9  C   UNL A   1      33.203  25.833  22.711  1.00  0.00     0.266 C 
ATOM     10  C   UNL A   1      31.722  26.001  24.532  1.00  0.00     0.148 C 
ATOM     11  O   UNL A   1      33.739  26.144  21.659  1.00  0.00    -0.268 OA
ATOM     12  C   UNL A   1      33.500  24.572  23.446  1.00  0.00     0.081 C 
ATOM     13  S   UNL A   1      32.569  24.508  24.888  1.00  0.00    -0.054 SA
ATOM     14  S   UNL A   1      30.489  26.570  25.499  1.00  0.00    -0.052 S 
ATOM     15  C   UNL A   1      34.412  23.692  23.008  1.00  0.00     0.033 C 
BRANCH  15  16
ATOM     16  C   UNL A   1      34.869  22.471  23.701  1.00  0.00     0.020 A 
ATOM     17  C   UNL A   1      34.004  21.400  23.959  1.00  0.00     0.027 A 
ATOM     18  C   UNL A   1      36.201  22.371  24.132  1.00  0.00     0.137 A 
ATOM     19  C   UNL A   1      34.441  20.304  24.706  1.00  0.00     0.019 A 
ATOM     20  C   UNL A   1      36.636  21.266  24.877  1.00  0.00     0.061 A 
ATOM     21  Br  UNL A   1      33.238  18.893  25.078  1.00  0.00    -0.051 Br
ATOM     22  C   UNL A   1      35.747  20.238  25.183  1.00  0.00     0.035 A 
ATOM     23  Br  UNL A   1      38.428  21.105  25.472  1.00  0.00    -0.047 Br
BRANCH  18  24
ATOM     24  O   UNL A   1      37.058  23.395  23.816  1.00  0.00    -0.506 OA
ATOM     25  H   UNL A   1      37.897  23.448  24.227  1.00  0.00     0.293 HD
ENDBRANCH  18  24
ENDBRANCH  15  16
ENDBRANCH   7   8
ENDBRANCH   6   7
ENDBRANCH   4   6
ENDBRANCH   1   2
BRANCH   1  26
ATOM     26  C   UNL A   1      31.636  31.991  26.653  1.00  0.00     0.042 C 
BRANCH  26  27
ATOM     27  C   UNL A   1      32.871  32.602  27.315  1.00  0.00     0.118 C 
BRANCH  27  28
ATOM     28  N   UNL A   1      32.686  34.010  27.618  1.00  0.00    -0.352 N 
ATOM     29  C   UNL A   1      33.133  34.730  28.696  1.00  0.00     0.251 C 
ATOM     30  H   UNL A   1      32.165  34.521  26.956  1.00  0.00     0.163 HD
ATOM     31  O   UNL A   1      32.504  35.735  29.023  1.00  0.00    -0.269 OA
BRANCH  29  32
ATOM     32  C   UNL A   1      34.333  34.338  29.473  1.00  0.00     0.039 A 
ATOM     33  C   UNL A   1      34.128  33.846  30.766  1.00  0.00     0.014 A 
ATOM     34  C   UNL A   1      35.637  34.475  28.988  1.00  0.00     0.014 A 
ATOM     35  C   UNL A   1      35.208  33.407  31.528  1.00  0.00     0.010 A 
ATOM     36  C   UNL A   1      36.707  33.950  29.713  1.00  0.00     0.010 A 
ATOM     37  C   UNL A   1      36.500  33.392  30.981  1.00  0.00    -0.014 A 
BRANCH  37  38
ATOM     38  C   UNL A   1      37.608  32.719  31.704  1.00  0.00     0.031 A 
ATOM     39  C   UNL A   1      38.087  33.222  33.035  1.00  0.00     0.074 A 
ATOM     40  C   UNL A   1      38.209  31.664  31.116  1.00  0.00     0.049 A 
ATOM     41  N   UNL A   1      39.046  32.755  33.793  1.00  0.00    -0.248 NA
ATOM     42  C   UNL A   1      37.423  34.418  33.577  1.00  0.00     0.031 C 
ATOM     43  C   UNL A   1      37.870  31.129  29.793  1.00  0.00     0.029 A 
ATOM     44  N   UNL A   1      39.225  30.851  31.547  1.00  0.00    -0.354 N 
ATOM     45  C   UNL A   1      39.108  33.602  34.892  1.00  0.00     0.074 A 
ATOM     46  C   UNL A   1      38.124  34.641  34.680  1.00  0.00     0.031 C 
ATOM     47  C   UNL A   1      38.633  30.054  29.542  1.00  0.00     0.029 A 
ATOM     48  C   UNL A   1      39.544  29.849  30.660  1.00  0.00     0.049 A 
ATOM     49  H   UNL A   1      39.683  30.972  32.410  1.00  0.00     0.167 HD
ATOM     50  C   UNL A   1      39.899  33.505  35.989  1.00  0.00     0.037 A 
ATOM     51  C   UNL A   1      40.469  28.873  30.738  1.00  0.00     0.037 A 
ATOM     52  C   UNL A   1      40.863  32.455  36.195  1.00  0.00     0.049 A 
ATOM     53  C   UNL A   1      41.320  28.779  31.971  1.00  0.00     0.074 A 
ATOM     54  C   UNL A   1      41.677  32.236  37.293  1.00  0.00     0.029 A 
ATOM     55  N   UNL A   1      41.146  31.446  35.284  1.00  0.00    -0.354 N 
ATOM     56  N   UNL A   1      41.318  29.551  33.033  1.00  0.00    -0.248 NA
ATOM     57  C   UNL A   1      42.292  27.680  32.025  1.00  0.00     0.031 C 
ATOM     58  C   UNL A   1      42.481  31.122  37.029  1.00  0.00     0.029 A 
ATOM     59  C   UNL A   1      42.134  30.614  35.787  1.00  0.00     0.049 A 
ATOM     60  H   UNL A   1      40.708  31.338  34.409  1.00  0.00     0.167 HD
ATOM     61  C   UNL A   1      42.272  29.016  33.891  1.00  0.00     0.074 A 
ATOM     62  C   UNL A   1      42.816  27.847  33.231  1.00  0.00     0.031 C 
ATOM     63  C   UNL A   1      42.663  29.453  35.114  1.00  0.00     0.037 A 
BRANCH  50  64
ATOM     64  C   UNL A   1      39.751  34.563  37.051  1.00  0.00     0.058 A 
ATOM     65  C   UNL A   1      38.907  34.382  38.158  1.00  0.00     0.135 A 
ATOM     66  C   UNL A   1      40.488  35.756  36.980  1.00  0.00     0.135 A 
ATOM     67  F   UNL A   1      38.168  33.267  38.271  1.00  0.00    -0.206 F 
ATOM     68  C   UNL A   1      38.774  35.358  39.140  1.00  0.00     0.059 A 
ATOM     69  C   UNL A   1      40.392  36.735  37.965  1.00  0.00     0.059 A 
ATOM     70  F   UNL A   1      41.311  35.982  35.943  1.00  0.00    -0.206 F 
ATOM     71  C   UNL A   1      39.520  36.534  39.034  1.00  0.00     0.060 A 
BRANCH  71  72
ATOM     72  S   UNL A   1      39.335  37.790  40.316  1.00  0.00     0.124 S 
ATOM     73  O   UNL A   1      38.361  38.689  39.703  1.00  0.00    -0.237 OA
ATOM     74  O   UNL A   1      38.849  37.010  41.451  1.00  0.00    -0.237 OA
ATOM     75  O   UNL A   1      40.683  38.330  40.461  1.00  0.00    -0.744 OA
ENDBRANCH  71  72
ENDBRANCH  50  64
BRANCH  51  76
ATOM     76  C   UNL A   1      40.613  27.896  29.625  1.00  0.00     0.058 A 
ATOM     77  C   UNL A   1      39.726  26.818  29.493  1.00  0.00     0.135 A 
ATOM     78  C   UNL A   1      41.623  28.034  28.660  1.00  0.00     0.135 A 
ATOM     79  F   UNL A   1      38.743  26.644  30.391  1.00  0.00    -0.206 F 
ATOM     80  C   UNL A   1      39.847  25.898  28.457  1.00  0.00     0.059 A 
ATOM     81  C   UNL A   1      41.747  27.142  27.600  1.00  0.00     0.059 A 
ATOM     82  F   UNL A   1      42.484  29.062  28.729  1.00  0.00    -0.206 F 
ATOM     83  C   UNL A   1      40.861  26.070  27.514  1.00  0.00     0.060 A 
BRANCH  83  84
ATOM     84  S   UNL A   1      40.982  24.896  26.147  1.00  0.00     0.124 S 
ATOM     85  O   UNL A   1      41.584  25.720  25.106  1.00  0.00    -0.237 OA
ATOM     86  O   UNL A   1      41.834  23.854  26.711  1.00  0.00    -0.237 OA
ATOM     87  O   UNL A   1      39.594  24.504  25.918  1.00  0.00    -0.744 OA
ENDBRANCH  83  84
ENDBRANCH  51  76
BRANCH  63  88
ATOM     88  C   UNL A   1      43.709  28.643  35.829  1.00  0.00     0.058 A 
ATOM     89  C   UNL A   1      45.070  28.976  35.764  1.00  0.00     0.135 A 
ATOM     90  C   UNL A   1      43.337  27.537  36.610  1.00  0.00     0.135 A 
ATOM     91  F   UNL A   1      45.478  30.018  35.024  1.00  0.00    -0.206 F 
ATOM     92  C   UNL A   1      46.033  28.220  36.426  1.00  0.00     0.059 A 
ATOM     93  C   UNL A   1      44.280  26.786  37.304  1.00  0.00     0.059 A 
ATOM     94  F   UNL A   1      42.047  27.184  36.714  1.00  0.00    -0.206 F 
ATOM     95  C   UNL A   1      45.628  27.126  37.192  1.00  0.00     0.060 A 
BRANCH  95  96
ATOM     96  S   UNL A   1      46.885  26.164  38.061  1.00  0.00     0.124 S 
ATOM     97  O   UNL A   1      46.752  26.671  39.422  1.00  0.00    -0.237 OA
ATOM     98  O   UNL A   1      46.430  24.793  37.849  1.00  0.00    -0.237 OA
ATOM     99  O   UNL A   1      48.120  26.522  37.373  1.00  0.00    -0.744 OA
ENDBRANCH  95  96
ENDBRANCH  63  88
ENDBRANCH  37  38
ENDBRANCH  29  32
ENDBRANCH  27  28
ENDBRANCH  26  27
ENDBRANCH   1  26
TORSDOF 17
ENDMDL
MODEL 2
REMARK VINA RESULT:     -12.0      6.302      8.560
REMARK SMILES O=C(CCN1C(=O)/C(=C/c2cc(Br)cc(Br)c2O)SC1=S)NCCCNC(=O)c1ccc(-c2c3nc(c(-c4c(F)cc(S(=O)(=O)[O-])cc4F)c4ccc([nH]4)c(-c4c(F)cc(S(=O)(=O)[O-])cc4F)c4nc(c(-c5c(F)cc(S(=O)(=O)[O-])cc5F)c5ccc2[nH]5)C=C4)C=C3)cc1
REMARK SMILES IDX 23 1 22 2 1 3 2 4 3 6 4 7 5 8 6 9 20 10 7 11 8 12 19 13
REMARK SMILES IDX 21 14 9 15 10 16 11 17 17 18 12 19 15 20 13 21 14 22 16 23
REMARK SMILES IDX 18 24 24 26 25 27 26 28 27 29 28 31 29 32 30 33 94 34 31 35
REMARK SMILES IDX 93 36 32 37 33 38 34 39 87 40 35 41 92 42 86 43 88 44 36 45
REMARK SMILES IDX 91 46 85 47 84 48 37 50 71 51 50 52 70 53 51 54 54 55 69 56
REMARK SMILES IDX 89 57 52 58 53 59 68 61 90 62 55 63 38 64 39 65 48 66 40 67
REMARK SMILES IDX 41 68 47 69 49 70 42 71 43 72 44 73 45 74 46 75 72 76 73 77
REMARK SMILES IDX 82 78 74 79 75 80 81 81 83 82 76 83 77 84 78 85 79 86 80 87
REMARK SMILES IDX 56 88 57 89 66 90 58 91 59 92 65 93 67 94 60 95 61 96 62 97
REMARK SMILES IDX 63 98 64 99
REMARK H PARENT 22 5 18 25 26 30 88 49 54 60
REMARK Flexibility Score: inf
ROOT
ATOM      1  C   UNL A   1      34.728  30.105  27.463  1.00  0.00     0.117 C 
ENDROOT
BRANCH   1   2
ATOM      2  N   UNL A   1      33.854  29.911  26.325  1.00  0.00    -0.356 N 
ATOM      3  O   UNL A   1      32.016  29.187  27.510  1.00  0.00    -0.275 OA
ATOM      4  C   UNL A   1      32.547  29.498  26.450  1.00  0.00     0.221 C 
ATOM      5  H   UNL A   1      34.210  30.081  25.423  1.00  0.00     0.163 HD
BRANCH   4   6
ATOM      6  C   UNL A   1      31.807  29.447  25.135  1.00  0.00     0.122 C 
BRANCH   6   7
ATOM      7  C   UNL A   1      31.119  28.098  24.916  1.00  0.00     0.137 C 
BRANCH   7   8
ATOM      8  N   UNL A   1      32.050  26.977  24.708  1.00  0.00    -0.292 N 
ATOM      9  C   UNL A   1      32.123  25.975  25.667  1.00  0.00     0.266 C 
ATOM     10  C   UNL A   1      32.905  26.857  23.631  1.00  0.00     0.148 C 
ATOM     11  O   UNL A   1      31.500  25.937  26.717  1.00  0.00    -0.268 OA
ATOM     12  C   UNL A   1      33.076  24.914  25.236  1.00  0.00     0.081 C 
ATOM     13  S   UNL A   1      33.730  25.312  23.699  1.00  0.00    -0.054 SA
ATOM     14  S   UNL A   1      33.156  27.939  22.388  1.00  0.00    -0.052 S 
ATOM     15  C   UNL A   1      33.295  23.814  25.972  1.00  0.00     0.033 C 
BRANCH  15  16
ATOM     16  C   UNL A   1      34.124  22.650  25.599  1.00  0.00     0.020 A 
ATOM     17  C   UNL A   1      33.555  21.451  25.152  1.00  0.00     0.027 A 
ATOM     18  C   UNL A   1      35.522  22.728  25.701  1.00  0.00     0.137 A 
ATOM     19  C   UNL A   1      34.361  20.336  24.905  1.00  0.00     0.019 A 
ATOM     20  C   UNL A   1      36.325  21.608  25.446  1.00  0.00     0.061 A 
ATOM     21  Br  UNL A   1      33.560  18.717  24.348  1.00  0.00    -0.051 Br
ATOM     22  C   UNL A   1      35.742  20.402  25.067  1.00  0.00     0.035 A 
ATOM     23  Br  UNL A   1      38.215  21.684  25.577  1.00  0.00    -0.047 Br
BRANCH  18  24
ATOM     24  O   UNL A   1      36.073  23.928  26.074  1.00  0.00    -0.506 OA
ATOM     25  H   UNL A   1      35.614  24.726  25.908  1.00  0.00     0.293 HD
ENDBRANCH  18  24
ENDBRANCH  15  16
ENDBRANCH   7   8
ENDBRANCH   6   7
ENDBRANCH   4   6
ENDBRANCH   1   2
BRANCH   1  26
ATOM     26  C   UNL A   1      34.569  31.495  28.073  1.00  0.00     0.042 C 
BRANCH  26  27
ATOM     27  C   UNL A   1      35.719  31.927  28.982  1.00  0.00     0.118 C 
BRANCH  27  28
ATOM     28  N   UNL A   1      35.755  31.161  30.215  1.00  0.00    -0.352 N 
ATOM     29  C   UNL A   1      36.605  30.148  30.580  1.00  0.00     0.251 C 
ATOM     30  H   UNL A   1      35.073  31.402  30.884  1.00  0.00     0.163 HD
ATOM     31  O   UNL A   1      36.207  29.326  31.404  1.00  0.00    -0.269 OA
BRANCH  29  32
ATOM     32  C   UNL A   1      37.970  30.013  30.019  1.00  0.00     0.039 A 
ATOM     33  C   UNL A   1      39.038  30.014  30.922  1.00  0.00     0.014 A 
ATOM     34  C   UNL A   1      38.229  29.926  28.649  1.00  0.00     0.014 A 
ATOM     35  C   UNL A   1      40.342  29.833  30.466  1.00  0.00     0.010 A 
ATOM     36  C   UNL A   1      39.521  29.652  28.201  1.00  0.00     0.010 A 
ATOM     37  C   UNL A   1      40.587  29.582  29.108  1.00  0.00    -0.014 A 
BRANCH  37  38
ATOM     38  C   UNL A   1      41.940  29.168  28.658  1.00  0.00     0.031 A 
ATOM     39  C   UNL A   1      43.065  30.157  28.565  1.00  0.00     0.074 A 
ATOM     40  C   UNL A   1      42.127  27.883  28.291  1.00  0.00     0.049 A 
ATOM     41  N   UNL A   1      44.301  29.961  28.185  1.00  0.00    -0.248 NA
ATOM     42  C   UNL A   1      42.761  31.552  28.919  1.00  0.00     0.031 C 
ATOM     43  C   UNL A   1      41.088  26.849  28.278  1.00  0.00     0.029 A 
ATOM     44  N   UNL A   1      43.250  27.224  27.861  1.00  0.00    -0.354 N 
ATOM     45  C   UNL A   1      44.919  31.204  28.244  1.00  0.00     0.074 A 
ATOM     46  C   UNL A   1      43.909  32.158  28.649  1.00  0.00     0.031 C 
ATOM     47  C   UNL A   1      41.631  25.680  27.904  1.00  0.00     0.029 A 
ATOM     48  C   UNL A   1      43.042  25.888  27.607  1.00  0.00     0.049 A 
ATOM     49  H   UNL A   1      44.123  27.665  27.746  1.00  0.00     0.167 HD
ATOM     50  C   UNL A   1      46.217  31.514  28.005  1.00  0.00     0.037 A 
ATOM     51  C   UNL A   1      43.894  24.935  27.182  1.00  0.00     0.037 A 
ATOM     52  C   UNL A   1      47.217  30.551  27.620  1.00  0.00     0.049 A 
ATOM     53  C   UNL A   1      45.329  25.303  26.941  1.00  0.00     0.074 A 
ATOM     54  C   UNL A   1      48.569  30.752  27.404  1.00  0.00     0.029 A 
ATOM     55  N   UNL A   1      46.974  29.203  27.391  1.00  0.00    -0.354 N 
ATOM     56  N   UNL A   1      45.912  26.473  27.068  1.00  0.00    -0.248 NA
ATOM     57  C   UNL A   1      46.227  24.225  26.509  1.00  0.00     0.031 C 
ATOM     58  C   UNL A   1      49.135  29.537  27.003  1.00  0.00     0.029 A 
ATOM     59  C   UNL A   1      48.147  28.566  27.018  1.00  0.00     0.049 A 
ATOM     60  H   UNL A   1      46.097  28.765  27.479  1.00  0.00     0.167 HD
ATOM     61  C   UNL A   1      47.250  26.265  26.753  1.00  0.00     0.074 A 
ATOM     62  C   UNL A   1      47.392  24.856  26.448  1.00  0.00     0.031 C 
ATOM     63  C   UNL A   1      48.268  27.160  26.719  1.00  0.00     0.037 A 
BRANCH  50  64
ATOM     64  C   UNL A   1      46.629  32.955  28.157  1.00  0.00     0.058 A 
ATOM     65  C   UNL A   1      47.146  33.449  29.365  1.00  0.00     0.135 A 
ATOM     66  C   UNL A   1      46.539  33.843  27.073  1.00  0.00     0.135 A 
ATOM     67  F   UNL A   1      47.242  32.649  30.438  1.00  0.00    -0.206 F 
ATOM     68  C   UNL A   1      47.529  34.779  29.504  1.00  0.00     0.059 A 
ATOM     69  C   UNL A   1      46.942  35.172  27.181  1.00  0.00     0.059 A 
ATOM     70  F   UNL A   1      46.052  33.425  25.895  1.00  0.00    -0.206 F 
ATOM     71  C   UNL A   1      47.422  35.634  28.405  1.00  0.00     0.060 A 
BRANCH  71  72
ATOM     72  S   UNL A   1      47.924  37.357  28.602  1.00  0.00     0.124 S 
ATOM     73  O   UNL A   1      46.838  38.055  27.919  1.00  0.00    -0.237 OA
ATOM     74  O   UNL A   1      47.959  37.508  30.053  1.00  0.00    -0.237 OA
ATOM     75  O   UNL A   1      49.222  37.412  27.937  1.00  0.00    -0.744 OA
ENDBRANCH  71  72
ENDBRANCH  50  64
BRANCH  51  76
ATOM     76  C   UNL A   1      43.411  23.542  26.986  1.00  0.00     0.058 A 
ATOM     77  C   UNL A   1      43.047  23.076  25.714  1.00  0.00     0.135 A 
ATOM     78  C   UNL A   1      43.324  22.644  28.061  1.00  0.00     0.135 A 
ATOM     79  F   UNL A   1      43.113  23.898  24.655  1.00  0.00    -0.206 F 
ATOM     80  C   UNL A   1      42.596  21.776  25.516  1.00  0.00     0.059 A 
ATOM     81  C   UNL A   1      42.902  21.330  27.883  1.00  0.00     0.059 A 
ATOM     82  F   UNL A   1      43.682  23.033  29.295  1.00  0.00    -0.206 F 
ATOM     83  C   UNL A   1      42.528  20.909  26.608  1.00  0.00     0.060 A 
BRANCH  83  84
ATOM     84  S   UNL A   1      41.983  19.210  26.333  1.00  0.00     0.124 S 
ATOM     85  O   UNL A   1      40.625  19.413  25.842  1.00  0.00    -0.237 OA
ATOM     86  O   UNL A   1      42.952  18.731  25.352  1.00  0.00    -0.237 OA
ATOM     87  O   UNL A   1      42.092  18.605  27.657  1.00  0.00    -0.744 OA
ENDBRANCH  83  84
ENDBRANCH  51  76
BRANCH  63  88
ATOM     88  C   UNL A   1      49.632  26.632  26.367  1.00  0.00     0.058 A 
ATOM     89  C   UNL A   1      50.446  26.000  27.319  1.00  0.00     0.135 A 
ATOM     90  C   UNL A   1      50.116  26.738  25.053  1.00  0.00     0.135 A 
ATOM     91  F   UNL A   1      50.033  25.882  28.591  1.00  0.00    -0.206 F 
ATOM     92  C   UNL A   1      51.708  25.517  26.988  1.00  0.00     0.059 A 
ATOM     93  C   UNL A   1      51.362  26.235  24.694  1.00  0.00     0.059 A 
ATOM     94  F   UNL A   1      49.372  27.323  24.102  1.00  0.00    -0.206 F 
ATOM     95  C   UNL A   1      52.157  25.641  25.672  1.00  0.00     0.060 A 
BRANCH  95  96
ATOM     96  S   UNL A   1      53.789  24.994  25.250  1.00  0.00     0.124 S 
ATOM     97  O   UNL A   1      53.509  23.571  25.096  1.00  0.00    -0.237 OA
ATOM     98  O   UNL A   1      54.103  25.715  24.020  1.00  0.00    -0.237 OA
ATOM     99  O   UNL A   1      54.605  25.353  26.405  1.00  0.00    -0.744 OA
ENDBRANCH  95  96
ENDBRANCH  63  88
ENDBRANCH  37  38
ENDBRANCH  29  32
ENDBRANCH  27  28
ENDBRANCH  26  27
ENDBRANCH   1  26
TORSDOF 17
ENDMDL
MODEL 3
REMARK VINA RESULT:     -11.8      6.392     11.106
REMARK SMILES O=C(CCN1C(=O)/C(=C/c2cc(Br)cc(Br)c2O)SC1=S)NCCCNC(=O)c1ccc(-c2c3nc(c(-c4c(F)cc(S(=O)(=O)[O-])cc4F)c4ccc([nH]4)c(-c4c(F)cc(S(=O)(=O)[O-])cc4F)c4nc(c(-c5c(F)cc(S(=O)(=O)[O-])cc5F)c5ccc2[nH]5)C=C4)C=C3)cc1
REMARK SMILES IDX 23 1 22 2 1 3 2 4 3 6 4 7 5 8 6 9 20 10 7 11 8 12 19 13
REMARK SMILES IDX 21 14 9 15 10 16 11 17 17 18 12 19 15 20 13 21 14 22 16 23
REMARK SMILES IDX 18 24 24 26 25 27 26 28 27 29 28 31 29 32 30 33 94 34 31 35
REMARK SMILES IDX 93 36 32 37 33 38 34 39 87 40 35 41 92 42 86 43 88 44 36 45
REMARK SMILES IDX 91 46 85 47 84 48 37 50 71 51 50 52 70 53 51 54 54 55 69 56
REMARK SMILES IDX 89 57 52 58 53 59 68 61 90 62 55 63 38 64 39 65 48 66 40 67
REMARK SMILES IDX 41 68 47 69 49 70 42 71 43 72 44 73 45 74 46 75 72 76 73 77
REMARK SMILES IDX 82 78 74 79 75 80 81 81 83 82 76 83 77 84 78 85 79 86 80 87
REMARK SMILES IDX 56 88 57 89 66 90 58 91 59 92 65 93 67 94 60 95 61 96 62 97
REMARK SMILES IDX 63 98 64 99
REMARK H PARENT 22 5 18 25 26 30 88 49 54 60
REMARK Flexibility Score: inf
ROOT
ATOM      1  C   UNL A   1      33.291  30.687  27.287  1.00  0.00     0.117 C 
ENDROOT
BRANCH   1   2
ATOM      2  N   UNL A   1      32.736  30.035  26.120  1.00  0.00    -0.356 N 
ATOM      3  O   UNL A   1      31.418  28.522  27.251  1.00  0.00    -0.275 OA
ATOM      4  C   UNL A   1      31.809  29.020  26.203  1.00  0.00     0.221 C 
ATOM      5  H   UNL A   1      33.033  30.328  25.228  1.00  0.00     0.163 HD
BRANCH   4   6
ATOM      6  C   UNL A   1      31.311  28.552  24.855  1.00  0.00     0.122 C 
BRANCH   6   7
ATOM      7  C   UNL A   1      30.556  27.225  24.953  1.00  0.00     0.137 C 
BRANCH   7   8
ATOM      8  N   UNL A   1      31.389  26.041  24.684  1.00  0.00    -0.292 N 
ATOM      9  C   UNL A   1      31.753  25.218  25.742  1.00  0.00     0.266 C 
ATOM     10  C   UNL A   1      31.881  25.695  23.441  1.00  0.00     0.148 C 
ATOM     11  O   UNL A   1      31.474  25.394  26.918  1.00  0.00    -0.268 OA
ATOM     12  C   UNL A   1      32.538  24.053  25.246  1.00  0.00     0.081 C 
ATOM     13  S   UNL A   1      32.698  24.147  23.539  1.00  0.00    -0.054 SA
ATOM     14  S   UNL A   1      31.741  26.531  22.006  1.00  0.00    -0.052 S 
ATOM     15  C   UNL A   1      32.975  23.089  26.070  1.00  0.00     0.033 C 
BRANCH  15  16
ATOM     16  C   UNL A   1      33.661  21.839  25.684  1.00  0.00     0.020 A 
ATOM     17  C   UNL A   1      35.052  21.775  25.537  1.00  0.00     0.027 A 
ATOM     18  C   UNL A   1      32.911  20.677  25.441  1.00  0.00     0.137 A 
ATOM     19  C   UNL A   1      35.660  20.607  25.072  1.00  0.00     0.019 A 
ATOM     20  C   UNL A   1      33.526  19.506  24.981  1.00  0.00     0.061 A 
ATOM     21  Br  UNL A   1      37.536  20.564  24.839  1.00  0.00    -0.051 Br
ATOM     22  C   UNL A   1      34.904  19.476  24.776  1.00  0.00     0.035 A 
ATOM     23  Br  UNL A   1      32.538  17.924  24.646  1.00  0.00    -0.047 Br
BRANCH  18  24
ATOM     24  O   UNL A   1      31.556  20.732  25.653  1.00  0.00    -0.506 OA
ATOM     25  H   UNL A   1      30.980  20.949  24.948  1.00  0.00     0.293 HD
ENDBRANCH  18  24
ENDBRANCH  15  16
ENDBRANCH   7   8
ENDBRANCH   6   7
ENDBRANCH   4   6
ENDBRANCH   1   2
BRANCH   1  26
ATOM     26  C   UNL A   1      34.718  30.227  27.572  1.00  0.00     0.042 C 
BRANCH  26  27
ATOM     27  C   UNL A   1      35.533  31.183  28.443  1.00  0.00     0.118 C 
BRANCH  27  28
ATOM     28  N   UNL A   1      35.645  30.710  29.812  1.00  0.00    -0.352 N 
ATOM     29  C   UNL A   1      36.603  29.906  30.374  1.00  0.00     0.251 C 
ATOM     30  H   UNL A   1      34.933  31.009  30.423  1.00  0.00     0.163 HD
ATOM     31  O   UNL A   1      36.294  29.240  31.362  1.00  0.00    -0.269 OA
BRANCH  29  32
ATOM     32  C   UNL A   1      37.979  29.810  29.835  1.00  0.00     0.039 A 
ATOM     33  C   UNL A   1      39.030  29.789  30.758  1.00  0.00     0.014 A 
ATOM     34  C   UNL A   1      38.266  29.781  28.467  1.00  0.00     0.014 A 
ATOM     35  C   UNL A   1      40.345  29.644  30.321  1.00  0.00     0.010 A 
ATOM     36  C   UNL A   1      39.571  29.542  28.034  1.00  0.00     0.010 A 
ATOM     37  C   UNL A   1      40.619  29.451  28.959  1.00  0.00    -0.014 A 
BRANCH  37  38
ATOM     38  C   UNL A   1      41.986  29.072  28.520  1.00  0.00     0.031 A 
ATOM     39  C   UNL A   1      42.309  27.665  28.112  1.00  0.00     0.074 A 
ATOM     40  C   UNL A   1      42.949  30.017  28.536  1.00  0.00     0.049 A 
ATOM     41  N   UNL A   1      43.451  27.167  27.710  1.00  0.00    -0.248 NA
ATOM     42  C   UNL A   1      41.219  26.679  28.187  1.00  0.00     0.031 C 
ATOM     43  C   UNL A   1      42.764  31.403  28.977  1.00  0.00     0.029 A 
ATOM     44  N   UNL A   1      44.270  29.963  28.172  1.00  0.00    -0.354 N 
ATOM     45  C   UNL A   1      43.222  25.814  27.494  1.00  0.00     0.074 A 
ATOM     46  C   UNL A   1      41.845  25.557  27.858  1.00  0.00     0.031 C 
ATOM     47  C   UNL A   1      43.914  32.076  28.817  1.00  0.00     0.029 A 
ATOM     48  C   UNL A   1      44.929  31.163  28.308  1.00  0.00     0.049 A 
ATOM     49  H   UNL A   1      44.705  29.143  27.845  1.00  0.00     0.167 HD
ATOM     50  C   UNL A   1      44.078  24.878  27.015  1.00  0.00     0.037 A 
ATOM     51  C   UNL A   1      46.209  31.492  28.050  1.00  0.00     0.037 A 
ATOM     52  C   UNL A   1      45.442  25.152  26.641  1.00  0.00     0.049 A 
ATOM     53  C   UNL A   1      47.131  30.440  27.504  1.00  0.00     0.074 A 
ATOM     54  C   UNL A   1      46.376  24.288  26.097  1.00  0.00     0.029 A 
ATOM     55  N   UNL A   1      46.070  26.384  26.773  1.00  0.00    -0.354 N 
ATOM     56  N   UNL A   1      46.877  29.179  27.242  1.00  0.00    -0.248 NA
ATOM     57  C   UNL A   1      48.508  30.854  27.208  1.00  0.00     0.031 C 
ATOM     58  C   UNL A   1      47.580  24.984  25.940  1.00  0.00     0.029 A 
ATOM     59  C   UNL A   1      47.382  26.297  26.339  1.00  0.00     0.049 A 
ATOM     60  H   UNL A   1      45.643  27.199  27.125  1.00  0.00     0.167 HD
ATOM     61  C   UNL A   1      48.058  28.655  26.729  1.00  0.00     0.074 A 
ATOM     62  C   UNL A   1      49.018  29.740  26.702  1.00  0.00     0.031 C 
ATOM     63  C   UNL A   1      48.324  27.390  26.319  1.00  0.00     0.037 A 
BRANCH  50  64
ATOM     64  C   UNL A   1      43.561  23.472  26.865  1.00  0.00     0.058 A 
ATOM     65  C   UNL A   1      43.432  22.613  27.967  1.00  0.00     0.135 A 
ATOM     66  C   UNL A   1      43.156  22.989  25.609  1.00  0.00     0.135 A 
ATOM     67  F   UNL A   1      43.816  23.016  29.188  1.00  0.00    -0.206 F 
ATOM     68  C   UNL A   1      42.951  21.315  27.828  1.00  0.00     0.059 A 
ATOM     69  C   UNL A   1      42.646  21.703  25.451  1.00  0.00     0.059 A 
ATOM     70  F   UNL A   1      43.257  23.767  24.520  1.00  0.00    -0.206 F 
ATOM     71  C   UNL A   1      42.561  20.868  26.564  1.00  0.00     0.060 A 
BRANCH  71  72
ATOM     72  S   UNL A   1      41.940  19.181  26.401  1.00  0.00     0.124 S 
ATOM     73  O   UNL A   1      42.021  18.707  27.780  1.00  0.00    -0.237 OA
ATOM     74  O   UNL A   1      40.592  19.393  25.882  1.00  0.00    -0.237 OA
ATOM     75  O   UNL A   1      42.877  18.562  25.469  1.00  0.00    -0.744 OA
ENDBRANCH  71  72
ENDBRANCH  50  64
BRANCH  51  76
ATOM     76  C   UNL A   1      46.678  32.885  28.282  1.00  0.00     0.058 A 
ATOM     77  C   UNL A   1      47.279  33.251  29.496  1.00  0.00     0.135 A 
ATOM     78  C   UNL A   1      46.556  33.869  27.289  1.00  0.00     0.135 A 
ATOM     79  F   UNL A   1      47.417  32.345  30.476  1.00  0.00    -0.206 F 
ATOM     80  C   UNL A   1      47.724  34.548  29.725  1.00  0.00     0.059 A 
ATOM     81  C   UNL A   1      47.018  35.166  27.486  1.00  0.00     0.059 A 
ATOM     82  F   UNL A   1      46.009  33.564  26.102  1.00  0.00    -0.206 F 
ATOM     83  C   UNL A   1      47.590  35.500  28.713  1.00  0.00     0.060 A 
BRANCH  83  84
ATOM     84  S   UNL A   1      48.211  37.170  29.004  1.00  0.00     0.124 S 
ATOM     85  O   UNL A   1      47.091  37.983  28.546  1.00  0.00    -0.237 OA
ATOM     86  O   UNL A   1      48.449  37.162  30.444  1.00  0.00    -0.237 OA
ATOM     87  O   UNL A   1      49.414  37.229  28.178  1.00  0.00    -0.744 OA
ENDBRANCH  83  84
ENDBRANCH  51  76
BRANCH  63  88
ATOM     88  C   UNL A   1      49.700  27.121  25.776  1.00  0.00     0.058 A 
ATOM     89  C   UNL A   1      50.738  26.656  26.597  1.00  0.00     0.135 A 
ATOM     90  C   UNL A   1      49.973  27.305  24.411  1.00  0.00     0.135 A 
ATOM     91  F   UNL A   1      50.532  26.471  27.911  1.00  0.00    -0.206 F 
ATOM     92  C   UNL A   1      52.011  26.412  26.089  1.00  0.00     0.059 A 
ATOM     93  C   UNL A   1      51.229  27.039  23.877  1.00  0.00     0.059 A 
ATOM     94  F   UNL A   1      49.011  27.738  23.581  1.00  0.00    -0.206 F 
ATOM     95  C   UNL A   1      52.246  26.608  24.728  1.00  0.00     0.060 A 
BRANCH  95  96
ATOM     96  S   UNL A   1      53.896  26.271  24.077  1.00  0.00     0.124 S 
ATOM     97  O   UNL A   1      54.272  25.082  24.834  1.00  0.00    -0.237 OA
ATOM     98  O   UNL A   1      53.634  26.060  22.656  1.00  0.00    -0.237 OA
ATOM     99  O   UNL A   1      54.641  27.483  24.398  1.00  0.00    -0.744 OA
ENDBRANCH  95  96
ENDBRANCH  63  88
ENDBRANCH  37  38
ENDBRANCH  29  32
ENDBRANCH  27  28
ENDBRANCH  26  27
ENDBRANCH   1  26
TORSDOF 17
ENDMDL
