MODEL 1
REMARK VINA RESULT:     -11.0      0.000      0.000
REMARK SMILES C[C@@H]1[C@H](C(=O)NCCCNC(=O)c2ccc(-c3c4nc(c(-c5c(F)cc(S(=O)(=O)[O-])cc5F)c5ccc([nH]5)c(-c5c(F)cc(S(=O)(=O)[O-])cc5F)c5nc(c(-c6c(F)cc(S(=O)(=O)[O-])cc6F)c6ccc3[nH]6)C=C5)C=C4)cc2)CC[N@@H+]1CCOc1c(Cl)cccc1Cl
REMARK SMILES IDX 7 1 6 2 4 3 5 4 3 6 1 7 2 8 81 9 79 10 80 11 82 13 83 14
REMARK SMILES IDX 84 15 85 16 86 17 91 18 87 19 88 20 90 21 92 22 89 23 8 24
REMARK SMILES IDX 9 25 10 26 11 27 12 29 13 30 14 31 78 32 15 33 77 34 16 35
REMARK SMILES IDX 17 36 18 37 71 38 19 39 76 40 70 41 72 42 20 43 75 44 69 45
REMARK SMILES IDX 68 46 21 48 55 49 34 50 54 51 35 52 38 53 53 54 73 55 36 56
REMARK SMILES IDX 37 57 52 59 74 60 39 61 22 62 23 63 32 64 24 65 25 66 31 67
REMARK SMILES IDX 33 68 26 69 27 70 28 71 29 72 30 73 56 74 57 75 66 76 58 77
REMARK SMILES IDX 59 78 65 79 67 80 60 81 61 82 62 83 63 84 64 85 40 86 41 87
REMARK SMILES IDX 50 88 42 89 43 90 49 91 51 92 44 93 45 94 46 95 47 96 48 97
REMARK H PARENT 6 5 81 12 10 28 72 47 38 58
REMARK Flexibility Score: inf
ROOT
ATOM      1  C   UNL A   1      32.202  26.802  25.614  1.00  0.00     0.117 C 
ENDROOT
BRANCH   1   2
ATOM      2  N   UNL A   1      30.986  27.100  24.892  1.00  0.00    -0.356 N 
ATOM      3  C   UNL A   1      30.377  26.507  23.840  1.00  0.00     0.229 C 
ATOM      4  O   UNL A   1      29.346  27.064  23.443  1.00  0.00    -0.275 OA
ATOM      5  H   UNL A   1      30.506  27.891  25.232  1.00  0.00     0.163 HD
BRANCH   3   6
ATOM      6  C   UNL A   1      30.807  25.198  23.186  1.00  0.00     0.142 C 
ATOM      7  C   UNL A   1      33.009  26.193  22.116  1.00  0.00     0.076 C 
ATOM      8  C   UNL A   1      32.035  25.046  22.262  1.00  0.00     0.193 C 
ATOM      9  N   UNL A   1      32.582  23.699  22.531  1.00  0.00    -0.329 N 
ATOM     10  C   UNL A   1      30.866  23.989  24.106  1.00  0.00     0.081 C 
ATOM     11  C   UNL A   1      31.544  22.957  23.225  1.00  0.00     0.263 C 
ATOM     12  H   UNL A   1      32.803  23.319  21.611  1.00  0.00     0.348 HD
BRANCH   9  13
ATOM     13  C   UNL A   1      33.971  23.467  22.958  1.00  0.00     0.304 C 
BRANCH  13  14
ATOM     14  C   UNL A   1      34.565  24.137  24.225  1.00  0.00     0.291 C 
BRANCH  14  15
ATOM     15  O   UNL A   1      34.591  23.299  25.400  1.00  0.00    -0.485 OA
BRANCH  15  16
ATOM     16  C   UNL A   1      35.428  22.213  25.334  1.00  0.00     0.156 A 
ATOM     17  C   UNL A   1      35.002  20.892  25.131  1.00  0.00     0.084 A 
ATOM     18  C   UNL A   1      36.803  22.446  25.495  1.00  0.00     0.084 A 
ATOM     19  Cl  UNL A   1      33.344  20.421  25.259  1.00  0.00    -0.080 Cl
ATOM     20  C   UNL A   1      35.936  19.882  24.862  1.00  0.00     0.024 A 
ATOM     21  C   UNL A   1      37.735  21.441  25.219  1.00  0.00     0.024 A 
ATOM     22  Cl  UNL A   1      37.405  23.995  25.983  1.00  0.00    -0.080 Cl
ATOM     23  C   UNL A   1      37.301  20.167  24.860  1.00  0.00     0.003 A 
ENDBRANCH  15  16
ENDBRANCH  14  15
ENDBRANCH  13  14
ENDBRANCH   9  13
ENDBRANCH   3   6
ENDBRANCH   1   2
BRANCH   1  24
ATOM     24  C   UNL A   1      32.325  27.594  26.908  1.00  0.00     0.042 C 
BRANCH  24  25
ATOM     25  C   UNL A   1      33.665  28.283  27.085  1.00  0.00     0.118 C 
BRANCH  25  26
ATOM     26  N   UNL A   1      33.529  29.677  27.470  1.00  0.00    -0.352 N 
ATOM     27  C   UNL A   1      34.424  30.500  28.108  1.00  0.00     0.251 C 
ATOM     28  H   UNL A   1      32.667  30.092  27.240  1.00  0.00     0.163 HD
ATOM     29  O   UNL A   1      34.040  31.602  28.512  1.00  0.00    -0.269 OA
BRANCH  27  30
ATOM     30  C   UNL A   1      35.826  30.077  28.342  1.00  0.00     0.039 A 
ATOM     31  C   UNL A   1      36.743  30.157  27.289  1.00  0.00     0.014 A 
ATOM     32  C   UNL A   1      36.243  29.581  29.579  1.00  0.00     0.014 A 
ATOM     33  C   UNL A   1      38.079  29.796  27.497  1.00  0.00     0.010 A 
ATOM     34  C   UNL A   1      37.593  29.332  29.816  1.00  0.00     0.010 A 
ATOM     35  C   UNL A   1      38.525  29.412  28.772  1.00  0.00    -0.014 A 
BRANCH  35  36
ATOM     36  C   UNL A   1      39.943  29.040  29.025  1.00  0.00     0.031 A 
ATOM     37  C   UNL A   1      40.893  30.057  29.606  1.00  0.00     0.074 A 
ATOM     38  C   UNL A   1      40.394  27.816  28.681  1.00  0.00     0.049 A 
ATOM     39  N   UNL A   1      42.180  29.960  29.823  1.00  0.00    -0.248 NA
ATOM     40  C   UNL A   1      40.328  31.370  29.960  1.00  0.00     0.031 C 
ATOM     41  C   UNL A   1      39.592  26.758  28.063  1.00  0.00     0.029 A 
ATOM     42  N   UNL A   1      41.643  27.257  28.798  1.00  0.00    -0.354 N 
ATOM     43  C   UNL A   1      42.578  31.200  30.310  1.00  0.00     0.074 A 
ATOM     44  C   UNL A   1      41.411  32.052  30.301  1.00  0.00     0.031 C 
ATOM     45  C   UNL A   1      40.359  25.670  27.884  1.00  0.00     0.029 A 
ATOM     46  C   UNL A   1      41.715  25.962  28.337  1.00  0.00     0.049 A 
ATOM     47  H   UNL A   1      42.415  27.737  29.176  1.00  0.00     0.167 HD
ATOM     48  C   UNL A   1      43.797  31.588  30.757  1.00  0.00     0.037 A 
ATOM     49  C   UNL A   1      42.757  25.109  28.282  1.00  0.00     0.037 A 
ATOM     50  C   UNL A   1      44.946  30.722  30.809  1.00  0.00     0.049 A 
ATOM     51  C   UNL A   1      44.097  25.554  28.801  1.00  0.00     0.074 A 
ATOM     52  C   UNL A   1      46.209  30.998  31.302  1.00  0.00     0.029 A 
ATOM     53  N   UNL A   1      44.968  29.410  30.362  1.00  0.00    -0.354 N 
ATOM     54  N   UNL A   1      44.441  26.714  29.309  1.00  0.00    -0.248 NA
ATOM     55  C   UNL A   1      45.191  24.574  28.748  1.00  0.00     0.031 C 
ATOM     56  C   UNL A   1      47.006  29.863  31.120  1.00  0.00     0.029 A 
ATOM     57  C   UNL A   1      46.226  28.866  30.555  1.00  0.00     0.049 A 
ATOM     58  H   UNL A   1      44.202  28.935  29.966  1.00  0.00     0.167 HD
ATOM     59  C   UNL A   1      45.781  26.594  29.661  1.00  0.00     0.074 A 
ATOM     60  C   UNL A   1      46.183  25.245  29.317  1.00  0.00     0.031 C 
ATOM     61  C   UNL A   1      46.604  27.516  30.217  1.00  0.00     0.037 A 
BRANCH  48  62
ATOM     62  C   UNL A   1      43.945  33.006  31.238  1.00  0.00     0.058 A 
ATOM     63  C   UNL A   1      44.332  34.041  30.370  1.00  0.00     0.135 A 
ATOM     64  C   UNL A   1      43.675  33.342  32.574  1.00  0.00     0.135 A 
ATOM     65  F   UNL A   1      44.620  33.776  29.086  1.00  0.00    -0.206 F 
ATOM     66  C   UNL A   1      44.479  35.350  30.817  1.00  0.00     0.059 A 
ATOM     67  C   UNL A   1      43.786  34.650  33.036  1.00  0.00     0.059 A 
ATOM     68  F   UNL A   1      43.300  32.393  33.447  1.00  0.00    -0.206 F 
ATOM     69  C   UNL A   1      44.205  35.644  32.154  1.00  0.00     0.060 A 
BRANCH  69  70
ATOM     70  S   UNL A   1      44.399  37.349  32.718  1.00  0.00     0.124 S 
ATOM     71  O   UNL A   1      43.327  37.452  33.704  1.00  0.00    -0.237 OA
ATOM     72  O   UNL A   1      45.755  37.347  33.256  1.00  0.00    -0.237 OA
ATOM     73  O   UNL A   1      44.211  38.133  31.503  1.00  0.00    -0.744 OA
ENDBRANCH  69  70
ENDBRANCH  48  62
BRANCH  49  74
ATOM     74  C   UNL A   1      42.565  23.735  27.745  1.00  0.00     0.058 A 
ATOM     75  C   UNL A   1      42.528  23.501  26.363  1.00  0.00     0.135 A 
ATOM     76  C   UNL A   1      42.428  22.629  28.598  1.00  0.00     0.135 A 
ATOM     77  F   UNL A   1      42.648  24.528  25.506  1.00  0.00    -0.206 F 
ATOM     78  C   UNL A   1      42.346  22.224  25.842  1.00  0.00     0.059 A 
ATOM     79  C   UNL A   1      42.270  21.338  28.101  1.00  0.00     0.059 A 
ATOM     80  F   UNL A   1      42.473  22.795  29.928  1.00  0.00    -0.206 F 
ATOM     81  C   UNL A   1      42.220  21.147  26.721  1.00  0.00     0.060 A 
BRANCH  81  82
ATOM     82  S   UNL A   1      42.036  19.486  26.036  1.00  0.00     0.124 S 
ATOM     83  O   UNL A   1      42.898  19.557  24.862  1.00  0.00    -0.237 OA
ATOM     84  O   UNL A   1      42.514  18.648  27.131  1.00  0.00    -0.237 OA
ATOM     85  O   UNL A   1      40.605  19.393  25.765  1.00  0.00    -0.744 OA
ENDBRANCH  81  82
ENDBRANCH  49  74
BRANCH  61  86
ATOM     86  C   UNL A   1      48.013  27.092  30.525  1.00  0.00     0.058 A 
ATOM     87  C   UNL A   1      49.061  27.299  29.615  1.00  0.00     0.135 A 
ATOM     88  C   UNL A   1      48.326  26.522  31.770  1.00  0.00     0.135 A 
ATOM     89  F   UNL A   1      48.814  27.835  28.409  1.00  0.00    -0.206 F 
ATOM     90  C   UNL A   1      50.369  26.936  29.921  1.00  0.00     0.059 A 
ATOM     91  C   UNL A   1      49.630  26.176  32.107  1.00  0.00     0.059 A 
ATOM     92  F   UNL A   1      47.361  26.313  32.680  1.00  0.00    -0.206 F 
ATOM     93  C   UNL A   1      50.644  26.378  31.171  1.00  0.00     0.060 A 
BRANCH  93  94
ATOM     94  S   UNL A   1      52.351  25.946  31.570  1.00  0.00     0.124 S 
ATOM     95  O   UNL A   1      52.200  24.586  32.075  1.00  0.00    -0.237 OA
ATOM     96  O   UNL A   1      53.016  26.073  30.277  1.00  0.00    -0.237 OA
ATOM     97  O   UNL A   1      52.730  26.947  32.563  1.00  0.00    -0.744 OA
ENDBRANCH  93  94
ENDBRANCH  61  86
ENDBRANCH  35  36
ENDBRANCH  27  30
ENDBRANCH  25  26
ENDBRANCH  24  25
ENDBRANCH   1  24
TORSDOF 17
ENDMDL
MODEL 2
REMARK VINA RESULT:     -11.0      4.623     10.309
REMARK SMILES C[C@@H]1[C@H](C(=O)NCCCNC(=O)c2ccc(-c3c4nc(c(-c5c(F)cc(S(=O)(=O)[O-])cc5F)c5ccc([nH]5)c(-c5c(F)cc(S(=O)(=O)[O-])cc5F)c5nc(c(-c6c(F)cc(S(=O)(=O)[O-])cc6F)c6ccc3[nH]6)C=C5)C=C4)cc2)CC[N@@H+]1CCOc1c(Cl)cccc1Cl
REMARK SMILES IDX 7 1 6 2 4 3 5 4 3 6 1 7 2 8 81 9 79 10 80 11 82 13 83 14
REMARK SMILES IDX 84 15 85 16 86 17 91 18 87 19 88 20 90 21 92 22 89 23 8 24
REMARK SMILES IDX 9 25 10 26 11 27 12 29 13 30 14 31 78 32 15 33 77 34 16 35
REMARK SMILES IDX 17 36 18 37 71 38 19 39 76 40 70 41 72 42 20 43 75 44 69 45
REMARK SMILES IDX 68 46 21 48 55 49 34 50 54 51 35 52 38 53 53 54 73 55 36 56
REMARK SMILES IDX 37 57 52 59 74 60 39 61 22 62 23 63 32 64 24 65 25 66 31 67
REMARK SMILES IDX 33 68 26 69 27 70 28 71 29 72 30 73 56 74 57 75 66 76 58 77
REMARK SMILES IDX 59 78 65 79 67 80 60 81 61 82 62 83 63 84 64 85 40 86 41 87
REMARK SMILES IDX 50 88 42 89 43 90 49 91 51 92 44 93 45 94 46 95 47 96 48 97
REMARK H PARENT 6 5 81 12 10 28 72 47 38 58
REMARK Flexibility Score: inf
ROOT
ATOM      1  C   UNL A   1      37.499  22.373  25.798  1.00  0.00     0.117 C 
ENDROOT
BRANCH   1   2
ATOM      2  N   UNL A   1      36.177  22.388  26.382  1.00  0.00    -0.356 N 
ATOM      3  C   UNL A   1      35.076  23.133  26.135  1.00  0.00     0.229 C 
ATOM      4  O   UNL A   1      34.107  22.903  26.869  1.00  0.00    -0.275 OA
ATOM      5  H   UNL A   1      36.054  21.726  27.101  1.00  0.00     0.163 HD
BRANCH   3   6
ATOM      6  C   UNL A   1      34.920  24.142  25.001  1.00  0.00     0.142 C 
ATOM      7  C   UNL A   1      33.767  22.438  23.342  1.00  0.00     0.076 C 
ATOM      8  C   UNL A   1      34.372  23.799  23.598  1.00  0.00     0.193 C 
ATOM      9  N   UNL A   1      33.617  24.990  23.155  1.00  0.00    -0.329 N 
ATOM     10  C   UNL A   1      34.238  25.449  25.372  1.00  0.00     0.081 C 
ATOM     11  C   UNL A   1      34.026  26.089  24.012  1.00  0.00     0.263 C 
ATOM     12  H   UNL A   1      33.882  25.120  22.180  1.00  0.00     0.348 HD
BRANCH   9  13
ATOM     13  C   UNL A   1      32.199  24.941  22.760  1.00  0.00     0.304 C 
BRANCH  13  14
ATOM     14  C   UNL A   1      31.417  26.214  22.342  1.00  0.00     0.291 C 
BRANCH  14  15
ATOM     15  O   UNL A   1      30.335  26.580  23.225  1.00  0.00    -0.485 OA
BRANCH  15  16
ATOM     16  C   UNL A   1      30.697  27.297  24.339  1.00  0.00     0.156 A 
ATOM     17  C   UNL A   1      30.878  26.743  25.614  1.00  0.00     0.084 A 
ATOM     18  C   UNL A   1      30.884  28.679  24.185  1.00  0.00     0.084 A 
ATOM     19  Cl  UNL A   1      30.357  25.145  26.017  1.00  0.00    -0.080 Cl
ATOM     20  C   UNL A   1      31.455  27.506  26.640  1.00  0.00     0.024 A 
ATOM     21  C   UNL A   1      31.466  29.438  25.205  1.00  0.00     0.024 A 
ATOM     22  Cl  UNL A   1      30.457  29.490  22.716  1.00  0.00    -0.080 Cl
ATOM     23  C   UNL A   1      31.792  28.841  26.419  1.00  0.00     0.003 A 
ENDBRANCH  15  16
ENDBRANCH  14  15
ENDBRANCH  13  14
ENDBRANCH   9  13
ENDBRANCH   3   6
ENDBRANCH   1   2
BRANCH   1  24
ATOM     24  C   UNL A   1      38.308  23.613  26.148  1.00  0.00     0.042 C 
BRANCH  24  25
ATOM     25  C   UNL A   1      39.575  23.324  26.930  1.00  0.00     0.118 C 
BRANCH  25  26
ATOM     26  N   UNL A   1      40.779  23.635  26.179  1.00  0.00    -0.352 N 
ATOM     27  C   UNL A   1      41.626  24.710  26.289  1.00  0.00     0.251 C 
ATOM     28  H   UNL A   1      41.023  22.978  25.488  1.00  0.00     0.163 HD
ATOM     29  O   UNL A   1      42.491  24.881  25.424  1.00  0.00    -0.269 OA
BRANCH  27  30
ATOM     30  C   UNL A   1      41.499  25.677  27.406  1.00  0.00     0.039 A 
ATOM     31  C   UNL A   1      42.430  26.716  27.513  1.00  0.00     0.014 A 
ATOM     32  C   UNL A   1      40.487  25.561  28.362  1.00  0.00     0.014 A 
ATOM     33  C   UNL A   1      42.309  27.660  28.539  1.00  0.00     0.010 A 
ATOM     34  C   UNL A   1      40.301  26.563  29.311  1.00  0.00     0.010 A 
ATOM     35  C   UNL A   1      41.223  27.612  29.429  1.00  0.00    -0.014 A 
BRANCH  35  36
ATOM     36  C   UNL A   1      41.060  28.613  30.517  1.00  0.00     0.031 A 
ATOM     37  C   UNL A   1      41.966  28.564  31.723  1.00  0.00     0.074 A 
ATOM     38  C   UNL A   1      40.069  29.526  30.456  1.00  0.00     0.049 A 
ATOM     39  N   UNL A   1      41.934  29.288  32.813  1.00  0.00    -0.248 NA
ATOM     40  C   UNL A   1      43.028  27.544  31.718  1.00  0.00     0.031 C 
ATOM     41  C   UNL A   1      39.093  29.647  29.372  1.00  0.00     0.029 A 
ATOM     42  N   UNL A   1      39.714  30.523  31.332  1.00  0.00    -0.354 N 
ATOM     43  C   UNL A   1      42.948  28.795  33.626  1.00  0.00     0.074 A 
ATOM     44  C   UNL A   1      43.537  27.672  32.933  1.00  0.00     0.031 C 
ATOM     45  C   UNL A   1      38.271  30.678  29.631  1.00  0.00     0.029 A 
ATOM     46  C   UNL A   1      38.635  31.267  30.915  1.00  0.00     0.049 A 
ATOM     47  H   UNL A   1      40.188  30.690  32.179  1.00  0.00     0.167 HD
ATOM     48  C   UNL A   1      43.374  29.252  34.828  1.00  0.00     0.037 A 
ATOM     49  C   UNL A   1      38.007  32.305  31.503  1.00  0.00     0.037 A 
ATOM     50  C   UNL A   1      42.817  30.400  35.493  1.00  0.00     0.049 A 
ATOM     51  C   UNL A   1      38.509  32.810  32.829  1.00  0.00     0.074 A 
ATOM     52  C   UNL A   1      43.217  30.984  36.683  1.00  0.00     0.029 A 
ATOM     53  N   UNL A   1      41.746  31.145  35.023  1.00  0.00    -0.354 N 
ATOM     54  N   UNL A   1      39.505  32.363  33.557  1.00  0.00    -0.248 NA
ATOM     55  C   UNL A   1      37.809  33.964  33.411  1.00  0.00     0.031 C 
ATOM     56  C   UNL A   1      42.364  32.061  36.949  1.00  0.00     0.029 A 
ATOM     57  C   UNL A   1      41.462  32.174  35.903  1.00  0.00     0.049 A 
ATOM     58  H   UNL A   1      41.259  30.966  34.186  1.00  0.00     0.167 HD
ATOM     59  C   UNL A   1      39.568  33.197  34.668  1.00  0.00     0.074 A 
ATOM     60  C   UNL A   1      38.516  34.181  34.511  1.00  0.00     0.031 C 
ATOM     61  C   UNL A   1      40.418  33.153  35.723  1.00  0.00     0.037 A 
BRANCH  48  62
ATOM     62  C   UNL A   1      44.508  28.519  35.492  1.00  0.00     0.058 A 
ATOM     63  C   UNL A   1      45.849  28.856  35.242  1.00  0.00     0.135 A 
ATOM     64  C   UNL A   1      44.255  27.485  36.408  1.00  0.00     0.135 A 
ATOM     65  F   UNL A   1      46.151  29.824  34.364  1.00  0.00    -0.206 F 
ATOM     66  C   UNL A   1      46.897  28.171  35.848  1.00  0.00     0.059 A 
ATOM     67  C   UNL A   1      45.287  26.806  37.049  1.00  0.00     0.059 A 
ATOM     68  F   UNL A   1      42.992  27.122  36.685  1.00  0.00    -0.206 F 
ATOM     69  C   UNL A   1      46.606  27.146  36.750  1.00  0.00     0.060 A 
BRANCH  69  70
ATOM     70  S   UNL A   1      47.978  26.268  37.529  1.00  0.00     0.124 S 
ATOM     71  O   UNL A   1      47.353  24.991  37.861  1.00  0.00    -0.237 OA
ATOM     72  O   UNL A   1      48.971  26.228  36.460  1.00  0.00    -0.237 OA
ATOM     73  O   UNL A   1      48.321  27.113  38.667  1.00  0.00    -0.744 OA
ENDBRANCH  69  70
ENDBRANCH  48  62
BRANCH  49  74
ATOM     74  C   UNL A   1      36.855  32.958  30.825  1.00  0.00     0.058 A 
ATOM     75  C   UNL A   1      35.536  32.625  31.167  1.00  0.00     0.135 A 
ATOM     76  C   UNL A   1      37.047  33.933  29.834  1.00  0.00     0.135 A 
ATOM     77  F   UNL A   1      35.301  31.693  32.105  1.00  0.00    -0.206 F 
ATOM     78  C   UNL A   1      34.446  33.223  30.542  1.00  0.00     0.059 A 
ATOM     79  C   UNL A   1      35.972  34.563  29.211  1.00  0.00     0.059 A 
ATOM     80  F   UNL A   1      38.288  34.300  29.482  1.00  0.00    -0.206 F 
ATOM     81  C   UNL A   1      34.675  34.193  29.566  1.00  0.00     0.060 A 
BRANCH  81  82
ATOM     82  S   UNL A   1      33.254  35.001  28.796  1.00  0.00     0.124 S 
ATOM     83  O   UNL A   1      32.764  33.950  27.911  1.00  0.00    -0.237 OA
ATOM     84  O   UNL A   1      32.414  35.309  29.950  1.00  0.00    -0.237 OA
ATOM     85  O   UNL A   1      33.846  36.160  28.135  1.00  0.00    -0.744 OA
ENDBRANCH  81  82
ENDBRANCH  49  74
BRANCH  61  86
ATOM     86  C   UNL A   1      40.275  34.217  36.775  1.00  0.00     0.058 A 
ATOM     87  C   UNL A   1      41.039  35.393  36.743  1.00  0.00     0.135 A 
ATOM     88  C   UNL A   1      39.318  34.082  37.795  1.00  0.00     0.135 A 
ATOM     89  F   UNL A   1      41.971  35.568  35.793  1.00  0.00    -0.206 F 
ATOM     90  C   UNL A   1      40.876  36.389  37.700  1.00  0.00     0.059 A 
ATOM     91  C   UNL A   1      39.120  35.077  38.746  1.00  0.00     0.059 A 
ATOM     92  F   UNL A   1      38.553  32.980  37.862  1.00  0.00    -0.206 F 
ATOM     93  C   UNL A   1      39.911  36.223  38.696  1.00  0.00     0.060 A 
BRANCH  93  94
ATOM     94  S   UNL A   1      39.684  37.541  39.909  1.00  0.00     0.124 S 
ATOM     95  O   UNL A   1      40.908  38.314  39.735  1.00  0.00    -0.237 OA
ATOM     96  O   UNL A   1      38.457  38.183  39.447  1.00  0.00    -0.237 OA
ATOM     97  O   UNL A   1      39.569  36.820  41.174  1.00  0.00    -0.744 OA
ENDBRANCH  93  94
ENDBRANCH  61  86
ENDBRANCH  35  36
ENDBRANCH  27  30
ENDBRANCH  25  26
ENDBRANCH  24  25
ENDBRANCH   1  24
TORSDOF 17
ENDMDL
MODEL 3
REMARK VINA RESULT:     -11.0      3.615      6.487
REMARK SMILES C[C@@H]1[C@H](C(=O)NCCCNC(=O)c2ccc(-c3c4nc(c(-c5c(F)cc(S(=O)(=O)[O-])cc5F)c5ccc([nH]5)c(-c5c(F)cc(S(=O)(=O)[O-])cc5F)c5nc(c(-c6c(F)cc(S(=O)(=O)[O-])cc6F)c6ccc3[nH]6)C=C5)C=C4)cc2)CC[N@@H+]1CCOc1c(Cl)cccc1Cl
REMARK SMILES IDX 7 1 6 2 4 3 5 4 3 6 1 7 2 8 81 9 79 10 80 11 82 13 83 14
REMARK SMILES IDX 84 15 85 16 86 17 91 18 87 19 88 20 90 21 92 22 89 23 8 24
REMARK SMILES IDX 9 25 10 26 11 27 12 29 13 30 14 31 78 32 15 33 77 34 16 35
REMARK SMILES IDX 17 36 18 37 71 38 19 39 76 40 70 41 72 42 20 43 75 44 69 45
REMARK SMILES IDX 68 46 21 48 55 49 34 50 54 51 35 52 38 53 53 54 73 55 36 56
REMARK SMILES IDX 37 57 52 59 74 60 39 61 22 62 23 63 32 64 24 65 25 66 31 67
REMARK SMILES IDX 33 68 26 69 27 70 28 71 29 72 30 73 56 74 57 75 66 76 58 77
REMARK SMILES IDX 59 78 65 79 67 80 60 81 61 82 62 83 63 84 64 85 40 86 41 87
REMARK SMILES IDX 50 88 42 89 43 90 49 91 51 92 44 93 45 94 46 95 47 96 48 97
REMARK H PARENT 6 5 81 12 10 28 72 47 38 58
REMARK Flexibility Score: inf
ROOT
ATOM      1  C   UNL A   1      33.989  34.408  29.838  1.00  0.00     0.117 C 
ENDROOT
BRANCH   1   2
ATOM      2  N   UNL A   1      34.194  33.338  30.787  1.00  0.00    -0.356 N 
ATOM      3  C   UNL A   1      35.202  33.056  31.644  1.00  0.00     0.229 C 
ATOM      4  O   UNL A   1      35.066  32.012  32.295  1.00  0.00    -0.275 OA
ATOM      5  H   UNL A   1      33.457  32.685  30.815  1.00  0.00     0.163 HD
BRANCH   3   6
ATOM      6  C   UNL A   1      36.411  33.944  31.921  1.00  0.00     0.142 C 
ATOM      7  C   UNL A   1      35.781  34.401  34.447  1.00  0.00     0.076 C 
ATOM      8  C   UNL A   1      36.661  34.688  33.251  1.00  0.00     0.193 C 
ATOM      9  N   UNL A   1      38.126  34.683  33.449  1.00  0.00    -0.329 N 
ATOM     10  C   UNL A   1      37.761  33.353  31.550  1.00  0.00     0.081 C 
ATOM     11  C   UNL A   1      38.721  34.353  32.167  1.00  0.00     0.263 C 
ATOM     12  H   UNL A   1      38.349  35.626  33.767  1.00  0.00     0.348 HD
BRANCH   9  13
ATOM     13  C   UNL A   1      38.772  34.129  34.650  1.00  0.00     0.304 C 
BRANCH  13  14
ATOM     14  C   UNL A   1      39.641  32.845  34.598  1.00  0.00     0.291 C 
BRANCH  14  15
ATOM     15  O   UNL A   1      38.911  31.610  34.754  1.00  0.00    -0.485 OA
BRANCH  15  16
ATOM     16  C   UNL A   1      39.513  30.495  34.226  1.00  0.00     0.156 A 
ATOM     17  C   UNL A   1      38.921  29.647  33.278  1.00  0.00     0.084 A 
ATOM     18  C   UNL A   1      40.804  30.182  34.679  1.00  0.00     0.084 A 
ATOM     19  Cl  UNL A   1      37.237  29.713  32.895  1.00  0.00    -0.080 Cl
ATOM     20  C   UNL A   1      39.686  28.662  32.636  1.00  0.00     0.024 A 
ATOM     21  C   UNL A   1      41.569  29.205  34.034  1.00  0.00     0.024 A 
ATOM     22  Cl  UNL A   1      41.523  31.023  36.010  1.00  0.00    -0.080 Cl
ATOM     23  C   UNL A   1      41.024  28.474  32.982  1.00  0.00     0.003 A 
ENDBRANCH  15  16
ENDBRANCH  14  15
ENDBRANCH  13  14
ENDBRANCH   9  13
ENDBRANCH   3   6
ENDBRANCH   1   2
BRANCH   1  24
ATOM     24  C   UNL A   1      33.744  33.899  28.425  1.00  0.00     0.042 C 
BRANCH  24  25
ATOM     25  C   UNL A   1      34.653  32.757  28.013  1.00  0.00     0.118 C 
BRANCH  25  26
ATOM     26  N   UNL A   1      33.935  31.504  27.848  1.00  0.00    -0.352 N 
ATOM     27  C   UNL A   1      34.418  30.220  27.789  1.00  0.00     0.251 C 
ATOM     28  H   UNL A   1      32.958  31.589  27.767  1.00  0.00     0.163 HD
ATOM     29  O   UNL A   1      33.655  29.309  27.456  1.00  0.00    -0.269 OA
BRANCH  27  30
ATOM     30  C   UNL A   1      35.839  29.919  28.091  1.00  0.00     0.039 A 
ATOM     31  C   UNL A   1      36.175  29.427  29.356  1.00  0.00     0.014 A 
ATOM     32  C   UNL A   1      36.848  30.135  27.149  1.00  0.00     0.014 A 
ATOM     33  C   UNL A   1      37.504  29.103  29.650  1.00  0.00     0.010 A 
ATOM     34  C   UNL A   1      38.147  29.706  27.402  1.00  0.00     0.010 A 
ATOM     35  C   UNL A   1      38.499  29.207  28.664  1.00  0.00    -0.014 A 
BRANCH  35  36
ATOM     36  C   UNL A   1      39.917  28.853  28.944  1.00  0.00     0.031 A 
ATOM     37  C   UNL A   1      40.838  29.877  29.559  1.00  0.00     0.074 A 
ATOM     38  C   UNL A   1      40.393  27.640  28.597  1.00  0.00     0.049 A 
ATOM     39  N   UNL A   1      42.122  29.795  29.804  1.00  0.00    -0.248 NA
ATOM     40  C   UNL A   1      40.246  31.177  29.917  1.00  0.00     0.031 C 
ATOM     41  C   UNL A   1      39.621  26.579  27.948  1.00  0.00     0.029 A 
ATOM     42  N   UNL A   1      41.648  27.098  28.734  1.00  0.00    -0.354 N 
ATOM     43  C   UNL A   1      42.490  31.034  30.316  1.00  0.00     0.074 A 
ATOM     44  C   UNL A   1      41.311  31.870  30.290  1.00  0.00     0.031 C 
ATOM     45  C   UNL A   1      40.408  25.504  27.772  1.00  0.00     0.029 A 
ATOM     46  C   UNL A   1      41.749  25.810  28.259  1.00  0.00     0.049 A 
ATOM     47  H   UNL A   1      42.404  27.584  29.136  1.00  0.00     0.167 HD
ATOM     48  C   UNL A   1      43.693  31.434  30.794  1.00  0.00     0.037 A 
ATOM     49  C   UNL A   1      42.804  24.973  28.218  1.00  0.00     0.037 A 
ATOM     50  C   UNL A   1      44.853  30.585  30.862  1.00  0.00     0.049 A 
ATOM     51  C   UNL A   1      44.126  25.430  28.772  1.00  0.00     0.074 A 
ATOM     52  C   UNL A   1      46.101  30.873  31.386  1.00  0.00     0.029 A 
ATOM     53  N   UNL A   1      44.904  29.279  30.400  1.00  0.00    -0.354 N 
ATOM     54  N   UNL A   1      44.441  26.589  29.302  1.00  0.00    -0.248 NA
ATOM     55  C   UNL A   1      45.235  24.467  28.732  1.00  0.00     0.031 C 
ATOM     56  C   UNL A   1      46.918  29.751  31.209  1.00  0.00     0.029 A 
ATOM     57  C   UNL A   1      46.165  28.751  30.614  1.00  0.00     0.049 A 
ATOM     58  H   UNL A   1      44.154  28.798  29.980  1.00  0.00     0.167 HD
ATOM     59  C   UNL A   1      45.774  26.484  29.682  1.00  0.00     0.074 A 
ATOM     60  C   UNL A   1      46.204  25.146  29.331  1.00  0.00     0.031 C 
ATOM     61  C   UNL A   1      46.571  27.411  30.268  1.00  0.00     0.037 A 
BRANCH  48  62
ATOM     62  C   UNL A   1      43.809  32.848  31.296  1.00  0.00     0.058 A 
ATOM     63  C   UNL A   1      44.049  33.922  30.421  1.00  0.00     0.135 A 
ATOM     64  C   UNL A   1      43.656  33.140  32.661  1.00  0.00     0.135 A 
ATOM     65  F   UNL A   1      44.221  33.701  29.109  1.00  0.00    -0.206 F 
ATOM     66  C   UNL A   1      44.167  35.228  30.887  1.00  0.00     0.059 A 
ATOM     67  C   UNL A   1      43.740  34.442  33.144  1.00  0.00     0.059 A 
ATOM     68  F   UNL A   1      43.425  32.152  33.541  1.00  0.00    -0.206 F 
ATOM     69  C   UNL A   1      44.012  35.478  32.251  1.00  0.00     0.060 A 
BRANCH  69  70
ATOM     70  S   UNL A   1      44.167  37.178  32.839  1.00  0.00     0.124 S 
ATOM     71  O   UNL A   1      45.438  37.122  33.556  1.00  0.00    -0.237 OA
ATOM     72  O   UNL A   1      44.175  37.939  31.594  1.00  0.00    -0.237 OA
ATOM     73  O   UNL A   1      42.984  37.359  33.673  1.00  0.00    -0.744 OA
ENDBRANCH  69  70
ENDBRANCH  48  62
BRANCH  49  74
ATOM     74  C   UNL A   1      42.645  23.603  27.660  1.00  0.00     0.058 A 
ATOM     75  C   UNL A   1      42.781  23.366  26.284  1.00  0.00     0.135 A 
ATOM     76  C   UNL A   1      42.366  22.504  28.487  1.00  0.00     0.135 A 
ATOM     77  F   UNL A   1      43.040  24.386  25.450  1.00  0.00    -0.206 F 
ATOM     78  C   UNL A   1      42.632  22.093  25.744  1.00  0.00     0.059 A 
ATOM     79  C   UNL A   1      42.237  21.216  27.973  1.00  0.00     0.059 A 
ATOM     80  F   UNL A   1      42.243  22.674  29.812  1.00  0.00    -0.206 F 
ATOM     81  C   UNL A   1      42.362  21.023  26.598  1.00  0.00     0.060 A 
BRANCH  81  82
ATOM     82  S   UNL A   1      42.222  19.365  25.894  1.00  0.00     0.124 S 
ATOM     83  O   UNL A   1      40.788  19.273  25.645  1.00  0.00    -0.237 OA
ATOM     84  O   UNL A   1      43.071  19.461  24.711  1.00  0.00    -0.237 OA
ATOM     85  O   UNL A   1      42.736  18.506  26.956  1.00  0.00    -0.744 OA
ENDBRANCH  81  82
ENDBRANCH  49  74
BRANCH  61  86
ATOM     86  C   UNL A   1      47.979  27.003  30.602  1.00  0.00     0.058 A 
ATOM     87  C   UNL A   1      49.047  27.254  29.728  1.00  0.00     0.135 A 
ATOM     88  C   UNL A   1      48.269  26.404  31.839  1.00  0.00     0.135 A 
ATOM     89  F   UNL A   1      48.822  27.819  28.531  1.00  0.00    -0.206 F 
ATOM     90  C   UNL A   1      50.352  26.906  30.059  1.00  0.00     0.059 A 
ATOM     91  C   UNL A   1      49.570  26.072  32.202  1.00  0.00     0.059 A 
ATOM     92  F   UNL A   1      47.284  26.152  32.716  1.00  0.00    -0.206 F 
ATOM     93  C   UNL A   1      50.604  26.318  31.300  1.00  0.00     0.060 A 
BRANCH  93  94
ATOM     94  S   UNL A   1      52.308  25.906  31.733  1.00  0.00     0.124 S 
ATOM     95  O   UNL A   1      52.977  26.030  30.443  1.00  0.00    -0.237 OA
ATOM     96  O   UNL A   1      52.636  26.929  32.720  1.00  0.00    -0.237 OA
ATOM     97  O   UNL A   1      52.204  24.547  32.259  1.00  0.00    -0.744 OA
ENDBRANCH  93  94
ENDBRANCH  61  86
ENDBRANCH  35  36
ENDBRANCH  27  30
ENDBRANCH  25  26
ENDBRANCH  24  25
ENDBRANCH   1  24
TORSDOF 17
ENDMDL
