MODEL 1
REMARK VINA RESULT:     -12.1      0.000      0.000
REMARK SMILES CCc1ccc(OCC(=O)Nc2cc(C)c(O)c(C(=O)NCCCNC(=O)c3ccc(-c4c5nc(c(-c6c(F)cc(S(=O)(=O)[O-])cc6F)c6ccc([nH]6)c(-c6c(F)cc(S(=O)(=O)[O-])cc6F)c6nc(c(-c7c(F)cc(S(=O)(=O)[O-])cc7F)c7ccc4[nH]7)C=C6)C=C5)cc3)c2)cc1
REMARK SMILES IDX 22 1 21 2 19 3 20 4 18 6 12 7 13 8 94 9 14 10 15 11 16 12
REMARK SMILES IDX 11 13 9 14 10 15 8 17 7 18 6 19 3 20 4 21 96 22 5 23 95 24
REMARK SMILES IDX 2 25 1 26 17 27 23 29 24 30 25 31 26 32 27 34 28 35 29 36
REMARK SMILES IDX 93 37 30 38 92 39 31 40 32 41 33 42 86 43 34 44 91 45 85 46
REMARK SMILES IDX 87 47 35 48 90 49 84 50 83 51 36 53 70 54 49 55 69 56 50 57
REMARK SMILES IDX 53 58 68 59 88 60 51 61 52 62 67 64 89 65 54 66 37 67 38 68
REMARK SMILES IDX 47 69 39 70 40 71 46 72 48 73 41 74 42 75 43 76 44 77 45 78
REMARK SMILES IDX 71 79 72 80 81 81 73 82 74 83 80 84 82 85 75 86 76 87 77 88
REMARK SMILES IDX 78 89 79 90 55 91 56 92 65 93 57 94 58 95 64 96 66 97 59 98
REMARK SMILES IDX 60 99 61 100 62 101 63 102
REMARK H PARENT 21 5 11 16 17 28 25 33 87 52 53 63
REMARK Flexibility Score: inf
ROOT
ATOM      1  C   UNL A   1      36.959  22.380  24.481  1.00  0.00     0.118 C 
ENDROOT
BRANCH   1   2
ATOM      2  N   UNL A   1      36.203  21.224  24.920  1.00  0.00    -0.352 N 
ATOM      3  C   UNL A   1      34.861  20.938  24.842  1.00  0.00     0.255 C 
ATOM      4  O   UNL A   1      34.479  19.854  25.297  1.00  0.00    -0.269 OA
ATOM      5  H   UNL A   1      36.744  20.521  25.347  1.00  0.00     0.163 HD
BRANCH   3   6
ATOM      6  C   UNL A   1      33.820  21.885  24.336  1.00  0.00     0.083 A 
ATOM      7  C   UNL A   1      32.917  23.424  22.687  1.00  0.00     0.042 A 
ATOM      8  C   UNL A   1      31.938  23.808  23.617  1.00  0.00     0.033 A 
ATOM      9  C   UNL A   1      33.823  22.420  23.031  1.00  0.00     0.043 A 
ATOM     10  C   UNL A   1      31.824  23.198  24.870  1.00  0.00    -0.006 A 
ATOM     11  C   UNL A   1      30.679  23.589  25.762  1.00  0.00     0.048 C 
ATOM     12  C   UNL A   1      32.779  22.242  25.225  1.00  0.00     0.131 A 
BRANCH   7  13
ATOM     13  N   UNL A   1      32.917  24.168  21.499  1.00  0.00    -0.323 N 
ATOM     14  C   UNL A   1      32.915  25.480  21.154  1.00  0.00     0.262 C 
ATOM     15  O   UNL A   1      32.845  25.716  19.940  1.00  0.00    -0.271 OA
ATOM     16  H   UNL A   1      32.919  23.584  20.705  1.00  0.00     0.170 HD
BRANCH  14  17
ATOM     17  C   UNL A   1      33.150  26.631  22.139  1.00  0.00     0.329 C 
BRANCH  17  18
ATOM     18  O   UNL A   1      32.194  27.087  23.067  1.00  0.00    -0.484 OA
BRANCH  18  19
ATOM     19  C   UNL A   1      32.603  27.543  24.281  1.00  0.00     0.120 A 
ATOM     20  C   UNL A   1      33.950  28.635  26.495  1.00  0.00    -0.048 A 
ATOM     21  C   UNL A   1      33.756  29.375  25.335  1.00  0.00     0.007 A 
ATOM     22  C   UNL A   1      33.325  27.392  26.589  1.00  0.00     0.007 A 
ATOM     23  C   UNL A   1      33.054  28.854  24.257  1.00  0.00     0.047 A 
ATOM     24  C   UNL A   1      32.655  26.848  25.484  1.00  0.00     0.047 A 
BRANCH  20  25
ATOM     25  C   UNL A   1      34.743  29.256  27.609  1.00  0.00     0.032 C 
ATOM     26  C   UNL A   1      34.808  30.774  27.603  1.00  0.00     0.009 C 
ENDBRANCH  20  25
ENDBRANCH  18  19
ENDBRANCH  17  18
ENDBRANCH  14  17
ENDBRANCH   7  13
BRANCH  12  27
ATOM     27  O   UNL A   1      32.651  21.676  26.470  1.00  0.00    -0.507 OA
ATOM     28  H   UNL A   1      33.325  21.794  27.110  1.00  0.00     0.293 HD
ENDBRANCH  12  27
ENDBRANCH   3   6
ENDBRANCH   1   2
BRANCH   1  29
ATOM     29  C   UNL A   1      36.742  23.648  25.302  1.00  0.00     0.042 C 
BRANCH  29  30
ATOM     30  C   UNL A   1      37.727  23.930  26.439  1.00  0.00     0.118 C 
BRANCH  30  31
ATOM     31  N   UNL A   1      39.144  23.737  26.138  1.00  0.00    -0.352 N 
ATOM     32  C   UNL A   1      40.336  24.231  26.627  1.00  0.00     0.251 C 
ATOM     33  H   UNL A   1      39.282  23.093  25.405  1.00  0.00     0.163 HD
ATOM     34  O   UNL A   1      41.369  23.791  26.117  1.00  0.00    -0.269 OA
BRANCH  32  35
ATOM     35  C   UNL A   1      40.454  25.309  27.652  1.00  0.00     0.039 A 
ATOM     36  C   UNL A   1      41.605  26.123  27.637  1.00  0.00     0.014 A 
ATOM     37  C   UNL A   1      39.492  25.557  28.624  1.00  0.00     0.014 A 
ATOM     38  C   UNL A   1      41.756  27.196  28.535  1.00  0.00     0.010 A 
ATOM     39  C   UNL A   1      39.600  26.679  29.454  1.00  0.00     0.010 A 
ATOM     40  C   UNL A   1      40.735  27.511  29.437  1.00  0.00    -0.014 A 
BRANCH  40  41
ATOM     41  C   UNL A   1      40.798  28.644  30.414  1.00  0.00     0.031 A 
ATOM     42  C   UNL A   1      41.637  28.503  31.655  1.00  0.00     0.074 A 
ATOM     43  C   UNL A   1      40.008  29.732  30.292  1.00  0.00     0.049 A 
ATOM     44  N   UNL A   1      41.642  29.232  32.741  1.00  0.00    -0.248 NA
ATOM     45  C   UNL A   1      42.589  27.383  31.676  1.00  0.00     0.031 C 
ATOM     46  C   UNL A   1      39.200  30.060  29.128  1.00  0.00     0.029 A 
ATOM     47  N   UNL A   1      39.703  30.733  31.188  1.00  0.00    -0.354 N 
ATOM     48  C   UNL A   1      42.594  28.660  33.573  1.00  0.00     0.074 A 
ATOM     49  C   UNL A   1      43.084  27.476  32.900  1.00  0.00     0.031 C 
ATOM     50  C   UNL A   1      38.400  31.099  29.410  1.00  0.00     0.029 A 
ATOM     51  C   UNL A   1      38.646  31.521  30.782  1.00  0.00     0.049 A 
ATOM     52  H   UNL A   1      40.189  30.871  32.033  1.00  0.00     0.167 HD
ATOM     53  C   UNL A   1      43.049  29.103  34.770  1.00  0.00     0.037 A 
ATOM     54  C   UNL A   1      37.931  32.457  31.437  1.00  0.00     0.037 A 
ATOM     55  C   UNL A   1      42.568  30.291  35.427  1.00  0.00     0.049 A 
ATOM     56  C   UNL A   1      38.357  32.871  32.815  1.00  0.00     0.074 A 
ATOM     57  C   UNL A   1      43.028  30.875  36.593  1.00  0.00     0.029 A 
ATOM     58  N   UNL A   1      41.501  31.062  34.989  1.00  0.00    -0.354 N 
ATOM     59  N   UNL A   1      39.326  32.381  33.550  1.00  0.00    -0.248 NA
ATOM     60  C   UNL A   1      37.635  33.990  33.433  1.00  0.00     0.031 C 
ATOM     61  C   UNL A   1      42.198  31.960  36.896  1.00  0.00     0.029 A 
ATOM     62  C   UNL A   1      41.254  32.087  35.889  1.00  0.00     0.049 A 
ATOM     63  H   UNL A   1      40.995  30.906  34.159  1.00  0.00     0.167 HD
ATOM     64  C   UNL A   1      39.356  33.155  34.704  1.00  0.00     0.074 A 
ATOM     65  C   UNL A   1      38.305  34.145  34.569  1.00  0.00     0.031 C 
ATOM     66  C   UNL A   1      40.195  33.061  35.764  1.00  0.00     0.037 A 
BRANCH  53  67
ATOM     67  C   UNL A   1      44.118  28.283  35.440  1.00  0.00     0.058 A 
ATOM     68  C   UNL A   1      43.807  27.288  36.381  1.00  0.00     0.135 A 
ATOM     69  C   UNL A   1      45.475  28.511  35.155  1.00  0.00     0.135 A 
ATOM     70  F   UNL A   1      42.528  27.033  36.700  1.00  0.00    -0.206 F 
ATOM     71  C   UNL A   1      44.801  26.595  37.064  1.00  0.00     0.059 A 
ATOM     72  C   UNL A   1      46.485  27.804  35.801  1.00  0.00     0.059 A 
ATOM     73  F   UNL A   1      45.831  29.445  34.259  1.00  0.00    -0.206 F 
ATOM     74  C   UNL A   1      46.138  26.868  36.774  1.00  0.00     0.060 A 
BRANCH  74  75
ATOM     75  S   UNL A   1      47.414  26.000  37.708  1.00  0.00     0.124 S 
ATOM     76  O   UNL A   1      48.207  27.113  38.219  1.00  0.00    -0.237 OA
ATOM     77  O   UNL A   1      46.635  25.269  38.697  1.00  0.00    -0.237 OA
ATOM     78  O   UNL A   1      48.074  25.175  36.696  1.00  0.00    -0.744 OA
ENDBRANCH  74  75
ENDBRANCH  53  67
BRANCH  54  79
ATOM     79  C   UNL A   1      36.745  33.064  30.774  1.00  0.00     0.058 A 
ATOM     80  C   UNL A   1      35.442  32.720  31.155  1.00  0.00     0.135 A 
ATOM     81  C   UNL A   1      36.898  34.054  29.789  1.00  0.00     0.135 A 
ATOM     82  F   UNL A   1      35.244  31.774  32.086  1.00  0.00    -0.206 F 
ATOM     83  C   UNL A   1      34.330  33.341  30.592  1.00  0.00     0.059 A 
ATOM     84  C   UNL A   1      35.803  34.701  29.222  1.00  0.00     0.059 A 
ATOM     85  F   UNL A   1      38.126  34.428  29.396  1.00  0.00    -0.206 F 
ATOM     86  C   UNL A   1      34.521  34.340  29.635  1.00  0.00     0.060 A 
BRANCH  86  87
ATOM     87  S   UNL A   1      33.071  35.199  28.986  1.00  0.00     0.124 S 
ATOM     88  O   UNL A   1      32.567  34.240  28.012  1.00  0.00    -0.237 OA
ATOM     89  O   UNL A   1      32.262  35.374  30.189  1.00  0.00    -0.237 OA
ATOM     90  O   UNL A   1      33.628  36.430  28.430  1.00  0.00    -0.744 OA
ENDBRANCH  86  87
ENDBRANCH  54  79
BRANCH  66  91
ATOM     91  C   UNL A   1      40.024  34.058  36.877  1.00  0.00     0.058 A 
ATOM     92  C   UNL A   1      40.642  35.317  36.836  1.00  0.00     0.135 A 
ATOM     93  C   UNL A   1      39.178  33.778  37.963  1.00  0.00     0.135 A 
ATOM     94  F   UNL A   1      41.473  35.631  35.828  1.00  0.00    -0.206 F 
ATOM     95  C   UNL A   1      40.432  36.262  37.835  1.00  0.00     0.059 A 
ATOM     96  C   UNL A   1      38.931  34.718  38.958  1.00  0.00     0.059 A 
ATOM     97  F   UNL A   1      38.560  32.589  38.050  1.00  0.00    -0.206 F 
ATOM     98  C   UNL A   1      39.567  35.956  38.888  1.00  0.00     0.060 A 
BRANCH  98  99
ATOM     99  S   UNL A   1      39.255  37.217  40.142  1.00  0.00     0.124 S 
ATOM    100  O   UNL A   1      40.611  37.640  40.477  1.00  0.00    -0.237 OA
ATOM    101  O   UNL A   1      38.450  38.190  39.411  1.00  0.00    -0.237 OA
ATOM    102  O   UNL A   1      38.549  36.487  41.191  1.00  0.00    -0.744 OA
ENDBRANCH  98  99
ENDBRANCH  66  91
ENDBRANCH  40  41
ENDBRANCH  32  35
ENDBRANCH  30  31
ENDBRANCH  29  30
ENDBRANCH   1  29
TORSDOF 19
ENDMDL
MODEL 2
REMARK VINA RESULT:     -12.1      6.344     11.714
REMARK SMILES CCc1ccc(OCC(=O)Nc2cc(C)c(O)c(C(=O)NCCCNC(=O)c3ccc(-c4c5nc(c(-c6c(F)cc(S(=O)(=O)[O-])cc6F)c6ccc([nH]6)c(-c6c(F)cc(S(=O)(=O)[O-])cc6F)c6nc(c(-c7c(F)cc(S(=O)(=O)[O-])cc7F)c7ccc4[nH]7)C=C6)C=C5)cc3)c2)cc1
REMARK SMILES IDX 22 1 21 2 19 3 20 4 18 6 12 7 13 8 94 9 14 10 15 11 16 12
REMARK SMILES IDX 11 13 9 14 10 15 8 17 7 18 6 19 3 20 4 21 96 22 5 23 95 24
REMARK SMILES IDX 2 25 1 26 17 27 23 29 24 30 25 31 26 32 27 34 28 35 29 36
REMARK SMILES IDX 93 37 30 38 92 39 31 40 32 41 33 42 86 43 34 44 91 45 85 46
REMARK SMILES IDX 87 47 35 48 90 49 84 50 83 51 36 53 70 54 49 55 69 56 50 57
REMARK SMILES IDX 53 58 68 59 88 60 51 61 52 62 67 64 89 65 54 66 37 67 38 68
REMARK SMILES IDX 47 69 39 70 40 71 46 72 48 73 41 74 42 75 43 76 44 77 45 78
REMARK SMILES IDX 71 79 72 80 81 81 73 82 74 83 80 84 82 85 75 86 76 87 77 88
REMARK SMILES IDX 78 89 79 90 55 91 56 92 65 93 57 94 58 95 64 96 66 97 59 98
REMARK SMILES IDX 60 99 61 100 62 101 63 102
REMARK H PARENT 21 5 11 16 17 28 25 33 87 52 53 63
REMARK Flexibility Score: inf
ROOT
ATOM      1  C   UNL A   1      32.252  29.305  26.475  1.00  0.00     0.118 C 
ENDROOT
BRANCH   1   2
ATOM      2  N   UNL A   1      31.385  29.881  25.465  1.00  0.00    -0.352 N 
ATOM      3  C   UNL A   1      30.718  29.305  24.410  1.00  0.00     0.255 C 
ATOM      4  O   UNL A   1      30.029  30.042  23.698  1.00  0.00    -0.269 OA
ATOM      5  H   UNL A   1      31.250  30.853  25.550  1.00  0.00     0.163 HD
BRANCH   3   6
ATOM      6  C   UNL A   1      30.845  27.870  24.009  1.00  0.00     0.083 A 
ATOM      7  C   UNL A   1      30.599  25.485  24.403  1.00  0.00     0.042 A 
ATOM      8  C   UNL A   1      31.360  25.241  23.248  1.00  0.00     0.033 A 
ATOM      9  C   UNL A   1      30.296  26.803  24.748  1.00  0.00     0.043 A 
ATOM     10  C   UNL A   1      31.802  26.275  22.417  1.00  0.00    -0.006 A 
ATOM     11  C   UNL A   1      32.513  25.921  21.141  1.00  0.00     0.048 C 
ATOM     12  C   UNL A   1      31.548  27.590  22.813  1.00  0.00     0.131 A 
BRANCH   7  13
ATOM     13  N   UNL A   1      30.276  24.339  25.142  1.00  0.00    -0.323 N 
ATOM     14  C   UNL A   1      30.950  23.316  25.725  1.00  0.00     0.262 C 
ATOM     15  O   UNL A   1      30.248  22.438  26.245  1.00  0.00    -0.271 OA
ATOM     16  H   UNL A   1      29.303  24.255  25.274  1.00  0.00     0.170 HD
BRANCH  14  17
ATOM     17  C   UNL A   1      32.471  23.278  25.906  1.00  0.00     0.329 C 
BRANCH  17  18
ATOM     18  O   UNL A   1      33.381  22.915  24.895  1.00  0.00    -0.484 OA
BRANCH  18  19
ATOM     19  C   UNL A   1      34.618  22.463  25.236  1.00  0.00     0.120 A 
ATOM     20  C   UNL A   1      37.365  21.974  25.589  1.00  0.00    -0.048 A 
ATOM     21  C   UNL A   1      36.816  23.223  25.856  1.00  0.00     0.007 A 
ATOM     22  C   UNL A   1      36.492  20.929  25.290  1.00  0.00     0.007 A 
ATOM     23  C   UNL A   1      35.454  23.455  25.725  1.00  0.00     0.047 A 
ATOM     24  C   UNL A   1      35.123  21.174  25.113  1.00  0.00     0.047 A 
BRANCH  20  25
ATOM     25  C   UNL A   1      38.851  21.807  25.728  1.00  0.00     0.032 C 
ATOM     26  C   UNL A   1      39.514  22.671  26.787  1.00  0.00     0.009 C 
ENDBRANCH  20  25
ENDBRANCH  18  19
ENDBRANCH  17  18
ENDBRANCH  14  17
ENDBRANCH   7  13
BRANCH  12  27
ATOM     27  O   UNL A   1      32.013  28.583  21.985  1.00  0.00    -0.507 OA
ATOM     28  H   UNL A   1      32.582  28.371  21.272  1.00  0.00     0.293 HD
ENDBRANCH  12  27
ENDBRANCH   3   6
ENDBRANCH   1   2
BRANCH   1  29
ATOM     29  C   UNL A   1      33.747  29.417  26.189  1.00  0.00     0.042 C 
BRANCH  29  30
ATOM     30  C   UNL A   1      34.711  29.066  27.324  1.00  0.00     0.118 C 
BRANCH  30  31
ATOM     31  N   UNL A   1      34.870  30.067  28.377  1.00  0.00    -0.352 N 
ATOM     32  C   UNL A   1      35.923  30.569  29.115  1.00  0.00     0.251 C 
ATOM     33  H   UNL A   1      34.014  30.489  28.619  1.00  0.00     0.163 HD
ATOM     34  O   UNL A   1      35.658  31.463  29.922  1.00  0.00    -0.269 OA
BRANCH  32  35
ATOM     35  C   UNL A   1      37.321  30.048  29.065  1.00  0.00     0.039 A 
ATOM     36  C   UNL A   1      37.916  29.849  27.802  1.00  0.00     0.014 A 
ATOM     37  C   UNL A   1      38.072  29.747  30.194  1.00  0.00     0.014 A 
ATOM     38  C   UNL A   1      39.250  29.419  27.679  1.00  0.00     0.010 A 
ATOM     39  C   UNL A   1      39.425  29.408  30.073  1.00  0.00     0.010 A 
ATOM     40  C   UNL A   1      40.037  29.225  28.819  1.00  0.00    -0.014 A 
BRANCH  40  41
ATOM     41  C   UNL A   1      41.469  28.788  28.786  1.00  0.00     0.031 A 
ATOM     42  C   UNL A   1      42.556  29.828  28.749  1.00  0.00     0.074 A 
ATOM     43  C   UNL A   1      41.813  27.492  28.638  1.00  0.00     0.049 A 
ATOM     44  N   UNL A   1      43.826  29.690  28.466  1.00  0.00    -0.248 NA
ATOM     45  C   UNL A   1      42.153  31.206  29.062  1.00  0.00     0.031 C 
ATOM     46  C   UNL A   1      40.901  26.362  28.730  1.00  0.00     0.029 A 
ATOM     47  N   UNL A   1      43.018  26.907  28.313  1.00  0.00    -0.354 N 
ATOM     48  C   UNL A   1      44.373  30.963  28.567  1.00  0.00     0.074 A 
ATOM     49  C   UNL A   1      43.280  31.868  28.853  1.00  0.00     0.031 C 
ATOM     50  C   UNL A   1      41.530  25.240  28.349  1.00  0.00     0.029 A 
ATOM     51  C   UNL A   1      42.903  25.571  27.994  1.00  0.00     0.049 A 
ATOM     52  H   UNL A   1      43.873  27.395  28.309  1.00  0.00     0.167 HD
ATOM     53  C   UNL A   1      45.671  31.337  28.470  1.00  0.00     0.037 A 
ATOM     54  C   UNL A   1      43.784  24.707  27.450  1.00  0.00     0.037 A 
ATOM     55  C   UNL A   1      46.754  30.427  28.199  1.00  0.00     0.049 A 
ATOM     56  C   UNL A   1      45.200  25.150  27.228  1.00  0.00     0.074 A 
ATOM     57  C   UNL A   1      48.112  30.691  28.175  1.00  0.00     0.029 A 
ATOM     58  N   UNL A   1      46.603  29.085  27.882  1.00  0.00    -0.354 N 
ATOM     59  N   UNL A   1      45.722  26.338  27.420  1.00  0.00    -0.248 NA
ATOM     60  C   UNL A   1      46.156  24.137  26.765  1.00  0.00     0.031 C 
ATOM     61  C   UNL A   1      48.777  29.525  27.777  1.00  0.00     0.029 A 
ATOM     62  C   UNL A   1      47.839  28.519  27.608  1.00  0.00     0.049 A 
ATOM     63  H   UNL A   1      45.745  28.604  27.857  1.00  0.00     0.167 HD
ATOM     64  C   UNL A   1      47.077  26.207  27.139  1.00  0.00     0.074 A 
ATOM     65  C   UNL A   1      47.292  24.824  26.760  1.00  0.00     0.031 C 
ATOM     66  C   UNL A   1      48.051  27.147  27.212  1.00  0.00     0.037 A 
BRANCH  53  67
ATOM     67  C   UNL A   1      45.976  32.799  28.652  1.00  0.00     0.058 A 
ATOM     68  C   UNL A   1      46.222  33.351  29.920  1.00  0.00     0.135 A 
ATOM     69  C   UNL A   1      46.000  33.665  27.547  1.00  0.00     0.135 A 
ATOM     70  F   UNL A   1      46.203  32.572  31.014  1.00  0.00    -0.206 F 
ATOM     71  C   UNL A   1      46.415  34.717  30.095  1.00  0.00     0.059 A 
ATOM     72  C   UNL A   1      46.227  35.030  27.695  1.00  0.00     0.059 A 
ATOM     73  F   UNL A   1      45.779  33.192  26.311  1.00  0.00    -0.206 F 
ATOM     74  C   UNL A   1      46.405  35.550  28.976  1.00  0.00     0.060 A 
BRANCH  74  75
ATOM     75  S   UNL A   1      46.602  37.326  29.226  1.00  0.00     0.124 S 
ATOM     76  O   UNL A   1      47.454  37.685  28.096  1.00  0.00    -0.237 OA
ATOM     77  O   UNL A   1      45.228  37.806  29.161  1.00  0.00    -0.237 OA
ATOM     78  O   UNL A   1      47.235  37.416  30.541  1.00  0.00    -0.744 OA
ENDBRANCH  74  75
ENDBRANCH  53  67
BRANCH  54  79
ATOM     79  C   UNL A   1      43.334  23.334  27.094  1.00  0.00     0.058 A 
ATOM     80  C   UNL A   1      43.188  22.938  25.759  1.00  0.00     0.135 A 
ATOM     81  C   UNL A   1      43.105  22.370  28.091  1.00  0.00     0.135 A 
ATOM     82  F   UNL A   1      43.387  23.825  24.772  1.00  0.00    -0.206 F 
ATOM     83  C   UNL A   1      42.842  21.633  25.419  1.00  0.00     0.059 A 
ATOM     84  C   UNL A   1      42.774  21.055  27.777  1.00  0.00     0.059 A 
ATOM     85  F   UNL A   1      43.242  22.696  29.386  1.00  0.00    -0.206 F 
ATOM     86  C   UNL A   1      42.649  20.694  26.435  1.00  0.00     0.060 A 
BRANCH  86  87
ATOM     87  S   UNL A   1      42.294  18.985  25.972  1.00  0.00     0.124 S 
ATOM     88  O   UNL A   1      42.717  18.259  27.164  1.00  0.00    -0.237 OA
ATOM     89  O   UNL A   1      40.855  19.032  25.730  1.00  0.00    -0.237 OA
ATOM     90  O   UNL A   1      43.116  18.779  24.783  1.00  0.00    -0.744 OA
ENDBRANCH  86  87
ENDBRANCH  54  79
BRANCH  66  91
ATOM     91  C   UNL A   1      49.455  26.722  26.878  1.00  0.00     0.058 A 
ATOM     92  C   UNL A   1      50.339  26.267  27.868  1.00  0.00     0.135 A 
ATOM     93  C   UNL A   1      49.896  26.704  25.545  1.00  0.00     0.135 A 
ATOM     94  F   UNL A   1      49.972  26.278  29.159  1.00  0.00    -0.206 F 
ATOM     95  C   UNL A   1      51.615  25.815  27.549  1.00  0.00     0.059 A 
ATOM     96  C   UNL A   1      51.158  26.228  25.200  1.00  0.00     0.059 A 
ATOM     97  F   UNL A   1      49.089  27.125  24.558  1.00  0.00    -0.206 F 
ATOM     98  C   UNL A   1      52.012  25.790  26.210  1.00  0.00     0.060 A 
BRANCH  98  99
ATOM     99  S   UNL A   1      53.647  25.140  25.808  1.00  0.00     0.124 S 
ATOM    100  O   UNL A   1      53.321  23.801  25.326  1.00  0.00    -0.237 OA
ATOM    101  O   UNL A   1      54.116  26.081  24.796  1.00  0.00    -0.237 OA
ATOM    102  O   UNL A   1      54.357  25.191  27.082  1.00  0.00    -0.744 OA
ENDBRANCH  98  99
ENDBRANCH  66  91
ENDBRANCH  40  41
ENDBRANCH  32  35
ENDBRANCH  30  31
ENDBRANCH  29  30
ENDBRANCH   1  29
TORSDOF 19
ENDMDL
MODEL 3
REMARK VINA RESULT:     -11.9      6.540     12.010
REMARK SMILES CCc1ccc(OCC(=O)Nc2cc(C)c(O)c(C(=O)NCCCNC(=O)c3ccc(-c4c5nc(c(-c6c(F)cc(S(=O)(=O)[O-])cc6F)c6ccc([nH]6)c(-c6c(F)cc(S(=O)(=O)[O-])cc6F)c6nc(c(-c7c(F)cc(S(=O)(=O)[O-])cc7F)c7ccc4[nH]7)C=C6)C=C5)cc3)c2)cc1
REMARK SMILES IDX 22 1 21 2 19 3 20 4 18 6 12 7 13 8 94 9 14 10 15 11 16 12
REMARK SMILES IDX 11 13 9 14 10 15 8 17 7 18 6 19 3 20 4 21 96 22 5 23 95 24
REMARK SMILES IDX 2 25 1 26 17 27 23 29 24 30 25 31 26 32 27 34 28 35 29 36
REMARK SMILES IDX 93 37 30 38 92 39 31 40 32 41 33 42 86 43 34 44 91 45 85 46
REMARK SMILES IDX 87 47 35 48 90 49 84 50 83 51 36 53 70 54 49 55 69 56 50 57
REMARK SMILES IDX 53 58 68 59 88 60 51 61 52 62 67 64 89 65 54 66 37 67 38 68
REMARK SMILES IDX 47 69 39 70 40 71 46 72 48 73 41 74 42 75 43 76 44 77 45 78
REMARK SMILES IDX 71 79 72 80 81 81 73 82 74 83 80 84 82 85 75 86 76 87 77 88
REMARK SMILES IDX 78 89 79 90 55 91 56 92 65 93 57 94 58 95 64 96 66 97 59 98
REMARK SMILES IDX 60 99 61 100 62 101 63 102
REMARK H PARENT 21 5 11 16 17 28 25 33 87 52 53 63
REMARK Flexibility Score: inf
ROOT
ATOM      1  C   UNL A   1      33.275  29.559  25.899  1.00  0.00     0.118 C 
ENDROOT
BRANCH   1   2
ATOM      2  N   UNL A   1      32.155  30.040  25.113  1.00  0.00    -0.352 N 
ATOM      3  C   UNL A   1      31.175  29.363  24.428  1.00  0.00     0.255 C 
ATOM      4  O   UNL A   1      30.321  30.035  23.839  1.00  0.00    -0.269 OA
ATOM      5  H   UNL A   1      32.084  31.021  25.063  1.00  0.00     0.163 HD
BRANCH   3   6
ATOM      6  C   UNL A   1      31.125  27.878  24.265  1.00  0.00     0.083 A 
ATOM      7  C   UNL A   1      30.628  25.633  25.051  1.00  0.00     0.042 A 
ATOM      8  C   UNL A   1      31.312  25.118  23.937  1.00  0.00     0.033 A 
ATOM      9  C   UNL A   1      30.488  27.015  25.180  1.00  0.00     0.043 A 
ATOM     10  C   UNL A   1      31.836  25.946  22.940  1.00  0.00    -0.006 A 
ATOM     11  C   UNL A   1      32.454  25.311  21.726  1.00  0.00     0.048 C 
ATOM     12  C   UNL A   1      31.746  27.328  23.118  1.00  0.00     0.131 A 
BRANCH   7  13
ATOM     13  N   UNL A   1      30.206  24.667  25.974  1.00  0.00    -0.323 N 
ATOM     14  C   UNL A   1      30.787  23.697  26.724  1.00  0.00     0.262 C 
ATOM     15  O   UNL A   1      30.011  22.993  27.386  1.00  0.00    -0.271 OA
ATOM     16  H   UNL A   1      29.232  24.702  26.117  1.00  0.00     0.170 HD
BRANCH  14  17
ATOM     17  C   UNL A   1      32.300  23.541  26.912  1.00  0.00     0.329 C 
BRANCH  17  18
ATOM     18  O   UNL A   1      33.177  23.060  25.920  1.00  0.00    -0.484 OA
BRANCH  18  19
ATOM     19  C   UNL A   1      32.885  21.898  25.276  1.00  0.00     0.120 A 
ATOM     20  C   UNL A   1      32.851  19.354  24.078  1.00  0.00    -0.048 A 
ATOM     21  C   UNL A   1      33.205  19.517  25.412  1.00  0.00     0.007 A 
ATOM     22  C   UNL A   1      32.365  20.466  23.392  1.00  0.00     0.007 A 
ATOM     23  C   UNL A   1      33.181  20.765  26.017  1.00  0.00     0.047 A 
ATOM     24  C   UNL A   1      32.383  21.735  23.990  1.00  0.00     0.047 A 
BRANCH  20  25
ATOM     25  C   UNL A   1      32.927  17.976  23.485  1.00  0.00     0.032 C 
ATOM     26  C   UNL A   1      32.808  16.828  24.473  1.00  0.00     0.009 C 
ENDBRANCH  20  25
ENDBRANCH  18  19
ENDBRANCH  17  18
ENDBRANCH  14  17
ENDBRANCH   7  13
BRANCH  12  27
ATOM     27  O   UNL A   1      32.288  28.114  22.130  1.00  0.00    -0.507 OA
ATOM     28  H   UNL A   1      31.756  28.748  21.690  1.00  0.00     0.293 HD
ENDBRANCH  12  27
ENDBRANCH   3   6
ENDBRANCH   1   2
BRANCH   1  29
ATOM     29  C   UNL A   1      33.678  30.452  27.070  1.00  0.00     0.042 C 
BRANCH  29  30
ATOM     30  C   UNL A   1      34.993  30.130  27.784  1.00  0.00     0.118 C 
BRANCH  30  31
ATOM     31  N   UNL A   1      35.198  30.759  29.087  1.00  0.00    -0.352 N 
ATOM     32  C   UNL A   1      36.273  30.964  29.928  1.00  0.00     0.251 C 
ATOM     33  H   UNL A   1      34.364  31.130  29.455  1.00  0.00     0.163 HD
ATOM     34  O   UNL A   1      36.050  31.586  30.969  1.00  0.00    -0.269 OA
BRANCH  32  35
ATOM     35  C   UNL A   1      37.643  30.416  29.707  1.00  0.00     0.039 A 
ATOM     36  C   UNL A   1      38.071  30.200  28.381  1.00  0.00     0.014 A 
ATOM     37  C   UNL A   1      38.524  30.103  30.735  1.00  0.00     0.014 A 
ATOM     38  C   UNL A   1      39.371  29.743  28.095  1.00  0.00     0.010 A 
ATOM     39  C   UNL A   1      39.844  29.737  30.449  1.00  0.00     0.010 A 
ATOM     40  C   UNL A   1      40.290  29.536  29.129  1.00  0.00    -0.014 A 
BRANCH  40  41
ATOM     41  C   UNL A   1      41.698  29.071  28.920  1.00  0.00     0.031 A 
ATOM     42  C   UNL A   1      42.792  30.088  28.738  1.00  0.00     0.074 A 
ATOM     43  C   UNL A   1      41.996  27.767  28.742  1.00  0.00     0.049 A 
ATOM     44  N   UNL A   1      44.013  29.923  28.298  1.00  0.00    -0.248 NA
ATOM     45  C   UNL A   1      42.458  31.477  29.087  1.00  0.00     0.031 C 
ATOM     46  C   UNL A   1      41.082  26.657  28.957  1.00  0.00     0.029 A 
ATOM     47  N   UNL A   1      43.139  27.156  28.273  1.00  0.00    -0.354 N 
ATOM     48  C   UNL A   1      44.593  31.185  28.318  1.00  0.00     0.074 A 
ATOM     49  C   UNL A   1      43.562  32.114  28.732  1.00  0.00     0.031 C 
ATOM     50  C   UNL A   1      41.636  25.520  28.511  1.00  0.00     0.029 A 
ATOM     51  C   UNL A   1      42.960  25.820  27.982  1.00  0.00     0.049 A 
ATOM     52  H   UNL A   1      43.996  27.626  28.157  1.00  0.00     0.167 HD
ATOM     53  C   UNL A   1      45.875  31.532  28.056  1.00  0.00     0.037 A 
ATOM     54  C   UNL A   1      43.748  24.936  27.340  1.00  0.00     0.037 A 
ATOM     55  C   UNL A   1      46.898  30.599  27.659  1.00  0.00     0.049 A 
ATOM     56  C   UNL A   1      45.133  25.349  26.938  1.00  0.00     0.074 A 
ATOM     57  C   UNL A   1      48.247  30.835  27.462  1.00  0.00     0.029 A 
ATOM     58  N   UNL A   1      46.683  29.258  27.376  1.00  0.00    -0.354 N 
ATOM     59  N   UNL A   1      45.698  26.526  27.053  1.00  0.00    -0.248 NA
ATOM     60  C   UNL A   1      46.004  24.313  26.367  1.00  0.00     0.031 C 
ATOM     61  C   UNL A   1      48.834  29.654  26.994  1.00  0.00     0.029 A 
ATOM     62  C   UNL A   1      47.863  28.666  26.954  1.00  0.00     0.049 A 
ATOM     63  H   UNL A   1      45.819  28.795  27.463  1.00  0.00     0.167 HD
ATOM     64  C   UNL A   1      47.004  26.366  26.604  1.00  0.00     0.074 A 
ATOM     65  C   UNL A   1      47.143  24.977  26.213  1.00  0.00     0.031 C 
ATOM     66  C   UNL A   1      47.997  27.287  26.546  1.00  0.00     0.037 A 
BRANCH  53  67
ATOM     67  C   UNL A   1      46.229  32.989  28.186  1.00  0.00     0.058 A 
ATOM     68  C   UNL A   1      46.150  33.870  27.094  1.00  0.00     0.135 A 
ATOM     69  C   UNL A   1      46.675  33.508  29.412  1.00  0.00     0.135 A 
ATOM     70  F   UNL A   1      45.739  33.427  25.895  1.00  0.00    -0.206 F 
ATOM     71  C   UNL A   1      46.563  35.194  27.196  1.00  0.00     0.059 A 
ATOM     72  C   UNL A   1      47.059  34.839  29.546  1.00  0.00     0.059 A 
ATOM     73  F   UNL A   1      46.764  32.714  30.491  1.00  0.00    -0.206 F 
ATOM     74  C   UNL A   1      47.026  35.666  28.424  1.00  0.00     0.060 A 
BRANCH  74  75
ATOM     75  S   UNL A   1      47.609  37.370  28.524  1.00  0.00     0.124 S 
ATOM     76  O   UNL A   1      47.837  37.682  27.117  1.00  0.00    -0.237 OA
ATOM     77  O   UNL A   1      46.485  38.050  29.152  1.00  0.00    -0.237 OA
ATOM     78  O   UNL A   1      48.816  37.268  29.345  1.00  0.00    -0.744 OA
ENDBRANCH  74  75
ENDBRANCH  53  67
BRANCH  54  79
ATOM     79  C   UNL A   1      43.230  23.570  27.056  1.00  0.00     0.058 A 
ATOM     80  C   UNL A   1      42.822  23.198  25.769  1.00  0.00     0.135 A 
ATOM     81  C   UNL A   1      43.199  22.588  28.060  1.00  0.00     0.135 A 
ATOM     82  F   UNL A   1      42.826  24.102  24.778  1.00  0.00    -0.206 F 
ATOM     83  C   UNL A   1      42.410  21.900  25.481  1.00  0.00     0.059 A 
ATOM     84  C   UNL A   1      42.806  21.278  27.795  1.00  0.00     0.059 A 
ATOM     85  F   UNL A   1      43.590  22.889  29.309  1.00  0.00    -0.206 F 
ATOM     86  C   UNL A   1      42.417  20.943  26.498  1.00  0.00     0.060 A 
BRANCH  86  87
ATOM     87  S   UNL A   1      41.970  19.242  26.085  1.00  0.00     0.124 S 
ATOM     88  O   UNL A   1      42.769  19.007  24.888  1.00  0.00    -0.237 OA
ATOM     89  O   UNL A   1      42.386  18.522  27.284  1.00  0.00    -0.237 OA
ATOM     90  O   UNL A   1      40.526  19.315  25.875  1.00  0.00    -0.744 OA
ENDBRANCH  86  87
ENDBRANCH  54  79
BRANCH  66  91
ATOM     91  C   UNL A   1      49.339  26.832  26.042  1.00  0.00     0.058 A 
ATOM     92  C   UNL A   1      49.734  27.043  24.713  1.00  0.00     0.135 A 
ATOM     93  C   UNL A   1      50.266  26.241  26.916  1.00  0.00     0.135 A 
ATOM     94  F   UNL A   1      48.881  27.590  23.832  1.00  0.00    -0.206 F 
ATOM     95  C   UNL A   1      51.000  26.679  24.265  1.00  0.00     0.059 A 
ATOM     96  C   UNL A   1      51.548  25.896  26.497  1.00  0.00     0.059 A 
ATOM     97  F   UNL A   1      49.941  26.019  28.200  1.00  0.00    -0.206 F 
ATOM     98  C   UNL A   1      51.903  26.115  25.168  1.00  0.00     0.060 A 
BRANCH  98  99
ATOM     99  S   UNL A   1      53.563  25.708  24.586  1.00  0.00     0.124 S 
ATOM    100  O   UNL A   1      53.634  24.278  24.873  1.00  0.00    -0.237 OA
ATOM    101  O   UNL A   1      53.494  26.068  23.174  1.00  0.00    -0.237 OA
ATOM    102  O   UNL A   1      54.428  26.555  25.403  1.00  0.00    -0.744 OA
ENDBRANCH  98  99
ENDBRANCH  66  91
ENDBRANCH  40  41
ENDBRANCH  32  35
ENDBRANCH  30  31
ENDBRANCH  29  30
ENDBRANCH   1  29
TORSDOF 19
ENDMDL
