MODEL 1
REMARK VINA RESULT:     -10.4      0.000      0.000
REMARK SMILES O=C(CCCN1C(=O)C(=O)/C(=C(/[O-])c2ccc(Cl)cc2)[C@@H]1c1ccccc1[N+](=O)[O-])NCCCNC(=O)c1ccc(-c2c3nc(c(-c4c(F)cc(S(=O)(=O)[O-])cc4F)c4ccc([nH]4)c(-c4c(F)cc(S(=O)(=O)[O-])cc4F)c4nc(c(-c5c(F)cc(S(=O)(=O)[O-])cc5F)c5ccc2[nH]5)C=C4)C=C3)cc1
REMARK SMILES IDX 32 1 31 2 1 3 2 4 3 6 4 7 5 8 6 9 7 10 21 11 8 12 9 13 11 14
REMARK SMILES IDX 10 15 12 16 13 17 22 18 23 19 27 20 24 21 26 22 25 23 28 24
REMARK SMILES IDX 29 25 30 26 14 27 15 28 20 29 16 30 19 31 17 32 18 33 33 34
REMARK SMILES IDX 34 35 35 36 36 37 37 39 38 40 39 41 103 42 40 43 102 44
REMARK SMILES IDX 41 45 42 46 43 47 96 48 44 49 101 50 95 51 97 52 45 53
REMARK SMILES IDX 100 54 94 55 93 56 46 58 80 59 59 60 79 61 60 62 63 63 78 64
REMARK SMILES IDX 98 65 61 66 62 67 77 69 99 70 64 71 47 72 48 73 57 74 49 75
REMARK SMILES IDX 50 76 56 77 58 78 51 79 52 80 53 81 54 82 55 83 81 84 82 85
REMARK SMILES IDX 91 86 83 87 84 88 90 89 92 90 85 91 86 92 87 93 88 94 89 95
REMARK SMILES IDX 65 96 66 97 75 98 67 99 68 100 74 101 76 102 69 103 70 104
REMARK SMILES IDX 71 105 72 106 73 107
REMARK H PARENT 31 5 35 38 97 57 63 68
REMARK Flexibility Score: inf
ROOT
ATOM      1  C   UNL A   1      42.432  21.385  25.944  1.00  0.00     0.117 C 
ENDROOT
BRANCH   1   2
ATOM      2  N   UNL A   1      43.391  22.114  25.139  1.00  0.00    -0.356 N 
ATOM      3  O   UNL A   1      45.047  20.518  25.230  1.00  0.00    -0.275 OA
ATOM      4  C   UNL A   1      44.594  21.561  24.772  1.00  0.00     0.220 C 
ATOM      5  H   UNL A   1      43.176  23.029  24.848  1.00  0.00     0.163 HD
BRANCH   4   6
ATOM      6  C   UNL A   1      45.274  22.312  23.652  1.00  0.00     0.102 C 
BRANCH   6   7
ATOM      7  C   UNL A   1      46.413  23.163  24.213  1.00  0.00     0.031 C 
BRANCH   7   8
ATOM      8  C   UNL A   1      46.217  23.693  25.637  1.00  0.00     0.121 C 
BRANCH   8   9
ATOM      9  N   UNL A   1      46.011  25.123  25.863  1.00  0.00    -0.324 N 
ATOM     10  C   UNL A   1      44.774  25.685  25.571  1.00  0.00     0.295 C 
ATOM     11  C   UNL A   1      46.952  26.096  26.410  1.00  0.00     0.157 C 
ATOM     12  O   UNL A   1      43.765  25.107  25.222  1.00  0.00    -0.265 OA
ATOM     13  C   UNL A   1      44.877  27.185  25.843  1.00  0.00     0.248 C 
ATOM     14  C   UNL A   1      46.172  27.389  26.536  1.00  0.00     0.025 C 
ATOM     15  O   UNL A   1      44.013  27.998  25.598  1.00  0.00    -0.283 OA
ATOM     16  C   UNL A   1      46.503  28.474  27.257  1.00  0.00    -0.092 C 
ATOM     17  O   UNL A   1      47.630  28.448  28.062  1.00  0.00    -0.872 OA
BRANCH  11  18
ATOM     18  C   UNL A   1      48.274  26.232  25.660  1.00  0.00     0.057 A 
ATOM     19  C   UNL A   1      48.212  26.697  24.328  1.00  0.00     0.013 A 
ATOM     20  C   UNL A   1      49.566  25.978  26.165  1.00  0.00     0.275 A 
ATOM     21  C   UNL A   1      49.363  26.921  23.564  1.00  0.00     0.001 A 
ATOM     22  C   UNL A   1      50.730  26.236  25.417  1.00  0.00     0.086 A 
ATOM     23  C   UNL A   1      50.622  26.708  24.114  1.00  0.00     0.007 A 
BRANCH  20  24
ATOM     24  N   UNL A   1      49.786  25.457  27.502  1.00  0.00     0.063 N 
ATOM     25  O   UNL A   1      49.890  24.228  27.615  1.00  0.00    -0.258 OA
ATOM     26  O   UNL A   1      49.822  26.278  28.425  1.00  0.00    -0.258 OA
ENDBRANCH  20  24
ENDBRANCH  11  18
BRANCH  16  27
ATOM     27  C   UNL A   1      45.801  29.768  27.262  1.00  0.00    -0.033 A 
ATOM     28  C   UNL A   1      44.794  30.088  28.179  1.00  0.00     0.009 A 
ATOM     29  C   UNL A   1      46.197  30.729  26.317  1.00  0.00     0.009 A 
ATOM     30  C   UNL A   1      44.169  31.341  28.128  1.00  0.00     0.021 A 
ATOM     31  C   UNL A   1      45.579  31.980  26.272  1.00  0.00     0.021 A 
ATOM     32  C   UNL A   1      44.562  32.279  27.175  1.00  0.00     0.041 A 
ATOM     33  Cl  UNL A   1      43.793  33.816  27.105  1.00  0.00    -0.084 Cl
ENDBRANCH  16  27
ENDBRANCH   8   9
ENDBRANCH   7   8
ENDBRANCH   6   7
ENDBRANCH   4   6
ENDBRANCH   1   2
BRANCH   1  34
ATOM     34  C   UNL A   1      41.454  22.308  26.655  1.00  0.00     0.042 C 
BRANCH  34  35
ATOM     35  C   UNL A   1      40.049  21.736  26.826  1.00  0.00     0.118 C 
BRANCH  35  36
ATOM     36  N   UNL A   1      39.067  22.335  25.936  1.00  0.00    -0.352 N 
ATOM     37  C   UNL A   1      38.579  23.622  25.917  1.00  0.00     0.251 C 
ATOM     38  H   UNL A   1      38.699  21.735  25.249  1.00  0.00     0.163 HD
ATOM     39  O   UNL A   1      37.628  23.904  25.192  1.00  0.00    -0.269 OA
BRANCH  37  40
ATOM     40  C   UNL A   1      39.166  24.655  26.802  1.00  0.00     0.039 A 
ATOM     41  C   UNL A   1      40.046  25.591  26.253  1.00  0.00     0.014 A 
ATOM     42  C   UNL A   1      38.847  24.712  28.162  1.00  0.00     0.014 A 
ATOM     43  C   UNL A   1      40.537  26.632  27.047  1.00  0.00     0.010 A 
ATOM     44  C   UNL A   1      39.272  25.795  28.930  1.00  0.00     0.010 A 
ATOM     45  C   UNL A   1      40.118  26.771  28.381  1.00  0.00    -0.014 A 
BRANCH  45  46
ATOM     46  C   UNL A   1      40.546  27.934  29.204  1.00  0.00     0.031 A 
ATOM     47  C   UNL A   1      41.884  27.927  29.896  1.00  0.00     0.074 A 
ATOM     48  C   UNL A   1      39.706  28.974  29.377  1.00  0.00     0.049 A 
ATOM     49  N   UNL A   1      42.402  28.821  30.699  1.00  0.00    -0.248 NA
ATOM     50  C   UNL A   1      42.740  26.750  29.679  1.00  0.00     0.031 C 
ATOM     51  C   UNL A   1      38.362  29.081  28.805  1.00  0.00     0.029 A 
ATOM     52  N   UNL A   1      39.854  30.139  30.091  1.00  0.00    -0.354 N 
ATOM     53  C   UNL A   1      43.634  28.312  31.093  1.00  0.00     0.074 A 
ATOM     54  C   UNL A   1      43.762  27.005  30.483  1.00  0.00     0.031 C 
ATOM     55  C   UNL A   1      37.820  30.256  29.169  1.00  0.00     0.029 A 
ATOM     56  C   UNL A   1      38.759  30.970  30.029  1.00  0.00     0.049 A 
ATOM     57  H   UNL A   1      40.667  30.358  30.601  1.00  0.00     0.167 HD
ATOM     58  C   UNL A   1      44.583  28.888  31.870  1.00  0.00     0.037 A 
ATOM     59  C   UNL A   1      38.532  32.168  30.602  1.00  0.00     0.037 A 
ATOM     60  C   UNL A   1      44.466  30.202  32.449  1.00  0.00     0.049 A 
ATOM     61  C   UNL A   1      39.604  32.791  31.454  1.00  0.00     0.074 A 
ATOM     62  C   UNL A   1      45.398  30.896  33.200  1.00  0.00     0.029 A 
ATOM     63  N   UNL A   1      43.351  31.020  32.343  1.00  0.00    -0.354 N 
ATOM     64  N   UNL A   1      40.787  32.319  31.765  1.00  0.00    -0.248 NA
ATOM     65  C   UNL A   1      39.313  34.112  32.029  1.00  0.00     0.031 C 
ATOM     66  C   UNL A   1      44.833  32.116  33.584  1.00  0.00     0.029 A 
ATOM     67  C   UNL A   1      43.565  32.203  33.031  1.00  0.00     0.049 A 
ATOM     68  H   UNL A   1      42.529  30.794  31.851  1.00  0.00     0.167 HD
ATOM     69  C   UNL A   1      41.392  33.297  32.548  1.00  0.00     0.074 A 
ATOM     70  C   UNL A   1      40.449  34.390  32.654  1.00  0.00     0.031 C 
ATOM     71  C   UNL A   1      42.620  33.289  33.125  1.00  0.00     0.037 A 
BRANCH  58  72
ATOM     72  C   UNL A   1      45.839  28.103  32.133  1.00  0.00     0.058 A 
ATOM     73  C   UNL A   1      45.861  27.030  33.038  1.00  0.00     0.135 A 
ATOM     74  C   UNL A   1      47.026  28.401  31.443  1.00  0.00     0.135 A 
ATOM     75  F   UNL A   1      44.759  26.711  33.734  1.00  0.00    -0.206 F 
ATOM     76  C   UNL A   1      47.021  26.300  33.273  1.00  0.00     0.059 A 
ATOM     77  C   UNL A   1      48.191  27.666  31.641  1.00  0.00     0.059 A 
ATOM     78  F   UNL A   1      47.060  29.416  30.565  1.00  0.00    -0.206 F 
ATOM     79  C   UNL A   1      48.182  26.625  32.569  1.00  0.00     0.060 A 
BRANCH  79  80
ATOM     80  S   UNL A   1      49.676  25.661  32.877  1.00  0.00     0.124 S 
ATOM     81  O   UNL A   1      49.894  25.039  31.576  1.00  0.00    -0.237 OA
ATOM     82  O   UNL A   1      50.639  26.690  33.257  1.00  0.00    -0.237 OA
ATOM     83  O   UNL A   1      49.279  24.753  33.949  1.00  0.00    -0.744 OA
ENDBRANCH  79  80
ENDBRANCH  58  72
BRANCH  59  84
ATOM     84  C   UNL A   1      37.241  32.870  30.368  1.00  0.00     0.058 A 
ATOM     85  C   UNL A   1      37.049  33.668  29.231  1.00  0.00     0.135 A 
ATOM     86  C   UNL A   1      36.173  32.751  31.271  1.00  0.00     0.135 A 
ATOM     87  F   UNL A   1      38.043  33.820  28.343  1.00  0.00    -0.206 F 
ATOM     88  C   UNL A   1      35.850  34.336  29.002  1.00  0.00     0.059 A 
ATOM     89  C   UNL A   1      34.956  33.388  31.052  1.00  0.00     0.059 A 
ATOM     90  F   UNL A   1      36.299  31.986  32.367  1.00  0.00    -0.206 F 
ATOM     91  C   UNL A   1      34.808  34.187  29.919  1.00  0.00     0.060 A 
BRANCH  91  92
ATOM     92  S   UNL A   1      33.239  35.020  29.590  1.00  0.00     0.124 S 
ATOM     93  O   UNL A   1      32.610  34.099  28.651  1.00  0.00    -0.237 OA
ATOM     94  O   UNL A   1      32.641  35.086  30.919  1.00  0.00    -0.237 OA
ATOM     95  O   UNL A   1      33.653  36.304  29.033  1.00  0.00    -0.744 OA
ENDBRANCH  91  92
ENDBRANCH  59  84
BRANCH  71  96
ATOM     96  C   UNL A   1      43.030  34.511  33.898  1.00  0.00     0.058 A 
ATOM     97  C   UNL A   1      42.943  34.564  35.297  1.00  0.00     0.135 A 
ATOM     98  C   UNL A   1      43.562  35.628  33.231  1.00  0.00     0.135 A 
ATOM     99  F   UNL A   1      42.437  33.526  35.982  1.00  0.00    -0.206 F 
ATOM    100  C   UNL A   1      43.347  35.690  36.008  1.00  0.00     0.059 A 
ATOM    101  C   UNL A   1      43.996  36.753  33.923  1.00  0.00     0.059 A 
ATOM    102  F   UNL A   1      43.675  35.626  31.894  1.00  0.00    -0.206 F 
ATOM    103  C   UNL A   1      43.874  36.779  35.313  1.00  0.00     0.060 A 
BRANCH 103 104
ATOM    104  S   UNL A   1      44.424  38.222  36.249  1.00  0.00     0.124 S 
ATOM    105  O   UNL A   1      43.616  38.113  37.458  1.00  0.00    -0.237 OA
ATOM    106  O   UNL A   1      45.851  37.961  36.414  1.00  0.00    -0.237 OA
ATOM    107  O   UNL A   1      44.096  39.342  35.372  1.00  0.00    -0.744 OA
ENDBRANCH 103 104
ENDBRANCH  71  96
ENDBRANCH  45  46
ENDBRANCH  37  40
ENDBRANCH  35  36
ENDBRANCH  34  35
ENDBRANCH   1  34
TORSDOF 19
ENDMDL
MODEL 2
REMARK VINA RESULT:     -10.3      0.464      7.737
REMARK SMILES O=C(CCCN1C(=O)C(=O)/C(=C(/[O-])c2ccc(Cl)cc2)[C@@H]1c1ccccc1[N+](=O)[O-])NCCCNC(=O)c1ccc(-c2c3nc(c(-c4c(F)cc(S(=O)(=O)[O-])cc4F)c4ccc([nH]4)c(-c4c(F)cc(S(=O)(=O)[O-])cc4F)c4nc(c(-c5c(F)cc(S(=O)(=O)[O-])cc5F)c5ccc2[nH]5)C=C4)C=C3)cc1
REMARK SMILES IDX 32 1 31 2 1 3 2 4 3 6 4 7 5 8 6 9 7 10 21 11 8 12 9 13 11 14
REMARK SMILES IDX 10 15 12 16 13 17 22 18 23 19 27 20 24 21 26 22 25 23 28 24
REMARK SMILES IDX 29 25 30 26 14 27 15 28 20 29 16 30 19 31 17 32 18 33 33 34
REMARK SMILES IDX 34 35 35 36 36 37 37 39 38 40 39 41 103 42 40 43 102 44
REMARK SMILES IDX 41 45 42 46 43 47 96 48 44 49 101 50 95 51 97 52 45 53
REMARK SMILES IDX 100 54 94 55 93 56 46 58 80 59 59 60 79 61 60 62 63 63 78 64
REMARK SMILES IDX 98 65 61 66 62 67 77 69 99 70 64 71 47 72 48 73 57 74 49 75
REMARK SMILES IDX 50 76 56 77 58 78 51 79 52 80 53 81 54 82 55 83 81 84 82 85
REMARK SMILES IDX 91 86 83 87 84 88 90 89 92 90 85 91 86 92 87 93 88 94 89 95
REMARK SMILES IDX 65 96 66 97 75 98 67 99 68 100 74 101 76 102 69 103 70 104
REMARK SMILES IDX 71 105 72 106 73 107
REMARK H PARENT 31 5 35 38 97 57 63 68
REMARK Flexibility Score: inf
ROOT
ATOM      1  C   UNL A   1      42.249  21.462  25.743  1.00  0.00     0.117 C 
ENDROOT
BRANCH   1   2
ATOM      2  N   UNL A   1      43.241  22.230  25.019  1.00  0.00    -0.356 N 
ATOM      3  O   UNL A   1      44.917  20.659  25.157  1.00  0.00    -0.275 OA
ATOM      4  C   UNL A   1      44.473  21.708  24.706  1.00  0.00     0.220 C 
ATOM      5  H   UNL A   1      43.027  23.151  24.744  1.00  0.00     0.163 HD
BRANCH   4   6
ATOM      6  C   UNL A   1      45.203  22.505  23.651  1.00  0.00     0.102 C 
BRANCH   6   7
ATOM      7  C   UNL A   1      46.402  23.219  24.277  1.00  0.00     0.031 C 
BRANCH   7   8
ATOM      8  C   UNL A   1      46.199  23.755  25.697  1.00  0.00     0.121 C 
BRANCH   8   9
ATOM      9  N   UNL A   1      45.998  25.187  25.916  1.00  0.00    -0.324 N 
ATOM     10  C   UNL A   1      44.772  25.758  25.594  1.00  0.00     0.295 C 
ATOM     11  C   UNL A   1      46.933  26.154  26.483  1.00  0.00     0.157 C 
ATOM     12  O   UNL A   1      43.767  25.186  25.223  1.00  0.00    -0.265 OA
ATOM     13  C   UNL A   1      44.879  27.258  25.867  1.00  0.00     0.248 C 
ATOM     14  C   UNL A   1      46.160  27.453  26.588  1.00  0.00     0.025 C 
ATOM     15  O   UNL A   1      44.027  28.076  25.600  1.00  0.00    -0.283 OA
ATOM     16  C   UNL A   1      46.482  28.537  27.315  1.00  0.00    -0.092 C 
ATOM     17  O   UNL A   1      47.590  28.505  28.146  1.00  0.00    -0.872 OA
BRANCH  11  18
ATOM     18  C   UNL A   1      48.273  26.280  25.763  1.00  0.00     0.057 A 
ATOM     19  C   UNL A   1      48.248  26.774  24.441  1.00  0.00     0.013 A 
ATOM     20  C   UNL A   1      49.549  25.989  26.289  1.00  0.00     0.275 A 
ATOM     21  C   UNL A   1      49.419  26.991  23.705  1.00  0.00     0.001 A 
ATOM     22  C   UNL A   1      50.733  26.239  25.571  1.00  0.00     0.086 A 
ATOM     23  C   UNL A   1      50.662  26.741  24.277  1.00  0.00     0.007 A 
BRANCH  20  24
ATOM     24  N   UNL A   1      49.730  25.434  27.619  1.00  0.00     0.063 N 
ATOM     25  O   UNL A   1      49.857  26.241  28.550  1.00  0.00    -0.258 OA
ATOM     26  O   UNL A   1      49.773  24.203  27.710  1.00  0.00    -0.258 OA
ENDBRANCH  20  24
ENDBRANCH  11  18
BRANCH  16  27
ATOM     27  C   UNL A   1      45.789  29.836  27.302  1.00  0.00    -0.033 A 
ATOM     28  C   UNL A   1      44.773  30.170  28.203  1.00  0.00     0.009 A 
ATOM     29  C   UNL A   1      46.204  30.788  26.355  1.00  0.00     0.009 A 
ATOM     30  C   UNL A   1      44.158  31.427  28.136  1.00  0.00     0.021 A 
ATOM     31  C   UNL A   1      45.596  32.043  26.293  1.00  0.00     0.021 A 
ATOM     32  C   UNL A   1      44.569  32.355  27.181  1.00  0.00     0.041 A 
ATOM     33  Cl  UNL A   1      43.813  33.897  27.090  1.00  0.00    -0.084 Cl
ENDBRANCH  16  27
ENDBRANCH   8   9
ENDBRANCH   7   8
ENDBRANCH   6   7
ENDBRANCH   4   6
ENDBRANCH   1   2
BRANCH   1  34
ATOM     34  C   UNL A   1      41.503  22.301  26.769  1.00  0.00     0.042 C 
BRANCH  34  35
ATOM     35  C   UNL A   1      40.056  21.874  27.009  1.00  0.00     0.118 C 
BRANCH  35  36
ATOM     36  N   UNL A   1      39.109  22.499  26.101  1.00  0.00    -0.352 N 
ATOM     37  C   UNL A   1      38.641  23.794  26.084  1.00  0.00     0.251 C 
ATOM     38  H   UNL A   1      38.751  21.913  25.396  1.00  0.00     0.163 HD
ATOM     39  O   UNL A   1      37.715  24.098  25.338  1.00  0.00    -0.269 OA
BRANCH  37  40
ATOM     40  C   UNL A   1      39.219  24.806  26.998  1.00  0.00     0.039 A 
ATOM     41  C   UNL A   1      40.109  25.750  26.480  1.00  0.00     0.014 A 
ATOM     42  C   UNL A   1      38.881  24.836  28.354  1.00  0.00     0.014 A 
ATOM     43  C   UNL A   1      40.592  26.773  27.302  1.00  0.00     0.010 A 
ATOM     44  C   UNL A   1      39.299  25.903  29.150  1.00  0.00     0.010 A 
ATOM     45  C   UNL A   1      40.155  26.886  28.632  1.00  0.00    -0.014 A 
BRANCH  45  46
ATOM     46  C   UNL A   1      40.576  28.031  29.485  1.00  0.00     0.031 A 
ATOM     47  C   UNL A   1      39.677  29.228  29.652  1.00  0.00     0.074 A 
ATOM     48  C   UNL A   1      41.794  28.021  30.063  1.00  0.00     0.049 A 
ATOM     49  N   UNL A   1      39.897  30.340  30.305  1.00  0.00    -0.248 NA
ATOM     50  C   UNL A   1      38.371  29.180  28.976  1.00  0.00     0.031 C 
ATOM     51  C   UNL A   1      42.781  26.947  29.937  1.00  0.00     0.029 A 
ATOM     52  N   UNL A   1      42.414  28.946  30.867  1.00  0.00    -0.354 N 
ATOM     53  C   UNL A   1      38.768  31.128  30.109  1.00  0.00     0.074 A 
ATOM     54  C   UNL A   1      37.888  30.387  29.231  1.00  0.00     0.031 C 
ATOM     55  C   UNL A   1      43.870  27.262  30.658  1.00  0.00     0.029 A 
ATOM     56  C   UNL A   1      43.678  28.574  31.267  1.00  0.00     0.049 A 
ATOM     57  H   UNL A   1      41.995  29.796  31.132  1.00  0.00     0.167 HD
ATOM     58  C   UNL A   1      38.479  32.344  30.632  1.00  0.00     0.037 A 
ATOM     59  C   UNL A   1      44.581  29.217  32.033  1.00  0.00     0.037 A 
ATOM     60  C   UNL A   1      39.343  33.065  31.530  1.00  0.00     0.049 A 
ATOM     61  C   UNL A   1      44.234  30.563  32.607  1.00  0.00     0.074 A 
ATOM     62  C   UNL A   1      39.112  34.275  32.159  1.00  0.00     0.029 A 
ATOM     63  N   UNL A   1      40.604  32.643  31.929  1.00  0.00    -0.354 N 
ATOM     64  N   UNL A   1      43.136  31.264  32.459  1.00  0.00    -0.248 NA
ATOM     65  C   UNL A   1      45.246  31.204  33.458  1.00  0.00     0.031 C 
ATOM     66  C   UNL A   1      40.247  34.607  32.906  1.00  0.00     0.029 A 
ATOM     67  C   UNL A   1      41.168  33.579  32.780  1.00  0.00     0.049 A 
ATOM     68  H   UNL A   1      41.032  31.803  31.649  1.00  0.00     0.167 HD
ATOM     69  C   UNL A   1      43.313  32.415  33.220  1.00  0.00     0.074 A 
ATOM     70  C   UNL A   1      44.620  32.311  33.836  1.00  0.00     0.031 C 
ATOM     71  C   UNL A   1      42.469  33.462  33.393  1.00  0.00     0.037 A 
BRANCH  58  72
ATOM     72  C   UNL A   1      37.166  32.972  30.249  1.00  0.00     0.058 A 
ATOM     73  C   UNL A   1      36.010  32.791  31.025  1.00  0.00     0.135 A 
ATOM     74  C   UNL A   1      37.071  33.795  29.116  1.00  0.00     0.135 A 
ATOM     75  F   UNL A   1      36.041  32.003  32.112  1.00  0.00    -0.206 F 
ATOM     76  C   UNL A   1      34.799  33.380  30.675  1.00  0.00     0.059 A 
ATOM     77  C   UNL A   1      35.877  34.417  28.762  1.00  0.00     0.059 A 
ATOM     78  F   UNL A   1      38.145  34.003  28.339  1.00  0.00    -0.206 F 
ATOM     79  C   UNL A   1      34.743  34.192  29.541  1.00  0.00     0.060 A 
BRANCH  79  80
ATOM     80  S   UNL A   1      33.166  34.957  29.106  1.00  0.00     0.124 S 
ATOM     81  O   UNL A   1      32.486  34.974  30.397  1.00  0.00    -0.237 OA
ATOM     82  O   UNL A   1      33.582  36.259  28.592  1.00  0.00    -0.237 OA
ATOM     83  O   UNL A   1      32.609  34.044  28.113  1.00  0.00    -0.744 OA
ENDBRANCH  79  80
ENDBRANCH  58  72
BRANCH  59  84
ATOM     84  C   UNL A   1      45.896  28.583  32.320  1.00  0.00     0.058 A 
ATOM     85  C   UNL A   1      47.043  28.942  31.598  1.00  0.00     0.135 A 
ATOM     86  C   UNL A   1      46.033  27.615  33.327  1.00  0.00     0.135 A 
ATOM     87  F   UNL A   1      46.961  29.857  30.621  1.00  0.00    -0.206 F 
ATOM     88  C   UNL A   1      48.278  28.353  31.852  1.00  0.00     0.059 A 
ATOM     89  C   UNL A   1      47.262  27.030  33.616  1.00  0.00     0.059 A 
ATOM     90  F   UNL A   1      44.969  27.248  34.059  1.00  0.00    -0.206 F 
ATOM     91  C   UNL A   1      48.378  27.399  32.865  1.00  0.00     0.060 A 
BRANCH  91  92
ATOM     92  S   UNL A   1      49.994  26.675  33.219  1.00  0.00     0.124 S 
ATOM     93  O   UNL A   1      49.800  25.297  32.785  1.00  0.00    -0.237 OA
ATOM     94  O   UNL A   1      50.882  27.487  32.393  1.00  0.00    -0.237 OA
ATOM     95  O   UNL A   1      50.140  26.869  34.658  1.00  0.00    -0.744 OA
ENDBRANCH  91  92
ENDBRANCH  59  84
BRANCH  71  96
ATOM     96  C   UNL A   1      42.914  34.567  34.309  1.00  0.00     0.058 A 
ATOM     97  C   UNL A   1      42.746  34.486  35.700  1.00  0.00     0.135 A 
ATOM     98  C   UNL A   1      43.562  35.702  33.792  1.00  0.00     0.135 A 
ATOM     99  F   UNL A   1      42.127  33.426  36.245  1.00  0.00    -0.206 F 
ATOM    100  C   UNL A   1      43.182  35.502  36.545  1.00  0.00     0.059 A 
ATOM    101  C   UNL A   1      44.030  36.716  34.620  1.00  0.00     0.059 A 
ATOM    102  F   UNL A   1      43.757  35.825  32.470  1.00  0.00    -0.206 F 
ATOM    103  C   UNL A   1      43.826  36.612  35.997  1.00  0.00     0.060 A 
BRANCH 103 104
ATOM    104  S   UNL A   1      44.416  37.909  37.106  1.00  0.00     0.124 S 
ATOM    105  O   UNL A   1      44.388  39.077  36.233  1.00  0.00    -0.237 OA
ATOM    106  O   UNL A   1      43.416  37.888  38.170  1.00  0.00    -0.237 OA
ATOM    107  O   UNL A   1      45.745  37.445  37.494  1.00  0.00    -0.744 OA
ENDBRANCH 103 104
ENDBRANCH  71  96
ENDBRANCH  45  46
ENDBRANCH  37  40
ENDBRANCH  35  36
ENDBRANCH  34  35
ENDBRANCH   1  34
TORSDOF 19
ENDMDL
MODEL 3
REMARK VINA RESULT:     -10.0      5.406     13.168
REMARK SMILES O=C(CCCN1C(=O)C(=O)/C(=C(/[O-])c2ccc(Cl)cc2)[C@@H]1c1ccccc1[N+](=O)[O-])NCCCNC(=O)c1ccc(-c2c3nc(c(-c4c(F)cc(S(=O)(=O)[O-])cc4F)c4ccc([nH]4)c(-c4c(F)cc(S(=O)(=O)[O-])cc4F)c4nc(c(-c5c(F)cc(S(=O)(=O)[O-])cc5F)c5ccc2[nH]5)C=C4)C=C3)cc1
REMARK SMILES IDX 32 1 31 2 1 3 2 4 3 6 4 7 5 8 6 9 7 10 21 11 8 12 9 13 11 14
REMARK SMILES IDX 10 15 12 16 13 17 22 18 23 19 27 20 24 21 26 22 25 23 28 24
REMARK SMILES IDX 29 25 30 26 14 27 15 28 20 29 16 30 19 31 17 32 18 33 33 34
REMARK SMILES IDX 34 35 35 36 36 37 37 39 38 40 39 41 103 42 40 43 102 44
REMARK SMILES IDX 41 45 42 46 43 47 96 48 44 49 101 50 95 51 97 52 45 53
REMARK SMILES IDX 100 54 94 55 93 56 46 58 80 59 59 60 79 61 60 62 63 63 78 64
REMARK SMILES IDX 98 65 61 66 62 67 77 69 99 70 64 71 47 72 48 73 57 74 49 75
REMARK SMILES IDX 50 76 56 77 58 78 51 79 52 80 53 81 54 82 55 83 81 84 82 85
REMARK SMILES IDX 91 86 83 87 84 88 90 89 92 90 85 91 86 92 87 93 88 94 89 95
REMARK SMILES IDX 65 96 66 97 75 98 67 99 68 100 74 101 76 102 69 103 70 104
REMARK SMILES IDX 71 105 72 106 73 107
REMARK H PARENT 31 5 35 38 97 57 63 68
REMARK Flexibility Score: inf
ROOT
ATOM      1  C   UNL A   1      34.694  34.222  30.439  1.00  0.00     0.117 C 
ENDROOT
BRANCH   1   2
ATOM      2  N   UNL A   1      34.440  32.978  29.741  1.00  0.00    -0.356 N 
ATOM      3  O   UNL A   1      34.535  33.864  27.620  1.00  0.00    -0.275 OA
ATOM      4  C   UNL A   1      34.479  32.897  28.371  1.00  0.00     0.220 C 
ATOM      5  H   UNL A   1      34.232  32.170  30.263  1.00  0.00     0.163 HD
BRANCH   4   6
ATOM      6  C   UNL A   1      34.558  31.477  27.863  1.00  0.00     0.102 C 
BRANCH   6   7
ATOM      7  C   UNL A   1      33.151  30.948  27.580  1.00  0.00     0.031 C 
BRANCH   7   8
ATOM      8  C   UNL A   1      32.887  30.472  26.148  1.00  0.00     0.121 C 
BRANCH   8   9
ATOM      9  N   UNL A   1      32.696  29.049  25.875  1.00  0.00    -0.324 N 
ATOM     10  C   UNL A   1      33.741  28.164  26.118  1.00  0.00     0.295 C 
ATOM     11  C   UNL A   1      31.496  28.375  25.388  1.00  0.00     0.157 C 
ATOM     12  O   UNL A   1      34.811  28.411  26.636  1.00  0.00    -0.265 OA
ATOM     13  C   UNL A   1      33.276  26.775  25.682  1.00  0.00     0.248 C 
ATOM     14  C   UNL A   1      31.824  26.896  25.407  1.00  0.00     0.025 C 
ATOM     15  O   UNL A   1      33.972  25.784  25.658  1.00  0.00    -0.283 OA
ATOM     16  C   UNL A   1      30.960  25.869  25.340  1.00  0.00    -0.092 C 
ATOM     17  O   UNL A   1      29.596  26.114  25.330  1.00  0.00    -0.872 OA
BRANCH  11  18
ATOM     18  C   UNL A   1      30.949  28.878  24.055  1.00  0.00     0.057 A 
ATOM     19  C   UNL A   1      29.679  29.494  24.073  1.00  0.00     0.013 A 
ATOM     20  C   UNL A   1      31.592  28.828  22.801  1.00  0.00     0.275 A 
ATOM     21  C   UNL A   1      29.104  30.049  22.924  1.00  0.00     0.001 A 
ATOM     22  C   UNL A   1      31.039  29.416  21.648  1.00  0.00     0.086 A 
ATOM     23  C   UNL A   1      29.792  30.026  21.716  1.00  0.00     0.007 A 
BRANCH  20  24
ATOM     24  N   UNL A   1      32.882  28.188  22.618  1.00  0.00     0.063 N 
ATOM     25  O   UNL A   1      33.887  28.896  22.770  1.00  0.00    -0.258 OA
ATOM     26  O   UNL A   1      32.875  26.995  22.295  1.00  0.00    -0.258 OA
ENDBRANCH  20  24
ENDBRANCH  11  18
BRANCH  16  27
ATOM     27  C   UNL A   1      31.305  24.442  25.227  1.00  0.00    -0.033 A 
ATOM     28  C   UNL A   1      31.297  23.564  26.316  1.00  0.00     0.009 A 
ATOM     29  C   UNL A   1      31.621  23.946  23.951  1.00  0.00     0.009 A 
ATOM     30  C   UNL A   1      31.635  22.216  26.137  1.00  0.00     0.021 A 
ATOM     31  C   UNL A   1      31.949  22.601  23.771  1.00  0.00     0.021 A 
ATOM     32  C   UNL A   1      31.961  21.742  24.867  1.00  0.00     0.041 A 
ATOM     33  Cl  UNL A   1      32.381  20.089  24.642  1.00  0.00    -0.084 Cl
ENDBRANCH  16  27
ENDBRANCH   8   9
ENDBRANCH   7   8
ENDBRANCH   6   7
ENDBRANCH   4   6
ENDBRANCH   1   2
BRANCH   1  34
ATOM     34  C   UNL A   1      35.923  34.144  31.332  1.00  0.00     0.042 C 
BRANCH  34  35
ATOM     35  C   UNL A   1      36.835  32.951  31.056  1.00  0.00     0.118 C 
BRANCH  35  36
ATOM     36  N   UNL A   1      36.206  31.667  31.319  1.00  0.00    -0.352 N 
ATOM     37  C   UNL A   1      36.662  30.398  31.038  1.00  0.00     0.251 C 
ATOM     38  H   UNL A   1      35.329  31.710  31.761  1.00  0.00     0.163 HD
ATOM     39  O   UNL A   1      35.916  29.435  31.187  1.00  0.00    -0.269 OA
BRANCH  37  40
ATOM     40  C   UNL A   1      38.033  30.200  30.513  1.00  0.00     0.039 A 
ATOM     41  C   UNL A   1      39.076  29.983  31.417  1.00  0.00     0.014 A 
ATOM     42  C   UNL A   1      38.293  30.214  29.139  1.00  0.00     0.014 A 
ATOM     43  C   UNL A   1      40.359  29.697  30.941  1.00  0.00     0.010 A 
ATOM     44  C   UNL A   1      39.553  29.849  28.667  1.00  0.00     0.010 A 
ATOM     45  C   UNL A   1      40.600  29.582  29.562  1.00  0.00    -0.014 A 
BRANCH  45  46
ATOM     46  C   UNL A   1      41.934  29.171  29.046  1.00  0.00     0.031 A 
ATOM     47  C   UNL A   1      43.050  30.176  28.934  1.00  0.00     0.074 A 
ATOM     48  C   UNL A   1      42.125  27.906  28.622  1.00  0.00     0.049 A 
ATOM     49  N   UNL A   1      44.258  30.017  28.455  1.00  0.00    -0.248 NA
ATOM     50  C   UNL A   1      42.764  31.543  29.395  1.00  0.00     0.031 C 
ATOM     51  C   UNL A   1      41.111  26.849  28.627  1.00  0.00     0.029 A 
ATOM     52  N   UNL A   1      43.236  27.292  28.097  1.00  0.00    -0.354 N 
ATOM     53  C   UNL A   1      44.870  31.262  28.544  1.00  0.00     0.074 A 
ATOM     54  C   UNL A   1      43.882  32.178  29.074  1.00  0.00     0.031 C 
ATOM     55  C   UNL A   1      41.653  25.714  28.154  1.00  0.00     0.029 A 
ATOM     56  C   UNL A   1      43.040  25.968  27.777  1.00  0.00     0.049 A 
ATOM     57  H   UNL A   1      44.094  27.757  27.961  1.00  0.00     0.167 HD
ATOM     58  C   UNL A   1      46.144  31.606  28.239  1.00  0.00     0.037 A 
ATOM     59  C   UNL A   1      43.878  25.062  27.236  1.00  0.00     0.037 A 
ATOM     60  C   UNL A   1      47.135  30.686  27.743  1.00  0.00     0.049 A 
ATOM     61  C   UNL A   1      45.290  25.466  26.912  1.00  0.00     0.074 A 
ATOM     62  C   UNL A   1      48.468  30.927  27.461  1.00  0.00     0.029 A 
ATOM     63  N   UNL A   1      46.901  29.349  27.454  1.00  0.00    -0.354 N 
ATOM     64  N   UNL A   1      45.867  26.634  27.061  1.00  0.00    -0.248 NA
ATOM     65  C   UNL A   1      46.167  24.428  26.352  1.00  0.00     0.031 C 
ATOM     66  C   UNL A   1      49.032  29.747  26.963  1.00  0.00     0.029 A 
ATOM     67  C   UNL A   1      48.061  28.758  26.979  1.00  0.00     0.049 A 
ATOM     68  H   UNL A   1      46.040  28.888  27.570  1.00  0.00     0.167 HD
ATOM     69  C   UNL A   1      47.182  26.464  26.640  1.00  0.00     0.074 A 
ATOM     70  C   UNL A   1      47.318  25.079  26.241  1.00  0.00     0.031 C 
ATOM     71  C   UNL A   1      48.186  27.375  26.590  1.00  0.00     0.037 A 
BRANCH  58  72
ATOM     72  C   UNL A   1      46.545  33.043  28.441  1.00  0.00     0.058 A 
ATOM     73  C   UNL A   1      47.070  33.496  29.661  1.00  0.00     0.135 A 
ATOM     74  C   UNL A   1      46.440  33.968  27.390  1.00  0.00     0.135 A 
ATOM     75  F   UNL A   1      47.180  32.657  30.703  1.00  0.00    -0.206 F 
ATOM     76  C   UNL A   1      47.448  34.822  29.843  1.00  0.00     0.059 A 
ATOM     77  C   UNL A   1      46.839  35.293  27.540  1.00  0.00     0.059 A 
ATOM     78  F   UNL A   1      45.946  33.588  26.201  1.00  0.00    -0.206 F 
ATOM     79  C   UNL A   1      47.329  35.714  28.776  1.00  0.00     0.060 A 
BRANCH  79  80
ATOM     80  S   UNL A   1      47.834  37.429  29.025  1.00  0.00     0.124 S 
ATOM     81  O   UNL A   1      48.922  37.275  29.985  1.00  0.00    -0.237 OA
ATOM     82  O   UNL A   1      48.229  37.837  27.680  1.00  0.00    -0.237 OA
ATOM     83  O   UNL A   1      46.627  38.067  29.540  1.00  0.00    -0.744 OA
ENDBRANCH  79  80
ENDBRANCH  58  72
BRANCH  59  84
ATOM     84  C   UNL A   1      43.408  23.672  26.988  1.00  0.00     0.058 A 
ATOM     85  C   UNL A   1      43.087  23.239  25.694  1.00  0.00     0.135 A 
ATOM     86  C   UNL A   1      43.281  22.748  28.037  1.00  0.00     0.135 A 
ATOM     87  F   UNL A   1      43.185  24.088  24.659  1.00  0.00    -0.206 F 
ATOM     88  C   UNL A   1      42.641  21.945  25.447  1.00  0.00     0.059 A 
ATOM     89  C   UNL A   1      42.861  21.441  27.813  1.00  0.00     0.059 A 
ATOM     90  F   UNL A   1      43.592  23.107  29.293  1.00  0.00    -0.206 F 
ATOM     91  C   UNL A   1      42.533  21.051  26.515  1.00  0.00     0.060 A 
BRANCH  91  92
ATOM     92  S   UNL A   1      41.999  19.359  26.178  1.00  0.00     0.124 S 
ATOM     93  O   UNL A   1      42.831  19.011  25.033  1.00  0.00    -0.237 OA
ATOM     94  O   UNL A   1      42.318  18.681  27.430  1.00  0.00    -0.237 OA
ATOM     95  O   UNL A   1      40.573  19.508  25.901  1.00  0.00    -0.744 OA
ENDBRANCH  91  92
ENDBRANCH  59  84
BRANCH  71  96
ATOM     96  C   UNL A   1      49.531  26.898  26.117  1.00  0.00     0.058 A 
ATOM     97  C   UNL A   1      49.887  26.918  24.761  1.00  0.00     0.135 A 
ATOM     98  C   UNL A   1      50.495  26.458  27.041  1.00  0.00     0.135 A 
ATOM     99  F   UNL A   1      49.001  27.323  23.836  1.00  0.00    -0.206 F 
ATOM    100  C   UNL A   1      51.142  26.498  24.332  1.00  0.00     0.059 A 
ATOM    101  C   UNL A   1      51.764  26.059  26.638  1.00  0.00     0.059 A 
ATOM    102  F   UNL A   1      50.209  26.428  28.352  1.00  0.00    -0.206 F 
ATOM    103  C   UNL A   1      52.075  26.072  25.278  1.00  0.00     0.060 A 
BRANCH 103 104
ATOM    104  S   UNL A   1      53.712  25.558  24.713  1.00  0.00     0.124 S 
ATOM    105  O   UNL A   1      53.582  24.105  24.721  1.00  0.00    -0.237 OA
ATOM    106  O   UNL A   1      53.796  26.180  23.395  1.00  0.00    -0.237 OA
ATOM    107  O   UNL A   1      54.610  26.115  25.720  1.00  0.00    -0.744 OA
ENDBRANCH 103 104
ENDBRANCH  71  96
ENDBRANCH  45  46
ENDBRANCH  37  40
ENDBRANCH  35  36
ENDBRANCH  34  35
ENDBRANCH   1  34
TORSDOF 19
ENDMDL
