MODEL 1
REMARK VINA RESULT:     -12.2      0.000      0.000
REMARK SMILES Cc1ccc(NC(=O)CN2C(=O)S/C(=C\c3cc(Cl)c(OCC(=O)NCCCNC(=O)c4ccc(-c5c6nc(c(-c7c(F)cc(S(=O)(=O)[O-])cc7F)c7ccc([nH]7)c(-c7c(F)cc(S(=O)(=O)[O-])cc7F)c7nc(c(-c8c(F)cc(S(=O)(=O)[O-])cc8F)c8ccc5[nH]8)C=C7)C=C6)cc4)c(Cl)c3)C2=O)cc1
REMARK SMILES IDX 23 1 24 2 25 3 22 5 21 6 20 7 16 8 17 9 100 10 18 11 98 12
REMARK SMILES IDX 19 13 99 14 15 15 10 16 11 17 101 18 12 19 13 20 14 21
REMARK SMILES IDX 102 22 9 23 7 24 6 25 8 27 5 28 1 29 2 30 3 31 104 32 4 33
REMARK SMILES IDX 103 34 26 35 27 36 28 37 29 38 30 39 31 41 32 42 33 43 97 44
REMARK SMILES IDX 34 45 96 46 35 47 36 48 37 49 90 50 38 51 95 52 89 53 91 54
REMARK SMILES IDX 39 55 94 56 88 57 87 58 40 60 74 61 53 62 73 63 54 64 57 65
REMARK SMILES IDX 72 66 92 67 55 68 56 69 71 71 93 72 58 73 41 74 42 75 51 76
REMARK SMILES IDX 43 77 44 78 50 79 52 80 45 81 46 82 47 83 48 84 49 85 75 86
REMARK SMILES IDX 76 87 85 88 77 89 78 90 84 91 86 92 79 93 80 94 81 95 82 96
REMARK SMILES IDX 83 97 59 98 60 99 69 100 61 101 62 102 68 103 70 104 63 105
REMARK SMILES IDX 64 106 65 107 66 108 67 109
REMARK H PARENT 25 4 6 26 29 40 91 59 57 70
REMARK Flexibility Score: inf
ROOT
ATOM      1  C   UNL A   1      33.559  23.451  23.426  1.00  0.00     0.257 C 
ATOM      2  O   UNL A   1      32.511  22.827  23.591  1.00  0.00    -0.271 OA
ATOM      3  N   UNL A   1      34.723  22.824  23.759  1.00  0.00    -0.353 N 
ATOM      4  H   UNL A   1      34.616  21.966  24.229  1.00  0.00     0.163 HD
ENDROOT
BRANCH   1   5
ATOM      5  C   UNL A   1      33.580  24.868  22.817  1.00  0.00     0.329 C 
BRANCH   5   6
ATOM      6  O   UNL A   1      32.400  25.651  22.834  1.00  0.00    -0.481 OA
BRANCH   6   7
ATOM      7  C   UNL A   1      32.294  26.848  23.491  1.00  0.00     0.157 A 
ATOM      8  C   UNL A   1      31.797  29.176  25.097  1.00  0.00    -0.021 A 
ATOM      9  C   UNL A   1      31.219  27.960  25.437  1.00  0.00     0.032 A 
ATOM     10  C   UNL A   1      32.588  29.213  23.942  1.00  0.00     0.032 A 
ATOM     11  C   UNL A   1      31.457  26.821  24.637  1.00  0.00     0.085 A 
ATOM     12  C   UNL A   1      32.907  28.067  23.199  1.00  0.00     0.085 A 
ATOM     13  Cl  UNL A   1      30.693  25.344  25.144  1.00  0.00    -0.080 Cl
ATOM     14  Cl  UNL A   1      34.188  28.327  22.071  1.00  0.00    -0.080 Cl
BRANCH   8  15
ATOM     15  C   UNL A   1      31.569  30.427  25.855  1.00  0.00     0.029 C 
ATOM     16  N   UNL A   1      33.740  32.556  27.707  1.00  0.00    -0.259 N 
ATOM     17  C   UNL A   1      34.587  31.476  27.726  1.00  0.00     0.294 C 
ATOM     18  C   UNL A   1      32.460  32.304  27.248  1.00  0.00     0.268 C 
ATOM     19  O   UNL A   1      35.802  31.467  27.776  1.00  0.00    -0.261 OA
ATOM     20  S   UNL A   1      33.652  30.005  27.608  1.00  0.00    -0.022 SA
ATOM     21  C   UNL A   1      32.360  30.862  26.854  1.00  0.00     0.083 C 
ATOM     22  O   UNL A   1      31.571  33.122  27.074  1.00  0.00    -0.268 OA
BRANCH  16  23
ATOM     23  C   UNL A   1      34.287  33.905  27.758  1.00  0.00     0.230 C 
BRANCH  23  24
ATOM     24  C   UNL A   1      33.896  34.643  29.045  1.00  0.00     0.244 C 
ATOM     25  N   UNL A   1      34.653  34.552  30.179  1.00  0.00    -0.325 N 
ATOM     26  H   UNL A   1      34.616  35.351  30.753  1.00  0.00     0.169 HD
ATOM     27  O   UNL A   1      32.915  35.393  29.070  1.00  0.00    -0.273 OA
BRANCH  25  28
ATOM     28  C   UNL A   1      35.470  33.527  30.669  1.00  0.00     0.041 A 
ATOM     29  C   UNL A   1      37.749  30.129  32.035  1.00  0.00     0.044 C 
ATOM     30  C   UNL A   1      36.941  31.301  31.568  1.00  0.00    -0.051 A 
ATOM     31  C   UNL A   1      37.519  32.242  30.712  1.00  0.00     0.005 A 
ATOM     32  C   UNL A   1      35.613  31.476  31.966  1.00  0.00     0.005 A 
ATOM     33  C   UNL A   1      36.789  33.345  30.263  1.00  0.00     0.026 A 
ATOM     34  C   UNL A   1      34.880  32.575  31.507  1.00  0.00     0.026 A 
ENDBRANCH  25  28
ENDBRANCH  23  24
ENDBRANCH  16  23
ENDBRANCH   8  15
ENDBRANCH   6   7
ENDBRANCH   5   6
ENDBRANCH   1   5
BRANCH   3  35
ATOM     35  C   UNL A   1      36.098  23.231  23.524  1.00  0.00     0.117 C 
BRANCH  35  36
ATOM     36  C   UNL A   1      37.079  22.530  24.444  1.00  0.00     0.042 C 
BRANCH  36  37
ATOM     37  C   UNL A   1      37.587  23.413  25.576  1.00  0.00     0.118 C 
BRANCH  37  38
ATOM     38  N   UNL A   1      38.433  22.720  26.545  1.00  0.00    -0.352 N 
ATOM     39  C   UNL A   1      39.673  23.117  27.030  1.00  0.00     0.251 C 
ATOM     40  H   UNL A   1      38.082  21.869  26.897  1.00  0.00     0.163 HD
ATOM     41  O   UNL A   1      40.492  22.321  27.475  1.00  0.00    -0.269 OA
BRANCH  39  42
ATOM     42  C   UNL A   1      39.895  24.570  27.180  1.00  0.00     0.039 A 
ATOM     43  C   UNL A   1      40.623  25.214  26.168  1.00  0.00     0.014 A 
ATOM     44  C   UNL A   1      39.755  25.142  28.435  1.00  0.00     0.014 A 
ATOM     45  C   UNL A   1      41.433  26.291  26.495  1.00  0.00     0.010 A 
ATOM     46  C   UNL A   1      40.681  26.078  28.800  1.00  0.00     0.010 A 
ATOM     47  C   UNL A   1      41.545  26.620  27.837  1.00  0.00    -0.014 A 
BRANCH  47  48
ATOM     48  C   UNL A   1      42.452  27.600  28.389  1.00  0.00     0.031 A 
ATOM     49  C   UNL A   1      41.856  28.897  28.759  1.00  0.00     0.074 A 
ATOM     50  C   UNL A   1      43.653  27.165  28.829  1.00  0.00     0.049 A 
ATOM     51  N   UNL A   1      42.508  29.885  29.245  1.00  0.00    -0.248 NA
ATOM     52  C   UNL A   1      40.432  29.190  28.577  1.00  0.00     0.031 C 
ATOM     53  C   UNL A   1      44.513  27.760  29.846  1.00  0.00     0.029 A 
ATOM     54  N   UNL A   1      44.435  26.148  28.270  1.00  0.00    -0.354 N 
ATOM     55  C   UNL A   1      41.592  30.802  29.716  1.00  0.00     0.074 A 
ATOM     56  C   UNL A   1      40.328  30.378  29.177  1.00  0.00     0.031 C 
ATOM     57  C   UNL A   1      45.769  27.311  29.671  1.00  0.00     0.029 A 
ATOM     58  C   UNL A   1      45.777  26.556  28.428  1.00  0.00     0.049 A 
ATOM     59  H   UNL A   1      44.115  25.317  27.853  1.00  0.00     0.167 HD
ATOM     60  C   UNL A   1      42.032  31.719  30.620  1.00  0.00     0.037 A 
ATOM     61  C   UNL A   1      46.507  26.913  27.327  1.00  0.00     0.037 A 
ATOM     62  C   UNL A   1      43.496  31.684  30.655  1.00  0.00     0.049 A 
ATOM     63  C   UNL A   1      46.876  28.381  27.330  1.00  0.00     0.074 A 
ATOM     64  C   UNL A   1      44.404  31.086  31.510  1.00  0.00     0.029 A 
ATOM     65  N   UNL A   1      44.194  32.003  29.492  1.00  0.00    -0.354 N 
ATOM     66  N   UNL A   1      46.195  29.310  27.949  1.00  0.00    -0.248 NA
ATOM     67  C   UNL A   1      48.088  28.901  26.705  1.00  0.00     0.031 C 
ATOM     68  C   UNL A   1      45.629  30.940  30.798  1.00  0.00     0.029 A 
ATOM     69  C   UNL A   1      45.474  31.485  29.533  1.00  0.00     0.049 A 
ATOM     70  H   UNL A   1      43.826  32.527  28.744  1.00  0.00     0.167 HD
ATOM     71  C   UNL A   1      46.848  30.511  27.836  1.00  0.00     0.074 A 
ATOM     72  C   UNL A   1      48.030  30.198  27.053  1.00  0.00     0.031 C 
ATOM     73  C   UNL A   1      46.384  31.666  28.408  1.00  0.00     0.037 A 
BRANCH  60  74
ATOM     74  C   UNL A   1      41.192  32.493  31.621  1.00  0.00     0.058 A 
ATOM     75  C   UNL A   1      40.771  31.856  32.812  1.00  0.00     0.135 A 
ATOM     76  C   UNL A   1      40.666  33.792  31.446  1.00  0.00     0.135 A 
ATOM     77  F   UNL A   1      41.192  30.623  33.128  1.00  0.00    -0.206 F 
ATOM     78  C   UNL A   1      39.881  32.437  33.720  1.00  0.00     0.059 A 
ATOM     79  C   UNL A   1      39.791  34.401  32.351  1.00  0.00     0.059 A 
ATOM     80  F   UNL A   1      40.936  34.541  30.374  1.00  0.00    -0.206 F 
ATOM     81  C   UNL A   1      39.387  33.710  33.479  1.00  0.00     0.060 A 
BRANCH  81  82
ATOM     82  S   UNL A   1      38.220  34.439  34.640  1.00  0.00     0.124 S 
ATOM     83  O   UNL A   1      37.195  34.967  33.744  1.00  0.00    -0.237 OA
ATOM     84  O   UNL A   1      37.829  33.289  35.448  1.00  0.00    -0.237 OA
ATOM     85  O   UNL A   1      39.015  35.446  35.337  1.00  0.00    -0.744 OA
ENDBRANCH  81  82
ENDBRANCH  60  74
BRANCH  61  86
ATOM     86  C   UNL A   1      46.175  26.069  26.136  1.00  0.00     0.058 A 
ATOM     87  C   UNL A   1      46.820  24.816  26.054  1.00  0.00     0.135 A 
ATOM     88  C   UNL A   1      44.948  26.201  25.466  1.00  0.00     0.135 A 
ATOM     89  F   UNL A   1      48.016  24.642  26.641  1.00  0.00    -0.206 F 
ATOM     90  C   UNL A   1      46.181  23.692  25.539  1.00  0.00     0.059 A 
ATOM     91  C   UNL A   1      44.298  25.086  24.921  1.00  0.00     0.059 A 
ATOM     92  F   UNL A   1      44.292  27.370  25.482  1.00  0.00    -0.206 F 
ATOM     93  C   UNL A   1      44.884  23.826  25.052  1.00  0.00     0.060 A 
BRANCH  93  94
ATOM     94  S   UNL A   1      43.927  22.310  24.781  1.00  0.00     0.124 S 
ATOM     95  O   UNL A   1      44.276  21.970  23.407  1.00  0.00    -0.237 OA
ATOM     96  O   UNL A   1      44.473  21.421  25.809  1.00  0.00    -0.237 OA
ATOM     97  O   UNL A   1      42.551  22.743  24.988  1.00  0.00    -0.744 OA
ENDBRANCH  93  94
ENDBRANCH  61  86
BRANCH  73  98
ATOM     98  C   UNL A   1      46.821  33.073  28.037  1.00  0.00     0.058 A 
ATOM     99  C   UNL A   1      47.989  33.688  28.519  1.00  0.00     0.135 A 
ATOM    100  C   UNL A   1      46.126  33.809  27.042  1.00  0.00     0.135 A 
ATOM    101  F   UNL A   1      48.833  33.056  29.344  1.00  0.00    -0.206 F 
ATOM    102  C   UNL A   1      48.376  34.972  28.133  1.00  0.00     0.059 A 
ATOM    103  C   UNL A   1      46.538  35.057  26.585  1.00  0.00     0.059 A 
ATOM    104  F   UNL A   1      45.018  33.335  26.452  1.00  0.00    -0.206 F 
ATOM    105  C   UNL A   1      47.641  35.653  27.169  1.00  0.00     0.060 A 
BRANCH 105 106
ATOM    106  S   UNL A   1      48.158  37.299  26.662  1.00  0.00     0.124 S 
ATOM    107  O   UNL A   1      46.915  38.050  26.818  1.00  0.00    -0.237 OA
ATOM    108  O   UNL A   1      49.209  37.614  27.624  1.00  0.00    -0.237 OA
ATOM    109  O   UNL A   1      48.611  37.104  25.290  1.00  0.00    -0.744 OA
ENDBRANCH 105 106
ENDBRANCH  73  98
ENDBRANCH  47  48
ENDBRANCH  39  42
ENDBRANCH  37  38
ENDBRANCH  36  37
ENDBRANCH  35  36
ENDBRANCH   3  35
TORSDOF 19
ENDMDL
MODEL 2
REMARK VINA RESULT:     -11.8      6.296      9.917
REMARK SMILES Cc1ccc(NC(=O)CN2C(=O)S/C(=C\c3cc(Cl)c(OCC(=O)NCCCNC(=O)c4ccc(-c5c6nc(c(-c7c(F)cc(S(=O)(=O)[O-])cc7F)c7ccc([nH]7)c(-c7c(F)cc(S(=O)(=O)[O-])cc7F)c7nc(c(-c8c(F)cc(S(=O)(=O)[O-])cc8F)c8ccc5[nH]8)C=C7)C=C6)cc4)c(Cl)c3)C2=O)cc1
REMARK SMILES IDX 23 1 24 2 25 3 22 5 21 6 20 7 16 8 17 9 100 10 18 11 98 12
REMARK SMILES IDX 19 13 99 14 15 15 10 16 11 17 101 18 12 19 13 20 14 21
REMARK SMILES IDX 102 22 9 23 7 24 6 25 8 27 5 28 1 29 2 30 3 31 104 32 4 33
REMARK SMILES IDX 103 34 26 35 27 36 28 37 29 38 30 39 31 41 32 42 33 43 97 44
REMARK SMILES IDX 34 45 96 46 35 47 36 48 37 49 90 50 38 51 95 52 89 53 91 54
REMARK SMILES IDX 39 55 94 56 88 57 87 58 40 60 74 61 53 62 73 63 54 64 57 65
REMARK SMILES IDX 72 66 92 67 55 68 56 69 71 71 93 72 58 73 41 74 42 75 51 76
REMARK SMILES IDX 43 77 44 78 50 79 52 80 45 81 46 82 47 83 48 84 49 85 75 86
REMARK SMILES IDX 76 87 85 88 77 89 78 90 84 91 86 92 79 93 80 94 81 95 82 96
REMARK SMILES IDX 83 97 59 98 60 99 69 100 61 101 62 102 68 103 70 104 63 105
REMARK SMILES IDX 64 106 65 107 66 108 67 109
REMARK H PARENT 25 4 6 26 29 40 91 59 57 70
REMARK Flexibility Score: inf
ROOT
ATOM      1  C   UNL A   1      42.958  21.166  25.798  1.00  0.00     0.257 C 
ATOM      2  O   UNL A   1      42.666  19.993  25.567  1.00  0.00    -0.271 OA
ATOM      3  N   UNL A   1      43.662  21.839  24.844  1.00  0.00    -0.353 N 
ATOM      4  H   UNL A   1      43.993  21.284  24.100  1.00  0.00     0.163 HD
ENDROOT
BRANCH   1   5
ATOM      5  C   UNL A   1      42.507  21.882  27.088  1.00  0.00     0.329 C 
BRANCH   5   6
ATOM      6  O   UNL A   1      41.200  21.663  27.586  1.00  0.00    -0.481 OA
BRANCH   6   7
ATOM      7  C   UNL A   1      40.063  22.046  26.924  1.00  0.00     0.157 A 
ATOM      8  C   UNL A   1      37.728  23.202  25.717  1.00  0.00    -0.021 A 
ATOM      9  C   UNL A   1      38.587  23.993  26.469  1.00  0.00     0.032 A 
ATOM     10  C   UNL A   1      38.035  21.840  25.609  1.00  0.00     0.032 A 
ATOM     11  C   UNL A   1      39.728  23.417  27.070  1.00  0.00     0.085 A 
ATOM     12  C   UNL A   1      39.216  21.281  26.122  1.00  0.00     0.085 A 
ATOM     13  Cl  UNL A   1      40.744  24.487  27.988  1.00  0.00    -0.080 Cl
ATOM     14  Cl  UNL A   1      39.526  19.691  25.525  1.00  0.00    -0.080 Cl
BRANCH   8  15
ATOM     15  C   UNL A   1      36.489  23.713  25.088  1.00  0.00     0.029 C 
ATOM     16  N   UNL A   1      33.154  22.472  24.971  1.00  0.00    -0.259 N 
ATOM     17  C   UNL A   1      33.717  21.270  25.319  1.00  0.00     0.294 C 
ATOM     18  C   UNL A   1      34.045  23.468  24.616  1.00  0.00     0.268 C 
ATOM     19  O   UNL A   1      33.222  20.357  25.951  1.00  0.00    -0.261 OA
ATOM     20  S   UNL A   1      35.369  21.218  24.754  1.00  0.00    -0.022 SA
ATOM     21  C   UNL A   1      35.441  22.940  24.743  1.00  0.00     0.083 C 
ATOM     22  O   UNL A   1      33.776  24.629  24.346  1.00  0.00    -0.268 OA
BRANCH  16  23
ATOM     23  C   UNL A   1      31.784  22.770  25.365  1.00  0.00     0.230 C 
BRANCH  23  24
ATOM     24  C   UNL A   1      31.710  23.477  26.724  1.00  0.00     0.244 C 
ATOM     25  N   UNL A   1      31.057  24.668  26.876  1.00  0.00    -0.325 N 
ATOM     26  H   UNL A   1      30.672  24.805  27.772  1.00  0.00     0.169 HD
ATOM     27  O   UNL A   1      32.188  22.953  27.736  1.00  0.00    -0.273 OA
BRANCH  25  28
ATOM     28  C   UNL A   1      30.839  25.726  25.987  1.00  0.00     0.041 A 
ATOM     29  C   UNL A   1      30.516  28.949  23.137  1.00  0.00     0.044 C 
ATOM     30  C   UNL A   1      30.645  27.838  24.134  1.00  0.00    -0.051 A 
ATOM     31  C   UNL A   1      29.807  26.723  24.038  1.00  0.00     0.005 A 
ATOM     32  C   UNL A   1      31.591  27.885  25.161  1.00  0.00     0.005 A 
ATOM     33  C   UNL A   1      29.905  25.673  24.956  1.00  0.00     0.026 A 
ATOM     34  C   UNL A   1      31.696  26.829  26.072  1.00  0.00     0.026 A 
ENDBRANCH  25  28
ENDBRANCH  23  24
ENDBRANCH  16  23
ENDBRANCH   8  15
ENDBRANCH   6   7
ENDBRANCH   5   6
ENDBRANCH   1   5
BRANCH   3  35
ATOM     35  C   UNL A   1      43.999  23.249  24.758  1.00  0.00     0.117 C 
BRANCH  35  36
ATOM     36  C   UNL A   1      45.495  23.493  24.769  1.00  0.00     0.042 C 
BRANCH  36  37
ATOM     37  C   UNL A   1      46.072  23.663  26.168  1.00  0.00     0.118 C 
BRANCH  37  38
ATOM     38  N   UNL A   1      46.528  25.018  26.470  1.00  0.00    -0.352 N 
ATOM     39  C   UNL A   1      46.190  25.807  27.564  1.00  0.00     0.251 C 
ATOM     40  H   UNL A   1      47.149  25.422  25.820  1.00  0.00     0.163 HD
ATOM     41  O   UNL A   1      46.246  27.031  27.535  1.00  0.00    -0.269 OA
BRANCH  39  42
ATOM     42  C   UNL A   1      45.952  25.104  28.842  1.00  0.00     0.039 A 
ATOM     43  C   UNL A   1      44.689  24.522  29.026  1.00  0.00     0.014 A 
ATOM     44  C   UNL A   1      46.776  25.382  29.921  1.00  0.00     0.014 A 
ATOM     45  C   UNL A   1      44.144  24.472  30.301  1.00  0.00     0.010 A 
ATOM     46  C   UNL A   1      46.181  25.504  31.145  1.00  0.00     0.010 A 
ATOM     47  C   UNL A   1      44.853  25.086  31.321  1.00  0.00    -0.014 A 
BRANCH  47  48
ATOM     48  C   UNL A   1      44.384  25.276  32.674  1.00  0.00     0.031 A 
ATOM     49  C   UNL A   1      43.949  26.642  33.022  1.00  0.00     0.074 A 
ATOM     50  C   UNL A   1      44.065  24.176  33.389  1.00  0.00     0.049 A 
ATOM     51  N   UNL A   1      43.521  26.999  34.174  1.00  0.00    -0.248 NA
ATOM     52  C   UNL A   1      43.991  27.749  32.064  1.00  0.00     0.031 C 
ATOM     53  C   UNL A   1      43.132  24.060  34.503  1.00  0.00     0.029 A 
ATOM     54  N   UNL A   1      44.704  22.931  33.346  1.00  0.00    -0.354 N 
ATOM     55  C   UNL A   1      42.957  28.250  34.044  1.00  0.00     0.074 A 
ATOM     56  C   UNL A   1      43.375  28.715  32.749  1.00  0.00     0.031 C 
ATOM     57  C   UNL A   1      43.430  22.954  35.209  1.00  0.00     0.029 A 
ATOM     58  C   UNL A   1      44.673  22.430  34.665  1.00  0.00     0.049 A 
ATOM     59  H   UNL A   1      45.094  22.493  32.556  1.00  0.00     0.167 HD
ATOM     60  C   UNL A   1      42.093  28.652  35.016  1.00  0.00     0.037 A 
ATOM     61  C   UNL A   1      45.837  22.341  35.380  1.00  0.00     0.037 A 
ATOM     62  C   UNL A   1      42.200  27.734  36.153  1.00  0.00     0.049 A 
ATOM     63  C   UNL A   1      45.859  23.280  36.566  1.00  0.00     0.074 A 
ATOM     64  C   UNL A   1      41.441  26.654  36.566  1.00  0.00     0.029 A 
ATOM     65  N   UNL A   1      43.422  27.639  36.814  1.00  0.00    -0.354 N 
ATOM     66  N   UNL A   1      45.171  24.390  36.640  1.00  0.00    -0.248 NA
ATOM     67  C   UNL A   1      46.594  22.998  37.795  1.00  0.00     0.031 C 
ATOM     68  C   UNL A   1      42.269  25.842  37.392  1.00  0.00     0.029 A 
ATOM     69  C   UNL A   1      43.509  26.450  37.511  1.00  0.00     0.049 A 
ATOM     70  H   UNL A   1      44.128  28.325  36.789  1.00  0.00     0.167 HD
ATOM     71  C   UNL A   1      45.338  24.954  37.879  1.00  0.00     0.074 A 
ATOM     72  C   UNL A   1      46.233  24.039  38.565  1.00  0.00     0.031 C 
ATOM     73  C   UNL A   1      44.715  26.113  38.259  1.00  0.00     0.037 A 
BRANCH  60  74
ATOM     74  C   UNL A   1      41.011  29.710  34.897  1.00  0.00     0.058 A 
ATOM     75  C   UNL A   1      40.925  30.729  35.875  1.00  0.00     0.135 A 
ATOM     76  C   UNL A   1      39.966  29.736  33.946  1.00  0.00     0.135 A 
ATOM     77  F   UNL A   1      41.848  30.845  36.841  1.00  0.00    -0.206 F 
ATOM     78  C   UNL A   1      39.882  31.657  35.928  1.00  0.00     0.059 A 
ATOM     79  C   UNL A   1      38.924  30.669  33.967  1.00  0.00     0.059 A 
ATOM     80  F   UNL A   1      39.868  28.844  32.958  1.00  0.00    -0.206 F 
ATOM     81  C   UNL A   1      38.878  31.616  34.974  1.00  0.00     0.060 A 
BRANCH  81  82
ATOM     82  S   UNL A   1      37.522  32.798  35.067  1.00  0.00     0.124 S 
ATOM     83  O   UNL A   1      36.597  32.274  34.066  1.00  0.00    -0.237 OA
ATOM     84  O   UNL A   1      37.098  32.672  36.456  1.00  0.00    -0.237 OA
ATOM     85  O   UNL A   1      38.153  34.070  34.723  1.00  0.00    -0.744 OA
ENDBRANCH  81  82
ENDBRANCH  60  74
BRANCH  61  86
ATOM     86  C   UNL A   1      46.997  21.951  34.517  1.00  0.00     0.058 A 
ATOM     87  C   UNL A   1      48.020  22.912  34.368  1.00  0.00     0.135 A 
ATOM     88  C   UNL A   1      47.353  20.605  34.336  1.00  0.00     0.135 A 
ATOM     89  F   UNL A   1      47.731  24.220  34.489  1.00  0.00    -0.206 F 
ATOM     90  C   UNL A   1      49.360  22.551  34.276  1.00  0.00     0.059 A 
ATOM     91  C   UNL A   1      48.695  20.223  34.220  1.00  0.00     0.059 A 
ATOM     92  F   UNL A   1      46.427  19.642  34.440  1.00  0.00    -0.206 F 
ATOM     93  C   UNL A   1      49.690  21.199  34.289  1.00  0.00     0.060 A 
BRANCH  93  94
ATOM     94  S   UNL A   1      51.422  20.758  34.591  1.00  0.00     0.124 S 
ATOM     95  O   UNL A   1      52.078  21.251  33.385  1.00  0.00    -0.237 OA
ATOM     96  O   UNL A   1      51.714  21.506  35.816  1.00  0.00    -0.237 OA
ATOM     97  O   UNL A   1      51.378  19.308  34.732  1.00  0.00    -0.744 OA
ENDBRANCH  93  94
ENDBRANCH  61  86
BRANCH  73  98
ATOM     98  C   UNL A   1      45.117  26.987  39.434  1.00  0.00     0.058 A 
ATOM     99  C   UNL A   1      44.816  26.692  40.775  1.00  0.00     0.135 A 
ATOM    100  C   UNL A   1      45.967  28.109  39.247  1.00  0.00     0.135 A 
ATOM    101  F   UNL A   1      44.154  25.580  41.123  1.00  0.00    -0.206 F 
ATOM    102  C   UNL A   1      45.227  27.502  41.835  1.00  0.00     0.059 A 
ATOM    103  C   UNL A   1      46.453  28.884  40.296  1.00  0.00     0.059 A 
ATOM    104  F   UNL A   1      46.380  28.491  38.030  1.00  0.00    -0.206 F 
ATOM    105  C   UNL A   1      46.041  28.601  41.585  1.00  0.00     0.060 A 
BRANCH 105 106
ATOM    106  S   UNL A   1      46.583  29.629  42.957  1.00  0.00     0.124 S 
ATOM    107  O   UNL A   1      48.006  29.774  42.662  1.00  0.00    -0.237 OA
ATOM    108  O   UNL A   1      45.779  30.835  42.790  1.00  0.00    -0.237 OA
ATOM    109  O   UNL A   1      46.259  28.826  44.131  1.00  0.00    -0.744 OA
ENDBRANCH 105 106
ENDBRANCH  73  98
ENDBRANCH  47  48
ENDBRANCH  39  42
ENDBRANCH  37  38
ENDBRANCH  36  37
ENDBRANCH  35  36
ENDBRANCH   3  35
TORSDOF 19
ENDMDL
MODEL 3
REMARK VINA RESULT:     -11.2      3.307      9.729
REMARK SMILES Cc1ccc(NC(=O)CN2C(=O)S/C(=C\c3cc(Cl)c(OCC(=O)NCCCNC(=O)c4ccc(-c5c6nc(c(-c7c(F)cc(S(=O)(=O)[O-])cc7F)c7ccc([nH]7)c(-c7c(F)cc(S(=O)(=O)[O-])cc7F)c7nc(c(-c8c(F)cc(S(=O)(=O)[O-])cc8F)c8ccc5[nH]8)C=C7)C=C6)cc4)c(Cl)c3)C2=O)cc1
REMARK SMILES IDX 23 1 24 2 25 3 22 5 21 6 20 7 16 8 17 9 100 10 18 11 98 12
REMARK SMILES IDX 19 13 99 14 15 15 10 16 11 17 101 18 12 19 13 20 14 21
REMARK SMILES IDX 102 22 9 23 7 24 6 25 8 27 5 28 1 29 2 30 3 31 104 32 4 33
REMARK SMILES IDX 103 34 26 35 27 36 28 37 29 38 30 39 31 41 32 42 33 43 97 44
REMARK SMILES IDX 34 45 96 46 35 47 36 48 37 49 90 50 38 51 95 52 89 53 91 54
REMARK SMILES IDX 39 55 94 56 88 57 87 58 40 60 74 61 53 62 73 63 54 64 57 65
REMARK SMILES IDX 72 66 92 67 55 68 56 69 71 71 93 72 58 73 41 74 42 75 51 76
REMARK SMILES IDX 43 77 44 78 50 79 52 80 45 81 46 82 47 83 48 84 49 85 75 86
REMARK SMILES IDX 76 87 85 88 77 89 78 90 84 91 86 92 79 93 80 94 81 95 82 96
REMARK SMILES IDX 83 97 59 98 60 99 69 100 61 101 62 102 68 103 70 104 63 105
REMARK SMILES IDX 64 106 65 107 66 108 67 109
REMARK H PARENT 25 4 6 26 29 40 91 59 57 70
REMARK Flexibility Score: inf
ROOT
ATOM      1  C   UNL A   1      35.098  33.293  30.981  1.00  0.00     0.257 C 
ATOM      2  O   UNL A   1      33.955  33.725  31.132  1.00  0.00    -0.271 OA
ATOM      3  N   UNL A   1      35.539  32.357  31.868  1.00  0.00    -0.353 N 
ATOM      4  H   UNL A   1      34.946  32.200  32.639  1.00  0.00     0.163 HD
ENDROOT
BRANCH   1   5
ATOM      5  C   UNL A   1      35.992  33.742  29.807  1.00  0.00     0.329 C 
BRANCH   5   6
ATOM      6  O   UNL A   1      35.638  33.382  28.484  1.00  0.00    -0.481 OA
BRANCH   6   7
ATOM      7  C   UNL A   1      35.279  32.113  28.115  1.00  0.00     0.157 A 
ATOM      8  C   UNL A   1      34.152  29.598  27.307  1.00  0.00    -0.021 A 
ATOM      9  C   UNL A   1      33.374  30.748  27.284  1.00  0.00     0.032 A 
ATOM     10  C   UNL A   1      35.471  29.720  27.765  1.00  0.00     0.032 A 
ATOM     11  C   UNL A   1      33.930  31.980  27.693  1.00  0.00     0.085 A 
ATOM     12  C   UNL A   1      36.056  30.955  28.080  1.00  0.00     0.085 A 
ATOM     13  Cl  UNL A   1      32.880  33.364  27.625  1.00  0.00    -0.080 Cl
ATOM     14  Cl  UNL A   1      37.773  30.868  28.242  1.00  0.00    -0.080 Cl
BRANCH   8  15
ATOM     15  C   UNL A   1      33.640  28.259  26.936  1.00  0.00     0.029 C 
ATOM     16  N   UNL A   1      33.541  26.487  23.850  1.00  0.00    -0.259 N 
ATOM     17  C   UNL A   1      33.729  27.719  23.274  1.00  0.00     0.294 C 
ATOM     18  C   UNL A   1      33.257  26.497  25.203  1.00  0.00     0.268 C 
ATOM     19  O   UNL A   1      34.279  27.988  22.223  1.00  0.00    -0.261 OA
ATOM     20  S   UNL A   1      33.086  28.955  24.328  1.00  0.00    -0.022 SA
ATOM     21  C   UNL A   1      33.262  27.913  25.690  1.00  0.00     0.083 C 
ATOM     22  O   UNL A   1      33.130  25.525  25.931  1.00  0.00    -0.268 OA
BRANCH  16  23
ATOM     23  C   UNL A   1      34.028  25.291  23.174  1.00  0.00     0.230 C 
BRANCH  23  24
ATOM     24  C   UNL A   1      33.285  24.027  23.624  1.00  0.00     0.244 C 
ATOM     25  N   UNL A   1      33.828  23.167  24.537  1.00  0.00    -0.325 N 
ATOM     26  H   UNL A   1      33.164  22.689  25.085  1.00  0.00     0.169 HD
ATOM     27  O   UNL A   1      32.144  23.786  23.218  1.00  0.00    -0.273 OA
BRANCH  25  28
ATOM     28  C   UNL A   1      35.157  22.842  24.830  1.00  0.00     0.041 A 
ATOM     29  C   UNL A   1      39.160  21.843  26.090  1.00  0.00     0.044 C 
ATOM     30  C   UNL A   1      37.769  22.205  25.666  1.00  0.00    -0.051 A 
ATOM     31  C   UNL A   1      37.067  21.357  24.805  1.00  0.00     0.005 A 
ATOM     32  C   UNL A   1      37.150  23.374  26.116  1.00  0.00     0.005 A 
ATOM     33  C   UNL A   1      35.769  21.672  24.392  1.00  0.00     0.026 A 
ATOM     34  C   UNL A   1      35.848  23.682  25.711  1.00  0.00     0.026 A 
ENDBRANCH  25  28
ENDBRANCH  23  24
ENDBRANCH  16  23
ENDBRANCH   8  15
ENDBRANCH   6   7
ENDBRANCH   5   6
ENDBRANCH   1   5
BRANCH   3  35
ATOM     35  C   UNL A   1      36.750  31.556  31.850  1.00  0.00     0.117 C 
BRANCH  35  36
ATOM     36  C   UNL A   1      36.470  30.078  31.661  1.00  0.00     0.042 C 
BRANCH  36  37
ATOM     37  C   UNL A   1      37.399  29.176  32.463  1.00  0.00     0.118 C 
BRANCH  37  38
ATOM     38  N   UNL A   1      38.393  29.893  33.258  1.00  0.00    -0.352 N 
ATOM     39  C   UNL A   1      39.621  29.425  33.710  1.00  0.00     0.251 C 
ATOM     40  H   UNL A   1      38.167  30.820  33.502  1.00  0.00     0.163 HD
ATOM     41  O   UNL A   1      40.183  29.892  34.693  1.00  0.00    -0.269 OA
BRANCH  39  42
ATOM     42  C   UNL A   1      40.331  28.468  32.834  1.00  0.00     0.039 A 
ATOM     43  C   UNL A   1      41.681  28.219  33.122  1.00  0.00     0.014 A 
ATOM     44  C   UNL A   1      39.802  28.185  31.585  1.00  0.00     0.014 A 
ATOM     45  C   UNL A   1      42.558  27.946  32.082  1.00  0.00     0.010 A 
ATOM     46  C   UNL A   1      40.680  28.098  30.541  1.00  0.00     0.010 A 
ATOM     47  C   UNL A   1      42.058  28.019  30.792  1.00  0.00    -0.014 A 
BRANCH  47  48
ATOM     48  C   UNL A   1      42.840  27.922  29.580  1.00  0.00     0.031 A 
ATOM     49  C   UNL A   1      43.473  26.616  29.322  1.00  0.00     0.074 A 
ATOM     50  C   UNL A   1      42.663  28.877  28.642  1.00  0.00     0.049 A 
ATOM     51  N   UNL A   1      44.213  26.353  28.311  1.00  0.00    -0.248 NA
ATOM     52  C   UNL A   1      43.331  25.478  30.233  1.00  0.00     0.031 C 
ATOM     53  C   UNL A   1      42.884  28.783  27.203  1.00  0.00     0.029 A 
ATOM     54  N   UNL A   1      42.410  30.236  28.861  1.00  0.00    -0.354 N 
ATOM     55  C   UNL A   1      44.388  24.986  28.263  1.00  0.00     0.074 A 
ATOM     56  C   UNL A   1      43.920  24.505  29.534  1.00  0.00     0.031 C 
ATOM     57  C   UNL A   1      43.034  30.023  26.703  1.00  0.00     0.029 A 
ATOM     58  C   UNL A   1      43.090  30.930  27.838  1.00  0.00     0.049 A 
ATOM     59  H   UNL A   1      41.867  30.628  29.582  1.00  0.00     0.167 HD
ATOM     60  C   UNL A   1      44.785  24.447  27.078  1.00  0.00     0.037 A 
ATOM     61  C   UNL A   1      44.185  31.690  28.151  1.00  0.00     0.037 A 
ATOM     62  C   UNL A   1      45.220  25.527  26.189  1.00  0.00     0.049 A 
ATOM     63  C   UNL A   1      45.460  31.137  27.554  1.00  0.00     0.074 A 
ATOM     64  C   UNL A   1      44.602  26.199  25.150  1.00  0.00     0.029 A 
ATOM     65  N   UNL A   1      46.306  26.307  26.578  1.00  0.00    -0.354 N 
ATOM     66  N   UNL A   1      45.646  29.878  27.251  1.00  0.00    -0.248 NA
ATOM     67  C   UNL A   1      46.593  31.974  27.176  1.00  0.00     0.031 C 
ATOM     68  C   UNL A   1      45.260  27.452  25.001  1.00  0.00     0.029 A 
ATOM     69  C   UNL A   1      46.298  27.520  25.918  1.00  0.00     0.049 A 
ATOM     70  H   UNL A   1      46.988  26.032  27.233  1.00  0.00     0.167 HD
ATOM     71  C   UNL A   1      46.866  29.727  26.641  1.00  0.00     0.074 A 
ATOM     72  C   UNL A   1      47.415  31.071  26.614  1.00  0.00     0.031 C 
ATOM     73  C   UNL A   1      47.325  28.520  26.186  1.00  0.00     0.037 A 
BRANCH  60  74
ATOM     74  C   UNL A   1      44.597  23.012  26.618  1.00  0.00     0.058 A 
ATOM     75  C   UNL A   1      45.653  22.355  25.944  1.00  0.00     0.135 A 
ATOM     76  C   UNL A   1      43.404  22.260  26.688  1.00  0.00     0.135 A 
ATOM     77  F   UNL A   1      46.855  22.934  25.803  1.00  0.00    -0.206 F 
ATOM     78  C   UNL A   1      45.525  21.092  25.361  1.00  0.00     0.059 A 
ATOM     79  C   UNL A   1      43.258  20.985  26.131  1.00  0.00     0.059 A 
ATOM     80  F   UNL A   1      42.294  22.720  27.270  1.00  0.00    -0.206 F 
ATOM     81  C   UNL A   1      44.319  20.414  25.451  1.00  0.00     0.060 A 
BRANCH  81  82
ATOM     82  S   UNL A   1      44.153  18.799  24.672  1.00  0.00     0.124 S 
ATOM     83  O   UNL A   1      42.873  18.339  25.202  1.00  0.00    -0.237 OA
ATOM     84  O   UNL A   1      44.171  19.137  23.253  1.00  0.00    -0.237 OA
ATOM     85  O   UNL A   1      45.322  18.066  25.151  1.00  0.00    -0.744 OA
ENDBRANCH  81  82
ENDBRANCH  60  74
BRANCH  61  86
ATOM     86  C   UNL A   1      44.031  32.377  29.472  1.00  0.00     0.058 A 
ATOM     87  C   UNL A   1      43.253  33.556  29.480  1.00  0.00     0.135 A 
ATOM     88  C   UNL A   1      44.130  31.670  30.680  1.00  0.00     0.135 A 
ATOM     89  F   UNL A   1      43.154  34.297  28.363  1.00  0.00    -0.206 F 
ATOM     90  C   UNL A   1      42.435  33.889  30.554  1.00  0.00     0.059 A 
ATOM     91  C   UNL A   1      43.331  32.003  31.781  1.00  0.00     0.059 A 
ATOM     92  F   UNL A   1      44.871  30.555  30.751  1.00  0.00    -0.206 F 
ATOM     93  C   UNL A   1      42.420  33.055  31.668  1.00  0.00     0.060 A 
BRANCH  93  94
ATOM     94  S   UNL A   1      41.067  33.260  32.856  1.00  0.00     0.124 S 
ATOM     95  O   UNL A   1      40.067  32.332  32.344  1.00  0.00    -0.237 OA
ATOM     96  O   UNL A   1      41.707  32.866  34.113  1.00  0.00    -0.237 OA
ATOM     97  O   UNL A   1      40.730  34.673  32.737  1.00  0.00    -0.744 OA
ENDBRANCH  93  94
ENDBRANCH  61  86
BRANCH  73  98
ATOM     98  C   UNL A   1      48.770  28.194  25.850  1.00  0.00     0.058 A 
ATOM     99  C   UNL A   1      49.837  28.315  26.757  1.00  0.00     0.135 A 
ATOM    100  C   UNL A   1      49.109  27.596  24.608  1.00  0.00     0.135 A 
ATOM    101  F   UNL A   1      49.649  28.716  28.021  1.00  0.00    -0.206 F 
ATOM    102  C   UNL A   1      51.150  27.977  26.424  1.00  0.00     0.059 A 
ATOM    103  C   UNL A   1      50.397  27.180  24.284  1.00  0.00     0.059 A 
ATOM    104  F   UNL A   1      48.192  27.372  23.655  1.00  0.00    -0.206 F 
ATOM    105  C   UNL A   1      51.422  27.416  25.182  1.00  0.00     0.060 A 
BRANCH 105 106
ATOM    106  S   UNL A   1      53.112  26.966  24.767  1.00  0.00     0.124 S 
ATOM    107  O   UNL A   1      53.869  27.847  25.651  1.00  0.00    -0.237 OA
ATOM    108  O   UNL A   1      53.157  25.546  25.103  1.00  0.00    -0.237 OA
ATOM    109  O   UNL A   1      53.204  27.269  23.343  1.00  0.00    -0.744 OA
ENDBRANCH 105 106
ENDBRANCH  73  98
ENDBRANCH  47  48
ENDBRANCH  39  42
ENDBRANCH  37  38
ENDBRANCH  36  37
ENDBRANCH  35  36
ENDBRANCH   3  35
TORSDOF 19
ENDMDL
