MODEL 1
REMARK VINA RESULT:     -10.7      0.000      0.000
REMARK SMILES CC[NH2+]C[C@@H](C)C(=O)N1CCO[C@@H](CC(=O)NCCCNC(=O)c2ccc(-c3c4nc(c(-c5c(F)cc(S(=O)(=O)[O-])cc5F)c5ccc([nH]5)c(-c5c(F)cc(S(=O)(=O)[O-])cc5F)c5nc(c(-c6c(F)cc(S(=O)(=O)[O-])cc6F)c6ccc3[nH]6)C=C5)C=C4)cc2)C1
REMARK SMILES IDX 15 1 16 2 17 3 14 5 13 6 9 7 10 8 90 9 11 10 12 11 7 12 8 13
REMARK SMILES IDX 5 14 6 15 4 16 3 17 2 20 1 21 18 22 19 23 20 24 21 25 22 26
REMARK SMILES IDX 23 28 24 29 25 30 89 31 26 32 88 33 27 34 28 35 29 36 82 37
REMARK SMILES IDX 30 38 87 39 81 40 83 41 31 42 86 43 80 44 79 45 32 47 66 48
REMARK SMILES IDX 45 49 65 50 46 51 49 52 64 53 84 54 47 55 48 56 63 58 85 59
REMARK SMILES IDX 50 60 33 61 34 62 43 63 35 64 36 65 42 66 44 67 37 68 38 69
REMARK SMILES IDX 39 70 40 71 41 72 67 73 68 74 77 75 69 76 70 77 76 78 78 79
REMARK SMILES IDX 71 80 72 81 73 82 74 83 75 84 51 85 52 86 61 87 53 88 54 89
REMARK SMILES IDX 60 90 62 91 55 92 56 93 57 94 58 95 59 96
REMARK H PARENT 17 4 3 18 3 19 21 27 83 46 49 57
REMARK Flexibility Score: inf
ROOT
ATOM      1  C   UNL A   1      31.673  28.561  26.991  1.00  0.00     0.222 C 
ATOM      2  O   UNL A   1      31.084  27.710  27.661  1.00  0.00    -0.275 OA
ATOM      3  N   UNL A   1      32.542  29.394  27.632  1.00  0.00    -0.356 N 
ATOM      4  H   UNL A   1      32.641  29.213  28.595  1.00  0.00     0.163 HD
ENDROOT
BRANCH   1   5
ATOM      5  C   UNL A   1      31.409  28.687  25.507  1.00  0.00     0.133 C 
BRANCH   5   6
ATOM      6  C   UNL A   1      32.632  28.317  24.663  1.00  0.00     0.147 C 
ATOM      7  N   UNL A   1      33.659  26.359  23.479  1.00  0.00    -0.337 N 
ATOM      8  C   UNL A   1      33.505  27.082  22.222  1.00  0.00     0.148 C 
ATOM      9  C   UNL A   1      32.717  26.797  24.489  1.00  0.00     0.152 C 
ATOM     10  C   UNL A   1      33.543  28.588  22.479  1.00  0.00     0.182 C 
ATOM     11  O   UNL A   1      32.491  28.974  23.382  1.00  0.00    -0.374 OA
BRANCH   7  12
ATOM     12  C   UNL A   1      33.932  24.994  23.482  1.00  0.00     0.231 C 
ATOM     13  O   UNL A   1      34.043  24.361  22.432  1.00  0.00    -0.274 OA
BRANCH  12  14
ATOM     14  C   UNL A   1      33.886  24.284  24.834  1.00  0.00     0.130 C 
ATOM     15  C   UNL A   1      35.260  24.347  25.505  1.00  0.00     0.024 C 
BRANCH  14  16
ATOM     16  C   UNL A   1      33.320  22.867  24.724  1.00  0.00     0.273 C 
BRANCH  16  17
ATOM     17  N   UNL A   1      34.237  21.844  24.219  1.00  0.00    -0.346 N 
ATOM     18  H   UNL A   1      33.762  21.318  23.485  1.00  0.00     0.346 HD
ATOM     19  H   UNL A   1      35.065  22.327  23.872  1.00  0.00     0.346 HD
BRANCH  17  20
ATOM     20  C   UNL A   1      34.683  20.905  25.248  1.00  0.00     0.257 C 
ATOM     21  C   UNL A   1      36.160  20.613  25.036  1.00  0.00     0.071 C 
ENDBRANCH  17  20
ENDBRANCH  16  17
ENDBRANCH  14  16
ENDBRANCH  12  14
ENDBRANCH   7  12
ENDBRANCH   5   6
ENDBRANCH   1   5
BRANCH   3  22
ATOM     22  C   UNL A   1      33.354  30.507  27.145  1.00  0.00     0.117 C 
BRANCH  22  23
ATOM     23  C   UNL A   1      34.856  30.240  27.278  1.00  0.00     0.042 C 
BRANCH  23  24
ATOM     24  C   UNL A   1      35.614  31.255  28.121  1.00  0.00     0.118 C 
BRANCH  24  25
ATOM     25  N   UNL A   1      35.532  30.948  29.538  1.00  0.00    -0.352 N 
ATOM     26  C   UNL A   1      36.406  30.265  30.351  1.00  0.00     0.251 C 
ATOM     27  H   UNL A   1      34.723  31.282  29.988  1.00  0.00     0.163 HD
ATOM     28  O   UNL A   1      36.007  29.897  31.455  1.00  0.00    -0.269 OA
BRANCH  26  29
ATOM     29  C   UNL A   1      37.802  29.960  29.936  1.00  0.00     0.039 A 
ATOM     30  C   UNL A   1      38.041  29.620  28.599  1.00  0.00     0.014 A 
ATOM     31  C   UNL A   1      38.860  29.906  30.849  1.00  0.00     0.014 A 
ATOM     32  C   UNL A   1      39.328  29.261  28.177  1.00  0.00     0.010 A 
ATOM     33  C   UNL A   1      40.158  29.627  30.412  1.00  0.00     0.010 A 
ATOM     34  C   UNL A   1      40.405  29.277  29.076  1.00  0.00    -0.014 A 
BRANCH  34  35
ATOM     35  C   UNL A   1      41.779  28.892  28.645  1.00  0.00     0.031 A 
ATOM     36  C   UNL A   1      42.878  29.925  28.596  1.00  0.00     0.074 A 
ATOM     37  C   UNL A   1      42.037  27.626  28.261  1.00  0.00     0.049 A 
ATOM     38  N   UNL A   1      44.118  29.797  28.194  1.00  0.00    -0.248 NA
ATOM     39  C   UNL A   1      42.530  31.286  29.032  1.00  0.00     0.031 C 
ATOM     40  C   UNL A   1      41.060  26.537  28.226  1.00  0.00     0.029 A 
ATOM     41  N   UNL A   1      43.200  27.042  27.819  1.00  0.00    -0.354 N 
ATOM     42  C   UNL A   1      44.690  31.059  28.310  1.00  0.00     0.074 A 
ATOM     43  C   UNL A   1      43.647  31.950  28.775  1.00  0.00     0.031 C 
ATOM     44  C   UNL A   1      41.668  25.414  27.809  1.00  0.00     0.029 A 
ATOM     45  C   UNL A   1      43.067  25.708  27.511  1.00  0.00     0.049 A 
ATOM     46  H   UNL A   1      44.049  27.532  27.731  1.00  0.00     0.167 HD
ATOM     47  C   UNL A   1      45.968  31.441  28.073  1.00  0.00     0.037 A 
ATOM     48  C   UNL A   1      43.965  24.823  27.036  1.00  0.00     0.037 A 
ATOM     49  C   UNL A   1      47.015  30.550  27.645  1.00  0.00     0.049 A 
ATOM     50  C   UNL A   1      45.381  25.267  26.785  1.00  0.00     0.074 A 
ATOM     51  C   UNL A   1      48.354  30.831  27.439  1.00  0.00     0.029 A 
ATOM     52  N   UNL A   1      46.841  29.203  27.357  1.00  0.00    -0.354 N 
ATOM     53  N   UNL A   1      45.915  26.454  26.952  1.00  0.00    -0.248 NA
ATOM     54  C   UNL A   1      46.319  24.253  26.283  1.00  0.00     0.031 C 
ATOM     55  C   UNL A   1      48.982  29.663  26.989  1.00  0.00     0.029 A 
ATOM     56  C   UNL A   1      48.043  28.645  26.955  1.00  0.00     0.049 A 
ATOM     57  H   UNL A   1      45.988  28.717  27.428  1.00  0.00     0.167 HD
ATOM     58  C   UNL A   1      47.253  26.323  26.595  1.00  0.00     0.074 A 
ATOM     59  C   UNL A   1      47.452  24.940  26.217  1.00  0.00     0.031 C 
ATOM     60  C   UNL A   1      48.229  27.266  26.581  1.00  0.00     0.037 A 
BRANCH  47  61
ATOM     61  C   UNL A   1      46.309  32.894  28.275  1.00  0.00     0.058 A 
ATOM     62  C   UNL A   1      46.771  33.379  29.509  1.00  0.00     0.135 A 
ATOM     63  C   UNL A   1      46.201  33.808  27.213  1.00  0.00     0.135 A 
ATOM     64  F   UNL A   1      46.883  32.553  30.561  1.00  0.00    -0.206 F 
ATOM     65  C   UNL A   1      47.077  34.724  29.695  1.00  0.00     0.059 A 
ATOM     66  C   UNL A   1      46.528  35.152  27.368  1.00  0.00     0.059 A 
ATOM     67  F   UNL A   1      45.769  33.397  26.010  1.00  0.00    -0.206 F 
ATOM     68  C   UNL A   1      46.948  35.604  28.619  1.00  0.00     0.060 A 
BRANCH  68  69
ATOM     69  S   UNL A   1      47.340  37.347  28.877  1.00  0.00     0.124 S 
ATOM     70  O   UNL A   1      47.999  37.685  27.620  1.00  0.00    -0.237 OA
ATOM     71  O   UNL A   1      46.022  37.939  29.080  1.00  0.00    -0.237 OA
ATOM     72  O   UNL A   1      48.204  37.331  30.054  1.00  0.00    -0.744 OA
ENDBRANCH  68  69
ENDBRANCH  47  61
BRANCH  48  73
ATOM     73  C   UNL A   1      43.554  23.415  26.786  1.00  0.00     0.058 A 
ATOM     74  C   UNL A   1      43.264  22.551  27.852  1.00  0.00     0.135 A 
ATOM     75  C   UNL A   1      43.427  22.912  25.481  1.00  0.00     0.135 A 
ATOM     76  F   UNL A   1      43.379  22.984  29.117  1.00  0.00    -0.206 F 
ATOM     77  C   UNL A   1      42.874  21.233  27.636  1.00  0.00     0.059 A 
ATOM     78  C   UNL A   1      43.016  21.605  25.240  1.00  0.00     0.059 A 
ATOM     79  F   UNL A   1      43.677  23.704  24.427  1.00  0.00    -0.206 F 
ATOM     80  C   UNL A   1      42.750  20.770  26.325  1.00  0.00     0.060 A 
BRANCH  80  81
ATOM     81  S   UNL A   1      42.192  19.073  26.057  1.00  0.00     0.124 S 
ATOM     82  O   UNL A   1      42.972  18.690  24.887  1.00  0.00    -0.237 OA
ATOM     83  O   UNL A   1      42.561  18.426  27.312  1.00  0.00    -0.237 OA
ATOM     84  O   UNL A   1      40.756  19.225  25.838  1.00  0.00    -0.744 OA
ENDBRANCH  80  81
ENDBRANCH  48  73
BRANCH  60  85
ATOM     85  C   UNL A   1      49.605  26.832  26.159  1.00  0.00     0.058 A 
ATOM     86  C   UNL A   1      50.039  26.955  24.830  1.00  0.00     0.135 A 
ATOM     87  C   UNL A   1      50.518  26.335  27.103  1.00  0.00     0.135 A 
ATOM     88  F   UNL A   1      49.205  27.418  23.886  1.00  0.00    -0.206 F 
ATOM     89  C   UNL A   1      51.324  26.582  24.448  1.00  0.00     0.059 A 
ATOM     90  C   UNL A   1      51.816  25.980  26.749  1.00  0.00     0.059 A 
ATOM     91  F   UNL A   1      50.156  26.207  28.390  1.00  0.00    -0.206 F 
ATOM     92  C   UNL A   1      52.206  26.096  25.416  1.00  0.00     0.060 A 
BRANCH  92  93
ATOM     93  S   UNL A   1      53.882  25.648  24.913  1.00  0.00     0.124 S 
ATOM     94  O   UNL A   1      53.935  26.180  23.556  1.00  0.00    -0.237 OA
ATOM     95  O   UNL A   1      54.703  26.343  25.900  1.00  0.00    -0.237 OA
ATOM     96  O   UNL A   1      53.889  24.191  25.018  1.00  0.00    -0.744 OA
ENDBRANCH  92  93
ENDBRANCH  60  85
ENDBRANCH  34  35
ENDBRANCH  26  29
ENDBRANCH  24  25
ENDBRANCH  23  24
ENDBRANCH  22  23
ENDBRANCH   3  22
TORSDOF 19
ENDMDL
MODEL 2
REMARK VINA RESULT:     -10.7      6.584     12.233
REMARK SMILES CC[NH2+]C[C@@H](C)C(=O)N1CCO[C@@H](CC(=O)NCCCNC(=O)c2ccc(-c3c4nc(c(-c5c(F)cc(S(=O)(=O)[O-])cc5F)c5ccc([nH]5)c(-c5c(F)cc(S(=O)(=O)[O-])cc5F)c5nc(c(-c6c(F)cc(S(=O)(=O)[O-])cc6F)c6ccc3[nH]6)C=C5)C=C4)cc2)C1
REMARK SMILES IDX 15 1 16 2 17 3 14 5 13 6 9 7 10 8 90 9 11 10 12 11 7 12 8 13
REMARK SMILES IDX 5 14 6 15 4 16 3 17 2 20 1 21 18 22 19 23 20 24 21 25 22 26
REMARK SMILES IDX 23 28 24 29 25 30 89 31 26 32 88 33 27 34 28 35 29 36 82 37
REMARK SMILES IDX 30 38 87 39 81 40 83 41 31 42 86 43 80 44 79 45 32 47 66 48
REMARK SMILES IDX 45 49 65 50 46 51 49 52 64 53 84 54 47 55 48 56 63 58 85 59
REMARK SMILES IDX 50 60 33 61 34 62 43 63 35 64 36 65 42 66 44 67 37 68 38 69
REMARK SMILES IDX 39 70 40 71 41 72 67 73 68 74 77 75 69 76 70 77 76 78 78 79
REMARK SMILES IDX 71 80 72 81 73 82 74 83 75 84 51 85 52 86 61 87 53 88 54 89
REMARK SMILES IDX 60 90 62 91 55 92 56 93 57 94 58 95 59 96
REMARK H PARENT 17 4 3 18 3 19 21 27 83 46 49 57
REMARK Flexibility Score: inf
ROOT
ATOM      1  C   UNL A   1      37.658  22.930  25.767  1.00  0.00     0.222 C 
ATOM      2  O   UNL A   1      37.175  24.017  26.089  1.00  0.00    -0.275 OA
ATOM      3  N   UNL A   1      38.831  22.551  26.352  1.00  0.00    -0.356 N 
ATOM      4  H   UNL A   1      39.177  23.189  27.018  1.00  0.00     0.163 HD
ENDROOT
BRANCH   1   5
ATOM      5  C   UNL A   1      36.978  22.064  24.731  1.00  0.00     0.133 C 
BRANCH   5   6
ATOM      6  C   UNL A   1      35.454  22.211  24.756  1.00  0.00     0.147 C 
ATOM      7  N   UNL A   1      33.537  22.852  23.271  1.00  0.00    -0.337 N 
ATOM      8  C   UNL A   1      33.012  21.500  23.424  1.00  0.00     0.148 C 
ATOM      9  C   UNL A   1      34.969  22.917  23.486  1.00  0.00     0.152 C 
ATOM     10  C   UNL A   1      33.455  20.918  24.766  1.00  0.00     0.182 C 
ATOM     11  O   UNL A   1      34.890  20.883  24.853  1.00  0.00    -0.374 OA
BRANCH   7  12
ATOM     12  C   UNL A   1      33.053  23.691  22.271  1.00  0.00     0.231 C 
ATOM     13  O   UNL A   1      33.415  23.566  21.100  1.00  0.00    -0.274 OA
BRANCH  12  14
ATOM     14  C   UNL A   1      32.219  24.889  22.719  1.00  0.00     0.130 C 
ATOM     15  C   UNL A   1      33.128  26.093  22.975  1.00  0.00     0.024 C 
BRANCH  14  16
ATOM     16  C   UNL A   1      31.303  24.548  23.897  1.00  0.00     0.273 C 
BRANCH  16  17
ATOM     17  N   UNL A   1      29.908  24.972  23.771  1.00  0.00    -0.346 N 
ATOM     18  H   UNL A   1      29.702  25.118  22.782  1.00  0.00     0.346 HD
ATOM     19  H   UNL A   1      29.331  24.236  24.179  1.00  0.00     0.346 HD
BRANCH  17  20
ATOM     20  C   UNL A   1      29.608  26.207  24.494  1.00  0.00     0.257 C 
ATOM     21  C   UNL A   1      30.515  26.296  25.711  1.00  0.00     0.071 C 
ENDBRANCH  17  20
ENDBRANCH  16  17
ENDBRANCH  14  16
ENDBRANCH  12  14
ENDBRANCH   7  12
ENDBRANCH   5   6
ENDBRANCH   1   5
BRANCH   3  22
ATOM     22  C   UNL A   1      39.666  21.366  26.168  1.00  0.00     0.117 C 
BRANCH  22  23
ATOM     23  C   UNL A   1      41.113  21.591  26.614  1.00  0.00     0.042 C 
BRANCH  23  24
ATOM     24  C   UNL A   1      41.420  23.000  27.101  1.00  0.00     0.118 C 
BRANCH  24  25
ATOM     25  N   UNL A   1      41.964  23.830  26.041  1.00  0.00    -0.352 N 
ATOM     26  C   UNL A   1      41.989  25.198  25.908  1.00  0.00     0.251 C 
ATOM     27  H   UNL A   1      42.381  23.334  25.299  1.00  0.00     0.163 HD
ATOM     28  O   UNL A   1      42.263  25.671  24.806  1.00  0.00    -0.269 OA
BRANCH  26  29
ATOM     29  C   UNL A   1      41.697  26.111  27.045  1.00  0.00     0.039 A 
ATOM     30  C   UNL A   1      42.500  27.246  27.213  1.00  0.00     0.014 A 
ATOM     31  C   UNL A   1      40.717  25.828  28.002  1.00  0.00     0.014 A 
ATOM     32  C   UNL A   1      42.305  28.100  28.306  1.00  0.00     0.010 A 
ATOM     33  C   UNL A   1      40.470  26.722  29.048  1.00  0.00     0.010 A 
ATOM     34  C   UNL A   1      41.274  27.856  29.227  1.00  0.00    -0.014 A 
BRANCH  34  35
ATOM     35  C   UNL A   1      41.057  28.750  30.399  1.00  0.00     0.031 A 
ATOM     36  C   UNL A   1      41.913  28.607  31.634  1.00  0.00     0.074 A 
ATOM     37  C   UNL A   1      40.070  29.667  30.378  1.00  0.00     0.049 A 
ATOM     38  N   UNL A   1      41.839  29.249  32.773  1.00  0.00    -0.248 NA
ATOM     39  C   UNL A   1      42.975  27.590  31.591  1.00  0.00     0.031 C 
ATOM     40  C   UNL A   1      39.146  29.888  29.264  1.00  0.00     0.029 A 
ATOM     41  N   UNL A   1      39.672  30.581  31.324  1.00  0.00    -0.354 N 
ATOM     42  C   UNL A   1      42.827  28.703  33.585  1.00  0.00     0.074 A 
ATOM     43  C   UNL A   1      43.456  27.644  32.825  1.00  0.00     0.031 C 
ATOM     44  C   UNL A   1      38.306  30.888  29.581  1.00  0.00     0.029 A 
ATOM     45  C   UNL A   1      38.603  31.353  30.932  1.00  0.00     0.049 A 
ATOM     46  H   UNL A   1      40.110  30.674  32.200  1.00  0.00     0.167 HD
ATOM     47  C   UNL A   1      43.194  29.061  34.840  1.00  0.00     0.037 A 
ATOM     48  C   UNL A   1      37.934  32.323  31.586  1.00  0.00     0.037 A 
ATOM     49  C   UNL A   1      42.593  30.137  35.584  1.00  0.00     0.049 A 
ATOM     50  C   UNL A   1      38.362  32.709  32.978  1.00  0.00     0.074 A 
ATOM     51  C   UNL A   1      42.938  30.615  36.837  1.00  0.00     0.029 A 
ATOM     52  N   UNL A   1      41.523  30.903  35.146  1.00  0.00    -0.354 N 
ATOM     53  N   UNL A   1      39.334  32.215  33.708  1.00  0.00    -0.248 NA
ATOM     54  C   UNL A   1      37.604  33.783  33.634  1.00  0.00     0.031 C 
ATOM     55  C   UNL A   1      42.051  31.645  37.172  1.00  0.00     0.029 A 
ATOM     56  C   UNL A   1      41.181  31.837  36.111  1.00  0.00     0.049 A 
ATOM     57  H   UNL A   1      41.073  30.799  34.277  1.00  0.00     0.167 HD
ATOM     58  C   UNL A   1      39.317  32.933  34.899  1.00  0.00     0.074 A 
ATOM     59  C   UNL A   1      38.248  33.904  34.787  1.00  0.00     0.031 C 
ATOM     60  C   UNL A   1      40.114  32.798  35.988  1.00  0.00     0.037 A 
BRANCH  47  61
ATOM     61  C   UNL A   1      44.304  28.278  35.490  1.00  0.00     0.058 A 
ATOM     62  C   UNL A   1      44.045  27.147  36.280  1.00  0.00     0.135 A 
ATOM     63  C   UNL A   1      45.646  28.648  35.298  1.00  0.00     0.135 A 
ATOM     64  F   UNL A   1      42.781  26.755  36.506  1.00  0.00    -0.206 F 
ATOM     65  C   UNL A   1      45.072  26.431  36.887  1.00  0.00     0.059 A 
ATOM     66  C   UNL A   1      46.692  27.931  35.873  1.00  0.00     0.059 A 
ATOM     67  F   UNL A   1      45.951  29.719  34.549  1.00  0.00    -0.206 F 
ATOM     68  C   UNL A   1      46.393  26.833  36.681  1.00  0.00     0.060 A 
BRANCH  68  69
ATOM     69  S   UNL A   1      47.715  25.901  37.481  1.00  0.00     0.124 S 
ATOM     70  O   UNL A   1      47.323  24.527  37.181  1.00  0.00    -0.237 OA
ATOM     71  O   UNL A   1      48.905  26.385  36.789  1.00  0.00    -0.237 OA
ATOM     72  O   UNL A   1      47.607  26.292  38.884  1.00  0.00    -0.744 OA
ENDBRANCH  68  69
ENDBRANCH  47  61
BRANCH  48  73
ATOM     73  C   UNL A   1      36.797  33.014  30.922  1.00  0.00     0.058 A 
ATOM     74  C   UNL A   1      37.023  33.968  29.919  1.00  0.00     0.135 A 
ATOM     75  C   UNL A   1      35.466  32.724  31.263  1.00  0.00     0.135 A 
ATOM     76  F   UNL A   1      38.278  34.285  29.564  1.00  0.00    -0.206 F 
ATOM     77  C   UNL A   1      35.971  34.620  29.283  1.00  0.00     0.059 A 
ATOM     78  C   UNL A   1      34.397  33.347  30.625  1.00  0.00     0.059 A 
ATOM     79  F   UNL A   1      35.197  31.807  32.205  1.00  0.00    -0.206 F 
ATOM     80  C   UNL A   1      34.660  34.300  29.642  1.00  0.00     0.060 A 
BRANCH  80  81
ATOM     81  S   UNL A   1      33.303  35.115  28.773  1.00  0.00     0.124 S 
ATOM     82  O   UNL A   1      32.499  35.609  29.884  1.00  0.00    -0.237 OA
ATOM     83  O   UNL A   1      34.003  36.129  27.991  1.00  0.00    -0.237 OA
ATOM     84  O   UNL A   1      32.708  34.033  27.994  1.00  0.00    -0.744 OA
ENDBRANCH  80  81
ENDBRANCH  48  73
BRANCH  60  85
ATOM     85  C   UNL A   1      39.875  33.732  37.142  1.00  0.00     0.058 A 
ATOM     86  C   UNL A   1      40.547  34.960  37.245  1.00  0.00     0.135 A 
ATOM     87  C   UNL A   1      38.926  33.419  38.128  1.00  0.00     0.135 A 
ATOM     88  F   UNL A   1      41.468  35.306  36.333  1.00  0.00    -0.206 F 
ATOM     89  C   UNL A   1      40.301  35.836  38.298  1.00  0.00     0.059 A 
ATOM     90  C   UNL A   1      38.645  34.291  39.176  1.00  0.00     0.059 A 
ATOM     91  F   UNL A   1      38.248  32.261  38.071  1.00  0.00    -0.206 F 
ATOM     92  C   UNL A   1      39.346  35.493  39.258  1.00  0.00     0.060 A 
BRANCH  92  93
ATOM     93  S   UNL A   1      39.012  36.655  40.600  1.00  0.00     0.124 S 
ATOM     94  O   UNL A   1      38.471  37.798  39.872  1.00  0.00    -0.237 OA
ATOM     95  O   UNL A   1      38.057  35.918  41.423  1.00  0.00    -0.237 OA
ATOM     96  O   UNL A   1      40.324  36.859  41.206  1.00  0.00    -0.744 OA
ENDBRANCH  92  93
ENDBRANCH  60  85
ENDBRANCH  34  35
ENDBRANCH  26  29
ENDBRANCH  24  25
ENDBRANCH  23  24
ENDBRANCH  22  23
ENDBRANCH   3  22
TORSDOF 19
ENDMDL
MODEL 3
REMARK VINA RESULT:     -10.6      1.179      2.254
REMARK SMILES CC[NH2+]C[C@@H](C)C(=O)N1CCO[C@@H](CC(=O)NCCCNC(=O)c2ccc(-c3c4nc(c(-c5c(F)cc(S(=O)(=O)[O-])cc5F)c5ccc([nH]5)c(-c5c(F)cc(S(=O)(=O)[O-])cc5F)c5nc(c(-c6c(F)cc(S(=O)(=O)[O-])cc6F)c6ccc3[nH]6)C=C5)C=C4)cc2)C1
REMARK SMILES IDX 15 1 16 2 17 3 14 5 13 6 9 7 10 8 90 9 11 10 12 11 7 12 8 13
REMARK SMILES IDX 5 14 6 15 4 16 3 17 2 20 1 21 18 22 19 23 20 24 21 25 22 26
REMARK SMILES IDX 23 28 24 29 25 30 89 31 26 32 88 33 27 34 28 35 29 36 82 37
REMARK SMILES IDX 30 38 87 39 81 40 83 41 31 42 86 43 80 44 79 45 32 47 66 48
REMARK SMILES IDX 45 49 65 50 46 51 49 52 64 53 84 54 47 55 48 56 63 58 85 59
REMARK SMILES IDX 50 60 33 61 34 62 43 63 35 64 36 65 42 66 44 67 37 68 38 69
REMARK SMILES IDX 39 70 40 71 41 72 67 73 68 74 77 75 69 76 70 77 76 78 78 79
REMARK SMILES IDX 71 80 72 81 73 82 74 83 75 84 51 85 52 86 61 87 53 88 54 89
REMARK SMILES IDX 60 90 62 91 55 92 56 93 57 94 58 95 59 96
REMARK H PARENT 17 4 3 18 3 19 21 27 83 46 49 57
REMARK Flexibility Score: inf
ROOT
ATOM      1  C   UNL A   1      31.989  28.460  25.589  1.00  0.00     0.222 C 
ATOM      2  O   UNL A   1      31.584  28.262  24.442  1.00  0.00    -0.275 OA
ATOM      3  N   UNL A   1      32.470  29.699  25.896  1.00  0.00    -0.356 N 
ATOM      4  H   UNL A   1      32.420  30.347  25.156  1.00  0.00     0.163 HD
ENDROOT
BRANCH   1   5
ATOM      5  C   UNL A   1      31.975  27.345  26.611  1.00  0.00     0.133 C 
BRANCH   5   6
ATOM      6  C   UNL A   1      31.720  25.975  25.977  1.00  0.00     0.147 C 
ATOM      7  N   UNL A   1      32.657  23.649  25.928  1.00  0.00    -0.337 N 
ATOM      8  C   UNL A   1      31.408  23.170  26.509  1.00  0.00     0.148 C 
ATOM      9  C   UNL A   1      32.910  25.044  26.229  1.00  0.00     0.152 C 
ATOM     10  C   UNL A   1      30.261  24.098  26.113  1.00  0.00     0.182 C 
ATOM     11  O   UNL A   1      30.514  25.439  26.568  1.00  0.00    -0.374 OA
BRANCH   7  12
ATOM     12  C   UNL A   1      33.787  22.837  25.910  1.00  0.00     0.231 C 
ATOM     13  O   UNL A   1      34.283  22.406  26.953  1.00  0.00    -0.274 OA
BRANCH  12  14
ATOM     14  C   UNL A   1      34.498  22.671  24.569  1.00  0.00     0.130 C 
ATOM     15  C   UNL A   1      33.469  22.548  23.443  1.00  0.00     0.024 C 
BRANCH  14  16
ATOM     16  C   UNL A   1      35.523  21.534  24.593  1.00  0.00     0.273 C 
BRANCH  16  17
ATOM     17  N   UNL A   1      36.930  21.934  24.542  1.00  0.00    -0.346 N 
ATOM     18  H   UNL A   1      37.412  21.522  25.341  1.00  0.00     0.346 HD
ATOM     19  H   UNL A   1      37.305  21.602  23.654  1.00  0.00     0.346 HD
BRANCH  17  20
ATOM     20  C   UNL A   1      37.124  23.383  24.580  1.00  0.00     0.257 C 
ATOM     21  C   UNL A   1      37.849  23.747  25.866  1.00  0.00     0.071 C 
ENDBRANCH  17  20
ENDBRANCH  16  17
ENDBRANCH  14  16
ENDBRANCH  12  14
ENDBRANCH   7  12
ENDBRANCH   5   6
ENDBRANCH   1   5
BRANCH   3  22
ATOM     22  C   UNL A   1      33.044  30.238  27.127  1.00  0.00     0.117 C 
BRANCH  22  23
ATOM     23  C   UNL A   1      34.486  29.778  27.353  1.00  0.00     0.042 C 
BRANCH  23  24
ATOM     24  C   UNL A   1      35.418  30.844  27.910  1.00  0.00     0.118 C 
BRANCH  24  25
ATOM     25  N   UNL A   1      35.441  30.835  29.361  1.00  0.00    -0.352 N 
ATOM     26  C   UNL A   1      36.351  30.285  30.232  1.00  0.00     0.251 C 
ATOM     27  H   UNL A   1      34.685  31.298  29.790  1.00  0.00     0.163 HD
ATOM     28  O   UNL A   1      36.030  30.171  31.415  1.00  0.00    -0.269 OA
BRANCH  26  29
ATOM     29  C   UNL A   1      37.695  29.826  29.790  1.00  0.00     0.039 A 
ATOM     30  C   UNL A   1      38.611  29.409  30.765  1.00  0.00     0.014 A 
ATOM     31  C   UNL A   1      38.108  29.887  28.456  1.00  0.00     0.014 A 
ATOM     32  C   UNL A   1      39.911  29.031  30.403  1.00  0.00     0.010 A 
ATOM     33  C   UNL A   1      39.377  29.433  28.086  1.00  0.00     0.010 A 
ATOM     34  C   UNL A   1      40.303  29.022  29.056  1.00  0.00    -0.014 A 
BRANCH  34  35
ATOM     35  C   UNL A   1      41.683  28.630  28.654  1.00  0.00     0.031 A 
ATOM     36  C   UNL A   1      42.785  29.660  28.611  1.00  0.00     0.074 A 
ATOM     37  C   UNL A   1      41.947  27.359  28.291  1.00  0.00     0.049 A 
ATOM     38  N   UNL A   1      44.031  29.526  28.233  1.00  0.00    -0.248 NA
ATOM     39  C   UNL A   1      42.431  31.027  29.024  1.00  0.00     0.031 C 
ATOM     40  C   UNL A   1      40.969  26.270  28.252  1.00  0.00     0.029 A 
ATOM     41  N   UNL A   1      43.116  26.768  27.876  1.00  0.00    -0.354 N 
ATOM     42  C   UNL A   1      44.603  30.789  28.343  1.00  0.00     0.074 A 
ATOM     43  C   UNL A   1      43.554  31.686  28.778  1.00  0.00     0.031 C 
ATOM     44  C   UNL A   1      41.582  25.141  27.860  1.00  0.00     0.029 A 
ATOM     45  C   UNL A   1      42.986  25.431  27.583  1.00  0.00     0.049 A 
ATOM     46  H   UNL A   1      43.967  27.256  27.797  1.00  0.00     0.167 HD
ATOM     47  C   UNL A   1      45.886  31.166  28.123  1.00  0.00     0.037 A 
ATOM     48  C   UNL A   1      43.891  24.538  27.135  1.00  0.00     0.037 A 
ATOM     49  C   UNL A   1      46.939  30.268  27.725  1.00  0.00     0.049 A 
ATOM     50  C   UNL A   1      45.312  24.977  26.903  1.00  0.00     0.074 A 
ATOM     51  C   UNL A   1      48.282  30.544  27.539  1.00  0.00     0.029 A 
ATOM     52  N   UNL A   1      46.767  28.918  27.451  1.00  0.00    -0.354 N 
ATOM     53  N   UNL A   1      45.845  26.166  27.064  1.00  0.00    -0.248 NA
ATOM     54  C   UNL A   1      46.257  23.955  26.430  1.00  0.00     0.031 C 
ATOM     55  C   UNL A   1      48.916  29.371  27.114  1.00  0.00     0.029 A 
ATOM     56  C   UNL A   1      47.976  28.354  27.078  1.00  0.00     0.049 A 
ATOM     57  H   UNL A   1      45.913  28.434  27.514  1.00  0.00     0.167 HD
ATOM     58  C   UNL A   1      47.189  26.028  26.732  1.00  0.00     0.074 A 
ATOM     59  C   UNL A   1      47.392  24.640  26.376  1.00  0.00     0.031 C 
ATOM     60  C   UNL A   1      48.166  26.969  26.724  1.00  0.00     0.037 A 
BRANCH  47  61
ATOM     61  C   UNL A   1      46.226  32.621  28.313  1.00  0.00     0.058 A 
ATOM     62  C   UNL A   1      46.126  33.545  27.261  1.00  0.00     0.135 A 
ATOM     63  C   UNL A   1      46.629  33.103  29.569  1.00  0.00     0.135 A 
ATOM     64  F   UNL A   1      45.756  33.138  26.036  1.00  0.00    -0.206 F 
ATOM     65  C   UNL A   1      46.449  34.887  27.436  1.00  0.00     0.059 A 
ATOM     66  C   UNL A   1      46.931  34.446  29.775  1.00  0.00     0.059 A 
ATOM     67  F   UNL A   1      46.738  32.264  30.611  1.00  0.00    -0.206 F 
ATOM     68  C   UNL A   1      46.855  35.328  28.697  1.00  0.00     0.060 A 
BRANCH  68  69
ATOM     69  S   UNL A   1      47.279  37.070  28.908  1.00  0.00     0.124 S 
ATOM     70  O   UNL A   1      48.705  37.060  28.596  1.00  0.00    -0.237 OA
ATOM     71  O   UNL A   1      46.421  37.723  27.925  1.00  0.00    -0.237 OA
ATOM     72  O   UNL A   1      46.944  37.335  30.304  1.00  0.00    -0.744 OA
ENDBRANCH  68  69
ENDBRANCH  47  61
BRANCH  48  73
ATOM     73  C   UNL A   1      43.483  23.128  26.896  1.00  0.00     0.058 A 
ATOM     74  C   UNL A   1      43.414  22.610  25.594  1.00  0.00     0.135 A 
ATOM     75  C   UNL A   1      43.170  22.268  27.961  1.00  0.00     0.135 A 
ATOM     76  F   UNL A   1      43.696  23.396  24.544  1.00  0.00    -0.206 F 
ATOM     77  C   UNL A   1      43.039  21.292  25.353  1.00  0.00     0.059 A 
ATOM     78  C   UNL A   1      42.815  20.939  27.745  1.00  0.00     0.059 A 
ATOM     79  F   UNL A   1      43.236  22.710  29.225  1.00  0.00    -0.206 F 
ATOM     80  C   UNL A   1      42.744  20.463  26.437  1.00  0.00     0.060 A 
BRANCH  80  81
ATOM     81  S   UNL A   1      42.309  18.740  26.114  1.00  0.00     0.124 S 
ATOM     82  O   UNL A   1      40.886  18.847  25.817  1.00  0.00    -0.237 OA
ATOM     83  O   UNL A   1      43.175  18.411  24.985  1.00  0.00    -0.237 OA
ATOM     84  O   UNL A   1      42.646  18.070  27.367  1.00  0.00    -0.744 OA
ENDBRANCH  80  81
ENDBRANCH  48  73
BRANCH  60  85
ATOM     85  C   UNL A   1      49.549  26.528  26.331  1.00  0.00     0.058 A 
ATOM     86  C   UNL A   1      50.014  26.654  25.013  1.00  0.00     0.135 A 
ATOM     87  C   UNL A   1      50.437  26.022  27.294  1.00  0.00     0.135 A 
ATOM     88  F   UNL A   1      49.204  27.126  24.053  1.00  0.00    -0.206 F 
ATOM     89  C   UNL A   1      51.305  26.274  24.659  1.00  0.00     0.059 A 
ATOM     90  C   UNL A   1      51.740  25.660  26.968  1.00  0.00     0.059 A 
ATOM     91  F   UNL A   1      50.045  25.892  28.572  1.00  0.00    -0.206 F 
ATOM     92  C   UNL A   1      52.161  25.779  25.645  1.00  0.00     0.060 A 
BRANCH  92  93
ATOM     93  S   UNL A   1      53.845  25.322  25.179  1.00  0.00     0.124 S 
ATOM     94  O   UNL A   1      54.569  25.554  26.424  1.00  0.00    -0.237 OA
ATOM     95  O   UNL A   1      53.694  23.925  24.783  1.00  0.00    -0.237 OA
ATOM     96  O   UNL A   1      54.157  26.243  24.090  1.00  0.00    -0.744 OA
ENDBRANCH  92  93
ENDBRANCH  60  85
ENDBRANCH  34  35
ENDBRANCH  26  29
ENDBRANCH  24  25
ENDBRANCH  23  24
ENDBRANCH  22  23
ENDBRANCH   3  22
TORSDOF 19
ENDMDL
