MODEL 1
REMARK VINA RESULT:     -13.6      0.000      0.000
REMARK SMILES Cc1ccc(S(=O)(=O)n2cc(C(=O)C(=O)N[C@@H](Cc3c[nH]c4ccccc34)C(=O)NCC(=O)NCCCNC(=O)c3ccc(-c4c5nc(c(-c6c(F)cc(S(=O)(=O)[O-])cc6F)c6ccc([nH]6)c(-c6c(F)cc(S(=O)(=O)[O-])cc6F)c6nc(c(-c7c(F)cc(S(=O)(=O)[O-])cc7F)c7ccc4[nH]7)C=C6)C=C5)cc3)c3ccccc32)cc1
REMARK SMILES IDX 32 1 33 2 34 3 31 5 30 6 28 7 29 8 17 10 16 11 14 12 15 13
REMARK SMILES IDX 12 15 13 16 11 17 9 18 10 19 112 20 107 21 111 22 108 23
REMARK SMILES IDX 110 24 109 25 6 26 7 27 8 28 5 29 1 30 2 31 3 32 114 33 4 34
REMARK SMILES IDX 113 35 18 36 19 37 20 38 27 39 21 40 22 41 26 42 23 44 25 45
REMARK SMILES IDX 24 46 35 47 36 48 37 49 38 50 39 51 40 53 41 54 42 55 106 56
REMARK SMILES IDX 43 57 105 58 44 59 45 60 46 61 99 62 47 63 104 64 98 65
REMARK SMILES IDX 100 66 48 67 103 68 97 69 96 70 49 72 83 73 62 74 82 75
REMARK SMILES IDX 63 76 66 77 81 78 101 79 64 80 65 81 80 83 102 84 67 85
REMARK SMILES IDX 50 86 51 87 60 88 52 89 53 90 59 91 61 92 54 93 55 94 56 95
REMARK SMILES IDX 57 96 58 97 84 98 85 99 94 100 86 101 87 102 93 103 95 104
REMARK SMILES IDX 88 105 89 106 90 107 91 108 92 109 68 110 69 111 78 112
REMARK SMILES IDX 70 113 71 114 77 115 79 116 72 117 73 118 74 119 75 120
REMARK SMILES IDX 76 121
REMARK H PARENT 34 4 30 9 16 14 21 43 38 52 100 71 66 82
REMARK Flexibility Score: inf
ROOT
ATOM      1  C   UNL A   1      39.020  22.328  26.333  1.00  0.00     0.239 C 
ATOM      2  O   UNL A   1      39.502  21.245  25.999  1.00  0.00    -0.273 OA
ATOM      3  N   UNL A   1      39.696  23.136  27.206  1.00  0.00    -0.355 N 
ATOM      4  H   UNL A   1      40.585  22.831  27.496  1.00  0.00     0.163 HD
ENDROOT
BRANCH   1   5
ATOM      5  C   UNL A   1      37.687  22.819  25.768  1.00  0.00     0.216 C 
BRANCH   5   6
ATOM      6  N   UNL A   1      37.376  22.477  24.393  1.00  0.00    -0.345 N 
ATOM      7  C   UNL A   1      36.452  23.014  23.547  1.00  0.00     0.243 C 
ATOM      8  O   UNL A   1      36.709  22.925  22.339  1.00  0.00    -0.273 OA
ATOM      9  H   UNL A   1      37.915  21.747  24.013  1.00  0.00     0.164 HD
BRANCH   7  10
ATOM     10  C   UNL A   1      35.220  23.852  24.006  1.00  0.00     0.176 C 
BRANCH  10  11
ATOM     11  N   UNL A   1      33.913  23.568  23.391  1.00  0.00    -0.337 N 
ATOM     12  C   UNL A   1      32.913  24.416  22.924  1.00  0.00     0.293 C 
ATOM     13  O   UNL A   1      31.772  23.982  22.841  1.00  0.00    -0.265 OA
ATOM     14  H   UNL A   1      33.710  22.609  23.296  1.00  0.00     0.164 HD
BRANCH  12  15
ATOM     15  C   UNL A   1      33.237  25.869  22.534  1.00  0.00     0.252 C 
ATOM     16  O   UNL A   1      33.958  26.011  21.544  1.00  0.00    -0.283 OA
BRANCH  15  17
ATOM     17  C   UNL A   1      32.932  27.017  23.406  1.00  0.00     0.054 A 
ATOM     18  N   UNL A   1      32.923  28.775  24.814  1.00  0.00    -0.240 N 
ATOM     19  C   UNL A   1      33.682  27.698  24.380  1.00  0.00     0.117 A 
ATOM     20  C   UNL A   1      31.745  28.830  24.056  1.00  0.00     0.065 A 
ATOM     21  C   UNL A   1      31.624  27.592  23.442  1.00  0.00     0.012 A 
ATOM     22  C   UNL A   1      30.682  29.758  24.051  1.00  0.00     0.028 A 
ATOM     23  C   UNL A   1      30.353  27.195  22.971  1.00  0.00     0.011 A 
ATOM     24  C   UNL A   1      29.430  29.331  23.615  1.00  0.00     0.002 A 
ATOM     25  C   UNL A   1      29.256  28.047  23.124  1.00  0.00     0.001 A 
BRANCH  18  26
ATOM     26  S   UNL A   1      32.724  29.467  26.379  1.00  0.00     0.268 S 
ATOM     27  O   UNL A   1      32.743  28.295  27.244  1.00  0.00    -0.201 OA
ATOM     28  O   UNL A   1      31.484  30.221  26.214  1.00  0.00    -0.201 OA
BRANCH  26  29
ATOM     29  C   UNL A   1      33.727  30.634  27.219  1.00  0.00     0.088 A 
ATOM     30  C   UNL A   1      35.561  34.299  28.591  1.00  0.00     0.044 C 
ATOM     31  C   UNL A   1      34.941  32.995  28.176  1.00  0.00    -0.051 A 
ATOM     32  C   UNL A   1      33.577  32.987  27.923  1.00  0.00     0.005 A 
ATOM     33  C   UNL A   1      35.679  31.804  27.983  1.00  0.00     0.005 A 
ATOM     34  C   UNL A   1      32.986  31.823  27.462  1.00  0.00     0.022 A 
ATOM     35  C   UNL A   1      35.080  30.612  27.499  1.00  0.00     0.022 A 
ENDBRANCH  26  29
ENDBRANCH  18  26
ENDBRANCH  15  17
ENDBRANCH  12  15
ENDBRANCH  10  11
BRANCH  10  36
ATOM     36  C   UNL A   1      35.128  23.963  25.565  1.00  0.00     0.072 C 
BRANCH  36  37
ATOM     37  C   UNL A   1      33.939  23.324  26.248  1.00  0.00    -0.020 A 
ATOM     38  C   UNL A   1      33.891  22.026  26.728  1.00  0.00     0.087 A 
ATOM     39  C   UNL A   1      32.630  23.881  26.475  1.00  0.00     0.003 A 
ATOM     40  N   UNL A   1      32.600  21.741  27.091  1.00  0.00    -0.361 N 
ATOM     41  C   UNL A   1      31.792  22.822  26.832  1.00  0.00     0.046 A 
ATOM     42  C   UNL A   1      32.041  25.147  26.269  1.00  0.00     0.010 A 
ATOM     43  H   UNL A   1      32.297  20.889  27.480  1.00  0.00     0.166 HD
ATOM     44  C   UNL A   1      30.395  22.928  26.845  1.00  0.00     0.026 A 
ATOM     45  C   UNL A   1      30.646  25.263  26.242  1.00  0.00     0.001 A 
ATOM     46  C   UNL A   1      29.837  24.160  26.498  1.00  0.00     0.002 A 
ENDBRANCH  36  37
ENDBRANCH  10  36
ENDBRANCH   7  10
ENDBRANCH   5   6
ENDBRANCH   1   5
BRANCH   3  47
ATOM     47  C   UNL A   1      39.228  24.402  27.747  1.00  0.00     0.117 C 
BRANCH  47  48
ATOM     48  C   UNL A   1      39.683  25.572  26.882  1.00  0.00     0.042 C 
BRANCH  48  49
ATOM     49  C   UNL A   1      41.080  26.024  27.246  1.00  0.00     0.118 C 
BRANCH  49  50
ATOM     50  N   UNL A   1      41.913  26.400  26.111  1.00  0.00    -0.352 N 
ATOM     51  C   UNL A   1      42.040  27.666  25.557  1.00  0.00     0.251 C 
ATOM     52  H   UNL A   1      42.440  25.681  25.694  1.00  0.00     0.163 HD
ATOM     53  O   UNL A   1      42.615  27.894  24.511  1.00  0.00    -0.269 OA
BRANCH  51  54
ATOM     54  C   UNL A   1      41.578  28.779  26.414  1.00  0.00     0.039 A 
ATOM     55  C   UNL A   1      42.531  29.259  27.322  1.00  0.00     0.014 A 
ATOM     56  C   UNL A   1      40.212  28.940  26.630  1.00  0.00     0.014 A 
ATOM     57  C   UNL A   1      42.107  29.687  28.571  1.00  0.00     0.010 A 
ATOM     58  C   UNL A   1      39.802  29.260  27.910  1.00  0.00     0.010 A 
ATOM     59  C   UNL A   1      40.756  29.567  28.893  1.00  0.00    -0.014 A 
BRANCH  59  60
ATOM     60  C   UNL A   1      40.265  29.714  30.257  1.00  0.00     0.031 A 
ATOM     61  C   UNL A   1      39.484  30.924  30.587  1.00  0.00     0.074 A 
ATOM     62  C   UNL A   1      40.536  28.777  31.193  1.00  0.00     0.049 A 
ATOM     63  N   UNL A   1      39.317  31.400  31.771  1.00  0.00    -0.248 NA
ATOM     64  C   UNL A   1      38.886  31.750  29.545  1.00  0.00     0.031 C 
ATOM     65  C   UNL A   1      39.975  28.685  32.538  1.00  0.00     0.029 A 
ATOM     66  N   UNL A   1      41.585  27.849  31.184  1.00  0.00    -0.354 N 
ATOM     67  C   UNL A   1      38.407  32.432  31.685  1.00  0.00     0.074 A 
ATOM     68  C   UNL A   1      38.217  32.644  30.273  1.00  0.00     0.031 C 
ATOM     69  C   UNL A   1      40.823  27.988  33.310  1.00  0.00     0.029 A 
ATOM     70  C   UNL A   1      42.012  27.714  32.520  1.00  0.00     0.049 A 
ATOM     71  H   UNL A   1      41.951  27.382  30.399  1.00  0.00     0.167 HD
ATOM     72  C   UNL A   1      37.828  32.903  32.829  1.00  0.00     0.037 A 
ATOM     73  C   UNL A   1      43.281  28.060  32.884  1.00  0.00     0.037 A 
ATOM     74  C   UNL A   1      38.508  32.355  34.004  1.00  0.00     0.049 A 
ATOM     75  C   UNL A   1      43.329  29.218  33.859  1.00  0.00     0.074 A 
ATOM     76  C   UNL A   1      38.241  31.278  34.834  1.00  0.00     0.029 A 
ATOM     77  N   UNL A   1      39.837  32.707  34.244  1.00  0.00    -0.354 N 
ATOM     78  N   UNL A   1      42.333  30.036  34.081  1.00  0.00    -0.248 NA
ATOM     79  C   UNL A   1      44.495  29.534  34.682  1.00  0.00     0.031 C 
ATOM     80  C   UNL A   1      39.450  30.913  35.486  1.00  0.00     0.029 A 
ATOM     81  C   UNL A   1      40.442  31.794  35.090  1.00  0.00     0.049 A 
ATOM     82  H   UNL A   1      40.283  33.498  33.862  1.00  0.00     0.167 HD
ATOM     83  C   UNL A   1      42.689  30.956  35.038  1.00  0.00     0.074 A 
ATOM     84  C   UNL A   1      44.047  30.585  35.393  1.00  0.00     0.031 C 
ATOM     85  C   UNL A   1      41.842  31.939  35.473  1.00  0.00     0.037 A 
BRANCH  72  86
ATOM     86  C   UNL A   1      36.457  33.563  32.832  1.00  0.00     0.058 A 
ATOM     87  C   UNL A   1      35.390  33.018  32.084  1.00  0.00     0.135 A 
ATOM     88  C   UNL A   1      36.156  34.794  33.451  1.00  0.00     0.135 A 
ATOM     89  F   UNL A   1      35.477  31.800  31.531  1.00  0.00    -0.206 F 
ATOM     90  C   UNL A   1      34.188  33.699  31.859  1.00  0.00     0.059 A 
ATOM     91  C   UNL A   1      34.994  35.526  33.187  1.00  0.00     0.059 A 
ATOM     92  F   UNL A   1      36.950  35.313  34.394  1.00  0.00    -0.206 F 
ATOM     93  C   UNL A   1      34.016  34.976  32.377  1.00  0.00     0.060 A 
BRANCH  93  94
ATOM     94  S   UNL A   1      32.506  35.886  32.001  1.00  0.00     0.124 S 
ATOM     95  O   UNL A   1      32.555  35.983  30.545  1.00  0.00    -0.237 OA
ATOM     96  O   UNL A   1      31.478  35.005  32.546  1.00  0.00    -0.237 OA
ATOM     97  O   UNL A   1      32.685  37.151  32.711  1.00  0.00    -0.744 OA
ENDBRANCH  93  94
ENDBRANCH  72  86
BRANCH  73  98
ATOM     98  C   UNL A   1      44.308  27.669  31.875  1.00  0.00     0.058 A 
ATOM     99  C   UNL A   1      44.610  26.296  31.753  1.00  0.00     0.135 A 
ATOM    100  C   UNL A   1      44.661  28.493  30.799  1.00  0.00     0.135 A 
ATOM    101  F   UNL A   1      44.317  25.458  32.761  1.00  0.00    -0.206 F 
ATOM    102  C   UNL A   1      45.093  25.740  30.568  1.00  0.00     0.059 A 
ATOM    103  C   UNL A   1      45.148  27.957  29.598  1.00  0.00     0.059 A 
ATOM    104  F   UNL A   1      44.421  29.812  30.854  1.00  0.00    -0.206 F 
ATOM    105  C   UNL A   1      45.293  26.574  29.471  1.00  0.00     0.060 A 
BRANCH 105 106
ATOM    106  S   UNL A   1      45.638  25.809  27.863  1.00  0.00     0.124 S 
ATOM    107  O   UNL A   1      46.141  26.930  27.075  1.00  0.00    -0.237 OA
ATOM    108  O   UNL A   1      46.630  24.792  28.214  1.00  0.00    -0.237 OA
ATOM    109  O   UNL A   1      44.336  25.303  27.446  1.00  0.00    -0.744 OA
ENDBRANCH 105 106
ENDBRANCH  73  98
BRANCH  85 110
ATOM    110  C   UNL A   1      42.218  33.089  36.387  1.00  0.00     0.058 A 
ATOM    111  C   UNL A   1      41.947  33.123  37.764  1.00  0.00     0.135 A 
ATOM    112  C   UNL A   1      43.020  34.153  35.900  1.00  0.00     0.135 A 
ATOM    113  F   UNL A   1      41.289  32.122  38.369  1.00  0.00    -0.206 F 
ATOM    114  C   UNL A   1      42.381  34.163  38.591  1.00  0.00     0.059 A 
ATOM    115  C   UNL A   1      43.512  35.169  36.717  1.00  0.00     0.059 A 
ATOM    116  F   UNL A   1      43.364  34.236  34.606  1.00  0.00    -0.206 F 
ATOM    117  C   UNL A   1      43.169  35.180  38.059  1.00  0.00     0.060 A 
BRANCH 117 118
ATOM    118  S   UNL A   1      43.811  36.484  39.126  1.00  0.00     0.124 S 
ATOM    119  O   UNL A   1      42.579  37.055  39.662  1.00  0.00    -0.237 OA
ATOM    120  O   UNL A   1      44.631  35.749  40.084  1.00  0.00    -0.237 OA
ATOM    121  O   UNL A   1      44.552  37.332  38.199  1.00  0.00    -0.744 OA
ENDBRANCH 117 118
ENDBRANCH  85 110
ENDBRANCH  59  60
ENDBRANCH  51  54
ENDBRANCH  49  50
ENDBRANCH  48  49
ENDBRANCH  47  48
ENDBRANCH   3  47
TORSDOF 22
ENDMDL
MODEL 2
REMARK VINA RESULT:     -12.4      5.361     11.700
REMARK SMILES Cc1ccc(S(=O)(=O)n2cc(C(=O)C(=O)N[C@@H](Cc3c[nH]c4ccccc34)C(=O)NCC(=O)NCCCNC(=O)c3ccc(-c4c5nc(c(-c6c(F)cc(S(=O)(=O)[O-])cc6F)c6ccc([nH]6)c(-c6c(F)cc(S(=O)(=O)[O-])cc6F)c6nc(c(-c7c(F)cc(S(=O)(=O)[O-])cc7F)c7ccc4[nH]7)C=C6)C=C5)cc3)c3ccccc32)cc1
REMARK SMILES IDX 32 1 33 2 34 3 31 5 30 6 28 7 29 8 17 10 16 11 14 12 15 13
REMARK SMILES IDX 12 15 13 16 11 17 9 18 10 19 112 20 107 21 111 22 108 23
REMARK SMILES IDX 110 24 109 25 6 26 7 27 8 28 5 29 1 30 2 31 3 32 114 33 4 34
REMARK SMILES IDX 113 35 18 36 19 37 20 38 27 39 21 40 22 41 26 42 23 44 25 45
REMARK SMILES IDX 24 46 35 47 36 48 37 49 38 50 39 51 40 53 41 54 42 55 106 56
REMARK SMILES IDX 43 57 105 58 44 59 45 60 46 61 99 62 47 63 104 64 98 65
REMARK SMILES IDX 100 66 48 67 103 68 97 69 96 70 49 72 83 73 62 74 82 75
REMARK SMILES IDX 63 76 66 77 81 78 101 79 64 80 65 81 80 83 102 84 67 85
REMARK SMILES IDX 50 86 51 87 60 88 52 89 53 90 59 91 61 92 54 93 55 94 56 95
REMARK SMILES IDX 57 96 58 97 84 98 85 99 94 100 86 101 87 102 93 103 95 104
REMARK SMILES IDX 88 105 89 106 90 107 91 108 92 109 68 110 69 111 78 112
REMARK SMILES IDX 70 113 71 114 77 115 79 116 72 117 73 118 74 119 75 120
REMARK SMILES IDX 76 121
REMARK H PARENT 34 4 30 9 16 14 21 43 38 52 100 71 66 82
REMARK Flexibility Score: inf
ROOT
ATOM      1  C   UNL A   1      45.310  25.250  32.574  1.00  0.00     0.239 C 
ATOM      2  O   UNL A   1      46.307  24.786  33.128  1.00  0.00    -0.273 OA
ATOM      3  N   UNL A   1      45.238  25.274  31.208  1.00  0.00    -0.355 N 
ATOM      4  H   UNL A   1      45.983  24.861  30.716  1.00  0.00     0.163 HD
ENDROOT
BRANCH   1   5
ATOM      5  C   UNL A   1      44.121  25.777  33.376  1.00  0.00     0.216 C 
BRANCH   5   6
ATOM      6  N   UNL A   1      43.388  24.826  34.189  1.00  0.00    -0.345 N 
ATOM      7  C   UNL A   1      42.530  25.042  35.227  1.00  0.00     0.243 C 
ATOM      8  O   UNL A   1      41.674  24.166  35.412  1.00  0.00    -0.273 OA
ATOM      9  H   UNL A   1      43.530  23.881  33.956  1.00  0.00     0.164 HD
BRANCH   7  10
ATOM     10  C   UNL A   1      42.462  26.362  36.053  1.00  0.00     0.176 C 
BRANCH  10  11
ATOM     11  N   UNL A   1      43.020  26.365  37.415  1.00  0.00    -0.337 N 
ATOM     12  C   UNL A   1      44.239  25.907  37.909  1.00  0.00     0.293 C 
ATOM     13  O   UNL A   1      44.319  25.636  39.100  1.00  0.00    -0.265 OA
ATOM     14  H   UNL A   1      42.427  26.757  38.096  1.00  0.00     0.164 HD
BRANCH  12  15
ATOM     15  C   UNL A   1      45.450  25.736  36.974  1.00  0.00     0.252 C 
ATOM     16  O   UNL A   1      45.793  26.744  36.353  1.00  0.00    -0.283 OA
BRANCH  15  17
ATOM     17  C   UNL A   1      46.016  24.419  36.636  1.00  0.00     0.054 A 
ATOM     18  N   UNL A   1      46.441  22.285  36.053  1.00  0.00    -0.240 N 
ATOM     19  C   UNL A   1      45.442  23.146  36.485  1.00  0.00     0.117 A 
ATOM     20  C   UNL A   1      47.613  23.026  35.843  1.00  0.00     0.065 A 
ATOM     21  C   UNL A   1      47.427  24.234  36.497  1.00  0.00     0.012 A 
ATOM     22  C   UNL A   1      48.878  22.646  35.347  1.00  0.00     0.028 A 
ATOM     23  C   UNL A   1      48.565  25.003  36.828  1.00  0.00     0.011 A 
ATOM     24  C   UNL A   1      49.989  23.401  35.717  1.00  0.00     0.002 A 
ATOM     25  C   UNL A   1      49.840  24.542  36.489  1.00  0.00     0.001 A 
BRANCH  18  26
ATOM     26  S   UNL A   1      46.771  20.641  36.446  1.00  0.00     0.268 S 
ATOM     27  O   UNL A   1      46.849  20.015  35.132  1.00  0.00    -0.201 OA
ATOM     28  O   UNL A   1      45.656  20.318  37.333  1.00  0.00    -0.201 OA
BRANCH  26  29
ATOM     29  C   UNL A   1      48.121  19.953  37.327  1.00  0.00     0.088 A 
ATOM     30  C   UNL A   1      50.907  18.841  40.439  1.00  0.00     0.044 C 
ATOM     31  C   UNL A   1      49.959  19.169  39.321  1.00  0.00    -0.051 A 
ATOM     32  C   UNL A   1      48.604  19.208  39.621  1.00  0.00     0.005 A 
ATOM     33  C   UNL A   1      50.376  19.488  38.009  1.00  0.00     0.005 A 
ATOM     34  C   UNL A   1      47.708  19.584  38.636  1.00  0.00     0.022 A 
ATOM     35  C   UNL A   1      49.462  19.887  36.999  1.00  0.00     0.022 A 
ENDBRANCH  26  29
ENDBRANCH  18  26
ENDBRANCH  15  17
ENDBRANCH  12  15
ENDBRANCH  10  11
BRANCH  10  36
ATOM     36  C   UNL A   1      42.929  27.604  35.221  1.00  0.00     0.072 C 
BRANCH  36  37
ATOM     37  C   UNL A   1      41.918  28.700  34.964  1.00  0.00    -0.020 A 
ATOM     38  C   UNL A   1      41.828  29.890  35.667  1.00  0.00     0.087 A 
ATOM     39  C   UNL A   1      40.833  28.713  34.017  1.00  0.00     0.003 A 
ATOM     40  N   UNL A   1      40.676  30.533  35.292  1.00  0.00    -0.361 N 
ATOM     41  C   UNL A   1      39.995  29.774  34.372  1.00  0.00     0.046 A 
ATOM     42  C   UNL A   1      40.400  27.846  32.991  1.00  0.00     0.010 A 
ATOM     43  H   UNL A   1      40.382  31.409  35.630  1.00  0.00     0.166 HD
ATOM     44  C   UNL A   1      38.697  29.920  33.866  1.00  0.00     0.026 A 
ATOM     45  C   UNL A   1      39.093  27.955  32.500  1.00  0.00     0.001 A 
ATOM     46  C   UNL A   1      38.246  28.961  32.955  1.00  0.00     0.002 A 
ENDBRANCH  36  37
ENDBRANCH  10  36
ENDBRANCH   7  10
ENDBRANCH   5   6
ENDBRANCH   1   5
BRANCH   3  47
ATOM     47  C   UNL A   1      44.166  25.850  30.411  1.00  0.00     0.117 C 
BRANCH  47  48
ATOM     48  C   UNL A   1      43.616  24.837  29.414  1.00  0.00     0.042 C 
BRANCH  48  49
ATOM     49  C   UNL A   1      42.813  25.509  28.323  1.00  0.00     0.118 C 
BRANCH  49  50
ATOM     50  N   UNL A   1      42.248  24.600  27.334  1.00  0.00    -0.352 N 
ATOM     51  C   UNL A   1      40.930  24.555  26.903  1.00  0.00     0.251 C 
ATOM     52  H   UNL A   1      42.867  23.950  26.929  1.00  0.00     0.163 HD
ATOM     53  O   UNL A   1      40.474  23.671  26.204  1.00  0.00    -0.269 OA
BRANCH  51  54
ATOM     54  C   UNL A   1      40.127  25.761  27.203  1.00  0.00     0.039 A 
ATOM     55  C   UNL A   1      40.511  26.913  26.507  1.00  0.00     0.014 A 
ATOM     56  C   UNL A   1      39.440  25.828  28.412  1.00  0.00     0.014 A 
ATOM     57  C   UNL A   1      40.422  28.140  27.146  1.00  0.00     0.010 A 
ATOM     58  C   UNL A   1      39.456  27.033  29.088  1.00  0.00     0.010 A 
ATOM     59  C   UNL A   1      40.007  28.170  28.476  1.00  0.00    -0.014 A 
BRANCH  59  60
ATOM     60  C   UNL A   1      40.155  29.354  29.312  1.00  0.00     0.031 A 
ATOM     61  C   UNL A   1      39.091  30.377  29.259  1.00  0.00     0.074 A 
ATOM     62  C   UNL A   1      41.246  29.516  30.094  1.00  0.00     0.049 A 
ATOM     63  N   UNL A   1      39.228  31.611  29.601  1.00  0.00    -0.248 NA
ATOM     64  C   UNL A   1      37.772  30.075  28.718  1.00  0.00     0.031 C 
ATOM     65  C   UNL A   1      41.459  30.542  31.111  1.00  0.00     0.029 A 
ATOM     66  N   UNL A   1      42.499  28.911  29.936  1.00  0.00    -0.354 N 
ATOM     67  C   UNL A   1      37.983  32.201  29.562  1.00  0.00     0.074 A 
ATOM     68  C   UNL A   1      37.126  31.217  28.952  1.00  0.00     0.031 C 
ATOM     69  C   UNL A   1      42.779  30.702  31.289  1.00  0.00     0.029 A 
ATOM     70  C   UNL A   1      43.459  29.873  30.308  1.00  0.00     0.049 A 
ATOM     71  H   UNL A   1      42.675  27.993  29.627  1.00  0.00     0.167 HD
ATOM     72  C   UNL A   1      37.803  33.411  30.168  1.00  0.00     0.037 A 
ATOM     73  C   UNL A   1      44.370  30.333  29.403  1.00  0.00     0.037 A 
ATOM     74  C   UNL A   1      39.096  33.987  30.546  1.00  0.00     0.049 A 
ATOM     75  C   UNL A   1      44.222  31.811  29.101  1.00  0.00     0.074 A 
ATOM     76  C   UNL A   1      39.817  33.995  31.729  1.00  0.00     0.029 A 
ATOM     77  N   UNL A   1      39.995  34.350  29.542  1.00  0.00    -0.354 N 
ATOM     78  N   UNL A   1      43.156  32.515  29.382  1.00  0.00    -0.248 NA
ATOM     79  C   UNL A   1      45.271  32.619  28.483  1.00  0.00     0.031 C 
ATOM     80  C   UNL A   1      41.178  34.252  31.413  1.00  0.00     0.029 A 
ATOM     81  C   UNL A   1      41.280  34.445  30.047  1.00  0.00     0.049 A 
ATOM     82  H   UNL A   1      39.748  34.517  28.604  1.00  0.00     0.167 HD
ATOM     83  C   UNL A   1      43.351  33.823  29.008  1.00  0.00     0.074 A 
ATOM     84  C   UNL A   1      44.699  33.836  28.466  1.00  0.00     0.031 C 
ATOM     85  C   UNL A   1      42.402  34.794  29.181  1.00  0.00     0.037 A 
BRANCH  72  86
ATOM     86  C   UNL A   1      36.450  33.858  30.701  1.00  0.00     0.058 A 
ATOM     87  C   UNL A   1      35.413  34.234  29.818  1.00  0.00     0.135 A 
ATOM     88  C   UNL A   1      36.144  34.053  32.064  1.00  0.00     0.135 A 
ATOM     89  F   UNL A   1      35.502  34.004  28.501  1.00  0.00    -0.206 F 
ATOM     90  C   UNL A   1      34.242  34.872  30.243  1.00  0.00     0.059 A 
ATOM     91  C   UNL A   1      35.016  34.750  32.509  1.00  0.00     0.059 A 
ATOM     92  F   UNL A   1      36.897  33.518  33.031  1.00  0.00    -0.206 F 
ATOM     93  C   UNL A   1      34.072  35.169  31.588  1.00  0.00     0.060 A 
BRANCH  93  94
ATOM     94  S   UNL A   1      32.606  36.078  32.115  1.00  0.00     0.124 S 
ATOM     95  O   UNL A   1      31.697  35.003  32.502  1.00  0.00    -0.237 OA
ATOM     96  O   UNL A   1      33.131  36.891  33.207  1.00  0.00    -0.237 OA
ATOM     97  O   UNL A   1      32.214  36.816  30.918  1.00  0.00    -0.744 OA
ENDBRANCH  93  94
ENDBRANCH  72  86
BRANCH  73  98
ATOM     98  C   UNL A   1      44.897  29.264  28.505  1.00  0.00     0.058 A 
ATOM     99  C   UNL A   1      44.339  29.167  27.213  1.00  0.00     0.135 A 
ATOM    100  C   UNL A   1      46.145  28.660  28.702  1.00  0.00     0.135 A 
ATOM    101  F   UNL A   1      43.132  29.706  26.967  1.00  0.00    -0.206 F 
ATOM    102  C   UNL A   1      45.043  28.636  26.133  1.00  0.00     0.059 A 
ATOM    103  C   UNL A   1      46.873  28.121  27.631  1.00  0.00     0.059 A 
ATOM    104  F   UNL A   1      46.728  28.697  29.910  1.00  0.00    -0.206 F 
ATOM    105  C   UNL A   1      46.341  28.178  26.341  1.00  0.00     0.060 A 
BRANCH 105 106
ATOM    106  S   UNL A   1      47.348  27.764  24.890  1.00  0.00     0.124 S 
ATOM    107  O   UNL A   1      48.692  28.147  25.312  1.00  0.00    -0.237 OA
ATOM    108  O   UNL A   1      47.117  26.324  24.757  1.00  0.00    -0.237 OA
ATOM    109  O   UNL A   1      46.777  28.594  23.837  1.00  0.00    -0.744 OA
ENDBRANCH 105 106
ENDBRANCH  73  98
BRANCH  85 110
ATOM    110  C   UNL A   1      42.473  36.207  28.636  1.00  0.00     0.058 A 
ATOM    111  C   UNL A   1      42.970  37.305  29.357  1.00  0.00     0.135 A 
ATOM    112  C   UNL A   1      42.165  36.463  27.276  1.00  0.00     0.135 A 
ATOM    113  F   UNL A   1      43.397  37.173  30.622  1.00  0.00    -0.206 F 
ATOM    114  C   UNL A   1      43.096  38.578  28.794  1.00  0.00     0.059 A 
ATOM    115  C   UNL A   1      42.339  37.710  26.679  1.00  0.00     0.059 A 
ATOM    116  F   UNL A   1      41.694  35.499  26.471  1.00  0.00    -0.206 F 
ATOM    117  C   UNL A   1      42.783  38.771  27.451  1.00  0.00     0.060 A 
BRANCH 117 118
ATOM    118  S   UNL A   1      43.022  40.385  26.686  1.00  0.00     0.124 S 
ATOM    119  O   UNL A   1      43.369  41.207  27.841  1.00  0.00    -0.237 OA
ATOM    120  O   UNL A   1      44.106  40.142  25.739  1.00  0.00    -0.237 OA
ATOM    121  O   UNL A   1      41.722  40.657  26.081  1.00  0.00    -0.744 OA
ENDBRANCH 117 118
ENDBRANCH  85 110
ENDBRANCH  59  60
ENDBRANCH  51  54
ENDBRANCH  49  50
ENDBRANCH  48  49
ENDBRANCH  47  48
ENDBRANCH   3  47
TORSDOF 22
ENDMDL
MODEL 3
REMARK VINA RESULT:     -12.3      4.338      5.679
REMARK SMILES Cc1ccc(S(=O)(=O)n2cc(C(=O)C(=O)N[C@@H](Cc3c[nH]c4ccccc34)C(=O)NCC(=O)NCCCNC(=O)c3ccc(-c4c5nc(c(-c6c(F)cc(S(=O)(=O)[O-])cc6F)c6ccc([nH]6)c(-c6c(F)cc(S(=O)(=O)[O-])cc6F)c6nc(c(-c7c(F)cc(S(=O)(=O)[O-])cc7F)c7ccc4[nH]7)C=C6)C=C5)cc3)c3ccccc32)cc1
REMARK SMILES IDX 32 1 33 2 34 3 31 5 30 6 28 7 29 8 17 10 16 11 14 12 15 13
REMARK SMILES IDX 12 15 13 16 11 17 9 18 10 19 112 20 107 21 111 22 108 23
REMARK SMILES IDX 110 24 109 25 6 26 7 27 8 28 5 29 1 30 2 31 3 32 114 33 4 34
REMARK SMILES IDX 113 35 18 36 19 37 20 38 27 39 21 40 22 41 26 42 23 44 25 45
REMARK SMILES IDX 24 46 35 47 36 48 37 49 38 50 39 51 40 53 41 54 42 55 106 56
REMARK SMILES IDX 43 57 105 58 44 59 45 60 46 61 99 62 47 63 104 64 98 65
REMARK SMILES IDX 100 66 48 67 103 68 97 69 96 70 49 72 83 73 62 74 82 75
REMARK SMILES IDX 63 76 66 77 81 78 101 79 64 80 65 81 80 83 102 84 67 85
REMARK SMILES IDX 50 86 51 87 60 88 52 89 53 90 59 91 61 92 54 93 55 94 56 95
REMARK SMILES IDX 57 96 58 97 84 98 85 99 94 100 86 101 87 102 93 103 95 104
REMARK SMILES IDX 88 105 89 106 90 107 91 108 92 109 68 110 69 111 78 112
REMARK SMILES IDX 70 113 71 114 77 115 79 116 72 117 73 118 74 119 75 120
REMARK SMILES IDX 76 121
REMARK H PARENT 34 4 30 9 16 14 21 43 38 52 100 71 66 82
REMARK Flexibility Score: inf
ROOT
ATOM      1  C   UNL A   1      38.724  22.902  26.540  1.00  0.00     0.239 C 
ATOM      2  O   UNL A   1      39.138  21.749  26.418  1.00  0.00    -0.273 OA
ATOM      3  N   UNL A   1      39.378  23.778  27.362  1.00  0.00    -0.355 N 
ATOM      4  H   UNL A   1      40.202  23.454  27.792  1.00  0.00     0.163 HD
ENDROOT
BRANCH   1   5
ATOM      5  C   UNL A   1      37.506  23.402  25.764  1.00  0.00     0.216 C 
BRANCH   5   6
ATOM      6  N   UNL A   1      37.405  23.032  24.365  1.00  0.00    -0.345 N 
ATOM      7  C   UNL A   1      36.305  22.922  23.568  1.00  0.00     0.243 C 
ATOM      8  O   UNL A   1      36.495  23.096  22.356  1.00  0.00    -0.273 OA
ATOM      9  H   UNL A   1      38.261  22.831  23.924  1.00  0.00     0.164 HD
BRANCH   7  10
ATOM     10  C   UNL A   1      34.846  22.767  24.096  1.00  0.00     0.176 C 
BRANCH  10  11
ATOM     11  N   UNL A   1      33.775  22.497  23.122  1.00  0.00    -0.337 N 
ATOM     12  C   UNL A   1      32.391  22.455  23.267  1.00  0.00     0.293 C 
ATOM     13  O   UNL A   1      31.739  21.819  22.449  1.00  0.00    -0.265 OA
ATOM     14  H   UNL A   1      34.094  22.313  22.209  1.00  0.00     0.164 HD
BRANCH  12  15
ATOM     15  C   UNL A   1      31.703  23.179  24.438  1.00  0.00     0.252 C 
ATOM     16  O   UNL A   1      30.691  22.635  24.885  1.00  0.00    -0.283 OA
BRANCH  15  17
ATOM     17  C   UNL A   1      32.056  24.550  24.846  1.00  0.00     0.054 A 
ATOM     18  N   UNL A   1      32.573  26.473  25.900  1.00  0.00    -0.240 N 
ATOM     19  C   UNL A   1      32.022  25.213  26.084  1.00  0.00     0.117 A 
ATOM     20  C   UNL A   1      33.036  26.572  24.579  1.00  0.00     0.065 A 
ATOM     21  C   UNL A   1      32.436  25.535  23.882  1.00  0.00     0.012 A 
ATOM     22  C   UNL A   1      33.728  27.603  23.910  1.00  0.00     0.028 A 
ATOM     23  C   UNL A   1      32.363  25.623  22.474  1.00  0.00     0.011 A 
ATOM     24  C   UNL A   1      33.612  27.689  22.524  1.00  0.00     0.002 A 
ATOM     25  C   UNL A   1      32.897  26.735  21.817  1.00  0.00     0.001 A 
BRANCH  18  26
ATOM     26  S   UNL A   1      32.146  28.006  26.557  1.00  0.00     0.268 S 
ATOM     27  O   UNL A   1      31.608  27.649  27.862  1.00  0.00    -0.201 OA
ATOM     28  O   UNL A   1      31.253  28.532  25.528  1.00  0.00    -0.201 OA
BRANCH  26  29
ATOM     29  C   UNL A   1      33.156  29.403  26.879  1.00  0.00     0.088 A 
ATOM     30  C   UNL A   1      36.179  32.058  28.458  1.00  0.00     0.044 C 
ATOM     31  C   UNL A   1      35.127  31.175  27.850  1.00  0.00    -0.051 A 
ATOM     32  C   UNL A   1      35.460  29.848  27.618  1.00  0.00     0.005 A 
ATOM     33  C   UNL A   1      33.814  31.610  27.556  1.00  0.00     0.005 A 
ATOM     34  C   UNL A   1      34.492  28.987  27.133  1.00  0.00     0.022 A 
ATOM     35  C   UNL A   1      32.814  30.728  27.071  1.00  0.00     0.022 A 
ENDBRANCH  26  29
ENDBRANCH  18  26
ENDBRANCH  15  17
ENDBRANCH  12  15
ENDBRANCH  10  11
BRANCH  10  36
ATOM     36  C   UNL A   1      34.766  21.819  25.340  1.00  0.00     0.072 C 
BRANCH  36  37
ATOM     37  C   UNL A   1      35.053  20.350  25.126  1.00  0.00    -0.020 A 
ATOM     38  C   UNL A   1      36.309  19.766  25.149  1.00  0.00     0.087 A 
ATOM     39  C   UNL A   1      34.130  19.295  24.796  1.00  0.00     0.003 A 
ATOM     40  N   UNL A   1      36.197  18.470  24.715  1.00  0.00    -0.361 N 
ATOM     41  C   UNL A   1      34.892  18.200  24.381  1.00  0.00     0.046 A 
ATOM     42  C   UNL A   1      32.727  19.208  24.666  1.00  0.00     0.010 A 
ATOM     43  H   UNL A   1      36.941  17.828  24.652  1.00  0.00     0.166 HD
ATOM     44  C   UNL A   1      34.341  17.099  23.711  1.00  0.00     0.026 A 
ATOM     45  C   UNL A   1      32.163  18.134  23.967  1.00  0.00     0.001 A 
ATOM     46  C   UNL A   1      32.965  17.111  23.473  1.00  0.00     0.002 A 
ENDBRANCH  36  37
ENDBRANCH  10  36
ENDBRANCH   7  10
ENDBRANCH   5   6
ENDBRANCH   1   5
BRANCH   3  47
ATOM     47  C   UNL A   1      38.975  25.143  27.664  1.00  0.00     0.117 C 
BRANCH  47  48
ATOM     48  C   UNL A   1      40.187  26.043  27.869  1.00  0.00     0.042 C 
BRANCH  48  49
ATOM     49  C   UNL A   1      40.850  26.394  26.556  1.00  0.00     0.118 C 
BRANCH  49  50
ATOM     50  N   UNL A   1      41.395  25.256  25.826  1.00  0.00    -0.352 N 
ATOM     51  C   UNL A   1      42.735  24.983  25.593  1.00  0.00     0.251 C 
ATOM     52  H   UNL A   1      40.744  24.615  25.460  1.00  0.00     0.163 HD
ATOM     53  O   UNL A   1      43.130  24.117  24.839  1.00  0.00    -0.269 OA
BRANCH  51  54
ATOM     54  C   UNL A   1      43.687  25.706  26.466  1.00  0.00     0.039 A 
ATOM     55  C   UNL A   1      43.578  25.408  27.830  1.00  0.00     0.014 A 
ATOM     56  C   UNL A   1      44.235  26.904  26.017  1.00  0.00     0.014 A 
ATOM     57  C   UNL A   1      43.796  26.420  28.753  1.00  0.00     0.010 A 
ATOM     58  C   UNL A   1      44.342  27.937  26.928  1.00  0.00     0.010 A 
ATOM     59  C   UNL A   1      44.057  27.706  28.283  1.00  0.00    -0.014 A 
BRANCH  59  60
ATOM     60  C   UNL A   1      44.013  28.876  29.150  1.00  0.00     0.031 A 
ATOM     61  C   UNL A   1      42.747  29.633  29.229  1.00  0.00     0.074 A 
ATOM     62  C   UNL A   1      45.106  29.264  29.844  1.00  0.00     0.049 A 
ATOM     63  N   UNL A   1      42.636  30.858  29.608  1.00  0.00    -0.248 NA
ATOM     64  C   UNL A   1      41.485  29.050  28.790  1.00  0.00     0.031 C 
ATOM     65  C   UNL A   1      45.177  30.290  30.880  1.00  0.00     0.029 A 
ATOM     66  N   UNL A   1      46.443  28.961  29.557  1.00  0.00    -0.354 N 
ATOM     67  C   UNL A   1      41.292  31.152  29.698  1.00  0.00     0.074 A 
ATOM     68  C   UNL A   1      40.624  30.012  29.123  1.00  0.00     0.031 C 
ATOM     69  C   UNL A   1      46.439  30.741  30.953  1.00  0.00     0.029 A 
ATOM     70  C   UNL A   1      47.194  30.107  29.885  1.00  0.00     0.049 A 
ATOM     71  H   UNL A   1      46.791  28.113  29.197  1.00  0.00     0.167 HD
ATOM     72  C   UNL A   1      40.902  32.277  30.365  1.00  0.00     0.037 A 
ATOM     73  C   UNL A   1      47.893  30.780  28.926  1.00  0.00     0.037 A 
ATOM     74  C   UNL A   1      42.063  33.122  30.656  1.00  0.00     0.049 A 
ATOM     75  C   UNL A   1      47.391  32.192  28.698  1.00  0.00     0.074 A 
ATOM     76  C   UNL A   1      42.868  33.269  31.773  1.00  0.00     0.029 A 
ATOM     77  N   UNL A   1      42.762  33.700  29.596  1.00  0.00    -0.354 N 
ATOM     78  N   UNL A   1      46.226  32.631  29.095  1.00  0.00    -0.248 NA
ATOM     79  C   UNL A   1      48.172  33.229  28.027  1.00  0.00     0.031 C 
ATOM     80  C   UNL A   1      44.103  33.833  31.355  1.00  0.00     0.029 A 
ATOM     81  C   UNL A   1      44.034  34.073  29.993  1.00  0.00     0.049 A 
ATOM     82  H   UNL A   1      42.399  33.826  28.689  1.00  0.00     0.167 HD
ATOM     83  C   UNL A   1      46.088  33.957  28.759  1.00  0.00     0.074 A 
ATOM     84  C   UNL A   1      47.343  34.285  28.106  1.00  0.00     0.031 C 
ATOM     85  C   UNL A   1      44.966  34.684  29.051  1.00  0.00     0.037 A 
BRANCH  72  86
ATOM     86  C   UNL A   1      39.537  32.396  31.028  1.00  0.00     0.058 A 
ATOM     87  C   UNL A   1      38.604  33.361  30.592  1.00  0.00     0.135 A 
ATOM     88  C   UNL A   1      39.130  31.674  32.169  1.00  0.00     0.135 A 
ATOM     89  F   UNL A   1      38.789  34.049  29.457  1.00  0.00    -0.206 F 
ATOM     90  C   UNL A   1      37.440  33.676  31.305  1.00  0.00     0.059 A 
ATOM     91  C   UNL A   1      38.011  32.014  32.937  1.00  0.00     0.059 A 
ATOM     92  F   UNL A   1      39.765  30.562  32.555  1.00  0.00    -0.206 F 
ATOM     93  C   UNL A   1      37.175  33.028  32.504  1.00  0.00     0.060 A 
BRANCH  93  94
ATOM     94  S   UNL A   1      35.726  33.506  33.466  1.00  0.00     0.124 S 
ATOM     95  O   UNL A   1      36.082  33.055  34.808  1.00  0.00    -0.237 OA
ATOM     96  O   UNL A   1      35.695  34.951  33.267  1.00  0.00    -0.237 OA
ATOM     97  O   UNL A   1      34.638  32.764  32.834  1.00  0.00    -0.744 OA
ENDBRANCH  93  94
ENDBRANCH  72  86
BRANCH  73  98
ATOM     98  C   UNL A   1      48.561  29.877  27.944  1.00  0.00     0.058 A 
ATOM     99  C   UNL A   1      49.698  29.166  28.384  1.00  0.00     0.135 A 
ATOM    100  C   UNL A   1      47.912  29.388  26.804  1.00  0.00     0.135 A 
ATOM    101  F   UNL A   1      50.379  29.599  29.458  1.00  0.00    -0.206 F 
ATOM    102  C   UNL A   1      50.082  27.949  27.821  1.00  0.00     0.059 A 
ATOM    103  C   UNL A   1      48.279  28.166  26.221  1.00  0.00     0.059 A 
ATOM    104  F   UNL A   1      46.835  30.024  26.318  1.00  0.00    -0.206 F 
ATOM    105  C   UNL A   1      49.321  27.423  26.781  1.00  0.00     0.060 A 
BRANCH 105 106
ATOM    106  S   UNL A   1      49.648  25.719  26.254  1.00  0.00     0.124 S 
ATOM    107  O   UNL A   1      50.645  25.893  25.202  1.00  0.00    -0.237 OA
ATOM    108  O   UNL A   1      50.138  25.104  27.489  1.00  0.00    -0.237 OA
ATOM    109  O   UNL A   1      48.346  25.255  25.792  1.00  0.00    -0.744 OA
ENDBRANCH 105 106
ENDBRANCH  73  98
BRANCH  85 110
ATOM    110  C   UNL A   1      44.669  36.087  28.560  1.00  0.00     0.058 A 
ATOM    111  C   UNL A   1      45.336  37.237  29.012  1.00  0.00     0.135 A 
ATOM    112  C   UNL A   1      43.775  36.290  27.478  1.00  0.00     0.135 A 
ATOM    113  F   UNL A   1      46.284  37.167  29.958  1.00  0.00    -0.206 F 
ATOM    114  C   UNL A   1      45.093  38.506  28.477  1.00  0.00     0.059 A 
ATOM    115  C   UNL A   1      43.562  37.535  26.891  1.00  0.00     0.059 A 
ATOM    116  F   UNL A   1      43.083  35.274  26.941  1.00  0.00    -0.206 F 
ATOM    117  C   UNL A   1      44.208  38.645  27.412  1.00  0.00     0.060 A 
BRANCH 117 118
ATOM    118  S   UNL A   1      43.947  40.259  26.653  1.00  0.00     0.124 S 
ATOM    119  O   UNL A   1      44.998  40.278  25.640  1.00  0.00    -0.237 OA
ATOM    120  O   UNL A   1      42.583  40.165  26.142  1.00  0.00    -0.237 OA
ATOM    121  O   UNL A   1      44.126  41.181  27.771  1.00  0.00    -0.744 OA
ENDBRANCH 117 118
ENDBRANCH  85 110
ENDBRANCH  59  60
ENDBRANCH  51  54
ENDBRANCH  49  50
ENDBRANCH  48  49
ENDBRANCH  47  48
ENDBRANCH   3  47
TORSDOF 22
ENDMDL
