MODEL 1
REMARK VINA RESULT:     -11.9      0.000      0.000
REMARK SMILES C[C@@H]1[C@@H](C(=O)NCCCNC(=O)c2ccc(-c3c4nc(c(-c5c(F)cc(S(=O)(=O)[O-])cc5F)c5ccc([nH]5)c(-c5c(F)cc(S(=O)(=O)[O-])cc5F)c5nc(c(-c6c(F)cc(S(=O)(=O)[O-])cc6F)c6ccc3[nH]6)C=C5)C=C4)cc2)CCN1C(=O)[C@]1([NH3+])CCOC1
REMARK SMILES IDX 8 1 7 2 6 3 4 4 5 5 3 7 1 8 2 9 81 10 79 11 80 12 82 13
REMARK SMILES IDX 83 14 84 15 86 16 89 17 87 18 88 19 85 20 9 24 10 25 11 26
REMARK SMILES IDX 12 28 13 29 14 30 78 31 15 32 77 33 16 34 17 35 18 36 71 37
REMARK SMILES IDX 19 38 76 39 70 40 72 41 20 42 75 43 69 44 68 45 21 47 55 48
REMARK SMILES IDX 34 49 54 50 35 51 38 52 53 53 73 54 36 55 37 56 52 58 74 59
REMARK SMILES IDX 39 60 22 61 23 62 32 63 24 64 25 65 31 66 33 67 26 68 27 69
REMARK SMILES IDX 28 70 29 71 30 72 56 73 57 74 66 75 58 76 59 77 65 78 67 79
REMARK SMILES IDX 60 80 61 81 62 82 63 83 64 84 40 85 41 86 50 87 42 88 43 89
REMARK SMILES IDX 49 90 51 91 44 92 45 93 46 94 47 95 48 96
REMARK H PARENT 6 6 85 21 85 22 85 23 10 27 72 46 38 57
REMARK Flexibility Score: inf
ROOT
ATOM      1  C   UNL A   1      35.281  32.439  27.926  1.00  0.00     0.042 C 
ENDROOT
BRANCH   1   2
ATOM      2  C   UNL A   1      34.547  31.114  27.756  1.00  0.00     0.117 C 
BRANCH   2   3
ATOM      3  N   UNL A   1      33.157  31.301  27.380  1.00  0.00    -0.356 N 
ATOM      4  C   UNL A   1      32.385  30.612  26.497  1.00  0.00     0.225 C 
ATOM      5  O   UNL A   1      31.202  30.937  26.392  1.00  0.00    -0.275 OA
ATOM      6  H   UNL A   1      32.701  32.045  27.837  1.00  0.00     0.163 HD
BRANCH   4   7
ATOM      7  C   UNL A   1      32.988  29.455  25.716  1.00  0.00     0.102 C 
ATOM      8  C   UNL A   1      33.567  28.722  23.393  1.00  0.00     0.032 C 
ATOM      9  C   UNL A   1      32.503  29.414  24.253  1.00  0.00     0.094 C 
ATOM     10  N   UNL A   1      31.268  28.618  24.296  1.00  0.00    -0.334 N 
ATOM     11  C   UNL A   1      32.521  28.103  26.260  1.00  0.00     0.037 C 
ATOM     12  C   UNL A   1      31.201  27.863  25.546  1.00  0.00     0.121 C 
BRANCH  10  13
ATOM     13  C   UNL A   1      30.173  28.567  23.459  1.00  0.00     0.286 C 
ATOM     14  O   UNL A   1      29.620  27.465  23.283  1.00  0.00    -0.267 OA
BRANCH  13  15
ATOM     15  C   UNL A   1      29.539  29.814  22.727  1.00  0.00     0.199 C 
ATOM     16  C   UNL A   1      29.295  31.026  23.603  1.00  0.00     0.110 C 
ATOM     17  C   UNL A   1      28.179  29.525  22.100  1.00  0.00     0.239 C 
ATOM     18  C   UNL A   1      27.791  31.130  23.750  1.00  0.00     0.167 C 
ATOM     19  O   UNL A   1      27.173  30.160  22.906  1.00  0.00    -0.374 OA
BRANCH  15  20
ATOM     20  N   UNL A   1      30.504  30.206  21.642  1.00  0.00    -0.343 N 
ATOM     21  H   UNL A   1      30.363  29.607  20.829  1.00  0.00     0.345 HD
ATOM     22  H   UNL A   1      31.460  30.099  21.983  1.00  0.00     0.345 HD
ATOM     23  H   UNL A   1      30.343  31.178  21.379  1.00  0.00     0.345 HD
ENDBRANCH  15  20
ENDBRANCH  13  15
ENDBRANCH  10  13
ENDBRANCH   4   7
ENDBRANCH   2   3
ENDBRANCH   1   2
BRANCH   1  24
ATOM     24  C   UNL A   1      36.077  32.569  29.221  1.00  0.00     0.118 C 
BRANCH  24  25
ATOM     25  N   UNL A   1      35.718  31.569  30.219  1.00  0.00    -0.352 N 
ATOM     26  C   UNL A   1      36.415  30.466  30.656  1.00  0.00     0.251 C 
ATOM     27  H   UNL A   1      34.843  31.705  30.647  1.00  0.00     0.163 HD
ATOM     28  O   UNL A   1      35.865  29.667  31.404  1.00  0.00    -0.269 OA
BRANCH  26  29
ATOM     29  C   UNL A   1      37.806  30.225  30.206  1.00  0.00     0.039 A 
ATOM     30  C   UNL A   1      38.812  30.103  31.169  1.00  0.00     0.014 A 
ATOM     31  C   UNL A   1      38.128  30.129  28.851  1.00  0.00     0.014 A 
ATOM     32  C   UNL A   1      40.121  29.808  30.776  1.00  0.00     0.010 A 
ATOM     33  C   UNL A   1      39.415  29.757  28.465  1.00  0.00     0.010 A 
ATOM     34  C   UNL A   1      40.426  29.588  29.423  1.00  0.00    -0.014 A 
BRANCH  34  35
ATOM     35  C   UNL A   1      41.788  29.167  28.995  1.00  0.00     0.031 A 
ATOM     36  C   UNL A   1      42.911  30.168  28.930  1.00  0.00     0.074 A 
ATOM     37  C   UNL A   1      41.998  27.893  28.604  1.00  0.00     0.049 A 
ATOM     38  N   UNL A   1      44.141  30.001  28.519  1.00  0.00    -0.248 NA
ATOM     39  C   UNL A   1      42.604  31.540  29.362  1.00  0.00     0.031 C 
ATOM     40  C   UNL A   1      40.983  26.837  28.578  1.00  0.00     0.029 A 
ATOM     41  N   UNL A   1      43.132  27.270  28.143  1.00  0.00    -0.354 N 
ATOM     42  C   UNL A   1      44.752  31.245  28.633  1.00  0.00     0.074 A 
ATOM     43  C   UNL A   1      43.740  32.169  29.099  1.00  0.00     0.031 C 
ATOM     44  C   UNL A   1      41.544  25.696  28.149  1.00  0.00     0.029 A 
ATOM     45  C   UNL A   1      42.946  25.944  27.827  1.00  0.00     0.049 A 
ATOM     46  H   UNL A   1      43.997  27.729  28.048  1.00  0.00     0.167 HD
ATOM     47  C   UNL A   1      46.043  31.582  28.395  1.00  0.00     0.037 A 
ATOM     48  C   UNL A   1      43.801  25.033  27.321  1.00  0.00     0.037 A 
ATOM     49  C   UNL A   1      47.050  30.655  27.944  1.00  0.00     0.049 A 
ATOM     50  C   UNL A   1      45.223  25.437  27.041  1.00  0.00     0.074 A 
ATOM     51  C   UNL A   1      48.395  30.890  27.720  1.00  0.00     0.029 A 
ATOM     52  N   UNL A   1      46.823  29.320  27.642  1.00  0.00    -0.354 N 
ATOM     53  N   UNL A   1      45.798  26.604  27.214  1.00  0.00    -0.248 NA
ATOM     54  C   UNL A   1      46.116  24.402  26.504  1.00  0.00     0.031 C 
ATOM     55  C   UNL A   1      48.970  29.712  27.234  1.00  0.00     0.029 A 
ATOM     56  C   UNL A   1      47.997  28.725  27.211  1.00  0.00     0.049 A 
ATOM     57  H   UNL A   1      45.954  28.863  27.722  1.00  0.00     0.167 HD
ATOM     58  C   UNL A   1      47.126  26.434  26.837  1.00  0.00     0.074 A 
ATOM     59  C   UNL A   1      47.271  25.049  26.438  1.00  0.00     0.031 C 
ATOM     60  C   UNL A   1      48.134  27.342  26.826  1.00  0.00     0.037 A 
BRANCH  47  61
ATOM     61  C   UNL A   1      46.444  33.017  28.617  1.00  0.00     0.058 A 
ATOM     62  C   UNL A   1      46.379  33.970  27.586  1.00  0.00     0.135 A 
ATOM     63  C   UNL A   1      46.858  33.457  29.885  1.00  0.00     0.135 A 
ATOM     64  F   UNL A   1      46.003  33.604  26.350  1.00  0.00    -0.206 F 
ATOM     65  C   UNL A   1      46.737  35.298  27.796  1.00  0.00     0.059 A 
ATOM     66  C   UNL A   1      47.191  34.787  30.126  1.00  0.00     0.059 A 
ATOM     67  F   UNL A   1      46.939  32.591  30.908  1.00  0.00    -0.206 F 
ATOM     68  C   UNL A   1      47.142  35.697  29.071  1.00  0.00     0.060 A 
BRANCH  68  69
ATOM     69  S   UNL A   1      47.595  37.425  29.326  1.00  0.00     0.124 S 
ATOM     70  O   UNL A   1      46.927  38.071  28.200  1.00  0.00    -0.237 OA
ATOM     71  O   UNL A   1      47.029  37.704  30.643  1.00  0.00    -0.237 OA
ATOM     72  O   UNL A   1      49.053  37.408  29.264  1.00  0.00    -0.744 OA
ENDBRANCH  68  69
ENDBRANCH  47  61
BRANCH  48  73
ATOM     73  C   UNL A   1      43.339  23.641  27.063  1.00  0.00     0.058 A 
ATOM     74  C   UNL A   1      43.013  23.218  25.766  1.00  0.00     0.135 A 
ATOM     75  C   UNL A   1      43.222  22.705  28.102  1.00  0.00     0.135 A 
ATOM     76  F   UNL A   1      43.100  24.077  24.738  1.00  0.00    -0.206 F 
ATOM     77  C   UNL A   1      42.569  21.924  25.509  1.00  0.00     0.059 A 
ATOM     78  C   UNL A   1      42.809  21.398  27.867  1.00  0.00     0.059 A 
ATOM     79  F   UNL A   1      43.536  23.052  29.360  1.00  0.00    -0.206 F 
ATOM     80  C   UNL A   1      42.475  21.019  26.567  1.00  0.00     0.060 A 
BRANCH  80  81
ATOM     81  S   UNL A   1      41.945  19.329  26.215  1.00  0.00     0.124 S 
ATOM     82  O   UNL A   1      42.780  18.991  25.068  1.00  0.00    -0.237 OA
ATOM     83  O   UNL A   1      42.264  18.643  27.463  1.00  0.00    -0.237 OA
ATOM     84  O   UNL A   1      40.519  19.475  25.936  1.00  0.00    -0.744 OA
ENDBRANCH  80  81
ENDBRANCH  48  73
BRANCH  60  85
ATOM     85  C   UNL A   1      49.497  26.862  26.407  1.00  0.00     0.058 A 
ATOM     86  C   UNL A   1      50.402  26.302  27.322  1.00  0.00     0.135 A 
ATOM     87  C   UNL A   1      49.883  26.915  25.056  1.00  0.00     0.135 A 
ATOM     88  F   UNL A   1      50.089  26.232  28.626  1.00  0.00    -0.206 F 
ATOM     89  C   UNL A   1      51.649  25.835  26.918  1.00  0.00     0.059 A 
ATOM     90  C   UNL A   1      51.112  26.425  24.625  1.00  0.00     0.059 A 
ATOM     91  F   UNL A   1      49.053  27.431  24.136  1.00  0.00    -0.206 F 
ATOM     92  C   UNL A   1      51.993  25.898  25.567  1.00  0.00     0.060 A 
BRANCH  92  93
ATOM     93  S   UNL A   1      53.601  25.256  25.053  1.00  0.00     0.124 S 
ATOM     94  O   UNL A   1      54.502  25.962  25.957  1.00  0.00    -0.237 OA
ATOM     95  O   UNL A   1      53.455  23.823  25.293  1.00  0.00    -0.237 OA
ATOM     96  O   UNL A   1      53.689  25.644  23.648  1.00  0.00    -0.744 OA
ENDBRANCH  92  93
ENDBRANCH  60  85
ENDBRANCH  34  35
ENDBRANCH  26  29
ENDBRANCH  24  25
ENDBRANCH   1  24
TORSDOF 16
ENDMDL
MODEL 2
REMARK VINA RESULT:     -11.8      3.512      5.351
REMARK SMILES C[C@@H]1[C@@H](C(=O)NCCCNC(=O)c2ccc(-c3c4nc(c(-c5c(F)cc(S(=O)(=O)[O-])cc5F)c5ccc([nH]5)c(-c5c(F)cc(S(=O)(=O)[O-])cc5F)c5nc(c(-c6c(F)cc(S(=O)(=O)[O-])cc6F)c6ccc3[nH]6)C=C5)C=C4)cc2)CCN1C(=O)[C@]1([NH3+])CCOC1
REMARK SMILES IDX 8 1 7 2 6 3 4 4 5 5 3 7 1 8 2 9 81 10 79 11 80 12 82 13
REMARK SMILES IDX 83 14 84 15 86 16 89 17 87 18 88 19 85 20 9 24 10 25 11 26
REMARK SMILES IDX 12 28 13 29 14 30 78 31 15 32 77 33 16 34 17 35 18 36 71 37
REMARK SMILES IDX 19 38 76 39 70 40 72 41 20 42 75 43 69 44 68 45 21 47 55 48
REMARK SMILES IDX 34 49 54 50 35 51 38 52 53 53 73 54 36 55 37 56 52 58 74 59
REMARK SMILES IDX 39 60 22 61 23 62 32 63 24 64 25 65 31 66 33 67 26 68 27 69
REMARK SMILES IDX 28 70 29 71 30 72 56 73 57 74 66 75 58 76 59 77 65 78 67 79
REMARK SMILES IDX 60 80 61 81 62 82 63 83 64 84 40 85 41 86 50 87 42 88 43 89
REMARK SMILES IDX 49 90 51 91 44 92 45 93 46 94 47 95 48 96
REMARK H PARENT 6 6 85 21 85 22 85 23 10 27 72 46 38 57
REMARK Flexibility Score: inf
ROOT
ATOM      1  C   UNL A   1      34.060  28.329  25.414  1.00  0.00     0.042 C 
ENDROOT
BRANCH   1   2
ATOM      2  C   UNL A   1      32.930  28.200  24.398  1.00  0.00     0.117 C 
BRANCH   2   3
ATOM      3  N   UNL A   1      33.384  27.629  23.143  1.00  0.00    -0.356 N 
ATOM      4  C   UNL A   1      33.399  26.336  22.720  1.00  0.00     0.225 C 
ATOM      5  O   UNL A   1      33.791  26.110  21.575  1.00  0.00    -0.275 OA
ATOM      6  H   UNL A   1      33.738  28.281  22.495  1.00  0.00     0.163 HD
BRANCH   4   7
ATOM      7  C   UNL A   1      32.896  25.238  23.644  1.00  0.00     0.102 C 
ATOM      8  C   UNL A   1      33.337  24.158  25.860  1.00  0.00     0.032 C 
ATOM      9  C   UNL A   1      33.995  24.716  24.592  1.00  0.00     0.094 C 
ATOM     10  N   UNL A   1      34.657  23.645  23.834  1.00  0.00    -0.334 N 
ATOM     11  C   UNL A   1      32.503  23.981  22.864  1.00  0.00     0.037 C 
ATOM     12  C   UNL A   1      33.812  23.222  22.718  1.00  0.00     0.121 C 
BRANCH  10  13
ATOM     13  C   UNL A   1      35.919  23.095  23.923  1.00  0.00     0.286 C 
ATOM     14  O   UNL A   1      36.731  23.338  23.011  1.00  0.00    -0.267 OA
BRANCH  13  15
ATOM     15  C   UNL A   1      36.431  22.201  25.120  1.00  0.00     0.199 C 
ATOM     16  C   UNL A   1      37.730  21.463  24.868  1.00  0.00     0.110 C 
ATOM     17  C   UNL A   1      35.450  21.105  25.524  1.00  0.00     0.239 C 
ATOM     18  C   UNL A   1      37.354  20.000  24.752  1.00  0.00     0.167 C 
ATOM     19  O   UNL A   1      35.971  19.849  25.063  1.00  0.00    -0.374 OA
BRANCH  15  20
ATOM     20  N   UNL A   1      36.636  23.129  26.286  1.00  0.00    -0.343 N 
ATOM     21  H   UNL A   1      37.632  23.204  26.489  1.00  0.00     0.345 HD
ATOM     22  H   UNL A   1      36.148  22.760  27.103  1.00  0.00     0.345 HD
ATOM     23  H   UNL A   1      36.265  24.051  26.056  1.00  0.00     0.345 HD
ENDBRANCH  15  20
ENDBRANCH  13  15
ENDBRANCH  10  13
ENDBRANCH   4   7
ENDBRANCH   2   3
ENDBRANCH   1   2
BRANCH   1  24
ATOM     24  C   UNL A   1      33.605  28.431  26.867  1.00  0.00     0.118 C 
BRANCH  24  25
ATOM     25  N   UNL A   1      33.502  29.804  27.342  1.00  0.00    -0.352 N 
ATOM     26  C   UNL A   1      34.406  30.569  28.042  1.00  0.00     0.251 C 
ATOM     27  H   UNL A   1      32.654  30.255  27.127  1.00  0.00     0.163 HD
ATOM     28  O   UNL A   1      34.061  31.661  28.474  1.00  0.00    -0.269 OA
BRANCH  26  29
ATOM     29  C   UNL A   1      35.777  30.068  28.301  1.00  0.00     0.039 A 
ATOM     30  C   UNL A   1      36.726  30.147  27.278  1.00  0.00     0.014 A 
ATOM     31  C   UNL A   1      36.131  29.514  29.534  1.00  0.00     0.014 A 
ATOM     32  C   UNL A   1      38.043  29.744  27.516  1.00  0.00     0.010 A 
ATOM     33  C   UNL A   1      37.460  29.189  29.795  1.00  0.00     0.010 A 
ATOM     34  C   UNL A   1      38.433  29.303  28.792  1.00  0.00    -0.014 A 
BRANCH  34  35
ATOM     35  C   UNL A   1      39.852  28.973  29.096  1.00  0.00     0.031 A 
ATOM     36  C   UNL A   1      40.761  30.006  29.709  1.00  0.00     0.074 A 
ATOM     37  C   UNL A   1      40.340  27.760  28.762  1.00  0.00     0.049 A 
ATOM     38  N   UNL A   1      42.038  29.923  29.982  1.00  0.00    -0.248 NA
ATOM     39  C   UNL A   1      40.162  31.308  30.036  1.00  0.00     0.031 C 
ATOM     40  C   UNL A   1      39.574  26.688  28.123  1.00  0.00     0.029 A 
ATOM     41  N   UNL A   1      41.598  27.228  28.903  1.00  0.00    -0.354 N 
ATOM     42  C   UNL A   1      42.397  31.162  30.502  1.00  0.00     0.074 A 
ATOM     43  C   UNL A   1      41.215  31.995  30.455  1.00  0.00     0.031 C 
ATOM     44  C   UNL A   1      40.370  25.620  27.951  1.00  0.00     0.029 A 
ATOM     45  C   UNL A   1      41.712  25.943  28.423  1.00  0.00     0.049 A 
ATOM     46  H   UNL A   1      42.348  27.719  29.310  1.00  0.00     0.167 HD
ATOM     47  C   UNL A   1      43.594  31.560  30.996  1.00  0.00     0.037 A 
ATOM     48  C   UNL A   1      42.779  25.122  28.357  1.00  0.00     0.037 A 
ATOM     49  C   UNL A   1      44.764  30.720  31.054  1.00  0.00     0.049 A 
ATOM     50  C   UNL A   1      44.105  25.596  28.890  1.00  0.00     0.074 A 
ATOM     51  C   UNL A   1      46.009  31.017  31.580  1.00  0.00     0.029 A 
ATOM     52  N   UNL A   1      44.837  29.424  30.564  1.00  0.00    -0.354 N 
ATOM     53  N   UNL A   1      44.409  26.749  29.435  1.00  0.00    -0.248 NA
ATOM     54  C   UNL A   1      45.230  24.656  28.805  1.00  0.00     0.031 C 
ATOM     55  C   UNL A   1      46.849  29.921  31.362  1.00  0.00     0.029 A 
ATOM     56  C   UNL A   1      46.112  28.916  30.754  1.00  0.00     0.049 A 
ATOM     57  H   UNL A   1      44.092  28.937  30.143  1.00  0.00     0.167 HD
ATOM     58  C   UNL A   1      45.752  26.662  29.787  1.00  0.00     0.074 A 
ATOM     59  C   UNL A   1      46.197  25.338  29.403  1.00  0.00     0.031 C 
ATOM     60  C   UNL A   1      46.543  27.593  30.377  1.00  0.00     0.037 A 
BRANCH  47  61
ATOM     61  C   UNL A   1      43.703  32.969  31.517  1.00  0.00     0.058 A 
ATOM     62  C   UNL A   1      43.465  33.278  32.867  1.00  0.00     0.135 A 
ATOM     63  C   UNL A   1      44.091  34.018  30.668  1.00  0.00     0.135 A 
ATOM     64  F   UNL A   1      43.078  32.317  33.722  1.00  0.00    -0.206 F 
ATOM     65  C   UNL A   1      43.578  34.578  33.349  1.00  0.00     0.059 A 
ATOM     66  C   UNL A   1      44.242  35.321  31.136  1.00  0.00     0.059 A 
ATOM     67  F   UNL A   1      44.333  33.783  29.369  1.00  0.00    -0.206 F 
ATOM     68  C   UNL A   1      43.969  35.593  32.475  1.00  0.00     0.060 A 
BRANCH  68  69
ATOM     69  S   UNL A   1      44.118  37.272  33.120  1.00  0.00     0.124 S 
ATOM     70  O   UNL A   1      44.087  38.060  31.891  1.00  0.00    -0.237 OA
ATOM     71  O   UNL A   1      42.939  37.384  33.973  1.00  0.00    -0.237 OA
ATOM     72  O   UNL A   1      45.398  37.256  33.821  1.00  0.00    -0.744 OA
ENDBRANCH  68  69
ENDBRANCH  47  61
BRANCH  48  73
ATOM     73  C   UNL A   1      42.634  23.758  27.778  1.00  0.00     0.058 A 
ATOM     74  C   UNL A   1      42.456  22.639  28.604  1.00  0.00     0.135 A 
ATOM     75  C   UNL A   1      42.662  23.546  26.391  1.00  0.00     0.135 A 
ATOM     76  F   UNL A   1      42.430  22.786  29.938  1.00  0.00    -0.206 F 
ATOM     77  C   UNL A   1      42.330  21.356  28.079  1.00  0.00     0.059 A 
ATOM     78  C   UNL A   1      42.509  22.277  25.840  1.00  0.00     0.059 A 
ATOM     79  F   UNL A   1      42.814  24.584  25.554  1.00  0.00    -0.206 F 
ATOM     80  C   UNL A   1      42.354  21.186  26.695  1.00  0.00     0.060 A 
BRANCH  80  81
ATOM     81  S   UNL A   1      42.140  19.524  26.023  1.00  0.00     0.124 S 
ATOM     82  O   UNL A   1      42.591  18.696  27.135  1.00  0.00    -0.237 OA
ATOM     83  O   UNL A   1      40.709  19.490  25.739  1.00  0.00    -0.237 OA
ATOM     84  O   UNL A   1      43.004  19.524  24.845  1.00  0.00    -0.744 OA
ENDBRANCH  80  81
ENDBRANCH  48  73
BRANCH  60  85
ATOM     85  C   UNL A   1      47.964  27.203  30.685  1.00  0.00     0.058 A 
ATOM     86  C   UNL A   1      48.316  26.561  31.883  1.00  0.00     0.135 A 
ATOM     87  C   UNL A   1      48.980  27.430  29.742  1.00  0.00     0.135 A 
ATOM     88  F   UNL A   1      47.386  26.326  32.822  1.00  0.00    -0.206 F 
ATOM     89  C   UNL A   1      49.628  26.179  32.144  1.00  0.00     0.059 A 
ATOM     90  C   UNL A   1      50.293  27.029  29.969  1.00  0.00     0.059 A 
ATOM     91  F   UNL A   1      48.698  28.032  28.575  1.00  0.00    -0.206 F 
ATOM     92  C   UNL A   1      50.609  26.415  31.179  1.00  0.00     0.060 A 
BRANCH  92  93
ATOM     93  S   UNL A   1      52.301  25.882  31.518  1.00  0.00     0.124 S 
ATOM     94  O   UNL A   1      52.915  25.998  30.200  1.00  0.00    -0.237 OA
ATOM     95  O   UNL A   1      52.741  26.858  32.511  1.00  0.00    -0.237 OA
ATOM     96  O   UNL A   1      52.136  24.520  32.017  1.00  0.00    -0.744 OA
ENDBRANCH  92  93
ENDBRANCH  60  85
ENDBRANCH  34  35
ENDBRANCH  26  29
ENDBRANCH  24  25
ENDBRANCH   1  24
TORSDOF 16
ENDMDL
MODEL 3
REMARK VINA RESULT:     -11.5      3.115      9.037
REMARK SMILES C[C@@H]1[C@@H](C(=O)NCCCNC(=O)c2ccc(-c3c4nc(c(-c5c(F)cc(S(=O)(=O)[O-])cc5F)c5ccc([nH]5)c(-c5c(F)cc(S(=O)(=O)[O-])cc5F)c5nc(c(-c6c(F)cc(S(=O)(=O)[O-])cc6F)c6ccc3[nH]6)C=C5)C=C4)cc2)CCN1C(=O)[C@]1([NH3+])CCOC1
REMARK SMILES IDX 8 1 7 2 6 3 4 4 5 5 3 7 1 8 2 9 81 10 79 11 80 12 82 13
REMARK SMILES IDX 83 14 84 15 86 16 89 17 87 18 88 19 85 20 9 24 10 25 11 26
REMARK SMILES IDX 12 28 13 29 14 30 78 31 15 32 77 33 16 34 17 35 18 36 71 37
REMARK SMILES IDX 19 38 76 39 70 40 72 41 20 42 75 43 69 44 68 45 21 47 55 48
REMARK SMILES IDX 34 49 54 50 35 51 38 52 53 53 73 54 36 55 37 56 52 58 74 59
REMARK SMILES IDX 39 60 22 61 23 62 32 63 24 64 25 65 31 66 33 67 26 68 27 69
REMARK SMILES IDX 28 70 29 71 30 72 56 73 57 74 66 75 58 76 59 77 65 78 67 79
REMARK SMILES IDX 60 80 61 81 62 82 63 83 64 84 40 85 41 86 50 87 42 88 43 89
REMARK SMILES IDX 49 90 51 91 44 92 45 93 46 94 47 95 48 96
REMARK H PARENT 6 6 85 21 85 22 85 23 10 27 72 46 38 57
REMARK Flexibility Score: inf
ROOT
ATOM      1  C   UNL A   1      38.165  20.009  25.016  1.00  0.00     0.042 C 
ENDROOT
BRANCH   1   2
ATOM      2  C   UNL A   1      37.135  21.120  24.844  1.00  0.00     0.117 C 
BRANCH   2   3
ATOM      3  N   UNL A   1      36.235  21.214  25.980  1.00  0.00    -0.356 N 
ATOM      4  C   UNL A   1      35.195  22.061  26.208  1.00  0.00     0.225 C 
ATOM      5  O   UNL A   1      34.542  21.903  27.241  1.00  0.00    -0.275 OA
ATOM      6  H   UNL A   1      36.405  20.563  26.698  1.00  0.00     0.163 HD
BRANCH   4   7
ATOM      7  C   UNL A   1      34.851  23.124  25.177  1.00  0.00     0.102 C 
ATOM      8  C   UNL A   1      34.273  25.549  24.950  1.00  0.00     0.032 C 
ATOM      9  C   UNL A   1      34.025  24.280  25.775  1.00  0.00     0.094 C 
ATOM     10  N   UNL A   1      32.629  23.840  25.648  1.00  0.00    -0.334 N 
ATOM     11  C   UNL A   1      33.921  22.576  24.091  1.00  0.00     0.037 C 
ATOM     12  C   UNL A   1      32.533  22.743  24.687  1.00  0.00     0.121 C 
BRANCH  10  13
ATOM     13  C   UNL A   1      31.485  24.188  26.337  1.00  0.00     0.286 C 
ATOM     14  O   UNL A   1      31.221  23.569  27.385  1.00  0.00    -0.267 OA
BRANCH  13  15
ATOM     15  C   UNL A   1      30.494  25.342  25.916  1.00  0.00     0.199 C 
ATOM     16  C   UNL A   1      30.252  25.477  24.426  1.00  0.00     0.110 C 
ATOM     17  C   UNL A   1      30.958  26.730  26.347  1.00  0.00     0.239 C 
ATOM     18  C   UNL A   1      30.941  26.762  24.014  1.00  0.00     0.167 C 
ATOM     19  O   UNL A   1      31.421  27.428  25.180  1.00  0.00    -0.374 OA
BRANCH  15  20
ATOM     20  N   UNL A   1      29.180  25.038  26.579  1.00  0.00    -0.343 N 
ATOM     21  H   UNL A   1      28.566  25.849  26.507  1.00  0.00     0.345 HD
ATOM     22  H   UNL A   1      29.339  24.816  27.563  1.00  0.00     0.345 HD
ATOM     23  H   UNL A   1      28.743  24.240  26.117  1.00  0.00     0.345 HD
ENDBRANCH  15  20
ENDBRANCH  13  15
ENDBRANCH  10  13
ENDBRANCH   4   7
ENDBRANCH   2   3
ENDBRANCH   1   2
BRANCH   1  24
ATOM     24  C   UNL A   1      39.323  20.348  25.949  1.00  0.00     0.118 C 
BRANCH  24  25
ATOM     25  N   UNL A   1      40.339  19.306  26.006  1.00  0.00    -0.352 N 
ATOM     26  C   UNL A   1      41.705  19.407  26.141  1.00  0.00     0.251 C 
ATOM     27  H   UNL A   1      39.995  18.386  25.940  1.00  0.00     0.163 HD
ATOM     28  O   UNL A   1      42.396  18.404  26.018  1.00  0.00    -0.269 OA
BRANCH  26  29
ATOM     29  C   UNL A   1      42.342  20.721  26.399  1.00  0.00     0.039 A 
ATOM     30  C   UNL A   1      42.853  21.445  25.318  1.00  0.00     0.014 A 
ATOM     31  C   UNL A   1      42.447  21.239  27.692  1.00  0.00     0.014 A 
ATOM     32  C   UNL A   1      43.397  22.715  25.525  1.00  0.00     0.010 A 
ATOM     33  C   UNL A   1      42.915  22.537  27.887  1.00  0.00     0.010 A 
ATOM     34  C   UNL A   1      43.392  23.292  26.806  1.00  0.00    -0.014 A 
BRANCH  34  35
ATOM     35  C   UNL A   1      43.866  24.685  27.029  1.00  0.00     0.031 A 
ATOM     36  C   UNL A   1      45.320  25.034  26.852  1.00  0.00     0.074 A 
ATOM     37  C   UNL A   1      42.995  25.625  27.451  1.00  0.00     0.049 A 
ATOM     38  N   UNL A   1      45.927  26.173  27.065  1.00  0.00    -0.248 NA
ATOM     39  C   UNL A   1      46.212  23.956  26.399  1.00  0.00     0.031 C 
ATOM     40  C   UNL A   1      41.569  25.405  27.702  1.00  0.00     0.029 A 
ATOM     41  N   UNL A   1      43.181  26.951  27.755  1.00  0.00    -0.354 N 
ATOM     42  C   UNL A   1      47.270  25.948  26.783  1.00  0.00     0.074 A 
ATOM     43  C   UNL A   1      47.396  24.548  26.437  1.00  0.00     0.031 C 
ATOM     44  C   UNL A   1      41.007  26.559  28.096  1.00  0.00     0.029 A 
ATOM     45  C   UNL A   1      42.036  27.591  28.172  1.00  0.00     0.049 A 
ATOM     46  H   UNL A   1      44.052  27.403  27.681  1.00  0.00     0.167 HD
ATOM     47  C   UNL A   1      48.298  26.830  26.788  1.00  0.00     0.037 A 
ATOM     48  C   UNL A   1      41.837  28.859  28.581  1.00  0.00     0.037 A 
ATOM     49  C   UNL A   1      48.163  28.226  27.119  1.00  0.00     0.049 A 
ATOM     50  C   UNL A   1      43.000  29.814  28.602  1.00  0.00     0.074 A 
ATOM     51  C   UNL A   1      49.136  29.210  27.107  1.00  0.00     0.029 A 
ATOM     52  N   UNL A   1      46.985  28.835  27.530  1.00  0.00    -0.354 N 
ATOM     53  N   UNL A   1      44.251  29.598  28.272  1.00  0.00    -0.248 NA
ATOM     54  C   UNL A   1      42.724  31.188  29.043  1.00  0.00     0.031 C 
ATOM     55  C   UNL A   1      48.560  30.401  27.559  1.00  0.00     0.029 A 
ATOM     56  C   UNL A   1      47.213  30.176  27.796  1.00  0.00     0.049 A 
ATOM     57  H   UNL A   1      46.116  28.381  27.619  1.00  0.00     0.167 HD
ATOM     58  C   UNL A   1      44.904  30.814  28.436  1.00  0.00     0.074 A 
ATOM     59  C   UNL A   1      43.908  31.765  28.883  1.00  0.00     0.031 C 
ATOM     60  C   UNL A   1      46.211  31.117  28.231  1.00  0.00     0.037 A 
BRANCH  47  61
ATOM     61  C   UNL A   1      49.666  26.314  26.423  1.00  0.00     0.058 A 
ATOM     62  C   UNL A   1      50.167  26.414  25.114  1.00  0.00     0.135 A 
ATOM     63  C   UNL A   1      50.504  25.753  27.400  1.00  0.00     0.135 A 
ATOM     64  F   UNL A   1      49.405  26.930  24.136  1.00  0.00    -0.206 F 
ATOM     65  C   UNL A   1      51.435  25.948  24.781  1.00  0.00     0.059 A 
ATOM     66  C   UNL A   1      51.788  25.309  27.096  1.00  0.00     0.059 A 
ATOM     67  F   UNL A   1      50.078  25.632  28.668  1.00  0.00    -0.206 F 
ATOM     68  C   UNL A   1      52.239  25.398  25.781  1.00  0.00     0.060 A 
BRANCH  68  69
ATOM     69  S   UNL A   1      53.884  24.807  25.331  1.00  0.00     0.124 S 
ATOM     70  O   UNL A   1      54.644  25.114  26.540  1.00  0.00    -0.237 OA
ATOM     71  O   UNL A   1      53.646  23.390  25.076  1.00  0.00    -0.237 OA
ATOM     72  O   UNL A   1      54.225  25.605  24.158  1.00  0.00    -0.744 OA
ENDBRANCH  68  69
ENDBRANCH  47  61
BRANCH  48  73
ATOM     73  C   UNL A   1      40.477  29.305  28.990  1.00  0.00     0.058 A 
ATOM     74  C   UNL A   1      40.148  29.471  30.343  1.00  0.00     0.135 A 
ATOM     75  C   UNL A   1      39.482  29.581  28.039  1.00  0.00     0.135 A 
ATOM     76  F   UNL A   1      41.061  29.213  31.292  1.00  0.00    -0.206 F 
ATOM     77  C   UNL A   1      38.877  29.877  30.742  1.00  0.00     0.059 A 
ATOM     78  C   UNL A   1      38.214  30.016  28.411  1.00  0.00     0.059 A 
ATOM     79  F   UNL A   1      39.748  29.454  26.730  1.00  0.00    -0.206 F 
ATOM     80  C   UNL A   1      37.918  30.152  29.767  1.00  0.00     0.060 A 
BRANCH  80  81
ATOM     81  S   UNL A   1      36.289  30.725  30.293  1.00  0.00     0.124 S 
ATOM     82  O   UNL A   1      36.566  32.109  30.656  1.00  0.00    -0.237 OA
ATOM     83  O   UNL A   1      35.491  30.527  29.088  1.00  0.00    -0.237 OA
ATOM     84  O   UNL A   1      35.963  29.834  31.404  1.00  0.00    -0.744 OA
ENDBRANCH  80  81
ENDBRANCH  48  73
BRANCH  60  85
ATOM     85  C   UNL A   1      46.636  32.544  28.448  1.00  0.00     0.058 A 
ATOM     86  C   UNL A   1      47.161  32.987  29.672  1.00  0.00     0.135 A 
ATOM     87  C   UNL A   1      46.567  33.471  27.393  1.00  0.00     0.135 A 
ATOM     88  F   UNL A   1      47.243  32.146  30.716  1.00  0.00    -0.206 F 
ATOM     89  C   UNL A   1      47.578  34.302  29.851  1.00  0.00     0.059 A 
ATOM     90  C   UNL A   1      47.008  34.783  27.541  1.00  0.00     0.059 A 
ATOM     91  F   UNL A   1      46.084  33.100  26.197  1.00  0.00    -0.206 F 
ATOM     92  C   UNL A   1      47.501  35.192  28.778  1.00  0.00     0.060 A 
BRANCH  92  93
ATOM     93  S   UNL A   1      48.079  36.886  29.016  1.00  0.00     0.124 S 
ATOM     94  O   UNL A   1      48.881  37.094  27.816  1.00  0.00    -0.237 OA
ATOM     95  O   UNL A   1      46.827  37.635  29.082  1.00  0.00    -0.237 OA
ATOM     96  O   UNL A   1      48.827  36.818  30.269  1.00  0.00    -0.744 OA
ENDBRANCH  92  93
ENDBRANCH  60  85
ENDBRANCH  34  35
ENDBRANCH  26  29
ENDBRANCH  24  25
ENDBRANCH   1  24
TORSDOF 16
ENDMDL
