MODEL 1
REMARK VINA RESULT:      -9.9      0.000      0.000
REMARK SMILES C[C@H]([C@@H](C)O)[NH+]1CCC(C)(C(=O)NCCCNC(=O)c2ccc(-c3c4nc(c(-c5c(F)cc(S(=O)(=O)[O-])cc5F)c5ccc([nH]5)c(-c5c(F)cc(S(=O)(=O)[O-])cc5F)c5nc(c(-c6c(F)cc(S(=O)(=O)[O-])cc6F)c6ccc3[nH]6)C=C5)C=C4)cc2)CC1
REMARK SMILES IDX 15 1 14 2 13 3 11 4 12 5 9 7 6 8 7 9 87 10 8 12 86 13 10 14
REMARK SMILES IDX 2 15 1 16 3 17 4 18 5 19 16 21 17 22 18 23 19 25 20 26 21 27
REMARK SMILES IDX 85 28 22 29 84 30 23 31 24 32 25 33 78 34 26 35 83 36 77 37
REMARK SMILES IDX 79 38 27 39 82 40 76 41 75 42 28 44 62 45 41 46 61 47 42 48
REMARK SMILES IDX 45 49 60 50 80 51 43 52 44 53 59 55 81 56 46 57 29 58 30 59
REMARK SMILES IDX 39 60 31 61 32 62 38 63 40 64 33 65 34 66 35 67 36 68 37 69
REMARK SMILES IDX 63 70 64 71 73 72 65 73 66 74 72 75 74 76 67 77 68 78 69 79
REMARK SMILES IDX 70 80 71 81 47 82 48 83 57 84 49 85 50 86 56 87 58 88 51 89
REMARK SMILES IDX 52 90 53 91 54 92 55 93
REMARK H PARENT 13 6 6 11 5 20 17 24 79 43 45 54
REMARK Flexibility Score: inf
ROOT
ATOM      1  C   UNL A   1      34.665  32.962  29.594  1.00  0.00     0.042 C 
ENDROOT
BRANCH   1   2
ATOM      2  C   UNL A   1      35.860  33.874  29.836  1.00  0.00     0.117 C 
BRANCH   2   3
ATOM      3  N   UNL A   1      35.722  34.591  31.090  1.00  0.00    -0.356 N 
ATOM      4  C   UNL A   1      36.378  34.515  32.273  1.00  0.00     0.226 C 
ATOM      5  O   UNL A   1      35.889  35.180  33.193  1.00  0.00    -0.274 OA
ATOM      6  H   UNL A   1      35.009  35.269  31.079  1.00  0.00     0.163 HD
BRANCH   4   7
ATOM      7  C   UNL A   1      37.680  33.712  32.455  1.00  0.00     0.057 C 
ATOM      8  N   UNL A   1      37.359  31.319  34.213  1.00  0.00    -0.331 N 
ATOM      9  C   UNL A   1      36.796  31.331  32.861  1.00  0.00     0.263 C 
ATOM     10  C   UNL A   1      37.284  32.657  34.781  1.00  0.00     0.263 C 
ATOM     11  H   UNL A   1      36.789  30.769  34.857  1.00  0.00     0.348 HD
ATOM     12  C   UNL A   1      37.579  32.259  31.932  1.00  0.00     0.078 C 
ATOM     13  C   UNL A   1      38.039  33.711  33.969  1.00  0.00     0.078 C 
ATOM     14  C   UNL A   1      38.826  34.462  31.742  1.00  0.00     0.022 C 
BRANCH   8  15
ATOM     15  C   UNL A   1      38.602  30.521  34.329  1.00  0.00     0.209 C 
ATOM     16  C   UNL A   1      39.683  31.499  34.824  1.00  0.00     0.078 C 
BRANCH  15  17
ATOM     17  C   UNL A   1      39.135  29.609  33.171  1.00  0.00     0.169 C 
ATOM     18  C   UNL A   1      40.620  29.258  33.161  1.00  0.00     0.045 C 
BRANCH  17  19
ATOM     19  O   UNL A   1      38.409  28.364  33.164  1.00  0.00    -0.387 OA
ATOM     20  H   UNL A   1      38.680  27.829  33.926  1.00  0.00     0.211 HD
ENDBRANCH  17  19
ENDBRANCH  15  17
ENDBRANCH   8  15
ENDBRANCH   4   7
ENDBRANCH   2   3
ENDBRANCH   1   2
BRANCH   1  21
ATOM     21  C   UNL A   1      34.522  32.527  28.141  1.00  0.00     0.118 C 
BRANCH  21  22
ATOM     22  N   UNL A   1      33.862  31.235  28.014  1.00  0.00    -0.352 N 
ATOM     23  C   UNL A   1      34.408  29.978  27.927  1.00  0.00     0.251 C 
ATOM     24  H   UNL A   1      32.879  31.266  27.988  1.00  0.00     0.163 HD
ATOM     25  O   UNL A   1      33.710  29.033  27.580  1.00  0.00    -0.269 OA
BRANCH  23  26
ATOM     26  C   UNL A   1      35.839  29.782  28.238  1.00  0.00     0.039 A 
ATOM     27  C   UNL A   1      36.208  29.378  29.522  1.00  0.00     0.014 A 
ATOM     28  C   UNL A   1      36.812  29.996  27.258  1.00  0.00     0.014 A 
ATOM     29  C   UNL A   1      37.551  29.126  29.803  1.00  0.00     0.010 A 
ATOM     30  C   UNL A   1      38.133  29.648  27.510  1.00  0.00     0.010 A 
ATOM     31  C   UNL A   1      38.519  29.221  28.788  1.00  0.00    -0.014 A 
BRANCH  31  32
ATOM     32  C   UNL A   1      39.944  28.889  29.044  1.00  0.00     0.031 A 
ATOM     33  C   UNL A   1      40.867  29.934  29.611  1.00  0.00     0.074 A 
ATOM     34  C   UNL A   1      40.415  27.674  28.705  1.00  0.00     0.049 A 
ATOM     35  N   UNL A   1      42.153  29.862  29.839  1.00  0.00    -0.248 NA
ATOM     36  C   UNL A   1      40.275  31.243  29.934  1.00  0.00     0.031 C 
ATOM     37  C   UNL A   1      39.626  26.598  28.100  1.00  0.00     0.029 A 
ATOM     38  N   UNL A   1      41.674  27.139  28.813  1.00  0.00    -0.354 N 
ATOM     39  C   UNL A   1      42.524  31.113  30.317  1.00  0.00     0.074 A 
ATOM     40  C   UNL A   1      41.342  31.945  30.287  1.00  0.00     0.031 C 
ATOM     41  C   UNL A   1      40.412  25.526  27.915  1.00  0.00     0.029 A 
ATOM     42  C   UNL A   1      41.768  25.848  28.346  1.00  0.00     0.049 A 
ATOM     43  H   UNL A   1      42.439  27.632  29.189  1.00  0.00     0.167 HD
ATOM     44  C   UNL A   1      43.733  31.524  30.766  1.00  0.00     0.037 A 
ATOM     45  C   UNL A   1      42.830  25.023  28.265  1.00  0.00     0.037 A 
ATOM     46  C   UNL A   1      44.898  30.679  30.814  1.00  0.00     0.049 A 
ATOM     47  C   UNL A   1      44.166  25.503  28.765  1.00  0.00     0.074 A 
ATOM     48  C   UNL A   1      46.156  30.977  31.305  1.00  0.00     0.029 A 
ATOM     49  N   UNL A   1      44.949  29.372  30.349  1.00  0.00    -0.354 N 
ATOM     50  N   UNL A   1      44.482  26.669  29.280  1.00  0.00    -0.248 NA
ATOM     51  C   UNL A   1      45.286  24.558  28.680  1.00  0.00     0.031 C 
ATOM     52  C   UNL A   1      46.983  29.871  31.089  1.00  0.00     0.029 A 
ATOM     53  C   UNL A   1      46.225  28.860  30.519  1.00  0.00     0.049 A 
ATOM     54  H   UNL A   1      44.191  28.882  29.957  1.00  0.00     0.167 HD
ATOM     55  C   UNL A   1      45.832  26.585  29.607  1.00  0.00     0.074 A 
ATOM     56  C   UNL A   1      46.266  25.251  29.244  1.00  0.00     0.031 C 
ATOM     57  C   UNL A   1      46.638  27.525  30.158  1.00  0.00     0.037 A 
BRANCH  44  58
ATOM     58  C   UNL A   1      43.857  32.946  31.245  1.00  0.00     0.058 A 
ATOM     59  C   UNL A   1      44.353  33.966  30.416  1.00  0.00     0.135 A 
ATOM     60  C   UNL A   1      43.440  33.302  32.539  1.00  0.00     0.135 A 
ATOM     61  F   UNL A   1      44.781  33.682  29.176  1.00  0.00    -0.206 F 
ATOM     62  C   UNL A   1      44.461  35.279  30.861  1.00  0.00     0.059 A 
ATOM     63  C   UNL A   1      43.509  34.615  32.994  1.00  0.00     0.059 A 
ATOM     64  F   UNL A   1      42.960  32.368  33.375  1.00  0.00    -0.206 F 
ATOM     65  C   UNL A   1      44.034  35.594  32.153  1.00  0.00     0.060 A 
BRANCH  65  66
ATOM     66  S   UNL A   1      44.171  37.306  32.709  1.00  0.00     0.124 S 
ATOM     67  O   UNL A   1      43.164  37.350  33.764  1.00  0.00    -0.237 OA
ATOM     68  O   UNL A   1      45.559  37.378  33.154  1.00  0.00    -0.237 OA
ATOM     69  O   UNL A   1      43.858  38.079  31.510  1.00  0.00    -0.744 OA
ENDBRANCH  65  66
ENDBRANCH  44  58
BRANCH  45  70
ATOM     70  C   UNL A   1      42.666  23.652  27.709  1.00  0.00     0.058 A 
ATOM     71  C   UNL A   1      42.762  23.415  26.329  1.00  0.00     0.135 A 
ATOM     72  C   UNL A   1      42.426  22.550  28.544  1.00  0.00     0.135 A 
ATOM     73  F   UNL A   1      42.986  24.436  25.488  1.00  0.00    -0.206 F 
ATOM     74  C   UNL A   1      42.605  22.141  25.795  1.00  0.00     0.059 A 
ATOM     75  C   UNL A   1      42.295  21.262  28.037  1.00  0.00     0.059 A 
ATOM     76  F   UNL A   1      42.344  22.718  29.874  1.00  0.00    -0.206 F 
ATOM     77  C   UNL A   1      42.375  21.068  26.658  1.00  0.00     0.060 A 
BRANCH  77  78
ATOM     78  S   UNL A   1      42.220  19.411  25.958  1.00  0.00     0.124 S 
ATOM     79  O   UNL A   1      43.039  19.523  24.756  1.00  0.00    -0.237 OA
ATOM     80  O   UNL A   1      42.763  18.577  27.026  1.00  0.00    -0.237 OA
ATOM     81  O   UNL A   1      40.785  19.274  25.734  1.00  0.00    -0.744 OA
ENDBRANCH  77  78
ENDBRANCH  45  70
BRANCH  57  82
ATOM     82  C   UNL A   1      48.063  27.138  30.443  1.00  0.00     0.058 A 
ATOM     83  C   UNL A   1      49.088  27.346  29.508  1.00  0.00     0.135 A 
ATOM     84  C   UNL A   1      48.415  26.601  31.693  1.00  0.00     0.135 A 
ATOM     85  F   UNL A   1      48.806  27.850  28.296  1.00  0.00    -0.206 F 
ATOM     86  C   UNL A   1      50.409  27.013  29.791  1.00  0.00     0.059 A 
ATOM     87  C   UNL A   1      49.734  26.291  32.010  1.00  0.00     0.059 A 
ATOM     88  F   UNL A   1      47.475  26.391  32.628  1.00  0.00    -0.206 F 
ATOM     89  C   UNL A   1      50.722  26.490  31.047  1.00  0.00     0.060 A 
BRANCH  89  90
ATOM     90  S   UNL A   1      52.445  26.096  31.415  1.00  0.00     0.124 S 
ATOM     91  O   UNL A   1      52.327  24.749  31.965  1.00  0.00    -0.237 OA
ATOM     92  O   UNL A   1      53.073  26.190  30.100  1.00  0.00    -0.237 OA
ATOM     93  O   UNL A   1      52.836  27.132  32.367  1.00  0.00    -0.744 OA
ENDBRANCH  89  90
ENDBRANCH  57  82
ENDBRANCH  31  32
ENDBRANCH  23  26
ENDBRANCH  21  22
ENDBRANCH   1  21
TORSDOF 16
ENDMDL
MODEL 2
REMARK VINA RESULT:      -9.7      1.263      2.195
REMARK SMILES C[C@H]([C@@H](C)O)[NH+]1CCC(C)(C(=O)NCCCNC(=O)c2ccc(-c3c4nc(c(-c5c(F)cc(S(=O)(=O)[O-])cc5F)c5ccc([nH]5)c(-c5c(F)cc(S(=O)(=O)[O-])cc5F)c5nc(c(-c6c(F)cc(S(=O)(=O)[O-])cc6F)c6ccc3[nH]6)C=C5)C=C4)cc2)CC1
REMARK SMILES IDX 15 1 14 2 13 3 11 4 12 5 9 7 6 8 7 9 87 10 8 12 86 13 10 14
REMARK SMILES IDX 2 15 1 16 3 17 4 18 5 19 16 21 17 22 18 23 19 25 20 26 21 27
REMARK SMILES IDX 85 28 22 29 84 30 23 31 24 32 25 33 78 34 26 35 83 36 77 37
REMARK SMILES IDX 79 38 27 39 82 40 76 41 75 42 28 44 62 45 41 46 61 47 42 48
REMARK SMILES IDX 45 49 60 50 80 51 43 52 44 53 59 55 81 56 46 57 29 58 30 59
REMARK SMILES IDX 39 60 31 61 32 62 38 63 40 64 33 65 34 66 35 67 36 68 37 69
REMARK SMILES IDX 63 70 64 71 73 72 65 73 66 74 72 75 74 76 67 77 68 78 69 79
REMARK SMILES IDX 70 80 71 81 47 82 48 83 57 84 49 85 50 86 56 87 58 88 51 89
REMARK SMILES IDX 52 90 53 91 54 92 55 93
REMARK H PARENT 13 6 6 11 5 20 17 24 79 43 45 54
REMARK Flexibility Score: inf
ROOT
ATOM      1  C   UNL A   1      35.195  32.845  29.347  1.00  0.00     0.042 C 
ENDROOT
BRANCH   1   2
ATOM      2  C   UNL A   1      34.458  33.973  30.056  1.00  0.00     0.117 C 
BRANCH   2   3
ATOM      3  N   UNL A   1      33.897  33.518  31.314  1.00  0.00    -0.356 N 
ATOM      4  C   UNL A   1      34.230  33.743  32.608  1.00  0.00     0.226 C 
ATOM      5  O   UNL A   1      33.619  33.061  33.438  1.00  0.00    -0.274 OA
ATOM      6  H   UNL A   1      33.117  32.928  31.206  1.00  0.00     0.163 HD
BRANCH   4   7
ATOM      7  C   UNL A   1      35.249  34.817  33.032  1.00  0.00     0.057 C 
ATOM      8  N   UNL A   1      37.893  33.686  33.842  1.00  0.00    -0.331 N 
ATOM      9  C   UNL A   1      37.490  33.705  32.434  1.00  0.00     0.263 C 
ATOM     10  C   UNL A   1      36.721  33.474  34.678  1.00  0.00     0.263 C 
ATOM     11  H   UNL A   1      38.475  32.877  34.059  1.00  0.00     0.348 HD
ATOM     12  C   UNL A   1      36.514  34.845  32.141  1.00  0.00     0.078 C 
ATOM     13  C   UNL A   1      35.645  34.549  34.513  1.00  0.00     0.078 C 
ATOM     14  C   UNL A   1      34.551  36.194  33.017  1.00  0.00     0.022 C 
BRANCH   8  15
ATOM     15  C   UNL A   1      38.882  34.733  34.187  1.00  0.00     0.209 C 
ATOM     16  C   UNL A   1      40.102  34.472  33.285  1.00  0.00     0.078 C 
BRANCH  15  17
ATOM     17  C   UNL A   1      39.310  35.043  35.662  1.00  0.00     0.169 C 
ATOM     18  C   UNL A   1      40.464  34.239  36.257  1.00  0.00     0.045 C 
BRANCH  17  19
ATOM     19  O   UNL A   1      39.663  36.434  35.781  1.00  0.00    -0.387 OA
ATOM     20  H   UNL A   1      40.356  36.535  36.452  1.00  0.00     0.211 HD
ENDBRANCH  17  19
ENDBRANCH  15  17
ENDBRANCH   8  15
ENDBRANCH   4   7
ENDBRANCH   2   3
ENDBRANCH   1   2
BRANCH   1  21
ATOM     21  C   UNL A   1      34.634  32.532  27.966  1.00  0.00     0.118 C 
BRANCH  21  22
ATOM     22  N   UNL A   1      33.960  31.241  27.923  1.00  0.00    -0.352 N 
ATOM     23  C   UNL A   1      34.491  29.975  27.938  1.00  0.00     0.251 C 
ATOM     24  H   UNL A   1      32.978  31.282  27.878  1.00  0.00     0.163 HD
ATOM     25  O   UNL A   1      33.787  29.015  27.650  1.00  0.00    -0.269 OA
BRANCH  23  26
ATOM     26  C   UNL A   1      35.914  29.786  28.286  1.00  0.00     0.039 A 
ATOM     27  C   UNL A   1      36.250  29.358  29.572  1.00  0.00     0.014 A 
ATOM     28  C   UNL A   1      36.913  30.030  27.340  1.00  0.00     0.014 A 
ATOM     29  C   UNL A   1      37.587  29.113  29.887  1.00  0.00     0.010 A 
ATOM     30  C   UNL A   1      38.229  29.689  27.624  1.00  0.00     0.010 A 
ATOM     31  C   UNL A   1      38.583  29.238  28.903  1.00  0.00    -0.014 A 
BRANCH  31  32
ATOM     32  C   UNL A   1      40.002  28.915  29.194  1.00  0.00     0.031 A 
ATOM     33  C   UNL A   1      40.893  29.949  29.830  1.00  0.00     0.074 A 
ATOM     34  C   UNL A   1      40.501  27.719  28.826  1.00  0.00     0.049 A 
ATOM     35  N   UNL A   1      42.171  29.883  30.098  1.00  0.00    -0.248 NA
ATOM     36  C   UNL A   1      40.273  31.237  30.182  1.00  0.00     0.031 C 
ATOM     37  C   UNL A   1      39.747  26.657  28.154  1.00  0.00     0.029 A 
ATOM     38  N   UNL A   1      41.763  27.196  28.955  1.00  0.00    -0.354 N 
ATOM     39  C   UNL A   1      42.509  31.121  30.635  1.00  0.00     0.074 A 
ATOM     40  C   UNL A   1      41.317  31.938  30.597  1.00  0.00     0.031 C 
ATOM     41  C   UNL A   1      40.553  25.602  27.956  1.00  0.00     0.029 A 
ATOM     42  C   UNL A   1      41.890  25.925  28.444  1.00  0.00     0.049 A 
ATOM     43  H   UNL A   1      42.508  27.684  29.374  1.00  0.00     0.167 HD
ATOM     44  C   UNL A   1      43.697  31.528  31.139  1.00  0.00     0.037 A 
ATOM     45  C   UNL A   1      42.964  25.116  28.367  1.00  0.00     0.037 A 
ATOM     46  C   UNL A   1      44.871  30.696  31.194  1.00  0.00     0.049 A 
ATOM     47  C   UNL A   1      44.277  25.594  28.929  1.00  0.00     0.074 A 
ATOM     48  C   UNL A   1      46.109  30.991  31.738  1.00  0.00     0.029 A 
ATOM     49  N   UNL A   1      44.955  29.409  30.683  1.00  0.00    -0.354 N 
ATOM     50  N   UNL A   1      44.560  26.743  29.498  1.00  0.00    -0.248 NA
ATOM     51  C   UNL A   1      45.411  24.666  28.846  1.00  0.00     0.031 C 
ATOM     52  C   UNL A   1      46.956  29.904  31.508  1.00  0.00     0.029 A 
ATOM     53  C   UNL A   1      46.231  28.906  30.875  1.00  0.00     0.049 A 
ATOM     54  H   UNL A   1      44.217  28.925  30.247  1.00  0.00     0.167 HD
ATOM     55  C   UNL A   1      45.899  26.663  29.866  1.00  0.00     0.074 A 
ATOM     56  C   UNL A   1      46.363  25.350  29.468  1.00  0.00     0.031 C 
ATOM     57  C   UNL A   1      46.674  27.592  30.479  1.00  0.00     0.037 A 
BRANCH  44  58
ATOM     58  C   UNL A   1      43.786  32.933  31.675  1.00  0.00     0.058 A 
ATOM     59  C   UNL A   1      43.980  34.037  30.829  1.00  0.00     0.135 A 
ATOM     60  C   UNL A   1      43.639  33.182  33.049  1.00  0.00     0.135 A 
ATOM     61  F   UNL A   1      44.143  33.858  29.508  1.00  0.00    -0.206 F 
ATOM     62  C   UNL A   1      44.056  35.333  31.327  1.00  0.00     0.059 A 
ATOM     63  C   UNL A   1      43.679  34.473  33.567  1.00  0.00     0.059 A 
ATOM     64  F   UNL A   1      43.453  32.165  33.905  1.00  0.00    -0.206 F 
ATOM     65  C   UNL A   1      43.903  35.541  32.700  1.00  0.00     0.060 A 
BRANCH  65  66
ATOM     66  S   UNL A   1      43.993  37.231  33.327  1.00  0.00     0.124 S 
ATOM     67  O   UNL A   1      42.708  37.357  34.007  1.00  0.00    -0.237 OA
ATOM     68  O   UNL A   1      45.166  37.179  34.193  1.00  0.00    -0.237 OA
ATOM     69  O   UNL A   1      44.144  38.035  32.118  1.00  0.00    -0.744 OA
ENDBRANCH  65  66
ENDBRANCH  44  58
BRANCH  45  70
ATOM     70  C   UNL A   1      42.838  23.766  27.755  1.00  0.00     0.058 A 
ATOM     71  C   UNL A   1      42.589  22.634  28.545  1.00  0.00     0.135 A 
ATOM     72  C   UNL A   1      42.947  23.581  26.368  1.00  0.00     0.135 A 
ATOM     73  F   UNL A   1      42.480  22.757  29.876  1.00  0.00    -0.206 F 
ATOM     74  C   UNL A   1      42.474  21.365  27.987  1.00  0.00     0.059 A 
ATOM     75  C   UNL A   1      42.807  22.327  25.783  1.00  0.00     0.059 A 
ATOM     76  F   UNL A   1      43.166  24.634  25.563  1.00  0.00    -0.206 F 
ATOM     77  C   UNL A   1      42.581  21.222  26.602  1.00  0.00     0.060 A 
BRANCH  77  78
ATOM     78  S   UNL A   1      42.383  19.577  25.884  1.00  0.00     0.124 S 
ATOM     79  O   UNL A   1      43.395  19.593  24.834  1.00  0.00    -0.237 OA
ATOM     80  O   UNL A   1      42.660  18.711  27.025  1.00  0.00    -0.237 OA
ATOM     81  O   UNL A   1      40.997  19.576  25.426  1.00  0.00    -0.744 OA
ENDBRANCH  77  78
ENDBRANCH  45  70
BRANCH  57  82
ATOM     82  C   UNL A   1      48.094  27.211  30.796  1.00  0.00     0.058 A 
ATOM     83  C   UNL A   1      48.449  26.637  32.027  1.00  0.00     0.135 A 
ATOM     84  C   UNL A   1      49.104  27.372  29.833  1.00  0.00     0.135 A 
ATOM     85  F   UNL A   1      47.525  26.467  32.986  1.00  0.00    -0.206 F 
ATOM     86  C   UNL A   1      49.760  26.260  32.301  1.00  0.00     0.059 A 
ATOM     87  C   UNL A   1      50.414  26.972  30.074  1.00  0.00     0.059 A 
ATOM     88  F   UNL A   1      48.817  27.906  28.635  1.00  0.00    -0.206 F 
ATOM     89  C   UNL A   1      50.735  26.428  31.316  1.00  0.00     0.060 A 
BRANCH  89  90
ATOM     90  S   UNL A   1      52.424  25.900  31.671  1.00  0.00     0.124 S 
ATOM     91  O   UNL A   1      53.077  26.120  30.385  1.00  0.00    -0.237 OA
ATOM     92  O   UNL A   1      52.814  26.810  32.745  1.00  0.00    -0.237 OA
ATOM     93  O   UNL A   1      52.268  24.503  32.067  1.00  0.00    -0.744 OA
ENDBRANCH  89  90
ENDBRANCH  57  82
ENDBRANCH  31  32
ENDBRANCH  23  26
ENDBRANCH  21  22
ENDBRANCH   1  21
TORSDOF 16
ENDMDL
MODEL 3
REMARK VINA RESULT:      -9.7      3.358      5.922
REMARK SMILES C[C@H]([C@@H](C)O)[NH+]1CCC(C)(C(=O)NCCCNC(=O)c2ccc(-c3c4nc(c(-c5c(F)cc(S(=O)(=O)[O-])cc5F)c5ccc([nH]5)c(-c5c(F)cc(S(=O)(=O)[O-])cc5F)c5nc(c(-c6c(F)cc(S(=O)(=O)[O-])cc6F)c6ccc3[nH]6)C=C5)C=C4)cc2)CC1
REMARK SMILES IDX 15 1 14 2 13 3 11 4 12 5 9 7 6 8 7 9 87 10 8 12 86 13 10 14
REMARK SMILES IDX 2 15 1 16 3 17 4 18 5 19 16 21 17 22 18 23 19 25 20 26 21 27
REMARK SMILES IDX 85 28 22 29 84 30 23 31 24 32 25 33 78 34 26 35 83 36 77 37
REMARK SMILES IDX 79 38 27 39 82 40 76 41 75 42 28 44 62 45 41 46 61 47 42 48
REMARK SMILES IDX 45 49 60 50 80 51 43 52 44 53 59 55 81 56 46 57 29 58 30 59
REMARK SMILES IDX 39 60 31 61 32 62 38 63 40 64 33 65 34 66 35 67 36 68 37 69
REMARK SMILES IDX 63 70 64 71 73 72 65 73 66 74 72 75 74 76 67 77 68 78 69 79
REMARK SMILES IDX 70 80 71 81 47 82 48 83 57 84 49 85 50 86 56 87 58 88 51 89
REMARK SMILES IDX 52 90 53 91 54 92 55 93
REMARK H PARENT 13 6 6 11 5 20 17 24 79 43 45 54
REMARK Flexibility Score: inf
ROOT
ATOM      1  C   UNL A   1      33.934  28.483  25.104  1.00  0.00     0.042 C 
ENDROOT
BRANCH   1   2
ATOM      2  C   UNL A   1      32.692  27.918  24.428  1.00  0.00     0.117 C 
BRANCH   2   3
ATOM      3  N   UNL A   1      33.011  27.382  23.118  1.00  0.00    -0.356 N 
ATOM      4  C   UNL A   1      33.023  26.124  22.614  1.00  0.00     0.226 C 
ATOM      5  O   UNL A   1      33.502  26.014  21.480  1.00  0.00    -0.274 OA
ATOM      6  H   UNL A   1      33.270  28.071  22.464  1.00  0.00     0.163 HD
BRANCH   4   7
ATOM      7  C   UNL A   1      32.426  24.919  23.364  1.00  0.00     0.057 C 
ATOM      8  N   UNL A   1      34.475  22.917  24.210  1.00  0.00    -0.331 N 
ATOM      9  C   UNL A   1      34.372  24.210  24.889  1.00  0.00     0.263 C 
ATOM     10  C   UNL A   1      34.156  23.084  22.799  1.00  0.00     0.263 C 
ATOM     11  H   UNL A   1      35.436  22.577  24.184  1.00  0.00     0.348 HD
ATOM     12  C   UNL A   1      32.954  24.778  24.811  1.00  0.00     0.078 C 
ATOM     13  C   UNL A   1      32.750  23.634  22.548  1.00  0.00     0.078 C 
ATOM     14  C   UNL A   1      30.887  25.051  23.363  1.00  0.00     0.022 C 
BRANCH   8  15
ATOM     15  C   UNL A   1      33.894  21.795  24.984  1.00  0.00     0.209 C 
ATOM     16  C   UNL A   1      35.060  20.831  25.265  1.00  0.00     0.078 C 
BRANCH  15  17
ATOM     17  C   UNL A   1      32.606  21.027  24.528  1.00  0.00     0.169 C 
ATOM     18  C   UNL A   1      32.755  19.568  24.103  1.00  0.00     0.045 C 
BRANCH  17  19
ATOM     19  O   UNL A   1      31.626  21.059  25.582  1.00  0.00    -0.387 OA
ATOM     20  H   UNL A   1      31.290  20.163  25.738  1.00  0.00     0.211 HD
ENDBRANCH  17  19
ENDBRANCH  15  17
ENDBRANCH   8  15
ENDBRANCH   4   7
ENDBRANCH   2   3
ENDBRANCH   1   2
BRANCH   1  21
ATOM     21  C   UNL A   1      33.852  28.471  26.625  1.00  0.00     0.118 C 
BRANCH  21  22
ATOM     22  N   UNL A   1      33.701  29.809  27.180  1.00  0.00    -0.352 N 
ATOM     23  C   UNL A   1      34.534  30.508  28.019  1.00  0.00     0.251 C 
ATOM     24  H   UNL A   1      32.881  30.284  26.914  1.00  0.00     0.163 HD
ATOM     25  O   UNL A   1      34.128  31.522  28.575  1.00  0.00    -0.269 OA
BRANCH  23  26
ATOM     26  C   UNL A   1      35.907  30.020  28.254  1.00  0.00     0.039 A 
ATOM     27  C   UNL A   1      36.854  30.133  27.233  1.00  0.00     0.014 A 
ATOM     28  C   UNL A   1      36.258  29.456  29.483  1.00  0.00     0.014 A 
ATOM     29  C   UNL A   1      38.171  29.736  27.472  1.00  0.00     0.010 A 
ATOM     30  C   UNL A   1      37.588  29.156  29.750  1.00  0.00     0.010 A 
ATOM     31  C   UNL A   1      38.556  29.282  28.745  1.00  0.00    -0.014 A 
BRANCH  31  32
ATOM     32  C   UNL A   1      39.966  28.921  29.043  1.00  0.00     0.031 A 
ATOM     33  C   UNL A   1      40.892  29.945  29.643  1.00  0.00     0.074 A 
ATOM     34  C   UNL A   1      40.423  27.698  28.711  1.00  0.00     0.049 A 
ATOM     35  N   UNL A   1      42.168  29.845  29.910  1.00  0.00    -0.248 NA
ATOM     36  C   UNL A   1      40.316  31.263  29.955  1.00  0.00     0.031 C 
ATOM     37  C   UNL A   1      39.632  26.641  28.076  1.00  0.00     0.029 A 
ATOM     38  N   UNL A   1      41.667  27.138  28.854  1.00  0.00    -0.354 N 
ATOM     39  C   UNL A   1      42.548  31.087  30.405  1.00  0.00     0.074 A 
ATOM     40  C   UNL A   1      41.384  31.942  30.344  1.00  0.00     0.031 C 
ATOM     41  C   UNL A   1      40.402  25.554  27.910  1.00  0.00     0.029 A 
ATOM     42  C   UNL A   1      41.751  25.848  28.383  1.00  0.00     0.049 A 
ATOM     43  H   UNL A   1      42.430  27.614  29.256  1.00  0.00     0.167 HD
ATOM     44  C   UNL A   1      43.752  31.471  30.893  1.00  0.00     0.037 A 
ATOM     45  C   UNL A   1      42.798  25.002  28.330  1.00  0.00     0.037 A 
ATOM     46  C   UNL A   1      44.898  30.603  30.972  1.00  0.00     0.049 A 
ATOM     47  C   UNL A   1      44.127  25.454  28.873  1.00  0.00     0.074 A 
ATOM     48  C   UNL A   1      46.146  30.874  31.503  1.00  0.00     0.029 A 
ATOM     49  N   UNL A   1      44.937  29.299  30.502  1.00  0.00    -0.354 N 
ATOM     50  N   UNL A   1      44.451  26.610  29.404  1.00  0.00    -0.248 NA
ATOM     51  C   UNL A   1      45.230  24.487  28.817  1.00  0.00     0.031 C 
ATOM     52  C   UNL A   1      46.957  29.753  31.306  1.00  0.00     0.029 A 
ATOM     53  C   UNL A   1      46.197  28.760  30.707  1.00  0.00     0.049 A 
ATOM     54  H   UNL A   1      44.182  28.826  30.084  1.00  0.00     0.167 HD
ATOM     55  C   UNL A   1      45.787  26.498  29.771  1.00  0.00     0.074 A 
ATOM     56  C   UNL A   1      46.206  25.158  29.414  1.00  0.00     0.031 C 
ATOM     57  C   UNL A   1      46.595  27.420  30.352  1.00  0.00     0.037 A 
BRANCH  44  58
ATOM     58  C   UNL A   1      43.888  32.889  31.384  1.00  0.00     0.058 A 
ATOM     59  C   UNL A   1      44.272  33.934  30.528  1.00  0.00     0.135 A 
ATOM     60  C   UNL A   1      43.598  33.212  32.720  1.00  0.00     0.135 A 
ATOM     61  F   UNL A   1      44.577  33.682  29.245  1.00  0.00    -0.206 F 
ATOM     62  C   UNL A   1      44.392  35.243  30.984  1.00  0.00     0.059 A 
ATOM     63  C   UNL A   1      43.680  34.519  33.190  1.00  0.00     0.059 A 
ATOM     64  F   UNL A   1      43.229  32.253  33.583  1.00  0.00    -0.206 F 
ATOM     65  C   UNL A   1      44.092  35.525  32.318  1.00  0.00     0.060 A 
BRANCH  65  66
ATOM     66  S   UNL A   1      44.243  37.231  32.889  1.00  0.00     0.124 S 
ATOM     67  O   UNL A   1      45.493  37.176  33.641  1.00  0.00    -0.237 OA
ATOM     68  O   UNL A   1      44.290  37.976  31.636  1.00  0.00    -0.237 OA
ATOM     69  O   UNL A   1      43.038  37.430  33.690  1.00  0.00    -0.744 OA
ENDBRANCH  65  66
ENDBRANCH  44  58
BRANCH  45  70
ATOM     70  C   UNL A   1      42.624  23.638  27.761  1.00  0.00     0.058 A 
ATOM     71  C   UNL A   1      42.640  23.425  26.375  1.00  0.00     0.135 A 
ATOM     72  C   UNL A   1      42.455  22.518  28.591  1.00  0.00     0.135 A 
ATOM     73  F   UNL A   1      42.795  24.463  25.539  1.00  0.00    -0.206 F 
ATOM     74  C   UNL A   1      42.473  22.156  25.829  1.00  0.00     0.059 A 
ATOM     75  C   UNL A   1      42.315  21.236  28.070  1.00  0.00     0.059 A 
ATOM     76  F   UNL A   1      42.451  22.664  29.926  1.00  0.00    -0.206 F 
ATOM     77  C   UNL A   1      42.315  21.066  26.687  1.00  0.00     0.060 A 
BRANCH  77  78
ATOM     78  S   UNL A   1      42.147  19.418  25.969  1.00  0.00     0.124 S 
ATOM     79  O   UNL A   1      42.934  19.548  24.748  1.00  0.00    -0.237 OA
ATOM     80  O   UNL A   1      42.719  18.571  27.011  1.00  0.00    -0.237 OA
ATOM     81  O   UNL A   1      40.706  19.279  25.780  1.00  0.00    -0.744 OA
ENDBRANCH  77  78
ENDBRANCH  45  70
BRANCH  57  82
ATOM     82  C   UNL A   1      48.002  27.003  30.678  1.00  0.00     0.058 A 
ATOM     83  C   UNL A   1      49.057  27.182  29.770  1.00  0.00     0.135 A 
ATOM     84  C   UNL A   1      48.309  26.466  31.940  1.00  0.00     0.135 A 
ATOM     85  F   UNL A   1      48.819  27.685  28.548  1.00  0.00    -0.206 F 
ATOM     86  C   UNL A   1      50.362  26.823  30.091  1.00  0.00     0.059 A 
ATOM     87  C   UNL A   1      49.611  26.129  32.294  1.00  0.00     0.059 A 
ATOM     88  F   UNL A   1      47.339  26.283  32.850  1.00  0.00    -0.206 F 
ATOM     89  C   UNL A   1      50.629  26.300  31.358  1.00  0.00     0.060 A 
BRANCH  89  90
ATOM     90  S   UNL A   1      52.332  25.871  31.775  1.00  0.00     0.124 S 
ATOM     91  O   UNL A   1      52.210  24.449  32.081  1.00  0.00    -0.237 OA
ATOM     92  O   UNL A   1      53.045  26.195  30.543  1.00  0.00    -0.237 OA
ATOM     93  O   UNL A   1      52.633  26.735  32.913  1.00  0.00    -0.744 OA
ENDBRANCH  89  90
ENDBRANCH  57  82
ENDBRANCH  31  32
ENDBRANCH  23  26
ENDBRANCH  21  22
ENDBRANCH   1  21
TORSDOF 16
ENDMDL
