MODEL 1
REMARK VINA RESULT:     -12.0      0.000      0.000
REMARK SMILES CC[C@H](NC(=O)Cc1c(C)c2cc(Cl)c(OC)cc2oc1=O)C(=O)NCCCNC(=O)c1ccc(-c2c3nc(c(-c4c(F)cc(S(=O)(=O)[O-])cc4F)c4ccc([nH]4)c(-c4c(F)cc(S(=O)(=O)[O-])cc4F)c4nc(c(-c5c(F)cc(S(=O)(=O)[O-])cc5F)c5ccc2[nH]5)C=C4)C=C3)cc1
REMARK SMILES IDX 26 1 25 2 23 3 24 4 3 6 2 7 1 8 4 9 5 10 6 12 7 13 8 14 9 15
REMARK SMILES IDX 21 16 10 17 11 18 20 19 22 20 12 21 19 22 13 23 18 24 14 25
REMARK SMILES IDX 15 26 16 27 17 28 27 29 28 30 29 31 30 32 31 34 32 35 33 36
REMARK SMILES IDX 97 37 34 38 96 39 35 40 36 41 37 42 90 43 38 44 95 45 89 46
REMARK SMILES IDX 91 47 39 48 94 49 88 50 87 51 40 53 74 54 53 55 73 56 54 57
REMARK SMILES IDX 57 58 72 59 92 60 55 61 56 62 71 64 93 65 58 66 41 67 42 68
REMARK SMILES IDX 51 69 43 70 44 71 50 72 52 73 45 74 46 75 47 76 48 77 49 78
REMARK SMILES IDX 75 79 76 80 85 81 77 82 78 83 84 84 86 85 79 86 80 87 81 88
REMARK SMILES IDX 82 89 83 90 59 91 60 92 69 93 61 94 62 95 68 96 70 97 63 98
REMARK SMILES IDX 64 99 65 100 66 101 67 102
REMARK H PARENT 25 5 4 11 29 33 91 52 57 63
REMARK Flexibility Score: inf
ROOT
ATOM      1  C   UNL A   1      33.472  29.199  26.178  1.00  0.00     0.117 C 
ENDROOT
BRANCH   1   2
ATOM      2  N   UNL A   1      33.660  29.378  24.749  1.00  0.00    -0.354 N 
ATOM      3  C   UNL A   1      33.324  28.562  23.712  1.00  0.00     0.242 C 
ATOM      4  O   UNL A   1      33.298  29.046  22.575  1.00  0.00    -0.273 OA
ATOM      5  H   UNL A   1      34.099  30.220  24.489  1.00  0.00     0.163 HD
BRANCH   3   6
ATOM      6  C   UNL A   1      32.848  27.118  23.942  1.00  0.00     0.171 C 
BRANCH   6   7
ATOM      7  C   UNL A   1      33.125  26.324  22.637  1.00  0.00     0.031 C 
ATOM      8  C   UNL A   1      31.933  25.698  21.924  1.00  0.00     0.006 C 
ENDBRANCH   6   7
BRANCH   6   9
ATOM      9  N   UNL A   1      31.480  26.992  24.443  1.00  0.00    -0.344 N 
ATOM     10  C   UNL A   1      30.934  26.066  25.280  1.00  0.00     0.225 C 
ATOM     11  H   UNL A   1      30.856  27.686  24.127  1.00  0.00     0.164 HD
ATOM     12  O   UNL A   1      29.709  25.930  25.220  1.00  0.00    -0.275 OA
BRANCH  10  13
ATOM     13  C   UNL A   1      31.744  25.327  26.344  1.00  0.00     0.143 C 
BRANCH  13  14
ATOM     14  C   UNL A   1      32.243  23.944  26.018  1.00  0.00     0.051 A 
ATOM     15  C   UNL A   1      33.519  23.625  25.710  1.00  0.00    -0.029 A 
ATOM     16  C   UNL A   1      31.156  22.916  25.988  1.00  0.00     0.340 A 
ATOM     17  C   UNL A   1      34.611  24.653  25.548  1.00  0.00     0.046 C 
ATOM     18  C   UNL A   1      33.866  22.213  25.472  1.00  0.00     0.023 A 
ATOM     19  O   UNL A   1      31.525  21.606  25.749  1.00  0.00    -0.422 OA
ATOM     20  O   UNL A   1      29.975  23.217  26.141  1.00  0.00    -0.246 OA
ATOM     21  C   UNL A   1      35.168  21.766  25.223  1.00  0.00     0.036 A 
ATOM     22  C   UNL A   1      32.858  21.254  25.495  1.00  0.00     0.142 A 
ATOM     23  C   UNL A   1      35.427  20.413  24.965  1.00  0.00     0.083 A 
ATOM     24  C   UNL A   1      33.098  19.898  25.251  1.00  0.00     0.095 A 
ATOM     25  Cl  UNL A   1      37.064  19.957  24.637  1.00  0.00    -0.080 Cl
ATOM     26  C   UNL A   1      34.392  19.466  24.960  1.00  0.00     0.141 A 
BRANCH  26  27
ATOM     27  O   UNL A   1      34.733  18.172  24.674  1.00  0.00    -0.495 OA
ATOM     28  C   UNL A   1      34.042  17.536  23.606  1.00  0.00     0.278 C 
ENDBRANCH  26  27
ENDBRANCH  13  14
ENDBRANCH  10  13
ENDBRANCH   6   9
ENDBRANCH   3   6
ENDBRANCH   1   2
BRANCH   1  29
ATOM     29  C   UNL A   1      34.139  30.263  27.038  1.00  0.00     0.042 C 
BRANCH  29  30
ATOM     30  C   UNL A   1      35.043  29.688  28.117  1.00  0.00     0.118 C 
BRANCH  30  31
ATOM     31  N   UNL A   1      35.268  30.641  29.195  1.00  0.00    -0.352 N 
ATOM     32  C   UNL A   1      36.389  30.832  29.971  1.00  0.00     0.251 C 
ATOM     33  H   UNL A   1      34.509  31.235  29.397  1.00  0.00     0.163 HD
ATOM     34  O   UNL A   1      36.314  31.488  31.001  1.00  0.00    -0.269 OA
BRANCH  32  35
ATOM     35  C   UNL A   1      37.671  30.213  29.564  1.00  0.00     0.039 A 
ATOM     36  C   UNL A   1      38.571  29.761  30.529  1.00  0.00     0.014 A 
ATOM     37  C   UNL A   1      37.983  30.100  28.208  1.00  0.00     0.014 A 
ATOM     38  C   UNL A   1      39.853  29.381  30.150  1.00  0.00     0.010 A 
ATOM     39  C   UNL A   1      39.236  29.612  27.824  1.00  0.00     0.010 A 
ATOM     40  C   UNL A   1      40.202  29.297  28.793  1.00  0.00    -0.014 A 
BRANCH  40  41
ATOM     41  C   UNL A   1      41.580  28.881  28.414  1.00  0.00     0.031 A 
ATOM     42  C   UNL A   1      42.724  29.861  28.474  1.00  0.00     0.074 A 
ATOM     43  C   UNL A   1      41.810  27.599  28.067  1.00  0.00     0.049 A 
ATOM     44  N   UNL A   1      43.983  29.679  28.161  1.00  0.00    -0.248 NA
ATOM     45  C   UNL A   1      42.417  31.222  28.940  1.00  0.00     0.031 C 
ATOM     46  C   UNL A   1      40.790  26.548  28.000  1.00  0.00     0.029 A 
ATOM     47  N   UNL A   1      42.972  26.951  27.734  1.00  0.00    -0.354 N 
ATOM     48  C   UNL A   1      44.612  30.899  28.380  1.00  0.00     0.074 A 
ATOM     49  C   UNL A   1      43.590  31.827  28.811  1.00  0.00     0.031 C 
ATOM     50  C   UNL A   1      41.379  25.379  27.710  1.00  0.00     0.029 A 
ATOM     51  C   UNL A   1      42.803  25.609  27.491  1.00  0.00     0.049 A 
ATOM     52  H   UNL A   1      43.844  27.405  27.675  1.00  0.00     0.167 HD
ATOM     53  C   UNL A   1      45.926  31.211  28.251  1.00  0.00     0.037 A 
ATOM     54  C   UNL A   1      43.688  24.666  27.114  1.00  0.00     0.037 A 
ATOM     55  C   UNL A   1      46.941  30.276  27.836  1.00  0.00     0.049 A 
ATOM     56  C   UNL A   1      45.123  25.056  26.902  1.00  0.00     0.074 A 
ATOM     57  C   UNL A   1      48.298  30.497  27.671  1.00  0.00     0.029 A 
ATOM     58  N   UNL A   1      46.715  28.942  27.526  1.00  0.00    -0.354 N 
ATOM     59  N   UNL A   1      45.696  26.220  27.090  1.00  0.00    -0.248 NA
ATOM     60  C   UNL A   1      46.028  24.008  26.414  1.00  0.00     0.031 C 
ATOM     61  C   UNL A   1      48.883  29.311  27.217  1.00  0.00     0.029 A 
ATOM     62  C   UNL A   1      47.902  28.334  27.151  1.00  0.00     0.049 A 
ATOM     63  H   UNL A   1      45.839  28.494  27.566  1.00  0.00     0.167 HD
ATOM     64  C   UNL A   1      47.034  26.043  26.759  1.00  0.00     0.074 A 
ATOM     65  C   UNL A   1      47.186  24.653  26.376  1.00  0.00     0.031 C 
ATOM     66  C   UNL A   1      48.041  26.950  26.768  1.00  0.00     0.037 A 
BRANCH  53  67
ATOM     67  C   UNL A   1      46.343  32.627  28.555  1.00  0.00     0.058 A 
ATOM     68  C   UNL A   1      46.414  33.606  27.551  1.00  0.00     0.135 A 
ATOM     69  C   UNL A   1      46.633  33.022  29.872  1.00  0.00     0.135 A 
ATOM     70  F   UNL A   1      46.163  33.283  26.273  1.00  0.00    -0.206 F 
ATOM     71  C   UNL A   1      46.784  34.917  27.836  1.00  0.00     0.059 A 
ATOM     72  C   UNL A   1      46.976  34.335  30.184  1.00  0.00     0.059 A 
ATOM     73  F   UNL A   1      46.578  32.129  30.872  1.00  0.00    -0.206 F 
ATOM     74  C   UNL A   1      47.062  35.272  29.157  1.00  0.00     0.060 A 
BRANCH  74  75
ATOM     75  S   UNL A   1      47.543  36.977  29.506  1.00  0.00     0.124 S 
ATOM     76  O   UNL A   1      46.888  37.694  28.418  1.00  0.00    -0.237 OA
ATOM     77  O   UNL A   1      46.980  37.192  30.836  1.00  0.00    -0.237 OA
ATOM     78  O   UNL A   1      49.002  36.941  29.444  1.00  0.00    -0.744 OA
ENDBRANCH  74  75
ENDBRANCH  53  67
BRANCH  54  79
ATOM     79  C   UNL A   1      43.231  23.265  26.918  1.00  0.00     0.058 A 
ATOM     80  C   UNL A   1      43.071  22.735  25.630  1.00  0.00     0.135 A 
ATOM     81  C   UNL A   1      42.990  22.414  28.009  1.00  0.00     0.135 A 
ATOM     82  F   UNL A   1      43.280  23.510  24.555  1.00  0.00    -0.206 F 
ATOM     83  C   UNL A   1      42.690  21.412  25.428  1.00  0.00     0.059 A 
ATOM     84  C   UNL A   1      42.637  21.081  27.834  1.00  0.00     0.059 A 
ATOM     85  F   UNL A   1      43.141  22.869  29.263  1.00  0.00    -0.206 F 
ATOM     86  C   UNL A   1      42.485  20.590  26.538  1.00  0.00     0.060 A 
BRANCH  86  87
ATOM     87  S   UNL A   1      42.061  18.857  26.261  1.00  0.00     0.124 S 
ATOM     88  O   UNL A   1      42.262  18.288  27.589  1.00  0.00    -0.237 OA
ATOM     89  O   UNL A   1      40.675  18.953  25.810  1.00  0.00    -0.237 OA
ATOM     90  O   UNL A   1      43.016  18.434  25.242  1.00  0.00    -0.744 OA
ENDBRANCH  86  87
ENDBRANCH  54  79
BRANCH  66  91
ATOM     91  C   UNL A   1      49.408  26.469  26.366  1.00  0.00     0.058 A 
ATOM     92  C   UNL A   1      49.913  26.685  25.075  1.00  0.00     0.135 A 
ATOM     93  C   UNL A   1      50.245  25.838  27.301  1.00  0.00     0.135 A 
ATOM     94  F   UNL A   1      49.151  27.275  24.141  1.00  0.00    -0.206 F 
ATOM     95  C   UNL A   1      51.194  26.277  24.718  1.00  0.00     0.059 A 
ATOM     96  C   UNL A   1      51.541  25.448  26.975  1.00  0.00     0.059 A 
ATOM     97  F   UNL A   1      49.815  25.615  28.553  1.00  0.00    -0.206 F 
ATOM     98  C   UNL A   1      52.002  25.663  25.677  1.00  0.00     0.060 A 
BRANCH  98  99
ATOM     99  S   UNL A   1      53.676  25.176  25.207  1.00  0.00     0.124 S 
ATOM    100  O   UNL A   1      54.473  25.818  26.247  1.00  0.00    -0.237 OA
ATOM    101  O   UNL A   1      53.604  23.720  25.271  1.00  0.00    -0.237 OA
ATOM    102  O   UNL A   1      53.831  25.731  23.866  1.00  0.00    -0.744 OA
ENDBRANCH  98  99
ENDBRANCH  66  91
ENDBRANCH  40  41
ENDBRANCH  32  35
ENDBRANCH  30  31
ENDBRANCH  29  30
ENDBRANCH   1  29
TORSDOF 18
ENDMDL
MODEL 2
REMARK VINA RESULT:     -11.9      1.133      1.995
REMARK SMILES CC[C@H](NC(=O)Cc1c(C)c2cc(Cl)c(OC)cc2oc1=O)C(=O)NCCCNC(=O)c1ccc(-c2c3nc(c(-c4c(F)cc(S(=O)(=O)[O-])cc4F)c4ccc([nH]4)c(-c4c(F)cc(S(=O)(=O)[O-])cc4F)c4nc(c(-c5c(F)cc(S(=O)(=O)[O-])cc5F)c5ccc2[nH]5)C=C4)C=C3)cc1
REMARK SMILES IDX 26 1 25 2 23 3 24 4 3 6 2 7 1 8 4 9 5 10 6 12 7 13 8 14 9 15
REMARK SMILES IDX 21 16 10 17 11 18 20 19 22 20 12 21 19 22 13 23 18 24 14 25
REMARK SMILES IDX 15 26 16 27 17 28 27 29 28 30 29 31 30 32 31 34 32 35 33 36
REMARK SMILES IDX 97 37 34 38 96 39 35 40 36 41 37 42 90 43 38 44 95 45 89 46
REMARK SMILES IDX 91 47 39 48 94 49 88 50 87 51 40 53 74 54 53 55 73 56 54 57
REMARK SMILES IDX 57 58 72 59 92 60 55 61 56 62 71 64 93 65 58 66 41 67 42 68
REMARK SMILES IDX 51 69 43 70 44 71 50 72 52 73 45 74 46 75 47 76 48 77 49 78
REMARK SMILES IDX 75 79 76 80 85 81 77 82 78 83 84 84 86 85 79 86 80 87 81 88
REMARK SMILES IDX 82 89 83 90 59 91 60 92 69 93 61 94 62 95 68 96 70 97 63 98
REMARK SMILES IDX 64 99 65 100 66 101 67 102
REMARK H PARENT 25 5 4 11 29 33 91 52 57 63
REMARK Flexibility Score: inf
ROOT
ATOM      1  C   UNL A   1      33.283  30.829  26.868  1.00  0.00     0.117 C 
ENDROOT
BRANCH   1   2
ATOM      2  N   UNL A   1      32.498  29.858  27.611  1.00  0.00    -0.354 N 
ATOM      3  C   UNL A   1      32.045  28.629  27.242  1.00  0.00     0.242 C 
ATOM      4  O   UNL A   1      31.666  27.857  28.129  1.00  0.00    -0.273 OA
ATOM      5  H   UNL A   1      32.254  30.133  28.525  1.00  0.00     0.163 HD
BRANCH   3   6
ATOM      6  C   UNL A   1      32.130  28.142  25.786  1.00  0.00     0.171 C 
BRANCH   6   7
ATOM      7  C   UNL A   1      33.581  28.394  25.295  1.00  0.00     0.031 C 
ATOM      8  C   UNL A   1      33.784  28.705  23.817  1.00  0.00     0.006 C 
ENDBRANCH   6   7
BRANCH   6   9
ATOM      9  N   UNL A   1      31.095  28.668  24.898  1.00  0.00    -0.344 N 
ATOM     10  C   UNL A   1      30.373  28.045  23.926  1.00  0.00     0.225 C 
ATOM     11  H   UNL A   1      30.886  29.623  25.023  1.00  0.00     0.164 HD
ATOM     12  O   UNL A   1      29.881  28.772  23.059  1.00  0.00    -0.275 OA
BRANCH  10  13
ATOM     13  C   UNL A   1      30.051  26.552  23.957  1.00  0.00     0.143 C 
BRANCH  13  14
ATOM     14  C   UNL A   1      31.162  25.596  24.307  1.00  0.00     0.051 A 
ATOM     15  C   UNL A   1      32.207  25.285  23.509  1.00  0.00    -0.029 A 
ATOM     16  C   UNL A   1      30.972  24.933  25.635  1.00  0.00     0.340 A 
ATOM     17  C   UNL A   1      32.343  25.788  22.094  1.00  0.00     0.046 C 
ATOM     18  C   UNL A   1      33.248  24.375  24.017  1.00  0.00     0.023 A 
ATOM     19  O   UNL A   1      31.968  24.077  26.066  1.00  0.00    -0.422 OA
ATOM     20  O   UNL A   1      29.963  25.112  26.310  1.00  0.00    -0.246 OA
ATOM     21  C   UNL A   1      34.407  24.050  23.306  1.00  0.00     0.036 A 
ATOM     22  C   UNL A   1      33.091  23.800  25.274  1.00  0.00     0.142 A 
ATOM     23  C   UNL A   1      35.342  23.145  23.828  1.00  0.00     0.083 A 
ATOM     24  C   UNL A   1      34.018  22.904  25.817  1.00  0.00     0.095 A 
ATOM     25  Cl  UNL A   1      36.731  22.779  22.862  1.00  0.00    -0.080 Cl
ATOM     26  C   UNL A   1      35.149  22.550  25.083  1.00  0.00     0.141 A 
BRANCH  26  27
ATOM     27  O   UNL A   1      36.101  21.661  25.503  1.00  0.00    -0.495 OA
ATOM     28  C   UNL A   1      35.916  20.294  25.153  1.00  0.00     0.278 C 
ENDBRANCH  26  27
ENDBRANCH  13  14
ENDBRANCH  10  13
ENDBRANCH   6   9
ENDBRANCH   3   6
ENDBRANCH   1   2
BRANCH   1  29
ATOM     29  C   UNL A   1      34.499  31.359  27.614  1.00  0.00     0.042 C 
BRANCH  29  30
ATOM     30  C   UNL A   1      35.244  30.288  28.393  1.00  0.00     0.118 C 
BRANCH  30  31
ATOM     31  N   UNL A   1      35.426  30.666  29.788  1.00  0.00    -0.352 N 
ATOM     32  C   UNL A   1      36.469  30.379  30.640  1.00  0.00     0.251 C 
ATOM     33  H   UNL A   1      34.698  31.203  30.177  1.00  0.00     0.163 HD
ATOM     34  O   UNL A   1      36.335  30.544  31.845  1.00  0.00    -0.269 OA
BRANCH  32  35
ATOM     35  C   UNL A   1      37.734  29.844  30.089  1.00  0.00     0.039 A 
ATOM     36  C   UNL A   1      38.593  29.098  30.897  1.00  0.00     0.014 A 
ATOM     37  C   UNL A   1      38.074  30.107  28.760  1.00  0.00     0.014 A 
ATOM     38  C   UNL A   1      39.867  28.784  30.440  1.00  0.00     0.010 A 
ATOM     39  C   UNL A   1      39.316  29.691  28.269  1.00  0.00     0.010 A 
ATOM     40  C   UNL A   1      40.245  29.072  29.119  1.00  0.00    -0.014 A 
BRANCH  40  41
ATOM     41  C   UNL A   1      41.614  28.719  28.654  1.00  0.00     0.031 A 
ATOM     42  C   UNL A   1      42.727  29.735  28.692  1.00  0.00     0.074 A 
ATOM     43  C   UNL A   1      41.868  27.459  28.246  1.00  0.00     0.049 A 
ATOM     44  N   UNL A   1      43.972  29.609  28.308  1.00  0.00    -0.248 NA
ATOM     45  C   UNL A   1      42.400  31.067  29.226  1.00  0.00     0.031 C 
ATOM     46  C   UNL A   1      40.881  26.376  28.191  1.00  0.00     0.029 A 
ATOM     47  N   UNL A   1      43.031  26.865  27.829  1.00  0.00    -0.354 N 
ATOM     48  C   UNL A   1      44.572  30.842  28.541  1.00  0.00     0.074 A 
ATOM     49  C   UNL A   1      43.543  31.717  29.060  1.00  0.00     0.031 C 
ATOM     50  C   UNL A   1      41.493  25.241  27.826  1.00  0.00     0.029 A 
ATOM     51  C   UNL A   1      42.894  25.528  27.543  1.00  0.00     0.049 A 
ATOM     52  H   UNL A   1      43.884  27.351  27.743  1.00  0.00     0.167 HD
ATOM     53  C   UNL A   1      45.865  31.205  28.357  1.00  0.00     0.037 A 
ATOM     54  C   UNL A   1      43.789  24.631  27.084  1.00  0.00     0.037 A 
ATOM     55  C   UNL A   1      46.888  30.322  27.854  1.00  0.00     0.049 A 
ATOM     56  C   UNL A   1      45.197  25.079  26.815  1.00  0.00     0.074 A 
ATOM     57  C   UNL A   1      48.226  30.596  27.628  1.00  0.00     0.029 A 
ATOM     58  N   UNL A   1      46.690  28.993  27.505  1.00  0.00    -0.354 N 
ATOM     59  N   UNL A   1      45.740  26.255  27.018  1.00  0.00    -0.248 NA
ATOM     60  C   UNL A   1      46.109  24.083  26.240  1.00  0.00     0.031 C 
ATOM     61  C   UNL A   1      48.825  29.449  27.099  1.00  0.00     0.029 A 
ATOM     62  C   UNL A   1      47.875  28.441  27.046  1.00  0.00     0.049 A 
ATOM     63  H   UNL A   1      45.833  28.513  27.573  1.00  0.00     0.167 HD
ATOM     64  C   UNL A   1      47.064  26.137  26.611  1.00  0.00     0.074 A 
ATOM     65  C   UNL A   1      47.242  24.769  26.167  1.00  0.00     0.031 C 
ATOM     66  C   UNL A   1      48.040  27.078  26.604  1.00  0.00     0.037 A 
BRANCH  53  67
ATOM     67  C   UNL A   1      46.251  32.623  28.693  1.00  0.00     0.058 A 
ATOM     68  C   UNL A   1      46.709  32.979  29.971  1.00  0.00     0.135 A 
ATOM     69  C   UNL A   1      46.203  33.629  27.713  1.00  0.00     0.135 A 
ATOM     70  F   UNL A   1      46.761  32.063  30.950  1.00  0.00    -0.206 F 
ATOM     71  C   UNL A   1      47.079  34.285  30.274  1.00  0.00     0.059 A 
ATOM     72  C   UNL A   1      46.597  34.937  27.987  1.00  0.00     0.059 A 
ATOM     73  F   UNL A   1      45.776  33.345  26.473  1.00  0.00    -0.206 F 
ATOM     74  C   UNL A   1      47.021  35.258  29.274  1.00  0.00     0.060 A 
BRANCH  74  75
ATOM     75  S   UNL A   1      47.503  36.947  29.689  1.00  0.00     0.124 S 
ATOM     76  O   UNL A   1      47.098  37.670  28.487  1.00  0.00    -0.237 OA
ATOM     77  O   UNL A   1      46.708  37.213  30.884  1.00  0.00    -0.237 OA
ATOM     78  O   UNL A   1      48.943  36.850  29.905  1.00  0.00    -0.744 OA
ENDBRANCH  74  75
ENDBRANCH  53  67
BRANCH  54  79
ATOM     79  C   UNL A   1      43.369  23.223  26.859  1.00  0.00     0.058 A 
ATOM     80  C   UNL A   1      43.227  22.716  25.560  1.00  0.00     0.135 A 
ATOM     81  C   UNL A   1      43.146  22.344  27.932  1.00  0.00     0.135 A 
ATOM     82  F   UNL A   1      43.421  23.518  24.501  1.00  0.00    -0.206 F 
ATOM     83  C   UNL A   1      42.882  21.388  25.330  1.00  0.00     0.059 A 
ATOM     84  C   UNL A   1      42.828  21.006  27.728  1.00  0.00     0.059 A 
ATOM     85  F   UNL A   1      43.281  22.778  29.194  1.00  0.00    -0.206 F 
ATOM     86  C   UNL A   1      42.695  20.538  26.422  1.00  0.00     0.060 A 
BRANCH  86  87
ATOM     87  S   UNL A   1      42.316  18.801  26.108  1.00  0.00     0.124 S 
ATOM     88  O   UNL A   1      43.288  18.470  25.072  1.00  0.00    -0.237 OA
ATOM     89  O   UNL A   1      42.549  18.199  27.417  1.00  0.00    -0.237 OA
ATOM     90  O   UNL A   1      40.922  18.831  25.679  1.00  0.00    -0.744 OA
ENDBRANCH  86  87
ENDBRANCH  54  79
BRANCH  66  91
ATOM     91  C   UNL A   1      49.399  26.661  26.113  1.00  0.00     0.058 A 
ATOM     92  C   UNL A   1      49.842  26.975  24.819  1.00  0.00     0.135 A 
ATOM     93  C   UNL A   1      50.290  25.992  26.968  1.00  0.00     0.135 A 
ATOM     94  F   UNL A   1      49.026  27.605  23.960  1.00  0.00    -0.206 F 
ATOM     95  C   UNL A   1      51.116  26.625  24.382  1.00  0.00     0.059 A 
ATOM     96  C   UNL A   1      51.579  25.658  26.562  1.00  0.00     0.059 A 
ATOM     97  F   UNL A   1      49.921  25.676  28.218  1.00  0.00    -0.206 F 
ATOM     98  C   UNL A   1      51.978  25.971  25.263  1.00  0.00     0.060 A 
BRANCH  98  99
ATOM     99  S   UNL A   1      53.641  25.559  24.692  1.00  0.00     0.124 S 
ATOM    100  O   UNL A   1      53.581  25.966  23.292  1.00  0.00    -0.237 OA
ATOM    101  O   UNL A   1      54.479  26.383  25.557  1.00  0.00    -0.237 OA
ATOM    102  O   UNL A   1      53.736  24.120  24.924  1.00  0.00    -0.744 OA
ENDBRANCH  98  99
ENDBRANCH  66  91
ENDBRANCH  40  41
ENDBRANCH  32  35
ENDBRANCH  30  31
ENDBRANCH  29  30
ENDBRANCH   1  29
TORSDOF 18
ENDMDL
MODEL 3
REMARK VINA RESULT:     -11.9      3.275      5.331
REMARK SMILES CC[C@H](NC(=O)Cc1c(C)c2cc(Cl)c(OC)cc2oc1=O)C(=O)NCCCNC(=O)c1ccc(-c2c3nc(c(-c4c(F)cc(S(=O)(=O)[O-])cc4F)c4ccc([nH]4)c(-c4c(F)cc(S(=O)(=O)[O-])cc4F)c4nc(c(-c5c(F)cc(S(=O)(=O)[O-])cc5F)c5ccc2[nH]5)C=C4)C=C3)cc1
REMARK SMILES IDX 26 1 25 2 23 3 24 4 3 6 2 7 1 8 4 9 5 10 6 12 7 13 8 14 9 15
REMARK SMILES IDX 21 16 10 17 11 18 20 19 22 20 12 21 19 22 13 23 18 24 14 25
REMARK SMILES IDX 15 26 16 27 17 28 27 29 28 30 29 31 30 32 31 34 32 35 33 36
REMARK SMILES IDX 97 37 34 38 96 39 35 40 36 41 37 42 90 43 38 44 95 45 89 46
REMARK SMILES IDX 91 47 39 48 94 49 88 50 87 51 40 53 74 54 53 55 73 56 54 57
REMARK SMILES IDX 57 58 72 59 92 60 55 61 56 62 71 64 93 65 58 66 41 67 42 68
REMARK SMILES IDX 51 69 43 70 44 71 50 72 52 73 45 74 46 75 47 76 48 77 49 78
REMARK SMILES IDX 75 79 76 80 85 81 77 82 78 83 84 84 86 85 79 86 80 87 81 88
REMARK SMILES IDX 82 89 83 90 59 91 60 92 69 93 61 94 62 95 68 96 70 97 63 98
REMARK SMILES IDX 64 99 65 100 66 101 67 102
REMARK H PARENT 25 5 4 11 29 33 91 52 57 63
REMARK Flexibility Score: inf
ROOT
ATOM      1  C   UNL A   1      31.995  26.543  26.271  1.00  0.00     0.117 C 
ENDROOT
BRANCH   1   2
ATOM      2  N   UNL A   1      31.220  25.475  26.877  1.00  0.00    -0.354 N 
ATOM      3  C   UNL A   1      31.298  24.127  26.703  1.00  0.00     0.242 C 
ATOM      4  O   UNL A   1      30.757  23.399  27.541  1.00  0.00    -0.273 OA
ATOM      5  H   UNL A   1      30.529  25.772  27.513  1.00  0.00     0.163 HD
BRANCH   3   6
ATOM      6  C   UNL A   1      32.152  23.506  25.584  1.00  0.00     0.171 C 
BRANCH   6   7
ATOM      7  C   UNL A   1      32.277  21.988  25.884  1.00  0.00     0.031 C 
ATOM      8  C   UNL A   1      32.221  21.027  24.703  1.00  0.00     0.006 C 
ENDBRANCH   6   7
BRANCH   6   9
ATOM      9  N   UNL A   1      33.427  24.177  25.337  1.00  0.00    -0.344 N 
ATOM     10  C   UNL A   1      34.057  24.458  24.162  1.00  0.00     0.225 C 
ATOM     11  H   UNL A   1      33.904  24.474  26.145  1.00  0.00     0.164 HD
ATOM     12  O   UNL A   1      35.275  24.644  24.226  1.00  0.00    -0.275 OA
BRANCH  10  13
ATOM     13  C   UNL A   1      33.309  24.679  22.849  1.00  0.00     0.143 C 
BRANCH  13  14
ATOM     14  C   UNL A   1      32.375  25.857  22.756  1.00  0.00     0.051 A 
ATOM     15  C   UNL A   1      31.048  25.825  23.011  1.00  0.00    -0.029 A 
ATOM     16  C   UNL A   1      33.044  27.103  22.269  1.00  0.00     0.340 A 
ATOM     17  C   UNL A   1      30.298  24.556  23.326  1.00  0.00     0.046 C 
ATOM     18  C   UNL A   1      30.276  27.077  22.934  1.00  0.00     0.023 A 
ATOM     19  O   UNL A   1      32.278  28.252  22.201  1.00  0.00    -0.422 OA
ATOM     20  O   UNL A   1      34.219  27.111  21.914  1.00  0.00    -0.246 OA
ATOM     21  C   UNL A   1      28.917  27.171  23.252  1.00  0.00     0.036 A 
ATOM     22  C   UNL A   1      30.915  28.244  22.528  1.00  0.00     0.142 A 
ATOM     23  C   UNL A   1      28.228  28.384  23.120  1.00  0.00     0.083 A 
ATOM     24  C   UNL A   1      30.248  29.468  22.401  1.00  0.00     0.095 A 
ATOM     25  Cl  UNL A   1      26.541  28.397  23.507  1.00  0.00    -0.080 Cl
ATOM     26  C   UNL A   1      28.883  29.543  22.677  1.00  0.00     0.141 A 
BRANCH  26  27
ATOM     27  O   UNL A   1      28.127  30.677  22.555  1.00  0.00    -0.495 OA
ATOM     28  C   UNL A   1      28.054  31.536  23.686  1.00  0.00     0.278 C 
ENDBRANCH  26  27
ENDBRANCH  13  14
ENDBRANCH  10  13
ENDBRANCH   6   9
ENDBRANCH   3   6
ENDBRANCH   1   2
BRANCH   1  29
ATOM     29  C   UNL A   1      32.665  27.478  27.268  1.00  0.00     0.042 C 
BRANCH  29  30
ATOM     30  C   UNL A   1      33.720  28.375  26.640  1.00  0.00     0.118 C 
BRANCH  30  31
ATOM     31  N   UNL A   1      33.612  29.747  27.118  1.00  0.00    -0.352 N 
ATOM     32  C   UNL A   1      34.492  30.473  27.889  1.00  0.00     0.251 C 
ATOM     33  H   UNL A   1      32.793  30.223  26.851  1.00  0.00     0.163 HD
ATOM     34  O   UNL A   1      34.124  31.513  28.420  1.00  0.00    -0.269 OA
BRANCH  32  35
ATOM     35  C   UNL A   1      35.869  29.970  28.094  1.00  0.00     0.039 A 
ATOM     36  C   UNL A   1      36.247  29.433  29.325  1.00  0.00     0.014 A 
ATOM     37  C   UNL A   1      36.795  30.052  27.051  1.00  0.00     0.014 A 
ATOM     38  C   UNL A   1      37.586  29.163  29.576  1.00  0.00     0.010 A 
ATOM     39  C   UNL A   1      38.123  29.673  27.275  1.00  0.00     0.010 A 
ATOM     40  C   UNL A   1      38.542  29.275  28.554  1.00  0.00    -0.014 A 
BRANCH  40  41
ATOM     41  C   UNL A   1      39.970  28.973  28.848  1.00  0.00     0.031 A 
ATOM     42  C   UNL A   1      40.836  29.974  29.571  1.00  0.00     0.074 A 
ATOM     43  C   UNL A   1      40.472  27.769  28.511  1.00  0.00     0.049 A 
ATOM     44  N   UNL A   1      42.102  29.888  29.891  1.00  0.00    -0.248 NA
ATOM     45  C   UNL A   1      40.200  31.235  29.983  1.00  0.00     0.031 C 
ATOM     46  C   UNL A   1      39.726  26.704  27.834  1.00  0.00     0.029 A 
ATOM     47  N   UNL A   1      41.714  27.223  28.712  1.00  0.00    -0.354 N 
ATOM     48  C   UNL A   1      42.418  31.083  30.529  1.00  0.00     0.074 A 
ATOM     49  C   UNL A   1      41.221  31.896  30.512  1.00  0.00     0.031 C 
ATOM     50  C   UNL A   1      40.503  25.616  27.734  1.00  0.00     0.029 A 
ATOM     51  C   UNL A   1      41.826  25.928  28.263  1.00  0.00     0.049 A 
ATOM     52  H   UNL A   1      42.455  27.712  29.139  1.00  0.00     0.167 HD
ATOM     53  C   UNL A   1      43.592  31.460  31.093  1.00  0.00     0.037 A 
ATOM     54  C   UNL A   1      42.878  25.088  28.258  1.00  0.00     0.037 A 
ATOM     55  C   UNL A   1      44.776  30.637  31.119  1.00  0.00     0.049 A 
ATOM     56  C   UNL A   1      44.190  25.558  28.819  1.00  0.00     0.074 A 
ATOM     57  C   UNL A   1      46.014  30.930  31.663  1.00  0.00     0.029 A 
ATOM     58  N   UNL A   1      44.868  29.359  30.585  1.00  0.00    -0.354 N 
ATOM     59  N   UNL A   1      44.476  26.700  29.396  1.00  0.00    -0.248 NA
ATOM     60  C   UNL A   1      45.324  24.632  28.715  1.00  0.00     0.031 C 
ATOM     61  C   UNL A   1      46.868  29.850  31.416  1.00  0.00     0.029 A 
ATOM     62  C   UNL A   1      46.147  28.860  30.768  1.00  0.00     0.049 A 
ATOM     63  H   UNL A   1      44.132  28.878  30.142  1.00  0.00     0.167 HD
ATOM     64  C   UNL A   1      45.821  26.626  29.739  1.00  0.00     0.074 A 
ATOM     65  C   UNL A   1      46.284  25.318  29.321  1.00  0.00     0.031 C 
ATOM     66  C   UNL A   1      46.599  27.557  30.344  1.00  0.00     0.037 A 
BRANCH  53  67
ATOM     67  C   UNL A   1      43.661  32.827  31.723  1.00  0.00     0.058 A 
ATOM     68  C   UNL A   1      43.299  33.040  33.063  1.00  0.00     0.135 A 
ATOM     69  C   UNL A   1      44.135  33.929  30.993  1.00  0.00     0.135 A 
ATOM     70  F   UNL A   1      42.826  32.027  33.805  1.00  0.00    -0.206 F 
ATOM     71  C   UNL A   1      43.379  34.300  33.647  1.00  0.00     0.059 A 
ATOM     72  C   UNL A   1      44.250  35.193  31.566  1.00  0.00     0.059 A 
ATOM     73  F   UNL A   1      44.497  33.784  29.709  1.00  0.00    -0.206 F 
ATOM     74  C   UNL A   1      43.857  35.371  32.891  1.00  0.00     0.060 A 
BRANCH  74  75
ATOM     75  S   UNL A   1      43.950  36.999  33.666  1.00  0.00     0.124 S 
ATOM     76  O   UNL A   1      43.717  37.880  32.526  1.00  0.00    -0.237 OA
ATOM     77  O   UNL A   1      42.871  36.936  34.648  1.00  0.00    -0.237 OA
ATOM     78  O   UNL A   1      45.299  37.038  34.222  1.00  0.00    -0.744 OA
ENDBRANCH  74  75
ENDBRANCH  53  67
BRANCH  54  79
ATOM     79  C   UNL A   1      42.722  23.717  27.703  1.00  0.00     0.058 A 
ATOM     80  C   UNL A   1      42.474  22.626  28.547  1.00  0.00     0.135 A 
ATOM     81  C   UNL A   1      42.770  23.477  26.320  1.00  0.00     0.135 A 
ATOM     82  F   UNL A   1      42.427  22.802  29.876  1.00  0.00    -0.206 F 
ATOM     83  C   UNL A   1      42.277  21.345  28.041  1.00  0.00     0.059 A 
ATOM     84  C   UNL A   1      42.548  22.212  25.789  1.00  0.00     0.059 A 
ATOM     85  F   UNL A   1      42.992  24.491  25.469  1.00  0.00    -0.206 F 
ATOM     86  C   UNL A   1      42.306  21.150  26.659  1.00  0.00     0.060 A 
BRANCH  86  87
ATOM     87  S   UNL A   1      41.979  19.496  26.013  1.00  0.00     0.124 S 
ATOM     88  O   UNL A   1      42.837  19.465  24.834  1.00  0.00    -0.237 OA
ATOM     89  O   UNL A   1      42.394  18.648  27.127  1.00  0.00    -0.237 OA
ATOM     90  O   UNL A   1      40.544  19.514  25.750  1.00  0.00    -0.744 OA
ENDBRANCH  86  87
ENDBRANCH  54  79
BRANCH  66  91
ATOM     91  C   UNL A   1      48.034  27.194  30.605  1.00  0.00     0.058 A 
ATOM     92  C   UNL A   1      49.051  27.508  29.689  1.00  0.00     0.135 A 
ATOM     93  C   UNL A   1      48.406  26.579  31.812  1.00  0.00     0.135 A 
ATOM     94  F   UNL A   1      48.749  28.088  28.517  1.00  0.00    -0.206 F 
ATOM     95  C   UNL A   1      50.384  27.210  29.952  1.00  0.00     0.059 A 
ATOM     96  C   UNL A   1      49.736  26.297  32.109  1.00  0.00     0.059 A 
ATOM     97  F   UNL A   1      47.475  26.265  32.726  1.00  0.00    -0.206 F 
ATOM     98  C   UNL A   1      50.717  26.609  31.167  1.00  0.00     0.060 A 
BRANCH  98  99
ATOM     99  S   UNL A   1      52.455  26.264  31.509  1.00  0.00     0.124 S 
ATOM    100  O   UNL A   1      53.024  26.258  30.165  1.00  0.00    -0.237 OA
ATOM    101  O   UNL A   1      52.836  27.392  32.353  1.00  0.00    -0.237 OA
ATOM    102  O   UNL A   1      52.422  24.968  32.182  1.00  0.00    -0.744 OA
ENDBRANCH  98  99
ENDBRANCH  66  91
ENDBRANCH  40  41
ENDBRANCH  32  35
ENDBRANCH  30  31
ENDBRANCH  29  30
ENDBRANCH   1  29
TORSDOF 18
ENDMDL
