MODEL 1
REMARK VINA RESULT:     -13.6      0.000      0.000
REMARK SMILES Cc1cccc([C@@H](CC(=O)NCCCNC(=O)c2ccc(-c3c4nc(c(-c5c(F)cc(S(=O)(=O)[O-])cc5F)c5ccc([nH]5)c(-c5c(F)cc(S(=O)(=O)[O-])cc5F)c5nc(c(-c6c(F)cc(S(=O)(=O)[O-])cc6F)c6ccc3[nH]6)C=C5)C=C4)cc2)NC(=O)OC(C)(C)C)c1
REMARK SMILES IDX 12 1 11 2 9 3 10 4 8 6 7 7 6 8 1 9 2 10 3 11 92 12 4 13 5 14
REMARK SMILES IDX 84 15 85 16 86 18 87 19 88 20 89 21 90 22 91 23 13 24 14 25
REMARK SMILES IDX 15 26 16 27 17 29 18 30 19 31 83 32 20 33 82 34 21 35 22 36
REMARK SMILES IDX 23 37 76 38 24 39 81 40 75 41 77 42 25 43 80 44 74 45 73 46
REMARK SMILES IDX 26 48 60 49 39 50 59 51 40 52 43 53 58 54 78 55 41 56 42 57
REMARK SMILES IDX 57 59 79 60 44 61 27 62 28 63 37 64 29 65 30 66 36 67 38 68
REMARK SMILES IDX 31 69 32 70 33 71 34 72 35 73 61 74 62 75 71 76 63 77 64 78
REMARK SMILES IDX 70 79 72 80 65 81 66 82 67 83 68 84 69 85 45 86 46 87 55 88
REMARK SMILES IDX 47 89 48 90 54 91 56 92 49 93 50 94 51 95 52 96 53 97
REMARK H PARENT 11 5 84 17 15 28 77 47 43 58
REMARK Flexibility Score: inf
ROOT
ATOM      1  C   UNL A   1      32.534  30.830  26.759  1.00  0.00     0.117 C 
ENDROOT
BRANCH   1   2
ATOM      2  N   UNL A   1      33.121  30.039  25.687  1.00  0.00    -0.356 N 
ATOM      3  C   UNL A   1      32.742  28.803  25.253  1.00  0.00     0.222 C 
ATOM      4  O   UNL A   1      33.546  28.148  24.586  1.00  0.00    -0.275 OA
ATOM      5  H   UNL A   1      33.886  30.447  25.218  1.00  0.00     0.163 HD
BRANCH   3   6
ATOM      6  C   UNL A   1      31.344  28.276  25.524  1.00  0.00     0.130 C 
BRANCH   6   7
ATOM      7  C   UNL A   1      30.607  27.618  24.341  1.00  0.00     0.125 C 
BRANCH   7   8
ATOM      8  C   UNL A   1      30.679  26.093  24.296  1.00  0.00    -0.025 A 
ATOM      9  C   UNL A   1      30.457  23.164  26.758  1.00  0.00     0.044 C 
ATOM     10  C   UNL A   1      30.634  23.950  25.492  1.00  0.00    -0.051 A 
ATOM     11  C   UNL A   1      30.992  23.290  24.314  1.00  0.00     0.003 A 
ATOM     12  C   UNL A   1      30.507  25.349  25.481  1.00  0.00     0.009 A 
ATOM     13  C   UNL A   1      31.111  24.001  23.123  1.00  0.00     0.001 A 
ATOM     14  C   UNL A   1      30.928  25.387  23.107  1.00  0.00     0.006 A 
ENDBRANCH   7   8
BRANCH   7  15
ATOM     15  N   UNL A   1      30.948  28.219  23.063  1.00  0.00    -0.314 N 
ATOM     16  C   UNL A   1      30.322  29.263  22.454  1.00  0.00     0.408 C 
ATOM     17  H   UNL A   1      31.717  27.830  22.586  1.00  0.00     0.167 HD
ATOM     18  O   UNL A   1      30.588  29.589  21.314  1.00  0.00    -0.225 OA
BRANCH  16  19
ATOM     19  O   UNL A   1      29.427  29.874  23.270  1.00  0.00    -0.444 OA
BRANCH  19  20
ATOM     20  C   UNL A   1      28.060  30.069  22.840  1.00  0.00     0.106 C 
ATOM     21  C   UNL A   1      27.986  30.535  21.381  1.00  0.00     0.056 C 
ATOM     22  C   UNL A   1      27.229  28.809  23.092  1.00  0.00     0.056 C 
ATOM     23  C   UNL A   1      27.530  31.200  23.734  1.00  0.00     0.056 C 
ENDBRANCH  19  20
ENDBRANCH  16  19
ENDBRANCH   7  15
ENDBRANCH   6   7
ENDBRANCH   3   6
ENDBRANCH   1   2
BRANCH   1  24
ATOM     24  C   UNL A   1      33.636  31.328  27.674  1.00  0.00     0.042 C 
BRANCH  24  25
ATOM     25  C   UNL A   1      34.879  30.460  27.755  1.00  0.00     0.118 C 
BRANCH  25  26
ATOM     26  N   UNL A   1      36.040  31.318  27.981  1.00  0.00    -0.352 N 
ATOM     27  C   UNL A   1      37.268  31.045  28.548  1.00  0.00     0.251 C 
ATOM     28  H   UNL A   1      35.927  32.248  27.677  1.00  0.00     0.163 HD
ATOM     29  O   UNL A   1      37.968  31.873  29.115  1.00  0.00    -0.269 OA
BRANCH  27  30
ATOM     30  C   UNL A   1      37.777  29.687  28.315  1.00  0.00     0.039 A 
ATOM     31  C   UNL A   1      37.714  28.848  29.441  1.00  0.00     0.014 A 
ATOM     32  C   UNL A   1      38.744  29.552  27.329  1.00  0.00     0.014 A 
ATOM     33  C   UNL A   1      38.811  28.068  29.749  1.00  0.00     0.010 A 
ATOM     34  C   UNL A   1      39.866  28.847  27.682  1.00  0.00     0.010 A 
ATOM     35  C   UNL A   1      39.920  28.193  28.928  1.00  0.00    -0.014 A 
BRANCH  35  36
ATOM     36  C   UNL A   1      41.221  27.652  29.245  1.00  0.00     0.031 A 
ATOM     37  C   UNL A   1      41.440  26.257  28.850  1.00  0.00     0.074 A 
ATOM     38  C   UNL A   1      42.198  28.496  29.642  1.00  0.00     0.049 A 
ATOM     39  N   UNL A   1      42.459  25.558  29.181  1.00  0.00    -0.248 NA
ATOM     40  C   UNL A   1      40.464  25.511  28.055  1.00  0.00     0.031 C 
ATOM     41  C   UNL A   1      43.639  28.287  29.619  1.00  0.00     0.029 A 
ATOM     42  N   UNL A   1      42.042  29.695  30.351  1.00  0.00    -0.354 N 
ATOM     43  C   UNL A   1      42.447  24.422  28.398  1.00  0.00     0.074 A 
ATOM     44  C   UNL A   1      41.133  24.384  27.815  1.00  0.00     0.031 C 
ATOM     45  C   UNL A   1      44.214  29.117  30.507  1.00  0.00     0.029 A 
ATOM     46  C   UNL A   1      43.139  29.769  31.240  1.00  0.00     0.049 A 
ATOM     47  H   UNL A   1      41.317  30.354  30.250  1.00  0.00     0.167 HD
ATOM     48  C   UNL A   1      43.625  23.758  28.244  1.00  0.00     0.037 A 
ATOM     49  C   UNL A   1      42.914  29.628  32.583  1.00  0.00     0.037 A 
ATOM     50  C   UNL A   1      44.616  24.308  29.178  1.00  0.00     0.049 A 
ATOM     51  C   UNL A   1      43.444  28.321  33.151  1.00  0.00     0.074 A 
ATOM     52  C   UNL A   1      45.626  25.250  29.078  1.00  0.00     0.029 A 
ATOM     53  N   UNL A   1      44.371  24.159  30.530  1.00  0.00    -0.354 N 
ATOM     54  N   UNL A   1      43.956  27.361  32.426  1.00  0.00    -0.248 NA
ATOM     55  C   UNL A   1      43.414  27.972  34.571  1.00  0.00     0.031 C 
ATOM     56  C   UNL A   1      45.903  25.733  30.397  1.00  0.00     0.029 A 
ATOM     57  C   UNL A   1      45.083  25.063  31.291  1.00  0.00     0.049 A 
ATOM     58  H   UNL A   1      43.759  23.487  30.906  1.00  0.00     0.167 HD
ATOM     59  C   UNL A   1      44.280  26.293  33.217  1.00  0.00     0.074 A 
ATOM     60  C   UNL A   1      43.907  26.720  34.556  1.00  0.00     0.031 C 
ATOM     61  C   UNL A   1      44.815  25.135  32.724  1.00  0.00     0.037 A 
BRANCH  48  62
ATOM     62  C   UNL A   1      43.968  22.777  27.143  1.00  0.00     0.058 A 
ATOM     63  C   UNL A   1      43.184  21.611  27.001  1.00  0.00     0.135 A 
ATOM     64  C   UNL A   1      45.060  22.853  26.250  1.00  0.00     0.135 A 
ATOM     65  F   UNL A   1      42.087  21.408  27.745  1.00  0.00    -0.206 F 
ATOM     66  C   UNL A   1      43.487  20.590  26.101  1.00  0.00     0.059 A 
ATOM     67  C   UNL A   1      45.390  21.838  25.347  1.00  0.00     0.059 A 
ATOM     68  F   UNL A   1      45.863  23.915  26.181  1.00  0.00    -0.206 F 
ATOM     69  C   UNL A   1      44.603  20.704  25.285  1.00  0.00     0.060 A 
BRANCH  69  70
ATOM     70  S   UNL A   1      44.984  19.369  24.143  1.00  0.00     0.124 S 
ATOM     71  O   UNL A   1      44.258  18.250  24.733  1.00  0.00    -0.237 OA
ATOM     72  O   UNL A   1      44.451  19.885  22.886  1.00  0.00    -0.237 OA
ATOM     73  O   UNL A   1      46.440  19.269  24.208  1.00  0.00    -0.744 OA
ENDBRANCH  69  70
ENDBRANCH  48  62
BRANCH  49  74
ATOM     74  C   UNL A   1      41.671  30.352  33.000  1.00  0.00     0.058 A 
ATOM     75  C   UNL A   1      40.509  29.576  33.203  1.00  0.00     0.135 A 
ATOM     76  C   UNL A   1      41.730  31.595  33.646  1.00  0.00     0.135 A 
ATOM     77  F   UNL A   1      40.388  28.380  32.602  1.00  0.00    -0.206 F 
ATOM     78  C   UNL A   1      39.536  29.930  34.135  1.00  0.00     0.059 A 
ATOM     79  C   UNL A   1      40.757  31.975  34.579  1.00  0.00     0.059 A 
ATOM     80  F   UNL A   1      42.804  32.384  33.493  1.00  0.00    -0.206 F 
ATOM     81  C   UNL A   1      39.698  31.109  34.858  1.00  0.00     0.060 A 
BRANCH  81  82
ATOM     82  S   UNL A   1      38.599  31.398  36.268  1.00  0.00     0.124 S 
ATOM     83  O   UNL A   1      38.292  30.038  36.693  1.00  0.00    -0.237 OA
ATOM     84  O   UNL A   1      39.450  32.164  37.180  1.00  0.00    -0.237 OA
ATOM     85  O   UNL A   1      37.492  32.143  35.679  1.00  0.00    -0.744 OA
ENDBRANCH  81  82
ENDBRANCH  49  74
BRANCH  61  86
ATOM     86  C   UNL A   1      45.137  23.949  33.590  1.00  0.00     0.058 A 
ATOM     87  C   UNL A   1      46.407  23.764  34.154  1.00  0.00     0.135 A 
ATOM     88  C   UNL A   1      44.212  22.898  33.786  1.00  0.00     0.135 A 
ATOM     89  F   UNL A   1      47.379  24.673  33.970  1.00  0.00    -0.206 F 
ATOM     90  C   UNL A   1      46.718  22.641  34.920  1.00  0.00     0.059 A 
ATOM     91  C   UNL A   1      44.524  21.735  34.478  1.00  0.00     0.059 A 
ATOM     92  F   UNL A   1      42.947  22.980  33.347  1.00  0.00    -0.206 F 
ATOM     93  C   UNL A   1      45.770  21.633  35.075  1.00  0.00     0.060 A 
BRANCH  93  94
ATOM     94  S   UNL A   1      46.165  20.187  36.072  1.00  0.00     0.124 S 
ATOM     95  O   UNL A   1      47.607  20.057  35.882  1.00  0.00    -0.237 OA
ATOM     96  O   UNL A   1      45.740  20.629  37.397  1.00  0.00    -0.237 OA
ATOM     97  O   UNL A   1      45.360  19.129  35.472  1.00  0.00    -0.744 OA
ENDBRANCH  93  94
ENDBRANCH  61  86
ENDBRANCH  35  36
ENDBRANCH  27  30
ENDBRANCH  25  26
ENDBRANCH  24  25
ENDBRANCH   1  24
TORSDOF 18
ENDMDL
MODEL 2
REMARK VINA RESULT:     -13.1      1.237      2.911
REMARK SMILES Cc1cccc([C@@H](CC(=O)NCCCNC(=O)c2ccc(-c3c4nc(c(-c5c(F)cc(S(=O)(=O)[O-])cc5F)c5ccc([nH]5)c(-c5c(F)cc(S(=O)(=O)[O-])cc5F)c5nc(c(-c6c(F)cc(S(=O)(=O)[O-])cc6F)c6ccc3[nH]6)C=C5)C=C4)cc2)NC(=O)OC(C)(C)C)c1
REMARK SMILES IDX 12 1 11 2 9 3 10 4 8 6 7 7 6 8 1 9 2 10 3 11 92 12 4 13 5 14
REMARK SMILES IDX 84 15 85 16 86 18 87 19 88 20 89 21 90 22 91 23 13 24 14 25
REMARK SMILES IDX 15 26 16 27 17 29 18 30 19 31 83 32 20 33 82 34 21 35 22 36
REMARK SMILES IDX 23 37 76 38 24 39 81 40 75 41 77 42 25 43 80 44 74 45 73 46
REMARK SMILES IDX 26 48 60 49 39 50 59 51 40 52 43 53 58 54 78 55 41 56 42 57
REMARK SMILES IDX 57 59 79 60 44 61 27 62 28 63 37 64 29 65 30 66 36 67 38 68
REMARK SMILES IDX 31 69 32 70 33 71 34 72 35 73 61 74 62 75 71 76 63 77 64 78
REMARK SMILES IDX 70 79 72 80 65 81 66 82 67 83 68 84 69 85 45 86 46 87 55 88
REMARK SMILES IDX 47 89 48 90 54 91 56 92 49 93 50 94 51 95 52 96 53 97
REMARK H PARENT 11 5 84 17 15 28 77 47 43 58
REMARK Flexibility Score: inf
ROOT
ATOM      1  C   UNL A   1      32.499  30.621  26.560  1.00  0.00     0.117 C 
ENDROOT
BRANCH   1   2
ATOM      2  N   UNL A   1      33.096  29.759  25.550  1.00  0.00    -0.356 N 
ATOM      3  C   UNL A   1      33.196  28.399  25.562  1.00  0.00     0.222 C 
ATOM      4  O   UNL A   1      34.020  27.869  24.813  1.00  0.00    -0.275 OA
ATOM      5  H   UNL A   1      33.474  30.214  24.762  1.00  0.00     0.163 HD
BRANCH   3   6
ATOM      6  C   UNL A   1      32.273  27.556  26.423  1.00  0.00     0.130 C 
BRANCH   6   7
ATOM      7  C   UNL A   1      31.522  26.409  25.719  1.00  0.00     0.125 C 
BRANCH   7   8
ATOM      8  C   UNL A   1      30.415  26.845  24.763  1.00  0.00    -0.025 A 
ATOM      9  C   UNL A   1      29.815  29.619  22.186  1.00  0.00     0.044 C 
ATOM     10  C   UNL A   1      29.597  28.430  23.076  1.00  0.00    -0.051 A 
ATOM     11  C   UNL A   1      28.342  27.818  23.116  1.00  0.00     0.003 A 
ATOM     12  C   UNL A   1      30.616  27.958  23.920  1.00  0.00     0.009 A 
ATOM     13  C   UNL A   1      28.140  26.685  23.899  1.00  0.00     0.001 A 
ATOM     14  C   UNL A   1      29.176  26.185  24.694  1.00  0.00     0.006 A 
ENDBRANCH   7   8
BRANCH   7  15
ATOM     15  N   UNL A   1      31.072  25.382  26.643  1.00  0.00    -0.314 N 
ATOM     16  C   UNL A   1      31.134  24.033  26.465  1.00  0.00     0.408 C 
ATOM     17  H   UNL A   1      30.682  25.695  27.491  1.00  0.00     0.167 HD
ATOM     18  O   UNL A   1      30.589  23.264  27.231  1.00  0.00    -0.225 OA
BRANCH  16  19
ATOM     19  O   UNL A   1      31.878  23.690  25.384  1.00  0.00    -0.444 OA
BRANCH  19  20
ATOM     20  C   UNL A   1      33.117  22.963  25.552  1.00  0.00     0.106 C 
ATOM     21  C   UNL A   1      33.998  23.586  26.642  1.00  0.00     0.056 C 
ATOM     22  C   UNL A   1      32.843  21.477  25.802  1.00  0.00     0.056 C 
ATOM     23  C   UNL A   1      33.840  23.113  24.205  1.00  0.00     0.056 C 
ENDBRANCH  19  20
ENDBRANCH  16  19
ENDBRANCH   7  15
ENDBRANCH   6   7
ENDBRANCH   3   6
ENDBRANCH   1   2
BRANCH   1  24
ATOM     24  C   UNL A   1      33.599  31.264  27.382  1.00  0.00     0.042 C 
BRANCH  24  25
ATOM     25  C   UNL A   1      34.810  30.395  27.672  1.00  0.00     0.118 C 
BRANCH  25  26
ATOM     26  N   UNL A   1      35.966  31.259  27.905  1.00  0.00    -0.352 N 
ATOM     27  C   UNL A   1      37.182  30.999  28.502  1.00  0.00     0.251 C 
ATOM     28  H   UNL A   1      35.858  32.183  27.581  1.00  0.00     0.163 HD
ATOM     29  O   UNL A   1      37.869  31.837  29.067  1.00  0.00    -0.269 OA
BRANCH  27  30
ATOM     30  C   UNL A   1      37.697  29.637  28.304  1.00  0.00     0.039 A 
ATOM     31  C   UNL A   1      37.650  28.831  29.455  1.00  0.00     0.014 A 
ATOM     32  C   UNL A   1      38.654  29.478  27.313  1.00  0.00     0.014 A 
ATOM     33  C   UNL A   1      38.754  28.067  29.774  1.00  0.00     0.010 A 
ATOM     34  C   UNL A   1      39.784  28.791  27.675  1.00  0.00     0.010 A 
ATOM     35  C   UNL A   1      39.855  28.174  28.939  1.00  0.00    -0.014 A 
BRANCH  35  36
ATOM     36  C   UNL A   1      41.162  27.650  29.258  1.00  0.00     0.031 A 
ATOM     37  C   UNL A   1      41.402  26.259  28.860  1.00  0.00     0.074 A 
ATOM     38  C   UNL A   1      42.126  28.506  29.662  1.00  0.00     0.049 A 
ATOM     39  N   UNL A   1      42.429  25.574  29.192  1.00  0.00    -0.248 NA
ATOM     40  C   UNL A   1      40.439  25.503  28.060  1.00  0.00     0.031 C 
ATOM     41  C   UNL A   1      43.570  28.317  29.642  1.00  0.00     0.029 A 
ATOM     42  N   UNL A   1      41.952  29.701  30.373  1.00  0.00    -0.354 N 
ATOM     43  C   UNL A   1      42.436  24.440  28.406  1.00  0.00     0.074 A 
ATOM     44  C   UNL A   1      41.124  24.385  27.819  1.00  0.00     0.031 C 
ATOM     45  C   UNL A   1      44.130  29.153  30.535  1.00  0.00     0.029 A 
ATOM     46  C   UNL A   1      43.045  29.787  31.266  1.00  0.00     0.049 A 
ATOM     47  H   UNL A   1      41.217  30.350  30.272  1.00  0.00     0.167 HD
ATOM     48  C   UNL A   1      43.624  23.793  28.254  1.00  0.00     0.037 A 
ATOM     49  C   UNL A   1      42.816  29.639  32.608  1.00  0.00     0.037 A 
ATOM     50  C   UNL A   1      44.604  24.353  29.192  1.00  0.00     0.049 A 
ATOM     51  C   UNL A   1      43.363  28.338  33.174  1.00  0.00     0.074 A 
ATOM     52  C   UNL A   1      45.600  25.310  29.098  1.00  0.00     0.029 A 
ATOM     53  N   UNL A   1      44.357  24.198  30.543  1.00  0.00    -0.354 N 
ATOM     54  N   UNL A   1      43.891  27.387  32.447  1.00  0.00    -0.248 NA
ATOM     55  C   UNL A   1      43.333  27.984  34.593  1.00  0.00     0.031 C 
ATOM     56  C   UNL A   1      45.867  25.793  30.420  1.00  0.00     0.029 A 
ATOM     57  C   UNL A   1      45.053  25.109  31.309  1.00  0.00     0.049 A 
ATOM     58  H   UNL A   1      43.752  23.516  30.915  1.00  0.00     0.167 HD
ATOM     59  C   UNL A   1      44.227  26.322  33.236  1.00  0.00     0.074 A 
ATOM     60  C   UNL A   1      43.844  26.739  34.575  1.00  0.00     0.031 C 
ATOM     61  C   UNL A   1      44.779  25.173  32.741  1.00  0.00     0.037 A 
BRANCH  48  62
ATOM     62  C   UNL A   1      43.983  22.820  27.151  1.00  0.00     0.058 A 
ATOM     63  C   UNL A   1      43.180  21.673  26.964  1.00  0.00     0.135 A 
ATOM     64  C   UNL A   1      45.107  22.884  26.298  1.00  0.00     0.135 A 
ATOM     65  F   UNL A   1      42.054  21.484  27.668  1.00  0.00    -0.206 F 
ATOM     66  C   UNL A   1      43.493  20.659  26.061  1.00  0.00     0.059 A 
ATOM     67  C   UNL A   1      45.447  21.876  25.392  1.00  0.00     0.059 A 
ATOM     68  F   UNL A   1      45.934  23.930  26.272  1.00  0.00    -0.206 F 
ATOM     69  C   UNL A   1      44.638  20.760  25.286  1.00  0.00     0.060 A 
BRANCH  69  70
ATOM     70  S   UNL A   1      45.031  19.433  24.138  1.00  0.00     0.124 S 
ATOM     71  O   UNL A   1      44.315  18.305  24.724  1.00  0.00    -0.237 OA
ATOM     72  O   UNL A   1      44.491  19.949  22.883  1.00  0.00    -0.237 OA
ATOM     73  O   UNL A   1      46.487  19.346  24.201  1.00  0.00    -0.744 OA
ENDBRANCH  69  70
ENDBRANCH  48  62
BRANCH  49  74
ATOM     74  C   UNL A   1      41.562  30.345  33.023  1.00  0.00     0.058 A 
ATOM     75  C   UNL A   1      40.420  29.547  33.255  1.00  0.00     0.135 A 
ATOM     76  C   UNL A   1      41.601  31.602  33.642  1.00  0.00     0.135 A 
ATOM     77  F   UNL A   1      40.319  28.337  32.681  1.00  0.00    -0.206 F 
ATOM     78  C   UNL A   1      39.449  29.901  34.190  1.00  0.00     0.059 A 
ATOM     79  C   UNL A   1      40.630  31.981  34.577  1.00  0.00     0.059 A 
ATOM     80  F   UNL A   1      42.655  32.411  33.460  1.00  0.00    -0.206 F 
ATOM     81  C   UNL A   1      39.593  31.098  34.886  1.00  0.00     0.060 A 
BRANCH  81  82
ATOM     82  S   UNL A   1      38.502  31.393  36.301  1.00  0.00     0.124 S 
ATOM     83  O   UNL A   1      39.371  32.145  37.198  1.00  0.00    -0.237 OA
ATOM     84  O   UNL A   1      37.406  32.156  35.701  1.00  0.00    -0.237 OA
ATOM     85  O   UNL A   1      38.154  30.047  36.738  1.00  0.00    -0.744 OA
ENDBRANCH  81  82
ENDBRANCH  49  74
BRANCH  61  86
ATOM     86  C   UNL A   1      45.115  23.988  33.605  1.00  0.00     0.058 A 
ATOM     87  C   UNL A   1      46.363  23.855  34.230  1.00  0.00     0.135 A 
ATOM     88  C   UNL A   1      44.234  22.891  33.739  1.00  0.00     0.135 A 
ATOM     89  F   UNL A   1      47.298  24.811  34.108  1.00  0.00    -0.206 F 
ATOM     90  C   UNL A   1      46.690  22.735  34.994  1.00  0.00     0.059 A 
ATOM     91  C   UNL A   1      44.567  21.733  34.428  1.00  0.00     0.059 A 
ATOM     92  F   UNL A   1      42.989  22.921  33.238  1.00  0.00    -0.206 F 
ATOM     93  C   UNL A   1      45.785  21.680  35.086  1.00  0.00     0.060 A 
BRANCH  93  94
ATOM     94  S   UNL A   1      46.200  20.238  36.079  1.00  0.00     0.124 S 
ATOM     95  O   UNL A   1      45.320  19.210  35.529  1.00  0.00    -0.237 OA
ATOM     96  O   UNL A   1      47.620  20.082  35.778  1.00  0.00    -0.237 OA
ATOM     97  O   UNL A   1      45.887  20.660  37.441  1.00  0.00    -0.744 OA
ENDBRANCH  93  94
ENDBRANCH  61  86
ENDBRANCH  35  36
ENDBRANCH  27  30
ENDBRANCH  25  26
ENDBRANCH  24  25
ENDBRANCH   1  24
TORSDOF 18
ENDMDL
MODEL 3
REMARK VINA RESULT:     -12.3      3.039      4.947
REMARK SMILES Cc1cccc([C@@H](CC(=O)NCCCNC(=O)c2ccc(-c3c4nc(c(-c5c(F)cc(S(=O)(=O)[O-])cc5F)c5ccc([nH]5)c(-c5c(F)cc(S(=O)(=O)[O-])cc5F)c5nc(c(-c6c(F)cc(S(=O)(=O)[O-])cc6F)c6ccc3[nH]6)C=C5)C=C4)cc2)NC(=O)OC(C)(C)C)c1
REMARK SMILES IDX 12 1 11 2 9 3 10 4 8 6 7 7 6 8 1 9 2 10 3 11 92 12 4 13 5 14
REMARK SMILES IDX 84 15 85 16 86 18 87 19 88 20 89 21 90 22 91 23 13 24 14 25
REMARK SMILES IDX 15 26 16 27 17 29 18 30 19 31 83 32 20 33 82 34 21 35 22 36
REMARK SMILES IDX 23 37 76 38 24 39 81 40 75 41 77 42 25 43 80 44 74 45 73 46
REMARK SMILES IDX 26 48 60 49 39 50 59 51 40 52 43 53 58 54 78 55 41 56 42 57
REMARK SMILES IDX 57 59 79 60 44 61 27 62 28 63 37 64 29 65 30 66 36 67 38 68
REMARK SMILES IDX 31 69 32 70 33 71 34 72 35 73 61 74 62 75 71 76 63 77 64 78
REMARK SMILES IDX 70 79 72 80 65 81 66 82 67 83 68 84 69 85 45 86 46 87 55 88
REMARK SMILES IDX 47 89 48 90 54 91 56 92 49 93 50 94 51 95 52 96 53 97
REMARK H PARENT 11 5 84 17 15 28 77 47 43 58
REMARK Flexibility Score: inf
ROOT
ATOM      1  C   UNL A   1      33.289  27.670  26.655  1.00  0.00     0.117 C 
ENDROOT
BRANCH   1   2
ATOM      2  N   UNL A   1      32.038  26.934  26.768  1.00  0.00    -0.356 N 
ATOM      3  C   UNL A   1      31.817  25.613  26.507  1.00  0.00     0.222 C 
ATOM      4  O   UNL A   1      30.655  25.243  26.324  1.00  0.00    -0.275 OA
ATOM      5  H   UNL A   1      31.257  27.452  27.069  1.00  0.00     0.163 HD
BRANCH   3   6
ATOM      6  C   UNL A   1      32.961  24.615  26.509  1.00  0.00     0.130 C 
BRANCH   6   7
ATOM      7  C   UNL A   1      33.563  24.245  25.139  1.00  0.00     0.125 C 
BRANCH   7   8
ATOM      8  C   UNL A   1      33.098  25.109  23.969  1.00  0.00    -0.025 A 
ATOM      9  C   UNL A   1      34.031  28.464  22.367  1.00  0.00     0.044 C 
ATOM     10  C   UNL A   1      33.323  27.174  22.660  1.00  0.00    -0.051 A 
ATOM     11  C   UNL A   1      32.169  26.842  21.946  1.00  0.00     0.003 A 
ATOM     12  C   UNL A   1      33.763  26.320  23.685  1.00  0.00     0.009 A 
ATOM     13  C   UNL A   1      31.531  25.626  22.174  1.00  0.00     0.001 A 
ATOM     14  C   UNL A   1      32.008  24.753  23.157  1.00  0.00     0.006 A 
ENDBRANCH   7   8
BRANCH   7  15
ATOM     15  N   UNL A   1      33.460  22.827  24.845  1.00  0.00    -0.314 N 
ATOM     16  C   UNL A   1      34.430  21.884  25.002  1.00  0.00     0.408 C 
ATOM     17  H   UNL A   1      32.595  22.512  24.496  1.00  0.00     0.167 HD
ATOM     18  O   UNL A   1      34.293  20.752  24.580  1.00  0.00    -0.225 OA
BRANCH  16  19
ATOM     19  O   UNL A   1      35.501  22.355  25.688  1.00  0.00    -0.444 OA
BRANCH  19  20
ATOM     20  C   UNL A   1      36.776  22.523  25.026  1.00  0.00     0.106 C 
ATOM     21  C   UNL A   1      37.674  21.293  25.206  1.00  0.00     0.056 C 
ATOM     22  C   UNL A   1      36.577  22.889  23.553  1.00  0.00     0.056 C 
ATOM     23  C   UNL A   1      37.434  23.709  25.747  1.00  0.00     0.056 C 
ENDBRANCH  19  20
ENDBRANCH  16  19
ENDBRANCH   7  15
ENDBRANCH   6   7
ENDBRANCH   3   6
ENDBRANCH   1   2
BRANCH   1  24
ATOM     24  C   UNL A   1      32.998  29.080  26.179  1.00  0.00     0.042 C 
BRANCH  24  25
ATOM     25  C   UNL A   1      32.623  30.083  27.256  1.00  0.00     0.118 C 
BRANCH  25  26
ATOM     26  N   UNL A   1      33.576  31.190  27.223  1.00  0.00    -0.352 N 
ATOM     27  C   UNL A   1      34.756  31.387  27.909  1.00  0.00     0.251 C 
ATOM     28  H   UNL A   1      33.335  31.919  26.606  1.00  0.00     0.163 HD
ATOM     29  O   UNL A   1      35.224  32.483  28.182  1.00  0.00    -0.269 OA
BRANCH  27  30
ATOM     30  C   UNL A   1      35.524  30.167  28.193  1.00  0.00     0.039 A 
ATOM     31  C   UNL A   1      35.653  29.873  29.562  1.00  0.00     0.014 A 
ATOM     32  C   UNL A   1      36.480  29.808  27.254  1.00  0.00     0.014 A 
ATOM     33  C   UNL A   1      36.890  29.498  30.046  1.00  0.00     0.010 A 
ATOM     34  C   UNL A   1      37.728  29.523  27.746  1.00  0.00     0.010 A 
ATOM     35  C   UNL A   1      37.936  29.465  29.138  1.00  0.00    -0.014 A 
BRANCH  35  36
ATOM     36  C   UNL A   1      39.325  29.343  29.513  1.00  0.00     0.031 A 
ATOM     37  C   UNL A   1      39.946  28.044  29.230  1.00  0.00     0.074 A 
ATOM     38  C   UNL A   1      40.007  30.456  29.858  1.00  0.00     0.049 A 
ATOM     39  N   UNL A   1      41.109  27.691  29.628  1.00  0.00    -0.248 NA
ATOM     40  C   UNL A   1      39.251  26.997  28.482  1.00  0.00     0.031 C 
ATOM     41  C   UNL A   1      41.448  30.667  29.871  1.00  0.00     0.029 A 
ATOM     42  N   UNL A   1      39.492  31.608  30.470  1.00  0.00    -0.354 N 
ATOM     43  C   UNL A   1      41.448  26.548  28.936  1.00  0.00     0.074 A 
ATOM     44  C   UNL A   1      40.220  26.094  28.339  1.00  0.00     0.031 C 
ATOM     45  C   UNL A   1      41.731  31.688  30.701  1.00  0.00     0.029 A 
ATOM     46  C   UNL A   1      40.491  32.054  31.366  1.00  0.00     0.049 A 
ATOM     47  H   UNL A   1      38.613  32.022  30.309  1.00  0.00     0.167 HD
ATOM     48  C   UNL A   1      42.771  26.240  28.849  1.00  0.00     0.037 A 
ATOM     49  C   UNL A   1      40.267  31.949  32.712  1.00  0.00     0.037 A 
ATOM     50  C   UNL A   1      43.531  27.114  29.752  1.00  0.00     0.049 A 
ATOM     51  C   UNL A   1      41.127  30.891  33.387  1.00  0.00     0.074 A 
ATOM     52  C   UNL A   1      44.234  28.297  29.593  1.00  0.00     0.029 A 
ATOM     53  N   UNL A   1      43.291  26.997  31.107  1.00  0.00    -0.354 N 
ATOM     54  N   UNL A   1      41.916  30.070  32.745  1.00  0.00    -0.248 NA
ATOM     55  C   UNL A   1      41.146  30.648  34.830  1.00  0.00     0.031 C 
ATOM     56  C   UNL A   1      44.316  28.929  30.875  1.00  0.00     0.029 A 
ATOM     57  C   UNL A   1      43.689  28.117  31.806  1.00  0.00     0.049 A 
ATOM     58  H   UNL A   1      42.882  26.205  31.526  1.00  0.00     0.167 HD
ATOM     59  C   UNL A   1      42.502  29.197  33.621  1.00  0.00     0.074 A 
ATOM     60  C   UNL A   1      41.976  29.592  34.917  1.00  0.00     0.031 C 
ATOM     61  C   UNL A   1      43.361  28.209  33.226  1.00  0.00     0.037 A 
BRANCH  48  62
ATOM     62  C   UNL A   1      43.417  25.323  27.832  1.00  0.00     0.058 A 
ATOM     63  C   UNL A   1      43.505  25.749  26.489  1.00  0.00     0.135 A 
ATOM     64  C   UNL A   1      43.898  24.014  28.057  1.00  0.00     0.135 A 
ATOM     65  F   UNL A   1      43.129  26.982  26.118  1.00  0.00    -0.206 F 
ATOM     66  C   UNL A   1      43.970  24.935  25.456  1.00  0.00     0.059 A 
ATOM     67  C   UNL A   1      44.359  23.176  27.038  1.00  0.00     0.059 A 
ATOM     68  F   UNL A   1      43.971  23.471  29.273  1.00  0.00    -0.206 F 
ATOM     69  C   UNL A   1      44.383  23.641  25.737  1.00  0.00     0.060 A 
BRANCH  69  70
ATOM     70  S   UNL A   1      44.964  22.604  24.389  1.00  0.00     0.124 S 
ATOM     71  O   UNL A   1      45.266  21.354  25.079  1.00  0.00    -0.237 OA
ATOM     72  O   UNL A   1      43.804  22.579  23.503  1.00  0.00    -0.237 OA
ATOM     73  O   UNL A   1      46.125  23.327  23.876  1.00  0.00    -0.744 OA
ENDBRANCH  69  70
ENDBRANCH  48  62
BRANCH  49  74
ATOM     74  C   UNL A   1      38.855  32.314  33.055  1.00  0.00     0.058 A 
ATOM     75  C   UNL A   1      38.508  33.682  32.985  1.00  0.00     0.135 A 
ATOM     76  C   UNL A   1      37.812  31.384  32.949  1.00  0.00     0.135 A 
ATOM     77  F   UNL A   1      39.462  34.622  33.091  1.00  0.00    -0.206 F 
ATOM     78  C   UNL A   1      37.222  34.102  32.652  1.00  0.00     0.059 A 
ATOM     79  C   UNL A   1      36.511  31.786  32.624  1.00  0.00     0.059 A 
ATOM     80  F   UNL A   1      38.072  30.069  33.010  1.00  0.00    -0.206 F 
ATOM     81  C   UNL A   1      36.242  33.142  32.421  1.00  0.00     0.060 A 
BRANCH  81  82
ATOM     82  S   UNL A   1      34.674  33.686  31.695  1.00  0.00     0.124 S 
ATOM     83  O   UNL A   1      34.056  32.418  31.330  1.00  0.00    -0.237 OA
ATOM     84  O   UNL A   1      34.041  34.397  32.808  1.00  0.00    -0.237 OA
ATOM     85  O   UNL A   1      35.098  34.528  30.583  1.00  0.00    -0.744 OA
ENDBRANCH  81  82
ENDBRANCH  49  74
BRANCH  61  86
ATOM     86  C   UNL A   1      43.977  27.228  34.185  1.00  0.00     0.058 A 
ATOM     87  C   UNL A   1      43.210  26.268  34.860  1.00  0.00     0.135 A 
ATOM     88  C   UNL A   1      45.342  27.297  34.545  1.00  0.00     0.135 A 
ATOM     89  F   UNL A   1      41.889  26.166  34.641  1.00  0.00    -0.206 F 
ATOM     90  C   UNL A   1      43.775  25.389  35.784  1.00  0.00     0.059 A 
ATOM     91  C   UNL A   1      45.910  26.486  35.517  1.00  0.00     0.059 A 
ATOM     92  F   UNL A   1      46.193  28.132  33.929  1.00  0.00    -0.206 F 
ATOM     93  C   UNL A   1      45.125  25.507  36.105  1.00  0.00     0.060 A 
BRANCH  93  94
ATOM     94  S   UNL A   1      45.859  24.366  37.288  1.00  0.00     0.124 S 
ATOM     95  O   UNL A   1      46.233  23.234  36.446  1.00  0.00    -0.237 OA
ATOM     96  O   UNL A   1      46.968  25.164  37.804  1.00  0.00    -0.237 OA
ATOM     97  O   UNL A   1      44.776  24.109  38.231  1.00  0.00    -0.744 OA
ENDBRANCH  93  94
ENDBRANCH  61  86
ENDBRANCH  35  36
ENDBRANCH  27  30
ENDBRANCH  25  26
ENDBRANCH  24  25
ENDBRANCH   1  24
TORSDOF 18
ENDMDL
