MODEL 1
REMARK VINA RESULT:     -11.0      0.000      0.000
REMARK SMILES C[C@H]1CN([C@@H](C(=O)NCCCNC(=O)c2ccc(-c3c4nc(c(-c5c(F)cc(S(=O)(=O)[O-])cc5F)c5ccc([nH]5)c(-c5c(F)cc(S(=O)(=O)[O-])cc5F)c5nc(c(-c6c(F)cc(S(=O)(=O)[O-])cc6F)c6ccc3[nH]6)C=C5)C=C4)cc2)C(C)(C)C)S(=O)(=O)C1
REMARK SMILES IDX 11 1 10 2 9 3 8 4 6 5 7 6 5 8 4 9 1 10 2 11 3 12 88 13 85 14
REMARK SMILES IDX 86 15 87 16 81 17 82 18 83 19 84 20 12 21 13 22 14 24 15 25
REMARK SMILES IDX 16 26 80 27 17 28 79 29 18 30 19 31 20 32 73 33 21 34 78 35
REMARK SMILES IDX 72 36 74 37 22 38 77 39 71 40 70 41 23 43 57 44 36 45 56 46
REMARK SMILES IDX 37 47 40 48 55 49 75 50 38 51 39 52 54 54 76 55 41 56 24 57
REMARK SMILES IDX 25 58 34 59 26 60 27 61 33 62 35 63 28 64 29 65 30 66 31 67
REMARK SMILES IDX 32 68 58 69 59 70 68 71 60 72 61 73 67 74 69 75 62 76 63 77
REMARK SMILES IDX 64 78 65 79 66 80 42 81 43 82 52 83 44 84 45 85 51 86 53 87
REMARK SMILES IDX 46 88 47 89 48 90 49 91 50 92
REMARK H PARENT 8 7 12 23 74 42 40 53
REMARK Flexibility Score: inf
ROOT
ATOM      1  C   UNL A   1      33.507  28.291  27.262  1.00  0.00     0.118 C 
ENDROOT
BRANCH   1   2
ATOM      2  C   UNL A   1      33.836  27.984  25.802  1.00  0.00     0.042 C 
BRANCH   2   3
ATOM      3  C   UNL A   1      33.009  26.870  25.136  1.00  0.00     0.117 C 
BRANCH   3   4
ATOM      4  N   UNL A   1      33.549  26.376  23.873  1.00  0.00    -0.355 N 
ATOM      5  C   UNL A   1      33.620  25.147  23.266  1.00  0.00     0.238 C 
ATOM      6  O   UNL A   1      33.952  25.180  22.078  1.00  0.00    -0.273 OA
ATOM      7  H   UNL A   1      33.954  27.090  23.330  1.00  0.00     0.163 HD
BRANCH   5   8
ATOM      8  C   UNL A   1      33.306  23.824  24.009  1.00  0.00     0.167 C 
BRANCH   8   9
ATOM      9  N   UNL A   1      34.394  22.790  23.912  1.00  0.00    -0.189 NA
ATOM     10  C   UNL A   1      34.985  21.742  26.830  1.00  0.00     0.010 C 
ATOM     11  C   UNL A   1      35.160  21.076  25.462  1.00  0.00     0.017 C 
ATOM     12  C   UNL A   1      34.095  21.433  24.411  1.00  0.00     0.107 C 
ATOM     13  C   UNL A   1      36.459  21.534  24.814  1.00  0.00     0.159 C 
ATOM     14  S   UNL A   1      36.053  23.118  24.095  1.00  0.00     0.215 S 
ATOM     15  O   UNL A   1      36.647  23.187  22.782  1.00  0.00    -0.212 OA
ATOM     16  O   UNL A   1      36.246  24.134  25.102  1.00  0.00    -0.212 OA
ENDBRANCH   8   9
BRANCH   8  17
ATOM     17  C   UNL A   1      31.851  23.253  23.726  1.00  0.00    -0.013 C 
ATOM     18  C   UNL A   1      31.256  22.684  25.036  1.00  0.00     0.013 C 
ATOM     19  C   UNL A   1      30.914  24.403  23.275  1.00  0.00     0.013 C 
ATOM     20  C   UNL A   1      31.739  22.160  22.643  1.00  0.00     0.013 C 
ENDBRANCH   8  17
ENDBRANCH   5   8
ENDBRANCH   3   4
ENDBRANCH   2   3
ENDBRANCH   1   2
BRANCH   1  21
ATOM     21  N   UNL A   1      33.470  29.713  27.529  1.00  0.00    -0.352 N 
ATOM     22  C   UNL A   1      34.436  30.512  28.095  1.00  0.00     0.251 C 
ATOM     23  H   UNL A   1      32.638  30.171  27.269  1.00  0.00     0.163 HD
ATOM     24  O   UNL A   1      34.118  31.635  28.481  1.00  0.00    -0.269 OA
BRANCH  22  25
ATOM     25  C   UNL A   1      35.840  30.047  28.257  1.00  0.00     0.039 A 
ATOM     26  C   UNL A   1      36.244  29.578  29.511  1.00  0.00     0.014 A 
ATOM     27  C   UNL A   1      36.786  30.149  27.230  1.00  0.00     0.014 A 
ATOM     28  C   UNL A   1      37.576  29.209  29.734  1.00  0.00     0.010 A 
ATOM     29  C   UNL A   1      38.101  29.717  27.434  1.00  0.00     0.010 A 
ATOM     30  C   UNL A   1      38.521  29.269  28.697  1.00  0.00    -0.014 A 
BRANCH  30  31
ATOM     31  C   UNL A   1      39.951  28.923  28.948  1.00  0.00     0.031 A 
ATOM     32  C   UNL A   1      40.884  29.939  29.562  1.00  0.00     0.074 A 
ATOM     33  C   UNL A   1      40.419  27.699  28.627  1.00  0.00     0.049 A 
ATOM     34  N   UNL A   1      42.157  29.825  29.853  1.00  0.00    -0.248 NA
ATOM     35  C   UNL A   1      40.318  31.261  29.875  1.00  0.00     0.031 C 
ATOM     36  C   UNL A   1      39.633  26.631  28.007  1.00  0.00     0.029 A 
ATOM     37  N   UNL A   1      41.668  27.145  28.778  1.00  0.00    -0.354 N 
ATOM     38  C   UNL A   1      42.542  31.057  30.374  1.00  0.00     0.074 A 
ATOM     39  C   UNL A   1      41.383  31.920  30.308  1.00  0.00     0.031 C 
ATOM     40  C   UNL A   1      40.410  25.546  27.852  1.00  0.00     0.029 A 
ATOM     41  C   UNL A   1      41.758  25.849  28.325  1.00  0.00     0.049 A 
ATOM     42  H   UNL A   1      42.427  27.631  29.175  1.00  0.00     0.167 HD
ATOM     43  C   UNL A   1      43.742  31.429  30.882  1.00  0.00     0.037 A 
ATOM     44  C   UNL A   1      42.806  25.001  28.286  1.00  0.00     0.037 A 
ATOM     45  C   UNL A   1      44.889  30.562  30.966  1.00  0.00     0.049 A 
ATOM     46  C   UNL A   1      44.137  25.446  28.836  1.00  0.00     0.074 A 
ATOM     47  C   UNL A   1      46.134  30.835  31.509  1.00  0.00     0.029 A 
ATOM     48  N   UNL A   1      44.939  29.259  30.493  1.00  0.00    -0.354 N 
ATOM     49  N   UNL A   1      44.464  26.595  29.378  1.00  0.00    -0.248 NA
ATOM     50  C   UNL A   1      45.240  24.476  28.778  1.00  0.00     0.031 C 
ATOM     51  C   UNL A   1      46.953  29.719  31.312  1.00  0.00     0.029 A 
ATOM     52  C   UNL A   1      46.200  28.725  30.708  1.00  0.00     0.049 A 
ATOM     53  H   UNL A   1      44.189  28.784  30.068  1.00  0.00     0.167 HD
ATOM     54  C   UNL A   1      45.797  26.473  29.755  1.00  0.00     0.074 A 
ATOM     55  C   UNL A   1      46.213  25.136  29.392  1.00  0.00     0.031 C 
ATOM     56  C   UNL A   1      46.602  27.387  30.353  1.00  0.00     0.037 A 
BRANCH  43  57
ATOM     57  C   UNL A   1      43.883  32.841  31.391  1.00  0.00     0.058 A 
ATOM     58  C   UNL A   1      44.198  33.909  30.535  1.00  0.00     0.135 A 
ATOM     59  C   UNL A   1      43.644  33.138  32.744  1.00  0.00     0.135 A 
ATOM     60  F   UNL A   1      44.449  33.683  29.236  1.00  0.00    -0.206 F 
ATOM     61  C   UNL A   1      44.299  35.214  31.006  1.00  0.00     0.059 A 
ATOM     62  C   UNL A   1      43.709  34.442  33.229  1.00  0.00     0.059 A 
ATOM     63  F   UNL A   1      43.337  32.157  33.607  1.00  0.00    -0.206 F 
ATOM     64  C   UNL A   1      44.048  35.472  32.355  1.00  0.00     0.060 A 
BRANCH  64  65
ATOM     65  S   UNL A   1      44.168  37.174  32.943  1.00  0.00     0.124 S 
ATOM     66  O   UNL A   1      42.933  37.306  33.710  1.00  0.00    -0.237 OA
ATOM     67  O   UNL A   1      45.400  37.146  33.726  1.00  0.00    -0.237 OA
ATOM     68  O   UNL A   1      44.228  37.957  31.712  1.00  0.00    -0.744 OA
ENDBRANCH  64  65
ENDBRANCH  43  57
BRANCH  44  69
ATOM     69  C   UNL A   1      42.643  23.636  27.711  1.00  0.00     0.058 A 
ATOM     70  C   UNL A   1      42.404  22.524  28.533  1.00  0.00     0.135 A 
ATOM     71  C   UNL A   1      42.728  23.417  26.327  1.00  0.00     0.135 A 
ATOM     72  F   UNL A   1      42.323  22.678  29.863  1.00  0.00    -0.206 F 
ATOM     73  C   UNL A   1      42.279  21.241  28.008  1.00  0.00     0.059 A 
ATOM     74  C   UNL A   1      42.575  22.149  25.776  1.00  0.00     0.059 A 
ATOM     75  F   UNL A   1      42.938  24.447  25.494  1.00  0.00    -0.206 F 
ATOM     76  C   UNL A   1      42.364  21.065  26.625  1.00  0.00     0.060 A 
BRANCH  76  77
ATOM     77  S   UNL A   1      42.159  19.402  25.949  1.00  0.00     0.124 S 
ATOM     78  O   UNL A   1      42.655  18.576  27.043  1.00  0.00    -0.237 OA
ATOM     79  O   UNL A   1      40.720  19.348  25.708  1.00  0.00    -0.237 OA
ATOM     80  O   UNL A   1      42.987  19.425  24.747  1.00  0.00    -0.744 OA
ENDBRANCH  76  77
ENDBRANCH  44  69
BRANCH  56  81
ATOM     81  C   UNL A   1      48.006  26.963  30.698  1.00  0.00     0.058 A 
ATOM     82  C   UNL A   1      49.088  27.197  29.836  1.00  0.00     0.135 A 
ATOM     83  C   UNL A   1      48.277  26.360  31.938  1.00  0.00     0.135 A 
ATOM     84  F   UNL A   1      48.886  27.764  28.636  1.00  0.00    -0.206 F 
ATOM     85  C   UNL A   1      50.385  26.824  30.179  1.00  0.00     0.059 A 
ATOM     86  C   UNL A   1      49.570  26.010  32.316  1.00  0.00     0.059 A 
ATOM     87  F   UNL A   1      47.282  26.123  32.808  1.00  0.00    -0.206 F 
ATOM     88  C   UNL A   1      50.616  26.233  31.422  1.00  0.00     0.060 A 
BRANCH  88  89
ATOM     89  S   UNL A   1      52.307  25.785  31.866  1.00  0.00     0.124 S 
ATOM     90  O   UNL A   1      52.579  26.709  32.962  1.00  0.00    -0.237 OA
ATOM     91  O   UNL A   1      52.171  24.380  32.239  1.00  0.00    -0.237 OA
ATOM     92  O   UNL A   1      53.058  26.031  30.638  1.00  0.00    -0.744 OA
ENDBRANCH  88  89
ENDBRANCH  56  81
ENDBRANCH  30  31
ENDBRANCH  22  25
ENDBRANCH   1  21
TORSDOF 15
ENDMDL
MODEL 2
REMARK VINA RESULT:     -10.6      0.605      8.413
REMARK SMILES C[C@H]1CN([C@@H](C(=O)NCCCNC(=O)c2ccc(-c3c4nc(c(-c5c(F)cc(S(=O)(=O)[O-])cc5F)c5ccc([nH]5)c(-c5c(F)cc(S(=O)(=O)[O-])cc5F)c5nc(c(-c6c(F)cc(S(=O)(=O)[O-])cc6F)c6ccc3[nH]6)C=C5)C=C4)cc2)C(C)(C)C)S(=O)(=O)C1
REMARK SMILES IDX 11 1 10 2 9 3 8 4 6 5 7 6 5 8 4 9 1 10 2 11 3 12 88 13 85 14
REMARK SMILES IDX 86 15 87 16 81 17 82 18 83 19 84 20 12 21 13 22 14 24 15 25
REMARK SMILES IDX 16 26 80 27 17 28 79 29 18 30 19 31 20 32 73 33 21 34 78 35
REMARK SMILES IDX 72 36 74 37 22 38 77 39 71 40 70 41 23 43 57 44 36 45 56 46
REMARK SMILES IDX 37 47 40 48 55 49 75 50 38 51 39 52 54 54 76 55 41 56 24 57
REMARK SMILES IDX 25 58 34 59 26 60 27 61 33 62 35 63 28 64 29 65 30 66 31 67
REMARK SMILES IDX 32 68 58 69 59 70 68 71 60 72 61 73 67 74 69 75 62 76 63 77
REMARK SMILES IDX 64 78 65 79 66 80 42 81 43 82 52 83 44 84 45 85 51 86 53 87
REMARK SMILES IDX 46 88 47 89 48 90 49 91 50 92
REMARK H PARENT 8 7 12 23 74 42 40 53
REMARK Flexibility Score: inf
ROOT
ATOM      1  C   UNL A   1      33.927  28.181  26.915  1.00  0.00     0.118 C 
ENDROOT
BRANCH   1   2
ATOM      2  C   UNL A   1      33.647  28.047  25.419  1.00  0.00     0.042 C 
BRANCH   2   3
ATOM      3  C   UNL A   1      32.988  26.732  24.964  1.00  0.00     0.117 C 
BRANCH   3   4
ATOM      4  N   UNL A   1      33.483  26.204  23.696  1.00  0.00    -0.355 N 
ATOM      5  C   UNL A   1      33.563  24.955  23.134  1.00  0.00     0.238 C 
ATOM      6  O   UNL A   1      33.839  24.950  21.931  1.00  0.00    -0.273 OA
ATOM      7  H   UNL A   1      33.841  26.907  23.107  1.00  0.00     0.163 HD
BRANCH   5   8
ATOM      8  C   UNL A   1      33.324  23.654  23.940  1.00  0.00     0.167 C 
BRANCH   8   9
ATOM      9  N   UNL A   1      34.458  22.669  23.872  1.00  0.00    -0.189 NA
ATOM     10  C   UNL A   1      35.115  21.752  26.820  1.00  0.00     0.010 C 
ATOM     11  C   UNL A   1      35.313  21.047  25.475  1.00  0.00     0.017 C 
ATOM     12  C   UNL A   1      34.227  21.318  24.419  1.00  0.00     0.107 C 
ATOM     13  C   UNL A   1      36.585  21.543  24.802  1.00  0.00     0.159 C 
ATOM     14  S   UNL A   1      36.101  23.080  24.032  1.00  0.00     0.215 S 
ATOM     15  O   UNL A   1      36.685  23.131  22.713  1.00  0.00    -0.212 OA
ATOM     16  O   UNL A   1      36.253  24.139  25.002  1.00  0.00    -0.212 OA
ENDBRANCH   8   9
BRANCH   8  17
ATOM     17  C   UNL A   1      31.894  23.002  23.709  1.00  0.00    -0.013 C 
ATOM     18  C   UNL A   1      31.387  22.384  25.033  1.00  0.00     0.013 C 
ATOM     19  C   UNL A   1      30.874  24.101  23.313  1.00  0.00     0.013 C 
ATOM     20  C   UNL A   1      31.801  21.918  22.615  1.00  0.00     0.013 C 
ENDBRANCH   8  17
ENDBRANCH   5   8
ENDBRANCH   3   4
ENDBRANCH   2   3
ENDBRANCH   1   2
BRANCH   1  21
ATOM     21  N   UNL A   1      33.791  29.545  27.378  1.00  0.00    -0.352 N 
ATOM     22  C   UNL A   1      34.681  30.306  28.101  1.00  0.00     0.251 C 
ATOM     23  H   UNL A   1      32.945  29.991  27.143  1.00  0.00     0.163 HD
ATOM     24  O   UNL A   1      34.278  31.342  28.625  1.00  0.00    -0.269 OA
BRANCH  22  25
ATOM     25  C   UNL A   1      36.102  29.899  28.269  1.00  0.00     0.039 A 
ATOM     26  C   UNL A   1      36.517  29.435  29.522  1.00  0.00     0.014 A 
ATOM     27  C   UNL A   1      37.050  30.050  27.249  1.00  0.00     0.014 A 
ATOM     28  C   UNL A   1      37.862  29.121  29.751  1.00  0.00     0.010 A 
ATOM     29  C   UNL A   1      38.381  29.671  27.459  1.00  0.00     0.010 A 
ATOM     30  C   UNL A   1      38.811  29.230  28.721  1.00  0.00    -0.014 A 
BRANCH  30  31
ATOM     31  C   UNL A   1      40.252  28.942  28.979  1.00  0.00     0.031 A 
ATOM     32  C   UNL A   1      40.834  27.595  28.623  1.00  0.00     0.074 A 
ATOM     33  C   UNL A   1      41.043  29.883  29.534  1.00  0.00     0.049 A 
ATOM     34  N   UNL A   1      42.060  27.156  28.774  1.00  0.00    -0.248 NA
ATOM     35  C   UNL A   1      39.917  26.606  28.036  1.00  0.00     0.031 C 
ATOM     36  C   UNL A   1      40.606  31.216  29.948  1.00  0.00     0.029 A 
ATOM     37  N   UNL A   1      42.382  29.863  29.844  1.00  0.00    -0.354 N 
ATOM     38  C   UNL A   1      42.057  25.845  28.309  1.00  0.00     0.074 A 
ATOM     39  C   UNL A   1      40.697  25.541  27.922  1.00  0.00     0.031 C 
ATOM     40  C   UNL A   1      41.659  31.894  30.436  1.00  0.00     0.029 A 
ATOM     41  C   UNL A   1      42.839  31.034  30.406  1.00  0.00     0.049 A 
ATOM     42  H   UNL A   1      42.961  29.084  29.680  1.00  0.00     0.167 HD
ATOM     43  C   UNL A   1      43.094  24.980  28.192  1.00  0.00     0.037 A 
ATOM     44  C   UNL A   1      44.064  31.376  30.854  1.00  0.00     0.037 A 
ATOM     45  C   UNL A   1      44.452  25.291  28.558  1.00  0.00     0.049 A 
ATOM     46  C   UNL A   1      45.196  30.389  30.735  1.00  0.00     0.074 A 
ATOM     47  C   UNL A   1      45.580  24.496  28.432  1.00  0.00     0.029 A 
ATOM     48  N   UNL A   1      44.871  26.486  29.126  1.00  0.00    -0.354 N 
ATOM     49  N   UNL A   1      45.185  29.175  30.238  1.00  0.00    -0.248 NA
ATOM     50  C   UNL A   1      46.512  30.821  31.228  1.00  0.00     0.031 C 
ATOM     51  C   UNL A   1      46.667  25.187  28.975  1.00  0.00     0.029 A 
ATOM     52  C   UNL A   1      46.232  26.439  29.379  1.00  0.00     0.049 A 
ATOM     53  H   UNL A   1      44.285  27.254  29.320  1.00  0.00     0.167 HD
ATOM     54  C   UNL A   1      46.494  28.713  30.327  1.00  0.00     0.074 A 
ATOM     55  C   UNL A   1      47.274  29.782  30.915  1.00  0.00     0.031 C 
ATOM     56  C   UNL A   1      47.004  27.513  29.953  1.00  0.00     0.037 A 
BRANCH  43  57
ATOM     57  C   UNL A   1      42.807  23.605  27.644  1.00  0.00     0.058 A 
ATOM     58  C   UNL A   1      42.825  23.340  26.266  1.00  0.00     0.135 A 
ATOM     59  C   UNL A   1      42.567  22.527  28.512  1.00  0.00     0.135 A 
ATOM     60  F   UNL A   1      43.036  24.334  25.388  1.00  0.00    -0.206 F 
ATOM     61  C   UNL A   1      42.588  22.063  25.766  1.00  0.00     0.059 A 
ATOM     62  C   UNL A   1      42.359  21.235  28.036  1.00  0.00     0.059 A 
ATOM     63  F   UNL A   1      42.541  22.721  29.841  1.00  0.00    -0.206 F 
ATOM     64  C   UNL A   1      42.360  21.015  26.660  1.00  0.00     0.060 A 
BRANCH  64  65
ATOM     65  S   UNL A   1      42.070  19.363  25.994  1.00  0.00     0.124 S 
ATOM     66  O   UNL A   1      42.891  19.387  24.787  1.00  0.00    -0.237 OA
ATOM     67  O   UNL A   1      42.553  18.505  27.071  1.00  0.00    -0.237 OA
ATOM     68  O   UNL A   1      40.628  19.333  25.770  1.00  0.00    -0.744 OA
ENDBRANCH  64  65
ENDBRANCH  43  57
BRANCH  44  69
ATOM     69  C   UNL A   1      44.292  32.721  31.453  1.00  0.00     0.058 A 
ATOM     70  C   UNL A   1      44.579  33.836  30.651  1.00  0.00     0.135 A 
ATOM     71  C   UNL A   1      44.233  32.916  32.842  1.00  0.00     0.135 A 
ATOM     72  F   UNL A   1      44.657  33.701  29.318  1.00  0.00    -0.206 F 
ATOM     73  C   UNL A   1      44.823  35.090  31.203  1.00  0.00     0.059 A 
ATOM     74  C   UNL A   1      44.441  34.166  33.416  1.00  0.00     0.059 A 
ATOM     75  F   UNL A   1      43.945  31.888  33.655  1.00  0.00    -0.206 F 
ATOM     76  C   UNL A   1      44.748  35.245  32.589  1.00  0.00     0.060 A 
BRANCH  76  77
ATOM     77  S   UNL A   1      45.023  36.885  33.294  1.00  0.00     0.124 S 
ATOM     78  O   UNL A   1      45.097  36.585  34.719  1.00  0.00    -0.237 OA
ATOM     79  O   UNL A   1      46.275  37.283  32.658  1.00  0.00    -0.237 OA
ATOM     80  O   UNL A   1      43.846  37.636  32.865  1.00  0.00    -0.744 OA
ENDBRANCH  76  77
ENDBRANCH  44  69
BRANCH  56  81
ATOM     81  C   UNL A   1      48.485  27.300  30.121  1.00  0.00     0.058 A 
ATOM     82  C   UNL A   1      49.407  27.660  29.126  1.00  0.00     0.135 A 
ATOM     83  C   UNL A   1      48.992  26.776  31.323  1.00  0.00     0.135 A 
ATOM     84  F   UNL A   1      48.978  28.160  27.956  1.00  0.00    -0.206 F 
ATOM     85  C   UNL A   1      50.776  27.484  29.304  1.00  0.00     0.059 A 
ATOM     86  C   UNL A   1      50.359  26.622  31.535  1.00  0.00     0.059 A 
ATOM     87  F   UNL A   1      48.158  26.425  32.313  1.00  0.00    -0.206 F 
ATOM     88  C   UNL A   1      51.243  26.966  30.514  1.00  0.00     0.060 A 
BRANCH  88  89
ATOM     89  S   UNL A   1      53.023  26.773  30.743  1.00  0.00     0.124 S 
ATOM     90  O   UNL A   1      53.399  28.089  31.251  1.00  0.00    -0.237 OA
ATOM     91  O   UNL A   1      53.097  25.677  31.704  1.00  0.00    -0.237 OA
ATOM     92  O   UNL A   1      53.506  26.457  29.402  1.00  0.00    -0.744 OA
ENDBRANCH  88  89
ENDBRANCH  56  81
ENDBRANCH  30  31
ENDBRANCH  22  25
ENDBRANCH   1  21
TORSDOF 15
ENDMDL
MODEL 3
REMARK VINA RESULT:     -10.4      4.869     10.420
REMARK SMILES C[C@H]1CN([C@@H](C(=O)NCCCNC(=O)c2ccc(-c3c4nc(c(-c5c(F)cc(S(=O)(=O)[O-])cc5F)c5ccc([nH]5)c(-c5c(F)cc(S(=O)(=O)[O-])cc5F)c5nc(c(-c6c(F)cc(S(=O)(=O)[O-])cc6F)c6ccc3[nH]6)C=C5)C=C4)cc2)C(C)(C)C)S(=O)(=O)C1
REMARK SMILES IDX 11 1 10 2 9 3 8 4 6 5 7 6 5 8 4 9 1 10 2 11 3 12 88 13 85 14
REMARK SMILES IDX 86 15 87 16 81 17 82 18 83 19 84 20 12 21 13 22 14 24 15 25
REMARK SMILES IDX 16 26 80 27 17 28 79 29 18 30 19 31 20 32 73 33 21 34 78 35
REMARK SMILES IDX 72 36 74 37 22 38 77 39 71 40 70 41 23 43 57 44 36 45 56 46
REMARK SMILES IDX 37 47 40 48 55 49 75 50 38 51 39 52 54 54 76 55 41 56 24 57
REMARK SMILES IDX 25 58 34 59 26 60 27 61 33 62 35 63 28 64 29 65 30 66 31 67
REMARK SMILES IDX 32 68 58 69 59 70 68 71 60 72 61 73 67 74 69 75 62 76 63 77
REMARK SMILES IDX 64 78 65 79 66 80 42 81 43 82 52 83 44 84 45 85 51 86 53 87
REMARK SMILES IDX 46 88 47 89 48 90 49 91 50 92
REMARK H PARENT 8 7 12 23 74 42 40 53
REMARK Flexibility Score: inf
ROOT
ATOM      1  C   UNL A   1      38.836  24.158  26.579  1.00  0.00     0.118 C 
ENDROOT
BRANCH   1   2
ATOM      2  C   UNL A   1      37.952  23.121  25.887  1.00  0.00     0.042 C 
BRANCH   2   3
ATOM      3  C   UNL A   1      36.485  23.523  25.652  1.00  0.00     0.117 C 
BRANCH   3   4
ATOM      4  N   UNL A   1      35.543  23.019  26.648  1.00  0.00    -0.355 N 
ATOM      5  C   UNL A   1      34.335  22.372  26.595  1.00  0.00     0.238 C 
ATOM      6  O   UNL A   1      33.958  21.901  27.672  1.00  0.00    -0.273 OA
ATOM      7  H   UNL A   1      35.846  23.180  27.570  1.00  0.00     0.163 HD
BRANCH   5   8
ATOM      8  C   UNL A   1      33.509  22.237  25.291  1.00  0.00     0.167 C 
BRANCH   8   9
ATOM      9  N   UNL A   1      32.187  22.952  25.322  1.00  0.00    -0.189 NA
ATOM     10  C   UNL A   1      32.254  25.198  23.105  1.00  0.00     0.010 C 
ATOM     11  C   UNL A   1      31.086  24.424  23.725  1.00  0.00     0.017 C 
ATOM     12  C   UNL A   1      31.381  22.957  24.085  1.00  0.00     0.107 C 
ATOM     13  C   UNL A   1      30.694  25.040  25.060  1.00  0.00     0.159 C 
ATOM     14  S   UNL A   1      31.876  24.365  26.216  1.00  0.00     0.215 S 
ATOM     15  O   UNL A   1      31.174  23.994  27.420  1.00  0.00    -0.212 OA
ATOM     16  O   UNL A   1      33.044  25.215  26.215  1.00  0.00    -0.212 OA
ENDBRANCH   8   9
BRANCH   8  17
ATOM     17  C   UNL A   1      33.425  20.755  24.728  1.00  0.00    -0.013 C 
ATOM     18  C   UNL A   1      32.986  20.789  23.245  1.00  0.00     0.013 C 
ATOM     19  C   UNL A   1      34.830  20.099  24.761  1.00  0.00     0.013 C 
ATOM     20  C   UNL A   1      32.484  19.788  25.477  1.00  0.00     0.013 C 
ENDBRANCH   8  17
ENDBRANCH   5   8
ENDBRANCH   3   4
ENDBRANCH   2   3
ENDBRANCH   1   2
BRANCH   1  21
ATOM     21  N   UNL A   1      40.181  24.175  26.046  1.00  0.00    -0.352 N 
ATOM     22  C   UNL A   1      41.212  25.041  26.328  1.00  0.00     0.251 C 
ATOM     23  H   UNL A   1      40.387  23.469  25.392  1.00  0.00     0.163 HD
ATOM     24  O   UNL A   1      42.188  25.057  25.581  1.00  0.00    -0.269 OA
BRANCH  22  25
ATOM     25  C   UNL A   1      41.166  25.958  27.499  1.00  0.00     0.039 A 
ATOM     26  C   UNL A   1      40.209  25.720  28.492  1.00  0.00     0.014 A 
ATOM     27  C   UNL A   1      41.980  27.093  27.594  1.00  0.00     0.014 A 
ATOM     28  C   UNL A   1      40.072  26.604  29.569  1.00  0.00     0.010 A 
ATOM     29  C   UNL A   1      41.888  27.938  28.706  1.00  0.00     0.010 A 
ATOM     30  C   UNL A   1      40.913  27.722  29.693  1.00  0.00    -0.014 A 
BRANCH  30  31
ATOM     31  C   UNL A   1      40.734  28.689  30.815  1.00  0.00     0.031 A 
ATOM     32  C   UNL A   1      41.614  28.605  32.039  1.00  0.00     0.074 A 
ATOM     33  C   UNL A   1      39.784  29.644  30.743  1.00  0.00     0.049 A 
ATOM     34  N   UNL A   1      41.607  29.353  33.116  1.00  0.00    -0.248 NA
ATOM     35  C   UNL A   1      42.620  27.533  32.066  1.00  0.00     0.031 C 
ATOM     36  C   UNL A   1      38.851  29.823  29.629  1.00  0.00     0.029 A 
ATOM     37  N   UNL A   1      39.446  30.645  31.622  1.00  0.00    -0.354 N 
ATOM     38  C   UNL A   1      42.599  28.837  33.946  1.00  0.00     0.074 A 
ATOM     39  C   UNL A   1      43.149  27.681  33.272  1.00  0.00     0.031 C 
ATOM     40  C   UNL A   1      38.063  30.882  29.882  1.00  0.00     0.029 A 
ATOM     41  C   UNL A   1      38.406  31.436  31.188  1.00  0.00     0.049 A 
ATOM     42  H   UNL A   1      39.905  30.784  32.482  1.00  0.00     0.167 HD
ATOM     43  C   UNL A   1      43.029  29.296  35.146  1.00  0.00     0.037 A 
ATOM     44  C   UNL A   1      37.791  32.482  31.777  1.00  0.00     0.037 A 
ATOM     45  C   UNL A   1      42.496  30.460  35.806  1.00  0.00     0.049 A 
ATOM     46  C   UNL A   1      38.273  32.960  33.123  1.00  0.00     0.074 A 
ATOM     47  C   UNL A   1      42.900  31.030  37.002  1.00  0.00     0.029 A 
ATOM     48  N   UNL A   1      41.442  31.229  35.335  1.00  0.00    -0.354 N 
ATOM     49  N   UNL A   1      39.251  32.494  33.863  1.00  0.00    -0.248 NA
ATOM     50  C   UNL A   1      37.574  34.112  33.711  1.00  0.00     0.031 C 
ATOM     51  C   UNL A   1      42.054  32.108  37.282  1.00  0.00     0.029 A 
ATOM     52  C   UNL A   1      41.165  32.252  36.229  1.00  0.00     0.049 A 
ATOM     53  H   UNL A   1      40.961  31.072  34.490  1.00  0.00     0.167 HD
ATOM     54  C   UNL A   1      39.306  33.316  34.984  1.00  0.00     0.074 A 
ATOM     55  C   UNL A   1      38.271  34.315  34.820  1.00  0.00     0.031 C 
ATOM     56  C   UNL A   1      40.141  33.250  36.051  1.00  0.00     0.037 A 
BRANCH  43  57
ATOM     57  C   UNL A   1      44.138  28.540  35.833  1.00  0.00     0.058 A 
ATOM     58  C   UNL A   1      43.874  27.495  36.733  1.00  0.00     0.135 A 
ATOM     59  C   UNL A   1      45.482  28.825  35.542  1.00  0.00     0.135 A 
ATOM     60  F   UNL A   1      42.608  27.187  37.059  1.00  0.00    -0.206 F 
ATOM     61  C   UNL A   1      44.901  26.781  37.343  1.00  0.00     0.059 A 
ATOM     62  C   UNL A   1      46.525  28.102  36.116  1.00  0.00     0.059 A 
ATOM     63  F   UNL A   1      45.795  29.811  34.686  1.00  0.00    -0.206 F 
ATOM     64  C   UNL A   1      46.225  27.089  37.024  1.00  0.00     0.060 A 
BRANCH  64  65
ATOM     65  S   UNL A   1      47.543  26.141  37.813  1.00  0.00     0.124 S 
ATOM     66  O   UNL A   1      48.598  27.144  37.922  1.00  0.00    -0.237 OA
ATOM     67  O   UNL A   1      46.923  25.734  39.070  1.00  0.00    -0.237 OA
ATOM     68  O   UNL A   1      47.800  25.061  36.865  1.00  0.00    -0.744 OA
ENDBRANCH  64  65
ENDBRANCH  43  57
BRANCH  44  69
ATOM     69  C   UNL A   1      36.654  33.161  31.096  1.00  0.00     0.058 A 
ATOM     70  C   UNL A   1      35.332  32.983  31.533  1.00  0.00     0.135 A 
ATOM     71  C   UNL A   1      36.866  33.997  29.988  1.00  0.00     0.135 A 
ATOM     72  F   UNL A   1      35.074  32.187  32.581  1.00  0.00    -0.206 F 
ATOM     73  C   UNL A   1      34.260  33.589  30.884  1.00  0.00     0.059 A 
ATOM     74  C   UNL A   1      35.814  34.639  29.342  1.00  0.00     0.059 A 
ATOM     75  F   UNL A   1      38.111  34.216  29.538  1.00  0.00    -0.206 F 
ATOM     76  C   UNL A   1      34.513  34.419  29.790  1.00  0.00     0.060 A 
BRANCH  76  77
ATOM     77  S   UNL A   1      33.119  35.234  28.981  1.00  0.00     0.124 S 
ATOM     78  O   UNL A   1      32.692  34.214  28.031  1.00  0.00    -0.237 OA
ATOM     79  O   UNL A   1      32.219  35.482  30.103  1.00  0.00    -0.237 OA
ATOM     80  O   UNL A   1      33.723  36.429  28.397  1.00  0.00    -0.744 OA
ENDBRANCH  76  77
ENDBRANCH  44  69
BRANCH  56  81
ATOM     81  C   UNL A   1      40.008  34.314  37.109  1.00  0.00     0.058 A 
ATOM     82  C   UNL A   1      40.617  35.573  36.981  1.00  0.00     0.135 A 
ATOM     83  C   UNL A   1      39.212  34.086  38.245  1.00  0.00     0.135 A 
ATOM     84  F   UNL A   1      41.392  35.843  35.919  1.00  0.00    -0.206 F 
ATOM     85  C   UNL A   1      40.463  36.557  37.953  1.00  0.00     0.059 A 
ATOM     86  C   UNL A   1      39.018  35.067  39.213  1.00  0.00     0.059 A 
ATOM     87  F   UNL A   1      38.597  32.905  38.414  1.00  0.00    -0.206 F 
ATOM     88  C   UNL A   1      39.659  36.295  39.065  1.00  0.00     0.060 A 
BRANCH  88  89
ATOM     89  S   UNL A   1      39.444  37.593  40.301  1.00  0.00     0.124 S 
ATOM     90  O   UNL A   1      38.851  36.850  41.408  1.00  0.00    -0.237 OA
ATOM     91  O   UNL A   1      40.813  38.057  40.508  1.00  0.00    -0.237 OA
ATOM     92  O   UNL A   1      38.558  38.548  39.641  1.00  0.00    -0.744 OA
ENDBRANCH  88  89
ENDBRANCH  56  81
ENDBRANCH  30  31
ENDBRANCH  22  25
ENDBRANCH   1  21
TORSDOF 15
ENDMDL
