MODEL 1
REMARK VINA RESULT:     -10.0      0.000      0.000
REMARK SMILES O=C(CCc1ccc(S(=O)(=O)Nc2cccc(I)c2)cc1)NCCCNC(=O)c1ccc(-c2c3nc(c(-c4c(F)cc(S(=O)(=O)[O-])cc4F)c4ccc([nH]4)c(-c4c(F)cc(S(=O)(=O)[O-])cc4F)c4nc(c(-c5c(F)cc(S(=O)(=O)[O-])cc5F)c5ccc2[nH]5)C=C4)C=C3)cc1
REMARK SMILES IDX 23 1 22 2 1 3 2 4 3 6 4 7 5 8 6 9 21 10 7 11 20 12 8 13 9 14
REMARK SMILES IDX 10 15 11 16 12 17 13 19 14 20 19 21 15 22 17 23 16 24 18 25
REMARK SMILES IDX 24 26 25 27 26 28 27 29 28 31 29 32 30 33 94 34 31 35 93 36
REMARK SMILES IDX 32 37 33 38 34 39 87 40 35 41 92 42 86 43 88 44 36 45 91 46
REMARK SMILES IDX 85 47 84 48 37 50 71 51 50 52 70 53 51 54 54 55 69 56 89 57
REMARK SMILES IDX 52 58 53 59 68 61 90 62 55 63 38 64 39 65 48 66 40 67 41 68
REMARK SMILES IDX 47 69 49 70 42 71 43 72 44 73 45 74 46 75 72 76 73 77 82 78
REMARK SMILES IDX 74 79 75 80 81 81 83 82 76 83 77 84 78 85 79 86 80 87 56 88
REMARK SMILES IDX 57 89 66 90 58 91 59 92 65 93 67 94 60 95 61 96 62 97 63 98
REMARK SMILES IDX 64 99
REMARK H PARENT 22 5 12 18 26 30 88 49 54 60
REMARK Flexibility Score: inf
ROOT
ATOM      1  C   UNL A   1      33.713  35.256  28.887  1.00  0.00     0.117 C 
ENDROOT
BRANCH   1   2
ATOM      2  N   UNL A   1      34.001  35.336  30.303  1.00  0.00    -0.356 N 
ATOM      3  O   UNL A   1      32.822  37.266  30.726  1.00  0.00    -0.275 OA
ATOM      4  C   UNL A   1      33.485  36.314  31.122  1.00  0.00     0.220 C 
ATOM      5  H   UNL A   1      34.594  34.658  30.700  1.00  0.00     0.163 HD
BRANCH   4   6
ATOM      6  C   UNL A   1      33.782  36.097  32.594  1.00  0.00     0.105 C 
BRANCH   6   7
ATOM      7  C   UNL A   1      34.118  34.632  32.886  1.00  0.00     0.045 C 
BRANCH   7   8
ATOM      8  C   UNL A   1      35.475  34.407  33.517  1.00  0.00    -0.047 A 
ATOM      9  C   UNL A   1      36.648  34.698  32.807  1.00  0.00     0.005 A 
ATOM     10  C   UNL A   1      35.583  33.911  34.822  1.00  0.00     0.005 A 
ATOM     11  C   UNL A   1      37.903  34.475  33.384  1.00  0.00     0.022 A 
ATOM     12  C   UNL A   1      36.832  33.756  35.423  1.00  0.00     0.022 A 
ATOM     13  C   UNL A   1      37.996  33.981  34.690  1.00  0.00     0.087 A 
BRANCH  13  14
ATOM     14  S   UNL A   1      39.627  33.567  35.287  1.00  0.00     0.261 S 
ATOM     15  O   UNL A   1      40.527  33.719  34.157  1.00  0.00    -0.201 OA
ATOM     16  O   UNL A   1      39.820  34.328  36.496  1.00  0.00    -0.201 OA
BRANCH  14  17
ATOM     17  N   UNL A   1      39.615  31.963  35.762  1.00  0.00    -0.280 N 
ATOM     18  H   UNL A   1      39.313  31.769  36.679  1.00  0.00     0.180 HD
BRANCH  17  19
ATOM     19  C   UNL A   1      40.001  30.856  34.959  1.00  0.00     0.050 A 
ATOM     20  C   UNL A   1      39.033  30.335  34.094  1.00  0.00     0.027 A 
ATOM     21  C   UNL A   1      41.308  30.364  34.903  1.00  0.00     0.041 A 
ATOM     22  C   UNL A   1      39.386  29.404  33.114  1.00  0.00     0.003 A 
ATOM     23  C   UNL A   1      41.662  29.453  33.904  1.00  0.00     0.015 A 
ATOM     24  C   UNL A   1      40.710  28.982  33.002  1.00  0.00     0.015 A 
ATOM     25  I   UNL A   1      43.650  28.871  33.705  1.00  0.00    -0.044 I 
ENDBRANCH  17  19
ENDBRANCH  14  17
ENDBRANCH  13  14
ENDBRANCH   7   8
ENDBRANCH   6   7
ENDBRANCH   4   6
ENDBRANCH   1   2
BRANCH   1  26
ATOM     26  C   UNL A   1      34.806  34.529  28.112  1.00  0.00     0.042 C 
BRANCH  26  27
ATOM     27  C   UNL A   1      35.199  33.159  28.664  1.00  0.00     0.118 C 
BRANCH  27  28
ATOM     28  N   UNL A   1      34.216  32.120  28.396  1.00  0.00    -0.352 N 
ATOM     29  C   UNL A   1      34.411  30.777  28.161  1.00  0.00     0.251 C 
ATOM     30  H   UNL A   1      33.278  32.418  28.380  1.00  0.00     0.163 HD
ATOM     31  O   UNL A   1      33.488  30.090  27.734  1.00  0.00    -0.269 OA
BRANCH  29  32
ATOM     32  C   UNL A   1      35.742  30.163  28.379  1.00  0.00     0.039 A 
ATOM     33  C   UNL A   1      36.628  30.085  27.300  1.00  0.00     0.014 A 
ATOM     34  C   UNL A   1      36.128  29.684  29.635  1.00  0.00     0.014 A 
ATOM     35  C   UNL A   1      37.933  29.628  27.501  1.00  0.00     0.010 A 
ATOM     36  C   UNL A   1      37.446  29.280  29.847  1.00  0.00     0.010 A 
ATOM     37  C   UNL A   1      38.368  29.275  28.787  1.00  0.00    -0.014 A 
BRANCH  37  38
ATOM     38  C   UNL A   1      39.795  28.963  29.065  1.00  0.00     0.031 A 
ATOM     39  C   UNL A   1      40.720  30.025  29.589  1.00  0.00     0.074 A 
ATOM     40  C   UNL A   1      40.280  27.745  28.750  1.00  0.00     0.049 A 
ATOM     41  N   UNL A   1      42.018  29.987  29.741  1.00  0.00    -0.248 NA
ATOM     42  C   UNL A   1      40.106  31.308  29.965  1.00  0.00     0.031 C 
ATOM     43  C   UNL A   1      39.493  26.638  28.201  1.00  0.00     0.029 A 
ATOM     44  N   UNL A   1      41.555  27.241  28.822  1.00  0.00    -0.354 N 
ATOM     45  C   UNL A   1      42.383  31.243  30.208  1.00  0.00     0.074 A 
ATOM     46  C   UNL A   1      41.170  32.031  30.287  1.00  0.00     0.031 C 
ATOM     47  C   UNL A   1      40.300  25.584  27.994  1.00  0.00     0.029 A 
ATOM     48  C   UNL A   1      41.666  25.952  28.354  1.00  0.00     0.049 A 
ATOM     49  H   UNL A   1      42.317  27.753  29.175  1.00  0.00     0.167 HD
ATOM     50  C   UNL A   1      43.614  31.693  30.550  1.00  0.00     0.037 A 
ATOM     51  C   UNL A   1      42.746  25.160  28.213  1.00  0.00     0.037 A 
ATOM     52  C   UNL A   1      44.812  30.897  30.504  1.00  0.00     0.049 A 
ATOM     53  C   UNL A   1      44.099  25.677  28.613  1.00  0.00     0.074 A 
ATOM     54  C   UNL A   1      46.098  31.253  30.875  1.00  0.00     0.029 A 
ATOM     55  N   UNL A   1      44.874  29.581  30.070  1.00  0.00    -0.354 N 
ATOM     56  N   UNL A   1      44.421  26.859  29.080  1.00  0.00    -0.248 NA
ATOM     57  C   UNL A   1      45.237  24.757  28.469  1.00  0.00     0.031 C 
ATOM     58  C   UNL A   1      46.940  30.161  30.642  1.00  0.00     0.029 A 
ATOM     59  C   UNL A   1      46.175  29.114  30.156  1.00  0.00     0.049 A 
ATOM     60  H   UNL A   1      44.106  29.055  29.748  1.00  0.00     0.167 HD
ATOM     61  C   UNL A   1      45.790  26.815  29.311  1.00  0.00     0.074 A 
ATOM     62  C   UNL A   1      46.238  25.491  28.933  1.00  0.00     0.031 C 
ATOM     63  C   UNL A   1      46.602  27.786  29.797  1.00  0.00     0.037 A 
BRANCH  50  64
ATOM     64  C   UNL A   1      43.728  33.121  31.003  1.00  0.00     0.058 A 
ATOM     65  C   UNL A   1      43.575  33.477  32.351  1.00  0.00     0.135 A 
ATOM     66  C   UNL A   1      44.025  34.138  30.082  1.00  0.00     0.135 A 
ATOM     67  F   UNL A   1      43.276  32.543  33.267  1.00  0.00    -0.206 F 
ATOM     68  C   UNL A   1      43.681  34.800  32.769  1.00  0.00     0.059 A 
ATOM     69  C   UNL A   1      44.158  35.465  30.481  1.00  0.00     0.059 A 
ATOM     70  F   UNL A   1      44.180  33.850  28.781  1.00  0.00    -0.206 F 
ATOM     71  C   UNL A   1      43.968  35.788  31.824  1.00  0.00     0.060 A 
BRANCH  71  72
ATOM     72  S   UNL A   1      44.088  37.502  32.373  1.00  0.00     0.124 S 
ATOM     73  O   UNL A   1      45.521  37.625  32.623  1.00  0.00    -0.237 OA
ATOM     74  O   UNL A   1      43.579  38.239  31.222  1.00  0.00    -0.237 OA
ATOM     75  O   UNL A   1      43.239  37.537  33.561  1.00  0.00    -0.744 OA
ENDBRANCH  71  72
ENDBRANCH  50  64
BRANCH  51  76
ATOM     76  C   UNL A   1      42.586  23.784  27.677  1.00  0.00     0.058 A 
ATOM     77  C   UNL A   1      42.418  22.692  28.541  1.00  0.00     0.135 A 
ATOM     78  C   UNL A   1      42.575  23.535  26.296  1.00  0.00     0.135 A 
ATOM     79  F   UNL A   1      42.428  22.882  29.869  1.00  0.00    -0.206 F 
ATOM     80  C   UNL A   1      42.254  21.399  28.057  1.00  0.00     0.059 A 
ATOM     81  C   UNL A   1      42.393  22.253  25.787  1.00  0.00     0.059 A 
ATOM     82  F   UNL A   1      42.715  24.550  25.429  1.00  0.00    -0.206 F 
ATOM     83  C   UNL A   1      42.242  21.189  26.678  1.00  0.00     0.060 A 
BRANCH  83  84
ATOM     84  S   UNL A   1      41.972  19.516  26.055  1.00  0.00     0.124 S 
ATOM     85  O   UNL A   1      42.316  18.711  27.221  1.00  0.00    -0.237 OA
ATOM     86  O   UNL A   1      40.558  19.544  25.693  1.00  0.00    -0.237 OA
ATOM     87  O   UNL A   1      42.897  19.427  24.928  1.00  0.00    -0.744 OA
ENDBRANCH  83  84
ENDBRANCH  51  76
BRANCH  63  88
ATOM     88  C   UNL A   1      48.052  27.448  29.990  1.00  0.00     0.058 A 
ATOM     89  C   UNL A   1      48.993  27.632  28.968  1.00  0.00     0.135 A 
ATOM     90  C   UNL A   1      48.514  27.008  31.241  1.00  0.00     0.135 A 
ATOM     91  F   UNL A   1      48.598  28.043  27.752  1.00  0.00    -0.206 F 
ATOM     92  C   UNL A   1      50.347  27.389  29.177  1.00  0.00     0.059 A 
ATOM     93  C   UNL A   1      49.865  26.777  31.478  1.00  0.00     0.059 A 
ATOM     94  F   UNL A   1      47.651  26.822  32.253  1.00  0.00    -0.206 F 
ATOM     95  C   UNL A   1      50.774  26.966  30.437  1.00  0.00     0.060 A 
BRANCH  95  96
ATOM     96  S   UNL A   1      52.540  26.717  30.718  1.00  0.00     0.124 S 
ATOM     97  O   UNL A   1      53.030  26.532  29.357  1.00  0.00    -0.237 OA
ATOM     98  O   UNL A   1      52.934  27.963  31.369  1.00  0.00    -0.237 OA
ATOM     99  O   UNL A   1      52.584  25.532  31.569  1.00  0.00    -0.744 OA
ENDBRANCH  95  96
ENDBRANCH  63  88
ENDBRANCH  37  38
ENDBRANCH  29  32
ENDBRANCH  27  28
ENDBRANCH  26  27
ENDBRANCH   1  26
TORSDOF 18
ENDMDL
MODEL 2
REMARK VINA RESULT:     -10.0      1.961      2.747
REMARK SMILES O=C(CCc1ccc(S(=O)(=O)Nc2cccc(I)c2)cc1)NCCCNC(=O)c1ccc(-c2c3nc(c(-c4c(F)cc(S(=O)(=O)[O-])cc4F)c4ccc([nH]4)c(-c4c(F)cc(S(=O)(=O)[O-])cc4F)c4nc(c(-c5c(F)cc(S(=O)(=O)[O-])cc5F)c5ccc2[nH]5)C=C4)C=C3)cc1
REMARK SMILES IDX 23 1 22 2 1 3 2 4 3 6 4 7 5 8 6 9 21 10 7 11 20 12 8 13 9 14
REMARK SMILES IDX 10 15 11 16 12 17 13 19 14 20 19 21 15 22 17 23 16 24 18 25
REMARK SMILES IDX 24 26 25 27 26 28 27 29 28 31 29 32 30 33 94 34 31 35 93 36
REMARK SMILES IDX 32 37 33 38 34 39 87 40 35 41 92 42 86 43 88 44 36 45 91 46
REMARK SMILES IDX 85 47 84 48 37 50 71 51 50 52 70 53 51 54 54 55 69 56 89 57
REMARK SMILES IDX 52 58 53 59 68 61 90 62 55 63 38 64 39 65 48 66 40 67 41 68
REMARK SMILES IDX 47 69 49 70 42 71 43 72 44 73 45 74 46 75 72 76 73 77 82 78
REMARK SMILES IDX 74 79 75 80 81 81 83 82 76 83 77 84 78 85 79 86 80 87 56 88
REMARK SMILES IDX 57 89 66 90 58 91 59 92 65 93 67 94 60 95 61 96 62 97 63 98
REMARK SMILES IDX 64 99
REMARK H PARENT 22 5 12 18 26 30 88 49 54 60
REMARK Flexibility Score: inf
ROOT
ATOM      1  C   UNL A   1      34.671  34.228  31.679  1.00  0.00     0.117 C 
ENDROOT
BRANCH   1   2
ATOM      2  N   UNL A   1      35.883  34.493  32.424  1.00  0.00    -0.356 N 
ATOM      3  O   UNL A   1      35.176  33.631  34.436  1.00  0.00    -0.275 OA
ATOM      4  C   UNL A   1      36.054  34.123  33.738  1.00  0.00     0.220 C 
ATOM      5  H   UNL A   1      36.620  34.962  31.970  1.00  0.00     0.163 HD
BRANCH   4   6
ATOM      6  C   UNL A   1      37.462  34.350  34.257  1.00  0.00     0.105 C 
BRANCH   6   7
ATOM      7  C   UNL A   1      38.512  33.969  33.210  1.00  0.00     0.045 C 
BRANCH   7   8
ATOM      8  C   UNL A   1      38.950  32.522  33.249  1.00  0.00    -0.047 A 
ATOM      9  C   UNL A   1      40.255  32.181  33.632  1.00  0.00     0.005 A 
ATOM     10  C   UNL A   1      38.059  31.496  32.910  1.00  0.00     0.005 A 
ATOM     11  C   UNL A   1      40.665  30.844  33.652  1.00  0.00     0.022 A 
ATOM     12  C   UNL A   1      38.446  30.159  32.999  1.00  0.00     0.022 A 
ATOM     13  C   UNL A   1      39.763  29.830  33.314  1.00  0.00     0.087 A 
BRANCH  13  14
ATOM     14  S   UNL A   1      40.412  28.170  33.203  1.00  0.00     0.261 S 
ATOM     15  O   UNL A   1      39.265  27.291  33.052  1.00  0.00    -0.201 OA
ATOM     16  O   UNL A   1      41.451  28.208  32.205  1.00  0.00    -0.201 OA
BRANCH  14  17
ATOM     17  N   UNL A   1      41.184  27.817  34.644  1.00  0.00    -0.280 N 
ATOM     18  H   UNL A   1      41.176  28.513  35.340  1.00  0.00     0.180 HD
BRANCH  17  19
ATOM     19  C   UNL A   1      41.852  26.600  34.953  1.00  0.00     0.050 A 
ATOM     20  C   UNL A   1      41.119  25.639  35.657  1.00  0.00     0.027 A 
ATOM     21  C   UNL A   1      43.128  26.281  34.482  1.00  0.00     0.041 A 
ATOM     22  C   UNL A   1      41.611  24.341  35.804  1.00  0.00     0.003 A 
ATOM     23  C   UNL A   1      43.605  24.973  34.608  1.00  0.00     0.015 A 
ATOM     24  C   UNL A   1      42.846  24.000  35.255  1.00  0.00     0.015 A 
ATOM     25  I   UNL A   1      45.422  24.457  33.736  1.00  0.00    -0.044 I 
ENDBRANCH  17  19
ENDBRANCH  14  17
ENDBRANCH  13  14
ENDBRANCH   7   8
ENDBRANCH   6   7
ENDBRANCH   4   6
ENDBRANCH   1   2
BRANCH   1  26
ATOM     26  C   UNL A   1      34.605  32.792  31.172  1.00  0.00     0.042 C 
BRANCH  26  27
ATOM     27  C   UNL A   1      35.194  32.561  29.780  1.00  0.00     0.118 C 
BRANCH  27  28
ATOM     28  N   UNL A   1      34.370  31.711  28.933  1.00  0.00    -0.352 N 
ATOM     29  C   UNL A   1      34.731  30.607  28.193  1.00  0.00     0.251 C 
ATOM     30  H   UNL A   1      33.419  31.960  28.881  1.00  0.00     0.163 HD
ATOM     31  O   UNL A   1      33.954  30.145  27.363  1.00  0.00    -0.269 OA
BRANCH  29  32
ATOM     32  C   UNL A   1      36.072  29.998  28.361  1.00  0.00     0.039 A 
ATOM     33  C   UNL A   1      36.968  30.048  27.289  1.00  0.00     0.014 A 
ATOM     34  C   UNL A   1      36.456  29.398  29.564  1.00  0.00     0.014 A 
ATOM     35  C   UNL A   1      38.280  29.596  27.455  1.00  0.00     0.010 A 
ATOM     36  C   UNL A   1      37.779  28.999  29.747  1.00  0.00     0.010 A 
ATOM     37  C   UNL A   1      38.711  29.119  28.703  1.00  0.00    -0.014 A 
BRANCH  37  38
ATOM     38  C   UNL A   1      40.140  28.806  28.963  1.00  0.00     0.031 A 
ATOM     39  C   UNL A   1      41.073  29.868  29.472  1.00  0.00     0.074 A 
ATOM     40  C   UNL A   1      40.619  27.587  28.643  1.00  0.00     0.049 A 
ATOM     41  N   UNL A   1      42.373  29.828  29.607  1.00  0.00    -0.248 NA
ATOM     42  C   UNL A   1      40.466  31.152  29.855  1.00  0.00     0.031 C 
ATOM     43  C   UNL A   1      39.824  26.480  28.107  1.00  0.00     0.029 A 
ATOM     44  N   UNL A   1      41.894  27.081  28.699  1.00  0.00    -0.354 N 
ATOM     45  C   UNL A   1      42.746  31.084  30.068  1.00  0.00     0.074 A 
ATOM     46  C   UNL A   1      41.536  31.874  30.161  1.00  0.00     0.031 C 
ATOM     47  C   UNL A   1      40.627  25.425  27.890  1.00  0.00     0.029 A 
ATOM     48  C   UNL A   1      41.997  25.791  28.232  1.00  0.00     0.049 A 
ATOM     49  H   UNL A   1      42.662  27.593  29.041  1.00  0.00     0.167 HD
ATOM     50  C   UNL A   1      43.983  31.533  30.393  1.00  0.00     0.037 A 
ATOM     51  C   UNL A   1      43.075  24.997  28.078  1.00  0.00     0.037 A 
ATOM     52  C   UNL A   1      45.179  30.735  30.333  1.00  0.00     0.049 A 
ATOM     53  C   UNL A   1      44.433  25.513  28.459  1.00  0.00     0.074 A 
ATOM     54  C   UNL A   1      46.470  31.090  30.686  1.00  0.00     0.029 A 
ATOM     55  N   UNL A   1      45.233  29.418  29.899  1.00  0.00    -0.354 N 
ATOM     56  N   UNL A   1      44.764  26.696  28.920  1.00  0.00    -0.248 NA
ATOM     57  C   UNL A   1      45.568  24.591  28.301  1.00  0.00     0.031 C 
ATOM     58  C   UNL A   1      47.307  29.996  30.443  1.00  0.00     0.029 A 
ATOM     59  C   UNL A   1      46.534  28.950  29.970  1.00  0.00     0.049 A 
ATOM     60  H   UNL A   1      44.460  28.893  29.589  1.00  0.00     0.167 HD
ATOM     61  C   UNL A   1      46.135  26.650  29.134  1.00  0.00     0.074 A 
ATOM     62  C   UNL A   1      46.576  25.324  28.752  1.00  0.00     0.031 C 
ATOM     63  C   UNL A   1      46.955  27.620  29.607  1.00  0.00     0.037 A 
BRANCH  50  64
ATOM     64  C   UNL A   1      44.105  32.961  30.842  1.00  0.00     0.058 A 
ATOM     65  C   UNL A   1      44.190  34.015  29.919  1.00  0.00     0.135 A 
ATOM     66  C   UNL A   1      44.107  33.281  32.208  1.00  0.00     0.135 A 
ATOM     67  F   UNL A   1      44.207  33.761  28.602  1.00  0.00    -0.206 F 
ATOM     68  C   UNL A   1      44.303  35.337  30.336  1.00  0.00     0.059 A 
ATOM     69  C   UNL A   1      44.196  34.598  32.648  1.00  0.00     0.059 A 
ATOM     70  F   UNL A   1      44.029  32.310  33.131  1.00  0.00    -0.206 F 
ATOM     71  C   UNL A   1      44.310  35.618  31.704  1.00  0.00     0.060 A 
BRANCH  71  72
ATOM     72  S   UNL A   1      44.473  37.335  32.235  1.00  0.00     0.124 S 
ATOM     73  O   UNL A   1      43.201  37.547  32.919  1.00  0.00    -0.237 OA
ATOM     74  O   UNL A   1      45.654  37.290  33.091  1.00  0.00    -0.237 OA
ATOM     75  O   UNL A   1      44.639  38.062  30.980  1.00  0.00    -0.744 OA
ENDBRANCH  71  72
ENDBRANCH  50  64
BRANCH  51  76
ATOM     76  C   UNL A   1      42.906  23.621  27.546  1.00  0.00     0.058 A 
ATOM     77  C   UNL A   1      42.555  22.562  28.395  1.00  0.00     0.135 A 
ATOM     78  C   UNL A   1      43.069  23.341  26.181  1.00  0.00     0.135 A 
ATOM     79  F   UNL A   1      42.394  22.782  29.709  1.00  0.00    -0.206 F 
ATOM     80  C   UNL A   1      42.380  21.269  27.914  1.00  0.00     0.059 A 
ATOM     81  C   UNL A   1      42.880  22.059  25.672  1.00  0.00     0.059 A 
ATOM     82  F   UNL A   1      43.388  24.324  25.326  1.00  0.00    -0.206 F 
ATOM     83  C   UNL A   1      42.544  21.028  26.549  1.00  0.00     0.060 A 
BRANCH  83  84
ATOM     84  S   UNL A   1      42.260  19.359  25.920  1.00  0.00     0.124 S 
ATOM     85  O   UNL A   1      43.012  19.386  24.672  1.00  0.00    -0.237 OA
ATOM     86  O   UNL A   1      42.816  18.529  26.984  1.00  0.00    -0.237 OA
ATOM     87  O   UNL A   1      40.807  19.298  25.783  1.00  0.00    -0.744 OA
ENDBRANCH  83  84
ENDBRANCH  51  76
BRANCH  63  88
ATOM     88  C   UNL A   1      48.407  27.281  29.782  1.00  0.00     0.058 A 
ATOM     89  C   UNL A   1      49.357  27.584  28.797  1.00  0.00     0.135 A 
ATOM     90  C   UNL A   1      48.860  26.716  30.984  1.00  0.00     0.135 A 
ATOM     91  F   UNL A   1      48.970  28.117  27.627  1.00  0.00    -0.206 F 
ATOM     92  C   UNL A   1      50.711  27.336  28.996  1.00  0.00     0.059 A 
ATOM     93  C   UNL A   1      50.211  26.476  31.213  1.00  0.00     0.059 A 
ATOM     94  F   UNL A   1      47.988  26.413  31.959  1.00  0.00    -0.206 F 
ATOM     95  C   UNL A   1      51.130  26.786  30.209  1.00  0.00     0.060 A 
BRANCH  95  96
ATOM     96  S   UNL A   1      52.895  26.529  30.485  1.00  0.00     0.124 S 
ATOM     97  O   UNL A   1      53.365  26.249  29.133  1.00  0.00    -0.237 OA
ATOM     98  O   UNL A   1      53.315  27.808  31.049  1.00  0.00    -0.237 OA
ATOM     99  O   UNL A   1      52.933  25.401  31.410  1.00  0.00    -0.744 OA
ENDBRANCH  95  96
ENDBRANCH  63  88
ENDBRANCH  37  38
ENDBRANCH  29  32
ENDBRANCH  27  28
ENDBRANCH  26  27
ENDBRANCH   1  26
TORSDOF 18
ENDMDL
MODEL 3
REMARK VINA RESULT:      -9.9      4.909     12.185
REMARK SMILES O=C(CCc1ccc(S(=O)(=O)Nc2cccc(I)c2)cc1)NCCCNC(=O)c1ccc(-c2c3nc(c(-c4c(F)cc(S(=O)(=O)[O-])cc4F)c4ccc([nH]4)c(-c4c(F)cc(S(=O)(=O)[O-])cc4F)c4nc(c(-c5c(F)cc(S(=O)(=O)[O-])cc5F)c5ccc2[nH]5)C=C4)C=C3)cc1
REMARK SMILES IDX 23 1 22 2 1 3 2 4 3 6 4 7 5 8 6 9 21 10 7 11 20 12 8 13 9 14
REMARK SMILES IDX 10 15 11 16 12 17 13 19 14 20 19 21 15 22 17 23 16 24 18 25
REMARK SMILES IDX 24 26 25 27 26 28 27 29 28 31 29 32 30 33 94 34 31 35 93 36
REMARK SMILES IDX 32 37 33 38 34 39 87 40 35 41 92 42 86 43 88 44 36 45 91 46
REMARK SMILES IDX 85 47 84 48 37 50 71 51 50 52 70 53 51 54 54 55 69 56 89 57
REMARK SMILES IDX 52 58 53 59 68 61 90 62 55 63 38 64 39 65 48 66 40 67 41 68
REMARK SMILES IDX 47 69 49 70 42 71 43 72 44 73 45 74 46 75 72 76 73 77 82 78
REMARK SMILES IDX 74 79 75 80 81 81 83 82 76 83 77 84 78 85 79 86 80 87 56 88
REMARK SMILES IDX 57 89 66 90 58 91 59 92 65 93 67 94 60 95 61 96 62 97 63 98
REMARK SMILES IDX 64 99
REMARK H PARENT 22 5 12 18 26 30 88 49 54 60
REMARK Flexibility Score: inf
ROOT
ATOM      1  C   UNL A   1      40.856  20.884  26.464  1.00  0.00     0.117 C 
ENDROOT
BRANCH   1   2
ATOM      2  N   UNL A   1      39.498  20.848  25.963  1.00  0.00    -0.356 N 
ATOM      3  O   UNL A   1      39.082  23.106  26.105  1.00  0.00    -0.275 OA
ATOM      4  C   UNL A   1      38.736  21.979  25.776  1.00  0.00     0.220 C 
ATOM      5  H   UNL A   1      39.101  19.974  25.747  1.00  0.00     0.163 HD
BRANCH   4   6
ATOM      6  C   UNL A   1      37.413  21.714  25.082  1.00  0.00     0.105 C 
BRANCH   6   7
ATOM      7  C   UNL A   1      36.892  22.968  24.373  1.00  0.00     0.045 C 
BRANCH   7   8
ATOM      8  C   UNL A   1      35.512  23.412  24.805  1.00  0.00    -0.047 A 
ATOM      9  C   UNL A   1      35.077  23.210  26.122  1.00  0.00     0.005 A 
ATOM     10  C   UNL A   1      34.648  24.039  23.899  1.00  0.00     0.005 A 
ATOM     11  C   UNL A   1      33.795  23.605  26.517  1.00  0.00     0.022 A 
ATOM     12  C   UNL A   1      33.396  24.498  24.311  1.00  0.00     0.022 A 
ATOM     13  C   UNL A   1      32.942  24.233  25.602  1.00  0.00     0.087 A 
BRANCH  13  14
ATOM     14  S   UNL A   1      31.269  24.553  26.138  1.00  0.00     0.261 S 
ATOM     15  O   UNL A   1      30.440  24.496  24.946  1.00  0.00    -0.201 OA
ATOM     16  O   UNL A   1      31.027  23.671  27.252  1.00  0.00    -0.201 OA
BRANCH  14  17
ATOM     17  N   UNL A   1      31.213  26.101  26.769  1.00  0.00    -0.280 N 
ATOM     18  H   UNL A   1      30.637  26.245  27.554  1.00  0.00     0.180 HD
BRANCH  17  19
ATOM     19  C   UNL A   1      31.922  27.228  26.269  1.00  0.00     0.050 A 
ATOM     20  C   UNL A   1      31.409  27.836  25.119  1.00  0.00     0.027 A 
ATOM     21  C   UNL A   1      33.001  27.815  26.934  1.00  0.00     0.041 A 
ATOM     22  C   UNL A   1      31.902  29.071  24.692  1.00  0.00     0.003 A 
ATOM     23  C   UNL A   1      33.473  29.063  26.519  1.00  0.00     0.015 A 
ATOM     24  C   UNL A   1      32.919  29.699  25.409  1.00  0.00     0.015 A 
ATOM     25  I   UNL A   1      34.951  30.020  27.627  1.00  0.00    -0.044 I 
ENDBRANCH  17  19
ENDBRANCH  14  17
ENDBRANCH  13  14
ENDBRANCH   7   8
ENDBRANCH   6   7
ENDBRANCH   4   6
ENDBRANCH   1   2
BRANCH   1  26
ATOM     26  C   UNL A   1      40.942  21.475  27.866  1.00  0.00     0.042 C 
BRANCH  26  27
ATOM     27  C   UNL A   1      41.841  22.703  28.005  1.00  0.00     0.118 C 
BRANCH  27  28
ATOM     28  N   UNL A   1      42.291  23.242  26.730  1.00  0.00    -0.352 N 
ATOM     29  C   UNL A   1      42.247  24.538  26.268  1.00  0.00     0.251 C 
ATOM     30  H   UNL A   1      42.684  22.587  26.109  1.00  0.00     0.163 HD
ATOM     31  O   UNL A   1      42.467  24.774  25.084  1.00  0.00    -0.269 OA
BRANCH  29  32
ATOM     32  C   UNL A   1      41.890  25.648  27.183  1.00  0.00     0.039 A 
ATOM     33  C   UNL A   1      40.782  25.495  28.021  1.00  0.00     0.014 A 
ATOM     34  C   UNL A   1      42.645  26.825  27.233  1.00  0.00     0.014 A 
ATOM     35  C   UNL A   1      40.494  26.468  28.982  1.00  0.00     0.010 A 
ATOM     36  C   UNL A   1      42.391  27.768  28.227  1.00  0.00     0.010 A 
ATOM     37  C   UNL A   1      41.330  27.585  29.129  1.00  0.00    -0.014 A 
BRANCH  37  38
ATOM     38  C   UNL A   1      41.159  28.539  30.256  1.00  0.00     0.031 A 
ATOM     39  C   UNL A   1      41.992  28.409  31.499  1.00  0.00     0.074 A 
ATOM     40  C   UNL A   1      40.179  29.464  30.198  1.00  0.00     0.049 A 
ATOM     41  N   UNL A   1      41.880  29.040  32.638  1.00  0.00    -0.248 NA
ATOM     42  C   UNL A   1      43.079  27.418  31.464  1.00  0.00     0.031 C 
ATOM     43  C   UNL A   1      39.277  29.670  29.061  1.00  0.00     0.029 A 
ATOM     44  N   UNL A   1      39.761  30.388  31.123  1.00  0.00    -0.354 N 
ATOM     45  C   UNL A   1      42.862  28.512  33.465  1.00  0.00     0.074 A 
ATOM     46  C   UNL A   1      43.544  27.485  32.704  1.00  0.00     0.031 C 
ATOM     47  C   UNL A   1      38.419  30.661  29.354  1.00  0.00     0.029 A 
ATOM     48  C   UNL A   1      38.681  31.133  30.710  1.00  0.00     0.049 A 
ATOM     49  H   UNL A   1      40.194  30.506  31.999  1.00  0.00     0.167 HD
ATOM     50  C   UNL A   1      43.175  28.859  34.737  1.00  0.00     0.037 A 
ATOM     51  C   UNL A   1      37.967  32.076  31.355  1.00  0.00     0.037 A 
ATOM     52  C   UNL A   1      42.519  29.904  35.478  1.00  0.00     0.049 A 
ATOM     53  C   UNL A   1      38.342  32.454  32.760  1.00  0.00     0.074 A 
ATOM     54  C   UNL A   1      42.797  30.358  36.757  1.00  0.00     0.029 A 
ATOM     55  N   UNL A   1      41.460  30.667  35.006  1.00  0.00    -0.354 N 
ATOM     56  N   UNL A   1      39.293  31.961  33.517  1.00  0.00    -0.248 NA
ATOM     57  C   UNL A   1      37.550  33.513  33.402  1.00  0.00     0.031 C 
ATOM     58  C   UNL A   1      41.891  31.378  37.066  1.00  0.00     0.029 A 
ATOM     59  C   UNL A   1      41.070  31.581  35.970  1.00  0.00     0.049 A 
ATOM     60  H   UNL A   1      41.048  30.572  34.117  1.00  0.00     0.167 HD
ATOM     61  C   UNL A   1      39.232  32.669  34.711  1.00  0.00     0.074 A 
ATOM     62  C   UNL A   1      38.151  33.624  34.579  1.00  0.00     0.031 C 
ATOM     63  C   UNL A   1      40.005  32.541  35.816  1.00  0.00     0.037 A 
BRANCH  50  64
ATOM     64  C   UNL A   1      44.276  28.094  35.413  1.00  0.00     0.058 A 
ATOM     65  C   UNL A   1      44.024  26.895  36.098  1.00  0.00     0.135 A 
ATOM     66  C   UNL A   1      45.602  28.549  35.349  1.00  0.00     0.135 A 
ATOM     67  F   UNL A   1      42.771  26.426  36.200  1.00  0.00    -0.206 F 
ATOM     68  C   UNL A   1      45.045  26.189  36.723  1.00  0.00     0.059 A 
ATOM     69  C   UNL A   1      46.643  27.846  35.948  1.00  0.00     0.059 A 
ATOM     70  F   UNL A   1      45.897  29.691  34.707  1.00  0.00    -0.206 F 
ATOM     71  C   UNL A   1      46.352  26.675  36.647  1.00  0.00     0.060 A 
BRANCH  71  72
ATOM     72  S   UNL A   1      47.668  25.759  37.475  1.00  0.00     0.124 S 
ATOM     73  O   UNL A   1      46.904  24.940  38.411  1.00  0.00    -0.237 OA
ATOM     74  O   UNL A   1      48.296  25.041  36.371  1.00  0.00    -0.237 OA
ATOM     75  O   UNL A   1      48.482  26.809  38.080  1.00  0.00    -0.744 OA
ENDBRANCH  71  72
ENDBRANCH  50  64
BRANCH  51  76
ATOM     76  C   UNL A   1      36.830  32.739  30.667  1.00  0.00     0.058 A 
ATOM     77  C   UNL A   1      35.507  32.370  30.952  1.00  0.00     0.135 A 
ATOM     78  C   UNL A   1      37.039  33.765  29.734  1.00  0.00     0.135 A 
ATOM     79  F   UNL A   1      35.260  31.390  31.833  1.00  0.00    -0.206 F 
ATOM     80  C   UNL A   1      34.429  32.988  30.328  1.00  0.00     0.059 A 
ATOM     81  C   UNL A   1      35.976  34.413  29.111  1.00  0.00     0.059 A 
ATOM     82  F   UNL A   1      38.286  34.165  29.442  1.00  0.00    -0.206 F 
ATOM     83  C   UNL A   1      34.674  34.010  29.409  1.00  0.00     0.060 A 
BRANCH  83  84
ATOM     84  S   UNL A   1      33.268  34.847  28.645  1.00  0.00     0.124 S 
ATOM     85  O   UNL A   1      32.783  33.824  27.726  1.00  0.00    -0.237 OA
ATOM     86  O   UNL A   1      32.414  35.130  29.794  1.00  0.00    -0.237 OA
ATOM     87  O   UNL A   1      33.877  36.020  28.023  1.00  0.00    -0.744 OA
ENDBRANCH  83  84
ENDBRANCH  51  76
BRANCH  63  88
ATOM     88  C   UNL A   1      39.746  33.477  36.960  1.00  0.00     0.058 A 
ATOM     89  C   UNL A   1      38.856  33.150  37.992  1.00  0.00     0.135 A 
ATOM     90  C   UNL A   1      40.458  34.683  37.061  1.00  0.00     0.135 A 
ATOM     91  F   UNL A   1      38.146  32.011  37.936  1.00  0.00    -0.206 F 
ATOM     92  C   UNL A   1      38.677  33.988  39.088  1.00  0.00     0.059 A 
ATOM     93  C   UNL A   1      40.309  35.528  38.156  1.00  0.00     0.059 A 
ATOM     94  F   UNL A   1      41.326  35.038  36.100  1.00  0.00    -0.206 F 
ATOM     95  C   UNL A   1      39.412  35.173  39.164  1.00  0.00     0.060 A 
BRANCH  95  96
ATOM     96  S   UNL A   1      39.221  36.222  40.621  1.00  0.00     0.124 S 
ATOM     97  O   UNL A   1      38.200  35.501  41.370  1.00  0.00    -0.237 OA
ATOM     98  O   UNL A   1      40.562  36.205  41.198  1.00  0.00    -0.237 OA
ATOM     99  O   UNL A   1      38.804  37.504  40.062  1.00  0.00    -0.744 OA
ENDBRANCH  95  96
ENDBRANCH  63  88
ENDBRANCH  37  38
ENDBRANCH  29  32
ENDBRANCH  27  28
ENDBRANCH  26  27
ENDBRANCH   1  26
TORSDOF 18
ENDMDL
