MODEL 1
REMARK VINA RESULT:     -13.3      0.000      0.000
REMARK SMILES O=C(NCCCNC(=O)[C@H]1CCCN(C(=O)C2CCN(S(=O)(=O)c3ccccc3)CC2)C1)c1ccc(-c2c3nc(c(-c4c(F)cc(S(=O)(=O)[O-])cc4F)c4ccc([nH]4)c(-c4c(F)cc(S(=O)(=O)[O-])cc4F)c4nc(c(-c5c(F)cc(S(=O)(=O)[O-])cc5F)c5ccc2[nH]5)C=C4)C=C3)cc1
REMARK SMILES IDX 5 1 4 2 3 3 1 4 2 5 33 7 34 8 98 9 35 10 97 11 36 12 37 13
REMARK SMILES IDX 38 14 91 15 39 16 96 17 90 18 92 19 40 20 95 21 89 22 88 23
REMARK SMILES IDX 41 25 75 26 54 27 74 28 55 29 58 30 73 31 93 32 56 33 57 34
REMARK SMILES IDX 72 36 94 37 59 38 42 39 43 40 52 41 44 42 45 43 51 44 53 45
REMARK SMILES IDX 46 46 47 47 48 48 49 49 50 50 76 51 77 52 86 53 78 54 79 55
REMARK SMILES IDX 85 56 87 57 80 58 81 59 82 60 83 61 84 62 60 63 61 64 70 65
REMARK SMILES IDX 62 66 63 67 69 68 71 69 64 70 65 71 66 72 67 73 68 74 6 75
REMARK SMILES IDX 7 76 8 77 9 79 10 80 11 81 32 82 12 83 14 84 13 85 15 86
REMARK SMILES IDX 16 87 17 88 18 89 31 90 19 91 30 92 20 93 21 94 22 95 23 96
REMARK SMILES IDX 24 97 25 98 29 99 26 100 28 101 27 102
REMARK H PARENT 3 6 92 24 58 35 7 78
REMARK Flexibility Score: inf
ROOT
ATOM      1  C   UNL A   1      39.221  22.246  26.362  1.00  0.00     0.042 C 
ENDROOT
BRANCH   1   2
ATOM      2  C   UNL A   1      40.201  23.173  27.077  1.00  0.00     0.118 C 
BRANCH   2   3
ATOM      3  N   UNL A   1      41.045  23.883  26.127  1.00  0.00    -0.352 N 
ATOM      4  O   UNL A   1      41.757  25.691  25.011  1.00  0.00    -0.269 OA
ATOM      5  C   UNL A   1      41.383  25.210  26.077  1.00  0.00     0.251 C 
ATOM      6  H   UNL A   1      41.431  23.326  25.414  1.00  0.00     0.163 HD
BRANCH   5   7
ATOM      7  C   UNL A   1      41.334  26.047  27.295  1.00  0.00     0.039 A 
ATOM      8  C   UNL A   1      42.298  27.035  27.519  1.00  0.00     0.014 A 
ATOM      9  C   UNL A   1      40.241  25.926  28.157  1.00  0.00     0.014 A 
ATOM     10  C   UNL A   1      42.211  27.851  28.643  1.00  0.00     0.010 A 
ATOM     11  C   UNL A   1      40.118  26.790  29.247  1.00  0.00     0.010 A 
ATOM     12  C   UNL A   1      41.105  27.757  29.498  1.00  0.00    -0.014 A 
BRANCH  12  13
ATOM     13  C   UNL A   1      40.935  28.733  30.599  1.00  0.00     0.031 A 
ATOM     14  C   UNL A   1      41.772  28.639  31.838  1.00  0.00     0.074 A 
ATOM     15  C   UNL A   1      39.990  29.684  30.481  1.00  0.00     0.049 A 
ATOM     16  N   UNL A   1      41.706  29.352  32.932  1.00  0.00    -0.248 NA
ATOM     17  C   UNL A   1      42.812  27.600  31.856  1.00  0.00     0.031 C 
ATOM     18  C   UNL A   1      39.111  29.856  29.319  1.00  0.00     0.029 A 
ATOM     19  N   UNL A   1      39.599  30.676  31.342  1.00  0.00    -0.354 N 
ATOM     20  C   UNL A   1      42.674  28.833  33.782  1.00  0.00     0.074 A 
ATOM     21  C   UNL A   1      43.305  27.735  33.080  1.00  0.00     0.031 C 
ATOM     22  C   UNL A   1      38.292  30.894  29.538  1.00  0.00     0.029 A 
ATOM     23  C   UNL A   1      38.546  31.425  30.873  1.00  0.00     0.049 A 
ATOM     24  H   UNL A   1      40.029  30.836  32.213  1.00  0.00     0.167 HD
ATOM     25  C   UNL A   1      43.001  29.239  35.032  1.00  0.00     0.037 A 
ATOM     26  C   UNL A   1      37.841  32.409  31.462  1.00  0.00     0.037 A 
ATOM     27  C   UNL A   1      42.366  30.339  35.711  1.00  0.00     0.049 A 
ATOM     28  C   UNL A   1      38.214  32.840  32.848  1.00  0.00     0.074 A 
ATOM     29  C   UNL A   1      42.645  30.854  36.965  1.00  0.00     0.029 A 
ATOM     30  N   UNL A   1      41.317  31.086  35.195  1.00  0.00    -0.354 N 
ATOM     31  N   UNL A   1      39.155  32.362  33.627  1.00  0.00    -0.248 NA
ATOM     32  C   UNL A   1      37.439  33.937  33.439  1.00  0.00     0.031 C 
ATOM     33  C   UNL A   1      41.740  31.890  37.221  1.00  0.00     0.029 A 
ATOM     34  C   UNL A   1      40.923  32.048  36.110  1.00  0.00     0.049 A 
ATOM     35  H   UNL A   1      40.911  30.953  34.308  1.00  0.00     0.167 HD
ATOM     36  C   UNL A   1      39.098  33.109  34.796  1.00  0.00     0.074 A 
ATOM     37  C   UNL A   1      38.030  34.076  34.620  1.00  0.00     0.031 C 
ATOM     38  C   UNL A   1      39.863  33.006  35.910  1.00  0.00     0.037 A 
BRANCH  25  39
ATOM     39  C   UNL A   1      44.069  28.462  35.750  1.00  0.00     0.058 A 
ATOM     40  C   UNL A   1      43.759  27.390  36.602  1.00  0.00     0.135 A 
ATOM     41  C   UNL A   1      45.422  28.803  35.593  1.00  0.00     0.135 A 
ATOM     42  F   UNL A   1      42.481  27.030  36.799  1.00  0.00    -0.206 F 
ATOM     43  C   UNL A   1      44.749  26.715  37.312  1.00  0.00     0.059 A 
ATOM     44  C   UNL A   1      46.430  28.127  36.275  1.00  0.00     0.059 A 
ATOM     45  F   UNL A   1      45.774  29.817  34.788  1.00  0.00    -0.206 F 
ATOM     46  C   UNL A   1      46.081  27.100  37.151  1.00  0.00     0.060 A 
BRANCH  46  47
ATOM     47  S   UNL A   1      47.352  26.254  38.114  1.00  0.00     0.124 S 
ATOM     48  O   UNL A   1      48.099  27.384  38.660  1.00  0.00    -0.237 OA
ATOM     49  O   UNL A   1      46.564  25.493  39.078  1.00  0.00    -0.237 OA
ATOM     50  O   UNL A   1      48.058  25.457  37.118  1.00  0.00    -0.744 OA
ENDBRANCH  46  47
ENDBRANCH  25  39
BRANCH  26  51
ATOM     51  C   UNL A   1      36.713  33.028  30.720  1.00  0.00     0.058 A 
ATOM     52  C   UNL A   1      35.386  32.674  30.993  1.00  0.00     0.135 A 
ATOM     53  C   UNL A   1      36.940  34.064  29.798  1.00  0.00     0.135 A 
ATOM     54  F   UNL A   1      35.122  31.688  31.864  1.00  0.00    -0.206 F 
ATOM     55  C   UNL A   1      34.319  33.335  30.393  1.00  0.00     0.059 A 
ATOM     56  C   UNL A   1      35.890  34.754  29.202  1.00  0.00     0.059 A 
ATOM     57  F   UNL A   1      38.194  34.452  29.518  1.00  0.00    -0.206 F 
ATOM     58  C   UNL A   1      34.581  34.383  29.508  1.00  0.00     0.060 A 
BRANCH  58  59
ATOM     59  S   UNL A   1      33.190  35.311  28.824  1.00  0.00     0.124 S 
ATOM     60  O   UNL A   1      33.875  36.341  28.052  1.00  0.00    -0.237 OA
ATOM     61  O   UNL A   1      32.491  34.290  28.048  1.00  0.00    -0.237 OA
ATOM     62  O   UNL A   1      32.481  35.776  30.012  1.00  0.00    -0.744 OA
ENDBRANCH  58  59
ENDBRANCH  26  51
BRANCH  38  63
ATOM     63  C   UNL A   1      39.598  33.979  37.022  1.00  0.00     0.058 A 
ATOM     64  C   UNL A   1      38.760  33.655  38.098  1.00  0.00     0.135 A 
ATOM     65  C   UNL A   1      40.271  35.211  37.056  1.00  0.00     0.135 A 
ATOM     66  F   UNL A   1      38.089  32.492  38.104  1.00  0.00    -0.206 F 
ATOM     67  C   UNL A   1      38.597  34.520  39.175  1.00  0.00     0.059 A 
ATOM     68  C   UNL A   1      40.137  36.083  38.131  1.00  0.00     0.059 A 
ATOM     69  F   UNL A   1      41.089  35.563  36.051  1.00  0.00    -0.206 F 
ATOM     70  C   UNL A   1      39.297  35.729  39.186  1.00  0.00     0.060 A 
BRANCH  70  71
ATOM     71  S   UNL A   1      39.140  36.808  40.624  1.00  0.00     0.124 S 
ATOM     72  O   UNL A   1      38.464  35.933  41.577  1.00  0.00    -0.237 OA
ATOM     73  O   UNL A   1      40.531  37.127  40.932  1.00  0.00    -0.237 OA
ATOM     74  O   UNL A   1      38.344  37.926  40.123  1.00  0.00    -0.744 OA
ENDBRANCH  70  71
ENDBRANCH  38  63
ENDBRANCH  12  13
ENDBRANCH   5   7
ENDBRANCH   2   3
ENDBRANCH   1   2
BRANCH   1  75
ATOM     75  C   UNL A   1      37.878  22.909  26.064  1.00  0.00     0.117 C 
BRANCH  75  76
ATOM     76  N   UNL A   1      37.599  22.983  24.641  1.00  0.00    -0.356 N 
ATOM     77  C   UNL A   1      36.502  22.771  23.880  1.00  0.00     0.224 C 
ATOM     78  H   UNL A   1      38.385  23.248  24.111  1.00  0.00     0.163 HD
ATOM     79  O   UNL A   1      36.649  22.994  22.670  1.00  0.00    -0.275 OA
BRANCH  77  80
ATOM     80  C   UNL A   1      35.149  22.256  24.374  1.00  0.00     0.098 C 
ATOM     81  C   UNL A   1      35.317  20.759  24.693  1.00  0.00     0.017 C 
ATOM     82  C   UNL A   1      34.447  23.010  25.502  1.00  0.00     0.133 C 
ATOM     83  C   UNL A   1      34.031  20.157  25.235  1.00  0.00     0.022 C 
ATOM     84  N   UNL A   1      33.272  22.329  26.055  1.00  0.00    -0.342 N 
ATOM     85  C   UNL A   1      33.550  20.961  26.433  1.00  0.00     0.119 C 
BRANCH  84  86
ATOM     86  C   UNL A   1      32.198  23.104  26.461  1.00  0.00     0.225 C 
ATOM     87  O   UNL A   1      32.240  23.656  27.571  1.00  0.00    -0.275 OA
BRANCH  86  88
ATOM     88  C   UNL A   1      30.944  23.388  25.599  1.00  0.00     0.081 C 
ATOM     89  C   UNL A   1      31.085  23.441  24.088  1.00  0.00     0.030 C 
ATOM     90  C   UNL A   1      29.969  24.435  26.099  1.00  0.00     0.030 C 
ATOM     91  C   UNL A   1      31.226  24.818  23.462  1.00  0.00     0.103 C 
ATOM     92  C   UNL A   1      30.226  25.835  25.588  1.00  0.00     0.103 C 
ATOM     93  N   UNL A   1      30.482  25.948  24.131  1.00  0.00    -0.198 NA
BRANCH  93  94
ATOM     94  S   UNL A   1      31.192  27.459  23.605  1.00  0.00     0.243 S 
ATOM     95  O   UNL A   1      31.607  28.183  24.797  1.00  0.00    -0.207 OA
ATOM     96  O   UNL A   1      32.154  27.135  22.581  1.00  0.00    -0.207 OA
BRANCH  94  97
ATOM     97  C   UNL A   1      29.901  28.443  22.878  1.00  0.00     0.082 A 
ATOM     98  C   UNL A   1      30.236  29.539  22.082  1.00  0.00     0.022 A 
ATOM     99  C   UNL A   1      28.573  28.255  23.288  1.00  0.00     0.022 A 
ATOM    100  C   UNL A   1      29.232  30.417  21.663  1.00  0.00     0.001 A 
ATOM    101  C   UNL A   1      27.571  29.109  22.834  1.00  0.00     0.001 A 
ATOM    102  C   UNL A   1      27.902  30.193  22.026  1.00  0.00     0.000 A 
ENDBRANCH  94  97
ENDBRANCH  93  94
ENDBRANCH  86  88
ENDBRANCH  84  86
ENDBRANCH  77  80
ENDBRANCH  75  76
ENDBRANCH   1  75
TORSDOF 17
ENDMDL
MODEL 2
REMARK VINA RESULT:     -13.0      6.407     12.173
REMARK SMILES O=C(NCCCNC(=O)[C@H]1CCCN(C(=O)C2CCN(S(=O)(=O)c3ccccc3)CC2)C1)c1ccc(-c2c3nc(c(-c4c(F)cc(S(=O)(=O)[O-])cc4F)c4ccc([nH]4)c(-c4c(F)cc(S(=O)(=O)[O-])cc4F)c4nc(c(-c5c(F)cc(S(=O)(=O)[O-])cc5F)c5ccc2[nH]5)C=C4)C=C3)cc1
REMARK SMILES IDX 5 1 4 2 3 3 1 4 2 5 33 7 34 8 98 9 35 10 97 11 36 12 37 13
REMARK SMILES IDX 38 14 91 15 39 16 96 17 90 18 92 19 40 20 95 21 89 22 88 23
REMARK SMILES IDX 41 25 75 26 54 27 74 28 55 29 58 30 73 31 93 32 56 33 57 34
REMARK SMILES IDX 72 36 94 37 59 38 42 39 43 40 52 41 44 42 45 43 51 44 53 45
REMARK SMILES IDX 46 46 47 47 48 48 49 49 50 50 76 51 77 52 86 53 78 54 79 55
REMARK SMILES IDX 85 56 87 57 80 58 81 59 82 60 83 61 84 62 60 63 61 64 70 65
REMARK SMILES IDX 62 66 63 67 69 68 71 69 64 70 65 71 66 72 67 73 68 74 6 75
REMARK SMILES IDX 7 76 8 77 9 79 10 80 11 81 32 82 12 83 14 84 13 85 15 86
REMARK SMILES IDX 16 87 17 88 18 89 31 90 19 91 30 92 20 93 21 94 22 95 23 96
REMARK SMILES IDX 24 97 25 98 29 99 26 100 28 101 27 102
REMARK H PARENT 3 6 92 24 58 35 7 78
REMARK Flexibility Score: inf
ROOT
ATOM      1  C   UNL A   1      34.864  32.855  28.031  1.00  0.00     0.042 C 
ENDROOT
BRANCH   1   2
ATOM      2  C   UNL A   1      36.119  32.587  28.859  1.00  0.00     0.118 C 
BRANCH   2   3
ATOM      3  N   UNL A   1      35.844  31.664  29.950  1.00  0.00    -0.352 N 
ATOM      4  O   UNL A   1      35.879  29.667  30.968  1.00  0.00    -0.269 OA
ATOM      5  C   UNL A   1      36.479  30.499  30.292  1.00  0.00     0.251 C 
ATOM      6  H   UNL A   1      35.089  31.914  30.529  1.00  0.00     0.163 HD
BRANCH   5   7
ATOM      7  C   UNL A   1      37.880  30.256  29.886  1.00  0.00     0.039 A 
ATOM      8  C   UNL A   1      38.894  30.164  30.844  1.00  0.00     0.014 A 
ATOM      9  C   UNL A   1      38.160  29.991  28.542  1.00  0.00     0.014 A 
ATOM     10  C   UNL A   1      40.200  29.883  30.453  1.00  0.00     0.010 A 
ATOM     11  C   UNL A   1      39.457  29.643  28.159  1.00  0.00     0.010 A 
ATOM     12  C   UNL A   1      40.485  29.589  29.113  1.00  0.00    -0.014 A 
BRANCH  12  13
ATOM     13  C   UNL A   1      41.842  29.134  28.728  1.00  0.00     0.031 A 
ATOM     14  C   UNL A   1      42.982  30.103  28.665  1.00  0.00     0.074 A 
ATOM     15  C   UNL A   1      42.021  27.840  28.402  1.00  0.00     0.049 A 
ATOM     16  N   UNL A   1      44.213  29.901  28.271  1.00  0.00    -0.248 NA
ATOM     17  C   UNL A   1      42.702  31.483  29.087  1.00  0.00     0.031 C 
ATOM     18  C   UNL A   1      40.972  26.816  28.418  1.00  0.00     0.029 A 
ATOM     19  N   UNL A   1      43.138  27.166  27.983  1.00  0.00    -0.354 N 
ATOM     20  C   UNL A   1      44.849  31.132  28.370  1.00  0.00     0.074 A 
ATOM     21  C   UNL A   1      43.864  32.077  28.849  1.00  0.00     0.031 C 
ATOM     22  C   UNL A   1      41.497  25.643  28.035  1.00  0.00     0.029 A 
ATOM     23  C   UNL A   1      42.902  25.842  27.693  1.00  0.00     0.049 A 
ATOM     24  H   UNL A   1      44.024  27.587  27.896  1.00  0.00     0.167 HD
ATOM     25  C   UNL A   1      46.138  31.437  28.086  1.00  0.00     0.037 A 
ATOM     26  C   UNL A   1      43.714  24.901  27.179  1.00  0.00     0.037 A 
ATOM     27  C   UNL A   1      47.105  30.480  27.617  1.00  0.00     0.049 A 
ATOM     28  C   UNL A   1      45.135  25.261  26.864  1.00  0.00     0.074 A 
ATOM     29  C   UNL A   1      48.445  30.678  27.331  1.00  0.00     0.029 A 
ATOM     30  N   UNL A   1      46.833  29.144  27.354  1.00  0.00    -0.354 N 
ATOM     31  N   UNL A   1      45.733  26.421  26.995  1.00  0.00    -0.248 NA
ATOM     32  C   UNL A   1      45.994  24.194  26.334  1.00  0.00     0.031 C 
ATOM     33  C   UNL A   1      48.974  29.470  26.862  1.00  0.00     0.029 A 
ATOM     34  C   UNL A   1      47.974  28.508  26.894  1.00  0.00     0.049 A 
ATOM     35  H   UNL A   1      45.957  28.711  27.478  1.00  0.00     0.167 HD
ATOM     36  C   UNL A   1      47.043  26.224  26.580  1.00  0.00     0.074 A 
ATOM     37  C   UNL A   1      47.152  24.828  26.196  1.00  0.00     0.031 C 
ATOM     38  C   UNL A   1      48.062  27.115  26.525  1.00  0.00     0.037 A 
BRANCH  25  39
ATOM     39  C   UNL A   1      46.553  32.873  28.242  1.00  0.00     0.058 A 
ATOM     40  C   UNL A   1      47.076  33.366  29.449  1.00  0.00     0.135 A 
ATOM     41  C   UNL A   1      46.414  33.773  27.173  1.00  0.00     0.135 A 
ATOM     42  F   UNL A   1      47.217  32.553  30.507  1.00  0.00    -0.206 F 
ATOM     43  C   UNL A   1      47.400  34.712  29.605  1.00  0.00     0.059 A 
ATOM     44  C   UNL A   1      46.754  35.117  27.299  1.00  0.00     0.059 A 
ATOM     45  F   UNL A   1      45.923  33.354  25.996  1.00  0.00    -0.206 F 
ATOM     46  C   UNL A   1      47.223  35.582  28.527  1.00  0.00     0.060 A 
BRANCH  46  47
ATOM     47  S   UNL A   1      47.597  37.333  28.755  1.00  0.00     0.124 S 
ATOM     48  O   UNL A   1      46.634  37.953  27.850  1.00  0.00    -0.237 OA
ATOM     49  O   UNL A   1      47.342  37.528  30.179  1.00  0.00    -0.237 OA
ATOM     50  O   UNL A   1      48.995  37.436  28.352  1.00  0.00    -0.744 OA
ENDBRANCH  46  47
ENDBRANCH  25  39
BRANCH  26  51
ATOM     51  C   UNL A   1      43.172  23.539  26.934  1.00  0.00     0.058 A 
ATOM     52  C   UNL A   1      42.904  23.090  25.635  1.00  0.00     0.135 A 
ATOM     53  C   UNL A   1      43.015  22.626  27.990  1.00  0.00     0.135 A 
ATOM     54  F   UNL A   1      43.037  23.928  24.595  1.00  0.00    -0.206 F 
ATOM     55  C   UNL A   1      42.514  21.779  25.386  1.00  0.00     0.059 A 
ATOM     56  C   UNL A   1      42.647  21.305  27.765  1.00  0.00     0.059 A 
ATOM     57  F   UNL A   1      43.279  23.005  29.250  1.00  0.00    -0.206 F 
ATOM     58  C   UNL A   1      42.401  20.889  26.456  1.00  0.00     0.060 A 
BRANCH  58  59
ATOM     59  S   UNL A   1      42.008  19.160  26.111  1.00  0.00     0.124 S 
ATOM     60  O   UNL A   1      42.911  18.869  25.004  1.00  0.00    -0.237 OA
ATOM     61  O   UNL A   1      42.325  18.513  27.381  1.00  0.00    -0.237 OA
ATOM     62  O   UNL A   1      40.588  19.200  25.776  1.00  0.00    -0.744 OA
ENDBRANCH  58  59
ENDBRANCH  26  51
BRANCH  38  63
ATOM     63  C   UNL A   1      49.397  26.612  26.061  1.00  0.00     0.058 A 
ATOM     64  C   UNL A   1      49.874  26.878  24.770  1.00  0.00     0.135 A 
ATOM     65  C   UNL A   1      50.247  25.939  26.954  1.00  0.00     0.135 A 
ATOM     66  F   UNL A   1      49.093  27.510  23.878  1.00  0.00    -0.206 F 
ATOM     67  C   UNL A   1      51.152  26.495  24.377  1.00  0.00     0.059 A 
ATOM     68  C   UNL A   1      51.535  25.564  26.589  1.00  0.00     0.059 A 
ATOM     69  F   UNL A   1      49.836  25.667  28.203  1.00  0.00    -0.206 F 
ATOM     70  C   UNL A   1      51.978  25.846  25.298  1.00  0.00     0.060 A 
BRANCH  70  71
ATOM     71  S   UNL A   1      53.663  25.424  24.804  1.00  0.00     0.124 S 
ATOM     72  O   UNL A   1      54.441  26.426  25.526  1.00  0.00    -0.237 OA
ATOM     73  O   UNL A   1      53.797  24.051  25.282  1.00  0.00    -0.237 OA
ATOM     74  O   UNL A   1      53.638  25.575  23.352  1.00  0.00    -0.744 OA
ENDBRANCH  70  71
ENDBRANCH  38  63
ENDBRANCH  12  13
ENDBRANCH   5   7
ENDBRANCH   2   3
ENDBRANCH   1   2
BRANCH   1  75
ATOM     75  C   UNL A   1      34.009  31.608  27.818  1.00  0.00     0.117 C 
BRANCH  75  76
ATOM     76  N   UNL A   1      32.717  31.916  27.229  1.00  0.00    -0.356 N 
ATOM     77  C   UNL A   1      31.816  31.214  26.507  1.00  0.00     0.224 C 
ATOM     78  H   UNL A   1      32.434  32.845  27.393  1.00  0.00     0.163 HD
ATOM     79  O   UNL A   1      30.776  31.826  26.223  1.00  0.00    -0.275 OA
BRANCH  77  80
ATOM     80  C   UNL A   1      31.989  29.782  25.997  1.00  0.00     0.098 C 
ATOM     81  C   UNL A   1      31.817  28.842  27.205  1.00  0.00     0.017 C 
ATOM     82  C   UNL A   1      31.165  29.329  24.793  1.00  0.00     0.133 C 
ATOM     83  C   UNL A   1      31.931  27.383  26.795  1.00  0.00     0.022 C 
ATOM     84  N   UNL A   1      31.233  27.892  24.511  1.00  0.00    -0.342 N 
ATOM     85  C   UNL A   1      30.947  27.083  25.675  1.00  0.00     0.119 C 
BRANCH  84  86
ATOM     86  C   UNL A   1      31.212  27.483  23.187  1.00  0.00     0.225 C 
ATOM     87  O   UNL A   1      30.258  27.819  22.469  1.00  0.00    -0.275 OA
BRANCH  86  88
ATOM     88  C   UNL A   1      32.336  26.670  22.501  1.00  0.00     0.081 C 
ATOM     89  C   UNL A   1      32.041  25.256  22.031  1.00  0.00     0.030 C 
ATOM     90  C   UNL A   1      33.734  26.780  23.076  1.00  0.00     0.030 C 
ATOM     91  C   UNL A   1      32.458  24.126  22.956  1.00  0.00     0.103 C 
ATOM     92  C   UNL A   1      34.074  25.737  24.117  1.00  0.00     0.103 C 
ATOM     93  N   UNL A   1      33.712  24.341  23.768  1.00  0.00    -0.198 NA
BRANCH  93  94
ATOM     94  S   UNL A   1      33.701  23.210  25.103  1.00  0.00     0.243 S 
ATOM     95  O   UNL A   1      33.358  23.955  26.305  1.00  0.00    -0.207 OA
ATOM     96  O   UNL A   1      32.895  22.087  24.693  1.00  0.00    -0.207 OA
BRANCH  94  97
ATOM     97  C   UNL A   1      35.369  22.647  25.355  1.00  0.00     0.082 A 
ATOM     98  C   UNL A   1      36.355  23.559  25.732  1.00  0.00     0.022 A 
ATOM     99  C   UNL A   1      35.729  21.351  24.956  1.00  0.00     0.022 A 
ATOM    100  C   UNL A   1      37.693  23.156  25.750  1.00  0.00     0.001 A 
ATOM    101  C   UNL A   1      37.059  20.942  25.016  1.00  0.00     0.001 A 
ATOM    102  C   UNL A   1      38.042  21.847  25.408  1.00  0.00     0.000 A 
ENDBRANCH  94  97
ENDBRANCH  93  94
ENDBRANCH  86  88
ENDBRANCH  84  86
ENDBRANCH  77  80
ENDBRANCH  75  76
ENDBRANCH   1  75
TORSDOF 17
ENDMDL
MODEL 3
REMARK VINA RESULT:     -12.7      1.477      2.541
REMARK SMILES O=C(NCCCNC(=O)[C@H]1CCCN(C(=O)C2CCN(S(=O)(=O)c3ccccc3)CC2)C1)c1ccc(-c2c3nc(c(-c4c(F)cc(S(=O)(=O)[O-])cc4F)c4ccc([nH]4)c(-c4c(F)cc(S(=O)(=O)[O-])cc4F)c4nc(c(-c5c(F)cc(S(=O)(=O)[O-])cc5F)c5ccc2[nH]5)C=C4)C=C3)cc1
REMARK SMILES IDX 5 1 4 2 3 3 1 4 2 5 33 7 34 8 98 9 35 10 97 11 36 12 37 13
REMARK SMILES IDX 38 14 91 15 39 16 96 17 90 18 92 19 40 20 95 21 89 22 88 23
REMARK SMILES IDX 41 25 75 26 54 27 74 28 55 29 58 30 73 31 93 32 56 33 57 34
REMARK SMILES IDX 72 36 94 37 59 38 42 39 43 40 52 41 44 42 45 43 51 44 53 45
REMARK SMILES IDX 46 46 47 47 48 48 49 49 50 50 76 51 77 52 86 53 78 54 79 55
REMARK SMILES IDX 85 56 87 57 80 58 81 59 82 60 83 61 84 62 60 63 61 64 70 65
REMARK SMILES IDX 62 66 63 67 69 68 71 69 64 70 65 71 66 72 67 73 68 74 6 75
REMARK SMILES IDX 7 76 8 77 9 79 10 80 11 81 32 82 12 83 14 84 13 85 15 86
REMARK SMILES IDX 16 87 17 88 18 89 31 90 19 91 30 92 20 93 21 94 22 95 23 96
REMARK SMILES IDX 24 97 25 98 29 99 26 100 28 101 27 102
REMARK H PARENT 3 6 92 24 58 35 7 78
REMARK Flexibility Score: inf
ROOT
ATOM      1  C   UNL A   1      38.229  24.139  26.125  1.00  0.00     0.042 C 
ENDROOT
BRANCH   1   2
ATOM      2  C   UNL A   1      39.213  23.198  26.817  1.00  0.00     0.118 C 
BRANCH   2   3
ATOM      3  N   UNL A   1      40.567  23.392  26.321  1.00  0.00    -0.352 N 
ATOM      4  O   UNL A   1      42.281  24.606  25.538  1.00  0.00    -0.269 OA
ATOM      5  C   UNL A   1      41.355  24.513  26.339  1.00  0.00     0.251 C 
ATOM      6  H   UNL A   1      40.980  22.598  25.911  1.00  0.00     0.163 HD
BRANCH   5   7
ATOM      7  C   UNL A   1      41.119  25.584  27.330  1.00  0.00     0.039 A 
ATOM      8  C   UNL A   1      40.252  25.380  28.409  1.00  0.00     0.014 A 
ATOM      9  C   UNL A   1      41.871  26.760  27.249  1.00  0.00     0.014 A 
ATOM     10  C   UNL A   1      40.079  26.377  29.363  1.00  0.00     0.010 A 
ATOM     11  C   UNL A   1      41.748  27.732  28.244  1.00  0.00     0.010 A 
ATOM     12  C   UNL A   1      40.849  27.547  29.307  1.00  0.00    -0.014 A 
BRANCH  12  13
ATOM     13  C   UNL A   1      40.779  28.533  30.410  1.00  0.00     0.031 A 
ATOM     14  C   UNL A   1      41.689  28.417  31.595  1.00  0.00     0.074 A 
ATOM     15  C   UNL A   1      39.859  29.512  30.345  1.00  0.00     0.049 A 
ATOM     16  N   UNL A   1      41.713  29.137  32.686  1.00  0.00    -0.248 NA
ATOM     17  C   UNL A   1      42.695  27.346  31.555  1.00  0.00     0.031 C 
ATOM     18  C   UNL A   1      38.915  29.706  29.239  1.00  0.00     0.029 A 
ATOM     19  N   UNL A   1      39.554  30.520  31.222  1.00  0.00    -0.354 N 
ATOM     20  C   UNL A   1      42.716  28.592  33.478  1.00  0.00     0.074 A 
ATOM     21  C   UNL A   1      43.267  27.472  32.745  1.00  0.00     0.031 C 
ATOM     22  C   UNL A   1      38.143  30.770  29.502  1.00  0.00     0.029 A 
ATOM     23  C   UNL A   1      38.497  31.300  30.815  1.00  0.00     0.049 A 
ATOM     24  H   UNL A   1      40.042  30.670  32.063  1.00  0.00     0.167 HD
ATOM     25  C   UNL A   1      43.133  28.993  34.702  1.00  0.00     0.037 A 
ATOM     26  C   UNL A   1      37.861  32.308  31.440  1.00  0.00     0.037 A 
ATOM     27  C   UNL A   1      42.577  30.115  35.412  1.00  0.00     0.049 A 
ATOM     28  C   UNL A   1      38.334  32.733  32.798  1.00  0.00     0.074 A 
ATOM     29  C   UNL A   1      42.949  30.627  36.643  1.00  0.00     0.029 A 
ATOM     30  N   UNL A   1      41.521  30.893  34.958  1.00  0.00    -0.354 N 
ATOM     31  N   UNL A   1      39.306  32.230  33.520  1.00  0.00    -0.248 NA
ATOM     32  C   UNL A   1      37.631  33.857  33.429  1.00  0.00     0.031 C 
ATOM     33  C   UNL A   1      42.095  31.692  36.948  1.00  0.00     0.029 A 
ATOM     34  C   UNL A   1      41.216  31.871  35.890  1.00  0.00     0.049 A 
ATOM     35  H   UNL A   1      41.056  30.769  34.098  1.00  0.00     0.167 HD
ATOM     36  C   UNL A   1      39.346  32.983  34.686  1.00  0.00     0.074 A 
ATOM     37  C   UNL A   1      38.299  33.982  34.569  1.00  0.00     0.031 C 
ATOM     38  C   UNL A   1      40.175  32.861  35.750  1.00  0.00     0.037 A 
BRANCH  25  39
ATOM     39  C   UNL A   1      44.219  28.186  35.357  1.00  0.00     0.058 A 
ATOM     40  C   UNL A   1      45.579  28.483  35.170  1.00  0.00     0.135 A 
ATOM     41  C   UNL A   1      43.895  27.089  36.172  1.00  0.00     0.135 A 
ATOM     42  F   UNL A   1      45.946  29.511  34.389  1.00  0.00    -0.206 F 
ATOM     43  C   UNL A   1      46.579  27.692  35.729  1.00  0.00     0.059 A 
ATOM     44  C   UNL A   1      44.878  26.299  36.760  1.00  0.00     0.059 A 
ATOM     45  F   UNL A   1      42.611  26.763  36.386  1.00  0.00    -0.206 F 
ATOM     46  C   UNL A   1      46.218  26.594  36.512  1.00  0.00     0.060 A 
BRANCH  46  47
ATOM     47  S   UNL A   1      47.521  25.545  37.190  1.00  0.00     0.124 S 
ATOM     48  O   UNL A   1      48.719  26.270  36.776  1.00  0.00    -0.237 OA
ATOM     49  O   UNL A   1      47.233  25.565  38.620  1.00  0.00    -0.237 OA
ATOM     50  O   UNL A   1      47.303  24.263  36.528  1.00  0.00    -0.744 OA
ENDBRANCH  46  47
ENDBRANCH  25  39
BRANCH  26  51
ATOM     51  C   UNL A   1      36.709  32.959  30.766  1.00  0.00     0.058 A 
ATOM     52  C   UNL A   1      35.399  32.758  31.218  1.00  0.00     0.135 A 
ATOM     53  C   UNL A   1      36.910  33.880  29.724  1.00  0.00     0.135 A 
ATOM     54  F   UNL A   1      35.158  31.886  32.209  1.00  0.00    -0.206 F 
ATOM     55  C   UNL A   1      34.327  33.458  30.673  1.00  0.00     0.059 A 
ATOM     56  C   UNL A   1      35.859  34.607  29.178  1.00  0.00     0.059 A 
ATOM     57  F   UNL A   1      38.151  34.120  29.271  1.00  0.00    -0.206 F 
ATOM     58  C   UNL A   1      34.569  34.390  29.662  1.00  0.00     0.060 A 
BRANCH  58  59
ATOM     59  S   UNL A   1      33.188  35.377  29.042  1.00  0.00     0.124 S 
ATOM     60  O   UNL A   1      33.884  36.498  28.422  1.00  0.00    -0.237 OA
ATOM     61  O   UNL A   1      32.532  34.448  28.127  1.00  0.00    -0.237 OA
ATOM     62  O   UNL A   1      32.432  35.691  30.251  1.00  0.00    -0.744 OA
ENDBRANCH  58  59
ENDBRANCH  26  51
BRANCH  38  63
ATOM     63  C   UNL A   1      40.011  33.847  36.870  1.00  0.00     0.058 A 
ATOM     64  C   UNL A   1      40.709  35.062  36.887  1.00  0.00     0.135 A 
ATOM     65  C   UNL A   1      39.071  33.610  37.887  1.00  0.00     0.135 A 
ATOM     66  F   UNL A   1      41.624  35.329  35.941  1.00  0.00    -0.206 F 
ATOM     67  C   UNL A   1      40.480  36.015  37.874  1.00  0.00     0.059 A 
ATOM     68  C   UNL A   1      38.812  34.555  38.872  1.00  0.00     0.059 A 
ATOM     69  F   UNL A   1      38.375  32.462  37.909  1.00  0.00    -0.206 F 
ATOM     70  C   UNL A   1      39.523  35.755  38.858  1.00  0.00     0.060 A 
BRANCH  70  71
ATOM     71  S   UNL A   1      39.176  37.030  40.089  1.00  0.00     0.124 S 
ATOM     72  O   UNL A   1      38.476  38.029  39.288  1.00  0.00    -0.237 OA
ATOM     73  O   UNL A   1      38.360  36.313  41.064  1.00  0.00    -0.237 OA
ATOM     74  O   UNL A   1      40.503  37.418  40.557  1.00  0.00    -0.744 OA
ENDBRANCH  70  71
ENDBRANCH  38  63
ENDBRANCH  12  13
ENDBRANCH   5   7
ENDBRANCH   2   3
ENDBRANCH   1   2
BRANCH   1  75
ATOM     75  C   UNL A   1      37.026  23.413  25.526  1.00  0.00     0.117 C 
BRANCH  75  76
ATOM     76  N   UNL A   1      37.216  21.974  25.473  1.00  0.00    -0.356 N 
ATOM     77  C   UNL A   1      36.462  20.937  25.049  1.00  0.00     0.224 C 
ATOM     78  H   UNL A   1      38.091  21.692  25.824  1.00  0.00     0.163 HD
ATOM     79  O   UNL A   1      37.007  19.826  25.119  1.00  0.00    -0.275 OA
BRANCH  77  80
ATOM     80  C   UNL A   1      35.021  21.018  24.541  1.00  0.00     0.098 C 
ATOM     81  C   UNL A   1      34.386  19.628  24.738  1.00  0.00     0.017 C 
ATOM     82  C   UNL A   1      34.124  22.140  25.061  1.00  0.00     0.133 C 
ATOM     83  C   UNL A   1      32.932  19.614  24.299  1.00  0.00     0.022 C 
ATOM     84  N   UNL A   1      32.711  22.014  24.692  1.00  0.00    -0.342 N 
ATOM     85  C   UNL A   1      32.165  20.714  25.017  1.00  0.00     0.119 C 
BRANCH  84  86
ATOM     86  C   UNL A   1      31.999  23.172  24.422  1.00  0.00     0.225 C 
ATOM     87  O   UNL A   1      31.775  23.479  23.242  1.00  0.00    -0.275 OA
BRANCH  86  88
ATOM     88  C   UNL A   1      31.400  24.105  25.502  1.00  0.00     0.081 C 
ATOM     89  C   UNL A   1      30.318  25.094  25.103  1.00  0.00     0.030 C 
ATOM     90  C   UNL A   1      32.350  24.707  26.517  1.00  0.00     0.030 C 
ATOM     91  C   UNL A   1      30.764  26.518  24.819  1.00  0.00     0.103 C 
ATOM     92  C   UNL A   1      32.910  26.060  26.138  1.00  0.00     0.103 C 
ATOM     93  N   UNL A   1      31.920  27.044  25.634  1.00  0.00    -0.198 NA
BRANCH  93  94
ATOM     94  S   UNL A   1      32.592  28.429  24.802  1.00  0.00     0.243 S 
ATOM     95  O   UNL A   1      33.584  27.934  23.860  1.00  0.00    -0.207 OA
ATOM     96  O   UNL A   1      31.478  29.217  24.335  1.00  0.00    -0.207 OA
BRANCH  94  97
ATOM     97  C   UNL A   1      33.505  29.388  25.990  1.00  0.00     0.082 A 
ATOM     98  C   UNL A   1      34.716  28.904  26.483  1.00  0.00     0.022 A 
ATOM     99  C   UNL A   1      32.900  30.503  26.589  1.00  0.00     0.022 A 
ATOM    100  C   UNL A   1      35.340  29.563  27.545  1.00  0.00     0.001 A 
ATOM    101  C   UNL A   1      33.545  31.181  27.621  1.00  0.00     0.001 A 
ATOM    102  C   UNL A   1      34.763  30.707  28.102  1.00  0.00     0.000 A 
ENDBRANCH  94  97
ENDBRANCH  93  94
ENDBRANCH  86  88
ENDBRANCH  84  86
ENDBRANCH  77  80
ENDBRANCH  75  76
ENDBRANCH   1  75
TORSDOF 17
ENDMDL
