MODEL 1
REMARK VINA RESULT:     -13.0      0.000      0.000
REMARK SMILES Cc1c(CCC(=O)N2CCC(C(=O)NCCCNC(=O)c3ccc(-c4c5nc(c(-c6c(F)cc(S(=O)(=O)[O-])cc6F)c6ccc([nH]6)c(-c6c(F)cc(S(=O)(=O)[O-])cc6F)c6nc(c(-c7c(F)cc(S(=O)(=O)[O-])cc7F)c7ccc4[nH]7)C=C6)C=C5)cc3)CC2)c(=O)oc2cc3oc4c(c3cc12)CCCC4
REMARK SMILES IDX 16 1 15 2 14 3 12 4 13 5 11 7 6 8 7 9 8 10 9 11 88 12 10 13
REMARK SMILES IDX 87 14 5 15 4 16 3 17 1 18 2 19 100 20 89 21 92 22 99 23
REMARK SMILES IDX 90 24 91 25 93 26 98 27 94 28 97 29 95 30 96 31 101 32
REMARK SMILES IDX 104 33 102 34 103 35 17 36 18 37 19 38 20 40 21 41 22 42
REMARK SMILES IDX 86 43 23 44 85 45 24 46 25 47 26 48 79 49 27 50 84 51 78 52
REMARK SMILES IDX 80 53 28 54 83 55 77 56 76 57 29 59 63 60 42 61 62 62 43 63
REMARK SMILES IDX 46 64 61 65 81 66 44 67 45 68 60 70 82 71 47 72 30 73 31 74
REMARK SMILES IDX 40 75 32 76 33 77 39 78 41 79 34 80 35 81 36 82 37 83 38 84
REMARK SMILES IDX 64 85 65 86 74 87 66 88 67 89 73 90 75 91 68 92 69 93 70 94
REMARK SMILES IDX 71 95 72 96 48 97 49 98 58 99 50 100 51 101 57 102 59 103
REMARK SMILES IDX 52 104 53 105 54 106 55 107 56 108
REMARK H PARENT 14 6 18 39 80 58 46 69
REMARK Flexibility Score: inf
ROOT
ATOM      1  C   UNL A   1      46.292  34.123  26.677  1.00  0.00     0.042 C 
ENDROOT
BRANCH   1   2
ATOM      2  C   UNL A   1      47.273  34.653  25.641  1.00  0.00     0.117 C 
BRANCH   2   3
ATOM      3  N   UNL A   1      48.426  35.265  26.271  1.00  0.00    -0.356 N 
ATOM      4  C   UNL A   1      48.662  36.528  26.704  1.00  0.00     0.223 C 
ATOM      5  O   UNL A   1      49.804  36.746  27.123  1.00  0.00    -0.275 OA
ATOM      6  H   UNL A   1      49.179  34.647  26.411  1.00  0.00     0.163 HD
BRANCH   4   7
ATOM      7  C   UNL A   1      47.595  37.616  26.815  1.00  0.00     0.082 C 
ATOM      8  C   UNL A   1      46.793  41.526  26.910  1.00  0.00     0.222 C 
ATOM      9  O   UNL A   1      47.505  41.898  27.841  1.00  0.00    -0.275 OA
ATOM     10  N   UNL A   1      46.319  40.212  26.837  1.00  0.00    -0.343 N 
ATOM     11  C   UNL A   1      46.193  39.356  28.038  1.00  0.00     0.120 C 
ATOM     12  C   UNL A   1      46.517  39.477  25.613  1.00  0.00     0.120 C 
ATOM     13  C   UNL A   1      47.280  38.247  28.170  1.00  0.00     0.035 C 
ATOM     14  C   UNL A   1      47.819  38.722  25.807  1.00  0.00     0.035 C 
BRANCH   8  15
ATOM     15  C   UNL A   1      46.344  42.502  25.797  1.00  0.00     0.105 C 
BRANCH  15  16
ATOM     16  C   UNL A   1      45.015  43.273  25.987  1.00  0.00     0.053 C 
BRANCH  16  17
ATOM     17  C   UNL A   1      44.056  43.177  24.810  1.00  0.00     0.042 A 
ATOM     18  C   UNL A   1      44.786  45.378  23.819  1.00  0.00     0.046 C 
ATOM     19  C   UNL A   1      44.073  44.054  23.792  1.00  0.00    -0.030 A 
ATOM     20  C   UNL A   1      43.444  43.612  22.554  1.00  0.00     0.022 A 
ATOM     21  C   UNL A   1      43.003  42.105  24.811  1.00  0.00     0.339 A 
ATOM     22  C   UNL A   1      42.332  42.789  22.576  1.00  0.00     0.142 A 
ATOM     23  C   UNL A   1      43.986  43.959  21.331  1.00  0.00     0.024 A 
ATOM     24  O   UNL A   1      42.927  41.279  25.714  1.00  0.00    -0.246 OA
ATOM     25  O   UNL A   1      42.025  42.154  23.795  1.00  0.00    -0.422 OA
ATOM     26  C   UNL A   1      41.531  42.578  21.430  1.00  0.00     0.095 A 
ATOM     27  C   UNL A   1      43.342  43.607  20.157  1.00  0.00     0.025 A 
ATOM     28  C   UNL A   1      42.050  43.114  20.244  1.00  0.00     0.138 A 
ATOM     29  C   UNL A   1      43.615  43.922  18.818  1.00  0.00     0.001 A 
ATOM     30  O   UNL A   1      41.409  43.428  19.060  1.00  0.00    -0.461 OA
ATOM     31  C   UNL A   1      42.349  44.089  18.309  1.00  0.00     0.108 A 
ATOM     32  C   UNL A   1      44.773  44.679  18.276  1.00  0.00     0.040 C 
ATOM     33  C   UNL A   1      42.026  45.328  17.538  1.00  0.00     0.076 C 
ATOM     34  C   UNL A   1      44.418  46.175  18.291  1.00  0.00     0.005 C 
ATOM     35  C   UNL A   1      42.890  46.473  18.176  1.00  0.00     0.008 C 
ENDBRANCH  16  17
ENDBRANCH  15  16
ENDBRANCH   8  15
ENDBRANCH   4   7
ENDBRANCH   2   3
ENDBRANCH   1   2
BRANCH   1  36
ATOM     36  C   UNL A   1      44.820  34.379  26.331  1.00  0.00     0.118 C 
BRANCH  36  37
ATOM     37  N   UNL A   1      44.480  35.788  26.170  1.00  0.00    -0.352 N 
ATOM     38  C   UNL A   1      43.748  36.619  27.000  1.00  0.00     0.251 C 
ATOM     39  H   UNL A   1      44.823  36.211  25.349  1.00  0.00     0.163 HD
ATOM     40  O   UNL A   1      43.524  37.765  26.700  1.00  0.00    -0.269 OA
BRANCH  38  41
ATOM     41  C   UNL A   1      43.192  36.025  28.234  1.00  0.00     0.039 A 
ATOM     42  C   UNL A   1      44.020  35.829  29.342  1.00  0.00     0.014 A 
ATOM     43  C   UNL A   1      41.886  35.526  28.205  1.00  0.00     0.014 A 
ATOM     44  C   UNL A   1      43.584  35.011  30.373  1.00  0.00     0.010 A 
ATOM     45  C   UNL A   1      41.439  34.733  29.258  1.00  0.00     0.010 A 
ATOM     46  C   UNL A   1      42.305  34.441  30.319  1.00  0.00    -0.014 A 
BRANCH  46  47
ATOM     47  C   UNL A   1      41.921  33.592  31.452  1.00  0.00     0.031 A 
ATOM     48  C   UNL A   1      40.470  33.657  31.783  1.00  0.00     0.074 A 
ATOM     49  C   UNL A   1      42.590  32.461  31.755  1.00  0.00     0.049 A 
ATOM     50  N   UNL A   1      39.574  32.983  31.125  1.00  0.00    -0.248 NA
ATOM     51  C   UNL A   1      39.916  34.686  32.663  1.00  0.00     0.031 C 
ATOM     52  C   UNL A   1      43.234  31.584  30.769  1.00  0.00     0.029 A 
ATOM     53  N   UNL A   1      42.626  31.743  32.926  1.00  0.00    -0.354 N 
ATOM     54  C   UNL A   1      38.344  33.522  31.449  1.00  0.00     0.074 A 
ATOM     55  C   UNL A   1      38.603  34.569  32.413  1.00  0.00     0.031 C 
ATOM     56  C   UNL A   1      43.423  30.373  31.331  1.00  0.00     0.029 A 
ATOM     57  C   UNL A   1      43.076  30.439  32.748  1.00  0.00     0.049 A 
ATOM     58  H   UNL A   1      42.362  32.113  33.799  1.00  0.00     0.167 HD
ATOM     59  C   UNL A   1      37.182  33.091  30.894  1.00  0.00     0.037 A 
ATOM     60  C   UNL A   1      42.701  29.383  33.519  1.00  0.00     0.037 A 
ATOM     61  C   UNL A   1      37.300  31.986  29.990  1.00  0.00     0.049 A 
ATOM     62  C   UNL A   1      41.283  29.179  33.042  1.00  0.00     0.074 A 
ATOM     63  C   UNL A   1      37.418  31.803  28.629  1.00  0.00     0.029 A 
ATOM     64  N   UNL A   1      37.404  30.724  30.528  1.00  0.00    -0.354 N 
ATOM     65  N   UNL A   1      40.930  28.555  31.948  1.00  0.00    -0.248 NA
ATOM     66  C   UNL A   1      40.235  30.026  33.619  1.00  0.00     0.031 C 
ATOM     67  C   UNL A   1      38.023  30.518  28.466  1.00  0.00     0.029 A 
ATOM     68  C   UNL A   1      38.282  30.020  29.742  1.00  0.00     0.049 A 
ATOM     69  H   UNL A   1      36.936  30.389  31.327  1.00  0.00     0.167 HD
ATOM     70  C   UNL A   1      39.735  29.156  31.547  1.00  0.00     0.074 A 
ATOM     71  C   UNL A   1      39.341  30.022  32.639  1.00  0.00     0.031 C 
ATOM     72  C   UNL A   1      39.234  29.073  30.280  1.00  0.00     0.037 A 
BRANCH  59  73
ATOM     73  C   UNL A   1      35.848  33.585  31.275  1.00  0.00     0.058 A 
ATOM     74  C   UNL A   1      35.114  34.314  30.329  1.00  0.00     0.135 A 
ATOM     75  C   UNL A   1      35.375  33.533  32.590  1.00  0.00     0.135 A 
ATOM     76  F   UNL A   1      35.544  34.383  29.057  1.00  0.00    -0.206 F 
ATOM     77  C   UNL A   1      33.976  35.020  30.684  1.00  0.00     0.059 A 
ATOM     78  C   UNL A   1      34.231  34.230  32.970  1.00  0.00     0.059 A 
ATOM     79  F   UNL A   1      36.048  32.845  33.526  1.00  0.00    -0.206 F 
ATOM     80  C   UNL A   1      33.556  34.993  32.014  1.00  0.00     0.060 A 
BRANCH  80  81
ATOM     81  S   UNL A   1      32.145  36.021  32.473  1.00  0.00     0.124 S 
ATOM     82  O   UNL A   1      31.920  36.784  31.250  1.00  0.00    -0.237 OA
ATOM     83  O   UNL A   1      31.133  35.019  32.792  1.00  0.00    -0.237 OA
ATOM     84  O   UNL A   1      32.640  36.791  33.610  1.00  0.00    -0.744 OA
ENDBRANCH  80  81
ENDBRANCH  59  73
BRANCH  60  85
ATOM     85  C   UNL A   1      43.114  29.515  34.954  1.00  0.00     0.058 A 
ATOM     86  C   UNL A   1      43.943  28.502  35.490  1.00  0.00     0.135 A 
ATOM     87  C   UNL A   1      42.802  30.574  35.818  1.00  0.00     0.135 A 
ATOM     88  F   UNL A   1      44.189  27.385  34.784  1.00  0.00    -0.206 F 
ATOM     89  C   UNL A   1      44.562  28.618  36.730  1.00  0.00     0.059 A 
ATOM     90  C   UNL A   1      43.428  30.726  37.058  1.00  0.00     0.059 A 
ATOM     91  F   UNL A   1      41.905  31.507  35.476  1.00  0.00    -0.206 F 
ATOM     92  C   UNL A   1      44.338  29.764  37.486  1.00  0.00     0.060 A 
BRANCH  92  93
ATOM     93  S   UNL A   1      45.308  30.002  38.988  1.00  0.00     0.124 S 
ATOM     94  O   UNL A   1      46.666  30.092  38.461  1.00  0.00    -0.237 OA
ATOM     95  O   UNL A   1      44.744  31.242  39.512  1.00  0.00    -0.237 OA
ATOM     96  O   UNL A   1      45.016  28.807  39.772  1.00  0.00    -0.744 OA
ENDBRANCH  92  93
ENDBRANCH  60  85
BRANCH  72  97
ATOM     97  C   UNL A   1      39.910  28.099  29.375  1.00  0.00     0.058 A 
ATOM     98  C   UNL A   1      39.533  26.749  29.395  1.00  0.00     0.135 A 
ATOM     99  C   UNL A   1      40.881  28.496  28.443  1.00  0.00     0.135 A 
ATOM    100  F   UNL A   1      38.603  26.318  30.264  1.00  0.00    -0.206 F 
ATOM    101  C   UNL A   1      40.068  25.833  28.496  1.00  0.00     0.059 A 
ATOM    102  C   UNL A   1      41.414  27.601  27.518  1.00  0.00     0.059 A 
ATOM    103  F   UNL A   1      41.298  29.773  28.389  1.00  0.00    -0.206 F 
ATOM    104  C   UNL A   1      40.995  26.271  27.548  1.00  0.00     0.060 A 
BRANCH 104 105
ATOM    105  S   UNL A   1      41.566  25.101  26.298  1.00  0.00     0.124 S 
ATOM    106  O   UNL A   1      40.410  24.223  26.147  1.00  0.00    -0.237 OA
ATOM    107  O   UNL A   1      41.847  25.973  25.160  1.00  0.00    -0.237 OA
ATOM    108  O   UNL A   1      42.745  24.492  26.908  1.00  0.00    -0.744 OA
ENDBRANCH 104 105
ENDBRANCH  72  97
ENDBRANCH  46  47
ENDBRANCH  38  41
ENDBRANCH  36  37
ENDBRANCH   1  36
TORSDOF 16
ENDMDL
MODEL 2
REMARK VINA RESULT:     -12.6      7.932     19.410
REMARK SMILES Cc1c(CCC(=O)N2CCC(C(=O)NCCCNC(=O)c3ccc(-c4c5nc(c(-c6c(F)cc(S(=O)(=O)[O-])cc6F)c6ccc([nH]6)c(-c6c(F)cc(S(=O)(=O)[O-])cc6F)c6nc(c(-c7c(F)cc(S(=O)(=O)[O-])cc7F)c7ccc4[nH]7)C=C6)C=C5)cc3)CC2)c(=O)oc2cc3oc4c(c3cc12)CCCC4
REMARK SMILES IDX 16 1 15 2 14 3 12 4 13 5 11 7 6 8 7 9 8 10 9 11 88 12 10 13
REMARK SMILES IDX 87 14 5 15 4 16 3 17 1 18 2 19 100 20 89 21 92 22 99 23
REMARK SMILES IDX 90 24 91 25 93 26 98 27 94 28 97 29 95 30 96 31 101 32
REMARK SMILES IDX 104 33 102 34 103 35 17 36 18 37 19 38 20 40 21 41 22 42
REMARK SMILES IDX 86 43 23 44 85 45 24 46 25 47 26 48 79 49 27 50 84 51 78 52
REMARK SMILES IDX 80 53 28 54 83 55 77 56 76 57 29 59 63 60 42 61 62 62 43 63
REMARK SMILES IDX 46 64 61 65 81 66 44 67 45 68 60 70 82 71 47 72 30 73 31 74
REMARK SMILES IDX 40 75 32 76 33 77 39 78 41 79 34 80 35 81 36 82 37 83 38 84
REMARK SMILES IDX 64 85 65 86 74 87 66 88 67 89 73 90 75 91 68 92 69 93 70 94
REMARK SMILES IDX 71 95 72 96 48 97 49 98 58 99 50 100 51 101 57 102 59 103
REMARK SMILES IDX 52 104 53 105 54 106 55 107 56 108
REMARK H PARENT 14 6 18 39 80 58 46 69
REMARK Flexibility Score: inf
ROOT
ATOM      1  C   UNL A   1      46.401  24.958  37.444  1.00  0.00     0.042 C 
ENDROOT
BRANCH   1   2
ATOM      2  C   UNL A   1      47.738  25.498  36.957  1.00  0.00     0.117 C 
BRANCH   2   3
ATOM      3  N   UNL A   1      48.601  25.849  38.068  1.00  0.00    -0.356 N 
ATOM      4  C   UNL A   1      49.380  25.100  38.886  1.00  0.00     0.223 C 
ATOM      5  O   UNL A   1      49.932  25.712  39.808  1.00  0.00    -0.275 OA
ATOM      6  H   UNL A   1      48.626  26.813  38.264  1.00  0.00     0.163 HD
BRANCH   4   7
ATOM      7  C   UNL A   1      49.700  23.623  38.661  1.00  0.00     0.082 C 
ATOM      8  C   UNL A   1      49.899  19.960  40.233  1.00  0.00     0.222 C 
ATOM      9  O   UNL A   1      50.648  20.145  41.190  1.00  0.00    -0.275 OA
ATOM     10  N   UNL A   1      49.952  20.775  39.098  1.00  0.00    -0.343 N 
ATOM     11  C   UNL A   1      51.167  21.542  38.741  1.00  0.00     0.120 C 
ATOM     12  C   UNL A   1      48.727  21.360  38.614  1.00  0.00     0.120 C 
ATOM     13  C   UNL A   1      51.080  23.074  39.016  1.00  0.00     0.035 C 
ATOM     14  C   UNL A   1      48.648  22.725  39.274  1.00  0.00     0.035 C 
BRANCH   8  15
ATOM     15  C   UNL A   1      48.892  18.785  40.212  1.00  0.00     0.105 C 
BRANCH  15  16
ATOM     16  C   UNL A   1      47.511  18.988  40.881  1.00  0.00     0.053 C 
BRANCH  16  17
ATOM     17  C   UNL A   1      46.429  18.031  40.399  1.00  0.00     0.042 A 
ATOM     18  C   UNL A   1      46.835  16.371  42.254  1.00  0.00     0.046 C 
ATOM     19  C   UNL A   1      46.057  16.950  41.104  1.00  0.00    -0.030 A 
ATOM     20  C   UNL A   1      44.751  16.392  40.779  1.00  0.00     0.022 A 
ATOM     21  C   UNL A   1      45.797  18.262  39.056  1.00  0.00     0.339 A 
ATOM     22  C   UNL A   1      44.268  16.419  39.482  1.00  0.00     0.142 A 
ATOM     23  C   UNL A   1      43.942  15.878  41.775  1.00  0.00     0.024 A 
ATOM     24  O   UNL A   1      46.098  19.224  38.359  1.00  0.00    -0.246 OA
ATOM     25  O   UNL A   1      44.927  17.263  38.568  1.00  0.00    -0.422 OA
ATOM     26  C   UNL A   1      43.157  15.644  39.078  1.00  0.00     0.095 A 
ATOM     27  C   UNL A   1      42.737  15.275  41.455  1.00  0.00     0.025 A 
ATOM     28  C   UNL A   1      42.481  14.997  40.122  1.00  0.00     0.138 A 
ATOM     29  C   UNL A   1      41.801  14.592  42.245  1.00  0.00     0.001 A 
ATOM     30  O   UNL A   1      41.632  13.907  40.084  1.00  0.00    -0.461 OA
ATOM     31  C   UNL A   1      41.408  13.583  41.399  1.00  0.00     0.108 A 
ATOM     32  C   UNL A   1      41.815  14.406  43.719  1.00  0.00     0.040 C 
ATOM     33  C   UNL A   1      41.423  12.170  41.886  1.00  0.00     0.076 C 
ATOM     34  C   UNL A   1      42.627  13.139  44.035  1.00  0.00     0.005 C 
ATOM     35  C   UNL A   1      42.622  12.072  42.895  1.00  0.00     0.008 C 
ENDBRANCH  16  17
ENDBRANCH  15  16
ENDBRANCH   8  15
ENDBRANCH   4   7
ENDBRANCH   2   3
ENDBRANCH   1   2
BRANCH   1  36
ATOM     36  C   UNL A   1      45.935  23.693  36.714  1.00  0.00     0.118 C 
BRANCH  36  37
ATOM     37  N   UNL A   1      44.486  23.541  36.648  1.00  0.00    -0.352 N 
ATOM     38  C   UNL A   1      43.606  23.902  35.643  1.00  0.00     0.251 C 
ATOM     39  H   UNL A   1      44.073  23.118  37.436  1.00  0.00     0.163 HD
ATOM     40  O   UNL A   1      42.418  23.738  35.761  1.00  0.00    -0.269 OA
BRANCH  38  41
ATOM     41  C   UNL A   1      44.176  24.562  34.449  1.00  0.00     0.039 A 
ATOM     42  C   UNL A   1      44.435  25.934  34.472  1.00  0.00     0.014 A 
ATOM     43  C   UNL A   1      44.294  23.819  33.270  1.00  0.00     0.014 A 
ATOM     44  C   UNL A   1      44.680  26.594  33.279  1.00  0.00     0.010 A 
ATOM     45  C   UNL A   1      44.575  24.481  32.077  1.00  0.00     0.010 A 
ATOM     46  C   UNL A   1      44.723  25.873  32.078  1.00  0.00    -0.014 A 
BRANCH  46  47
ATOM     47  C   UNL A   1      44.992  26.647  30.862  1.00  0.00     0.031 A 
ATOM     48  C   UNL A   1      44.957  25.832  29.614  1.00  0.00     0.074 A 
ATOM     49  C   UNL A   1      44.695  27.959  30.769  1.00  0.00     0.049 A 
ATOM     50  N   UNL A   1      43.845  25.512  29.023  1.00  0.00    -0.248 NA
ATOM     51  C   UNL A   1      46.126  25.098  29.129  1.00  0.00     0.031 C 
ATOM     52  C   UNL A   1      43.557  28.604  31.437  1.00  0.00     0.029 A 
ATOM     53  N   UNL A   1      45.167  28.913  29.902  1.00  0.00    -0.354 N 
ATOM     54  C   UNL A   1      44.139  24.499  28.130  1.00  0.00     0.074 A 
ATOM     55  C   UNL A   1      45.567  24.282  28.223  1.00  0.00     0.031 C 
ATOM     56  C   UNL A   1      43.301  29.773  30.815  1.00  0.00     0.029 A 
ATOM     57  C   UNL A   1      44.347  30.035  29.831  1.00  0.00     0.049 A 
ATOM     58  H   UNL A   1      45.999  28.814  29.384  1.00  0.00     0.167 HD
ATOM     59  C   UNL A   1      43.193  23.883  27.377  1.00  0.00     0.037 A 
ATOM     60  C   UNL A   1      44.217  30.826  28.732  1.00  0.00     0.037 A 
ATOM     61  C   UNL A   1      41.862  24.393  27.516  1.00  0.00     0.049 A 
ATOM     62  C   UNL A   1      43.409  29.922  27.833  1.00  0.00     0.074 A 
ATOM     63  C   UNL A   1      40.737  24.093  28.252  1.00  0.00     0.029 A 
ATOM     64  N   UNL A   1      41.538  25.537  26.822  1.00  0.00    -0.354 N 
ATOM     65  N   UNL A   1      42.115  29.739  27.901  1.00  0.00    -0.248 NA
ATOM     66  C   UNL A   1      44.123  28.900  27.063  1.00  0.00     0.031 C 
ATOM     67  C   UNL A   1      39.975  25.302  28.298  1.00  0.00     0.029 A 
ATOM     68  C   UNL A   1      40.710  26.278  27.629  1.00  0.00     0.049 A 
ATOM     69  H   UNL A   1      41.842  25.778  25.917  1.00  0.00     0.167 HD
ATOM     70  C   UNL A   1      41.900  28.438  27.441  1.00  0.00     0.074 A 
ATOM     71  C   UNL A   1      43.169  27.993  26.902  1.00  0.00     0.031 C 
ATOM     72  C   UNL A   1      40.767  27.722  27.698  1.00  0.00     0.037 A 
BRANCH  59  73
ATOM     73  C   UNL A   1      43.481  22.858  26.359  1.00  0.00     0.058 A 
ATOM     74  C   UNL A   1      43.056  21.544  26.599  1.00  0.00     0.135 A 
ATOM     75  C   UNL A   1      44.326  23.098  25.271  1.00  0.00     0.135 A 
ATOM     76  F   UNL A   1      42.243  21.282  27.637  1.00  0.00    -0.206 F 
ATOM     77  C   UNL A   1      43.501  20.487  25.821  1.00  0.00     0.059 A 
ATOM     78  C   UNL A   1      44.783  22.052  24.472  1.00  0.00     0.059 A 
ATOM     79  F   UNL A   1      44.756  24.342  25.006  1.00  0.00    -0.206 F 
ATOM     80  C   UNL A   1      44.385  20.748  24.774  1.00  0.00     0.060 A 
BRANCH  80  81
ATOM     81  S   UNL A   1      45.045  19.340  23.858  1.00  0.00     0.124 S 
ATOM     82  O   UNL A   1      44.417  19.511  22.553  1.00  0.00    -0.237 OA
ATOM     83  O   UNL A   1      46.482  19.592  23.911  1.00  0.00    -0.237 OA
ATOM     84  O   UNL A   1      44.587  18.187  24.629  1.00  0.00    -0.744 OA
ENDBRANCH  80  81
ENDBRANCH  59  73
BRANCH  60  85
ATOM     85  C   UNL A   1      45.488  31.516  28.338  1.00  0.00     0.058 A 
ATOM     86  C   UNL A   1      45.539  32.107  27.055  1.00  0.00     0.135 A 
ATOM     87  C   UNL A   1      46.629  31.681  29.136  1.00  0.00     0.135 A 
ATOM     88  F   UNL A   1      44.549  31.892  26.171  1.00  0.00    -0.206 F 
ATOM     89  C   UNL A   1      46.571  32.951  26.658  1.00  0.00     0.059 A 
ATOM     90  C   UNL A   1      47.668  32.541  28.771  1.00  0.00     0.059 A 
ATOM     91  F   UNL A   1      46.758  31.039  30.303  1.00  0.00    -0.206 F 
ATOM     92  C   UNL A   1      47.609  33.204  27.549  1.00  0.00     0.060 A 
BRANCH  92  93
ATOM     93  S   UNL A   1      48.826  34.461  27.110  1.00  0.00     0.124 S 
ATOM     94  O   UNL A   1      49.745  33.709  26.262  1.00  0.00    -0.237 OA
ATOM     95  O   UNL A   1      47.997  35.451  26.430  1.00  0.00    -0.237 OA
ATOM     96  O   UNL A   1      49.361  34.879  28.401  1.00  0.00    -0.744 OA
ENDBRANCH  92  93
ENDBRANCH  60  85
BRANCH  72  97
ATOM     97  C   UNL A   1      39.640  28.484  28.310  1.00  0.00     0.058 A 
ATOM     98  C   UNL A   1      39.422  28.418  29.693  1.00  0.00     0.135 A 
ATOM     99  C   UNL A   1      38.814  29.331  27.554  1.00  0.00     0.135 A 
ATOM    100  F   UNL A   1      40.190  27.629  30.463  1.00  0.00    -0.206 F 
ATOM    101  C   UNL A   1      38.448  29.194  30.312  1.00  0.00     0.059 A 
ATOM    102  C   UNL A   1      37.846  30.133  28.155  1.00  0.00     0.059 A 
ATOM    103  F   UNL A   1      38.961  29.420  26.221  1.00  0.00    -0.206 F 
ATOM    104  C   UNL A   1      37.676  30.063  29.538  1.00  0.00     0.060 A 
BRANCH 104 105
ATOM    105  S   UNL A   1      36.520  31.167  30.377  1.00  0.00     0.124 S 
ATOM    106  O   UNL A   1      36.055  30.340  31.485  1.00  0.00    -0.237 OA
ATOM    107  O   UNL A   1      37.376  32.292  30.746  1.00  0.00    -0.237 OA
ATOM    108  O   UNL A   1      35.524  31.467  29.352  1.00  0.00    -0.744 OA
ENDBRANCH 104 105
ENDBRANCH  72  97
ENDBRANCH  46  47
ENDBRANCH  38  41
ENDBRANCH  36  37
ENDBRANCH   1  36
TORSDOF 16
ENDMDL
MODEL 3
REMARK VINA RESULT:     -12.3      2.908      4.388
REMARK SMILES Cc1c(CCC(=O)N2CCC(C(=O)NCCCNC(=O)c3ccc(-c4c5nc(c(-c6c(F)cc(S(=O)(=O)[O-])cc6F)c6ccc([nH]6)c(-c6c(F)cc(S(=O)(=O)[O-])cc6F)c6nc(c(-c7c(F)cc(S(=O)(=O)[O-])cc7F)c7ccc4[nH]7)C=C6)C=C5)cc3)CC2)c(=O)oc2cc3oc4c(c3cc12)CCCC4
REMARK SMILES IDX 16 1 15 2 14 3 12 4 13 5 11 7 6 8 7 9 8 10 9 11 88 12 10 13
REMARK SMILES IDX 87 14 5 15 4 16 3 17 1 18 2 19 100 20 89 21 92 22 99 23
REMARK SMILES IDX 90 24 91 25 93 26 98 27 94 28 97 29 95 30 96 31 101 32
REMARK SMILES IDX 104 33 102 34 103 35 17 36 18 37 19 38 20 40 21 41 22 42
REMARK SMILES IDX 86 43 23 44 85 45 24 46 25 47 26 48 79 49 27 50 84 51 78 52
REMARK SMILES IDX 80 53 28 54 83 55 77 56 76 57 29 59 63 60 42 61 62 62 43 63
REMARK SMILES IDX 46 64 61 65 81 66 44 67 45 68 60 70 82 71 47 72 30 73 31 74
REMARK SMILES IDX 40 75 32 76 33 77 39 78 41 79 34 80 35 81 36 82 37 83 38 84
REMARK SMILES IDX 64 85 65 86 74 87 66 88 67 89 73 90 75 91 68 92 69 93 70 94
REMARK SMILES IDX 71 95 72 96 48 97 49 98 58 99 50 100 51 101 57 102 59 103
REMARK SMILES IDX 52 104 53 105 54 106 55 107 56 108
REMARK H PARENT 14 6 18 39 80 58 46 69
REMARK Flexibility Score: inf
ROOT
ATOM      1  C   UNL A   1      42.577  36.797  27.044  1.00  0.00     0.042 C 
ENDROOT
BRANCH   1   2
ATOM      2  C   UNL A   1      42.287  38.118  27.742  1.00  0.00     0.117 C 
BRANCH   2   3
ATOM      3  N   UNL A   1      41.528  39.010  26.887  1.00  0.00    -0.356 N 
ATOM      4  C   UNL A   1      41.805  40.233  26.373  1.00  0.00     0.223 C 
ATOM      5  O   UNL A   1      40.888  40.770  25.743  1.00  0.00    -0.275 OA
ATOM      6  H   UNL A   1      40.643  38.660  26.633  1.00  0.00     0.163 HD
BRANCH   4   7
ATOM      7  C   UNL A   1      43.180  40.898  26.423  1.00  0.00     0.082 C 
ATOM      8  C   UNL A   1      46.430  42.031  24.402  1.00  0.00     0.222 C 
ATOM      9  O   UNL A   1      46.781  40.971  23.890  1.00  0.00    -0.275 OA
ATOM     10  N   UNL A   1      45.697  42.057  25.593  1.00  0.00    -0.343 N 
ATOM     11  C   UNL A   1      45.723  40.932  26.554  1.00  0.00     0.120 C 
ATOM     12  C   UNL A   1      44.484  42.835  25.635  1.00  0.00     0.120 C 
ATOM     13  C   UNL A   1      44.440  40.048  26.565  1.00  0.00     0.035 C 
ATOM     14  C   UNL A   1      43.374  41.864  25.274  1.00  0.00     0.035 C 
BRANCH   8  15
ATOM     15  C   UNL A   1      46.824  43.395  23.785  1.00  0.00     0.105 C 
BRANCH  15  16
ATOM     16  C   UNL A   1      47.125  43.456  22.268  1.00  0.00     0.053 C 
BRANCH  16  17
ATOM     17  C   UNL A   1      45.902  43.679  21.390  1.00  0.00     0.042 A 
ATOM     18  C   UNL A   1      45.936  46.183  21.685  1.00  0.00     0.046 C 
ATOM     19  C   UNL A   1      45.481  44.904  21.037  1.00  0.00    -0.030 A 
ATOM     20  C   UNL A   1      44.612  44.972  19.869  1.00  0.00     0.022 A 
ATOM     21  C   UNL A   1      45.091  42.491  20.954  1.00  0.00     0.339 A 
ATOM     22  C   UNL A   1      43.708  43.960  19.595  1.00  0.00     0.142 A 
ATOM     23  C   UNL A   1      44.717  46.022  18.977  1.00  0.00     0.024 A 
ATOM     24  O   UNL A   1      45.415  41.347  21.250  1.00  0.00    -0.246 OA
ATOM     25  O   UNL A   1      43.872  42.746  20.290  1.00  0.00    -0.422 OA
ATOM     26  C   UNL A   1      42.664  44.119  18.656  1.00  0.00     0.095 A 
ATOM     27  C   UNL A   1      43.838  46.127  17.914  1.00  0.00     0.025 A 
ATOM     28  C   UNL A   1      42.727  45.299  17.902  1.00  0.00     0.138 A 
ATOM     29  C   UNL A   1      43.662  47.129  16.949  1.00  0.00     0.001 A 
ATOM     30  O   UNL A   1      41.732  45.953  17.198  1.00  0.00    -0.461 OA
ATOM     31  C   UNL A   1      42.294  47.143  16.809  1.00  0.00     0.108 A 
ATOM     32  C   UNL A   1      44.473  48.358  16.752  1.00  0.00     0.040 C 
ATOM     33  C   UNL A   1      41.561  48.441  16.907  1.00  0.00     0.076 C 
ATOM     34  C   UNL A   1      43.888  49.467  17.642  1.00  0.00     0.005 C 
ATOM     35  C   UNL A   1      42.362  49.315  17.937  1.00  0.00     0.008 C 
ENDBRANCH  16  17
ENDBRANCH  15  16
ENDBRANCH   8  15
ENDBRANCH   4   7
ENDBRANCH   2   3
ENDBRANCH   1   2
BRANCH   1  36
ATOM     36  C   UNL A   1      44.035  36.335  27.163  1.00  0.00     0.118 C 
BRANCH  36  37
ATOM     37  N   UNL A   1      44.641  35.942  25.896  1.00  0.00    -0.352 N 
ATOM     38  C   UNL A   1      45.195  34.730  25.521  1.00  0.00     0.251 C 
ATOM     39  H   UNL A   1      44.660  36.643  25.204  1.00  0.00     0.163 HD
ATOM     40  O   UNL A   1      45.694  34.578  24.435  1.00  0.00    -0.269 OA
BRANCH  38  41
ATOM     41  C   UNL A   1      45.212  33.652  26.533  1.00  0.00     0.039 A 
ATOM     42  C   UNL A   1      44.177  32.715  26.564  1.00  0.00     0.014 A 
ATOM     43  C   UNL A   1      46.185  33.695  27.536  1.00  0.00     0.014 A 
ATOM     44  C   UNL A   1      44.036  31.903  27.678  1.00  0.00     0.010 A 
ATOM     45  C   UNL A   1      46.060  32.853  28.639  1.00  0.00     0.010 A 
ATOM     46  C   UNL A   1      44.961  31.990  28.727  1.00  0.00    -0.014 A 
BRANCH  46  47
ATOM     47  C   UNL A   1      44.742  31.093  29.867  1.00  0.00     0.031 A 
ATOM     48  C   UNL A   1      43.345  31.114  30.385  1.00  0.00     0.074 A 
ATOM     49  C   UNL A   1      45.464  29.967  30.038  1.00  0.00     0.049 A 
ATOM     50  N   UNL A   1      42.384  30.443  29.823  1.00  0.00    -0.248 NA
ATOM     51  C   UNL A   1      42.893  32.098  31.368  1.00  0.00     0.031 C 
ATOM     52  C   UNL A   1      45.990  29.140  28.944  1.00  0.00     0.029 A 
ATOM     53  N   UNL A   1      45.665  29.209  31.165  1.00  0.00    -0.354 N 
ATOM     54  C   UNL A   1      41.197  30.943  30.323  1.00  0.00     0.074 A 
ATOM     55  C   UNL A   1      41.560  31.960  31.285  1.00  0.00     0.031 C 
ATOM     56  C   UNL A   1      46.271  27.914  29.430  1.00  0.00     0.029 A 
ATOM     57  C   UNL A   1      46.110  27.921  30.881  1.00  0.00     0.049 A 
ATOM     58  H   UNL A   1      45.510  29.541  32.079  1.00  0.00     0.167 HD
ATOM     59  C   UNL A   1      39.980  30.506  29.907  1.00  0.00     0.037 A 
ATOM     60  C   UNL A   1      45.857  26.831  31.653  1.00  0.00     0.037 A 
ATOM     61  C   UNL A   1      39.999  29.438  28.953  1.00  0.00     0.049 A 
ATOM     62  C   UNL A   1      44.393  26.613  31.356  1.00  0.00     0.074 A 
ATOM     63  C   UNL A   1      39.943  29.306  27.583  1.00  0.00     0.029 A 
ATOM     64  N   UNL A   1      40.194  28.160  29.425  1.00  0.00    -0.354 N 
ATOM     65  N   UNL A   1      43.912  26.020  30.294  1.00  0.00    -0.248 NA
ATOM     66  C   UNL A   1      43.414  27.414  32.095  1.00  0.00     0.031 C 
ATOM     67  C   UNL A   1      40.543  28.041  27.295  1.00  0.00     0.029 A 
ATOM     68  C   UNL A   1      40.975  27.504  28.506  1.00  0.00     0.049 A 
ATOM     69  H   UNL A   1      39.840  27.786  30.265  1.00  0.00     0.167 HD
ATOM     70  C   UNL A   1      42.664  26.608  30.074  1.00  0.00     0.074 A 
ATOM     71  C   UNL A   1      42.401  27.426  31.240  1.00  0.00     0.031 C 
ATOM     72  C   UNL A   1      42.004  26.559  28.880  1.00  0.00     0.037 A 
BRANCH  59  73
ATOM     73  C   UNL A   1      38.698  30.957  30.476  1.00  0.00     0.058 A 
ATOM     74  C   UNL A   1      38.073  32.073  29.903  1.00  0.00     0.135 A 
ATOM     75  C   UNL A   1      38.188  30.448  31.675  1.00  0.00     0.135 A 
ATOM     76  F   UNL A   1      38.540  32.585  28.752  1.00  0.00    -0.206 F 
ATOM     77  C   UNL A   1      37.010  32.705  30.528  1.00  0.00     0.059 A 
ATOM     78  C   UNL A   1      37.117  31.063  32.318  1.00  0.00     0.059 A 
ATOM     79  F   UNL A   1      38.758  29.380  32.255  1.00  0.00    -0.206 F 
ATOM     80  C   UNL A   1      36.554  32.208  31.749  1.00  0.00     0.060 A 
BRANCH  80  81
ATOM     81  S   UNL A   1      35.252  33.124  32.599  1.00  0.00     0.124 S 
ATOM     82  O   UNL A   1      35.608  34.505  32.291  1.00  0.00    -0.237 OA
ATOM     83  O   UNL A   1      34.050  32.615  31.946  1.00  0.00    -0.237 OA
ATOM     84  O   UNL A   1      35.416  32.732  33.996  1.00  0.00    -0.744 OA
ENDBRANCH  80  81
ENDBRANCH  59  73
BRANCH  60  85
ATOM     85  C   UNL A   1      46.451  26.920  33.027  1.00  0.00     0.058 A 
ATOM     86  C   UNL A   1      47.541  26.070  33.324  1.00  0.00     0.135 A 
ATOM     87  C   UNL A   1      46.067  27.803  34.046  1.00  0.00     0.135 A 
ATOM     88  F   UNL A   1      47.898  25.102  32.462  1.00  0.00    -0.206 F 
ATOM     89  C   UNL A   1      48.307  26.207  34.476  1.00  0.00     0.059 A 
ATOM     90  C   UNL A   1      46.832  27.977  35.202  1.00  0.00     0.059 A 
ATOM     91  F   UNL A   1      44.956  28.544  33.939  1.00  0.00    -0.206 F 
ATOM     92  C   UNL A   1      47.973  27.203  35.387  1.00  0.00     0.060 A 
BRANCH  92  93
ATOM     93  S   UNL A   1      49.095  27.511  36.766  1.00  0.00     0.124 S 
ATOM     94  O   UNL A   1      50.059  26.427  36.621  1.00  0.00    -0.237 OA
ATOM     95  O   UNL A   1      49.588  28.849  36.453  1.00  0.00    -0.237 OA
ATOM     96  O   UNL A   1      48.225  27.428  37.935  1.00  0.00    -0.744 OA
ENDBRANCH  92  93
ENDBRANCH  60  85
BRANCH  72  97
ATOM     97  C   UNL A   1      42.574  25.634  27.859  1.00  0.00     0.058 A 
ATOM     98  C   UNL A   1      43.563  26.090  26.977  1.00  0.00     0.135 A 
ATOM     99  C   UNL A   1      42.201  24.282  27.785  1.00  0.00     0.135 A 
ATOM    100  F   UNL A   1      43.962  27.373  27.011  1.00  0.00    -0.206 F 
ATOM    101  C   UNL A   1      44.190  25.231  26.081  1.00  0.00     0.059 A 
ATOM    102  C   UNL A   1      42.831  23.399  26.911  1.00  0.00     0.059 A 
ATOM    103  F   UNL A   1      41.244  23.791  28.590  1.00  0.00    -0.206 F 
ATOM    104  C   UNL A   1      43.831  23.881  26.068  1.00  0.00     0.060 A 
BRANCH 104 105
ATOM    105  S   UNL A   1      44.757  22.755  25.004  1.00  0.00     0.124 S 
ATOM    106  O   UNL A   1      45.195  23.638  23.928  1.00  0.00    -0.237 OA
ATOM    107  O   UNL A   1      45.810  22.278  25.897  1.00  0.00    -0.237 OA
ATOM    108  O   UNL A   1      43.770  21.745  24.628  1.00  0.00    -0.744 OA
ENDBRANCH 104 105
ENDBRANCH  72  97
ENDBRANCH  46  47
ENDBRANCH  38  41
ENDBRANCH  36  37
ENDBRANCH   1  36
TORSDOF 16
ENDMDL
