MODEL 1
REMARK VINA RESULT:     -11.1      0.000      0.000
REMARK SMILES COC(=O)C[C@H](NC(=O)N1CC[N@@H+]2CCC[C@@H]2C1)C(=O)NCCCNC(=O)c1ccc(-c2c3nc(c(-c4c(F)cc(S(=O)(=O)[O-])cc4F)c4ccc([nH]4)c(-c4c(F)cc(S(=O)(=O)[O-])cc4F)c4nc(c(-c5c(F)cc(S(=O)(=O)[O-])cc5F)c5ccc2[nH]5)C=C4)C=C3)cc1
REMARK SMILES IDX 23 1 22 2 21 3 19 4 20 5 6 7 5 8 3 9 4 10 2 11 1 12 7 13
REMARK SMILES IDX 8 14 9 16 10 17 11 18 18 19 12 20 17 21 13 22 16 23 14 24
REMARK SMILES IDX 15 26 24 27 25 28 26 29 27 31 28 32 29 33 93 34 30 35 92 36
REMARK SMILES IDX 31 37 32 38 33 39 86 40 34 41 91 42 85 43 87 44 35 45 90 46
REMARK SMILES IDX 84 47 83 48 36 50 70 51 49 52 69 53 50 54 53 55 68 56 88 57
REMARK SMILES IDX 51 58 52 59 67 61 89 62 54 63 37 64 38 65 47 66 39 67 40 68
REMARK SMILES IDX 46 69 48 70 41 71 42 72 43 73 44 74 45 75 71 76 72 77 81 78
REMARK SMILES IDX 73 79 74 80 80 81 82 82 75 83 76 84 77 85 78 86 79 87 55 88
REMARK SMILES IDX 56 89 65 90 57 91 58 92 64 93 66 94 59 95 60 96 61 97 62 98
REMARK SMILES IDX 63 99
REMARK H PARENT 21 6 7 15 13 25 25 30 87 49 53 60
REMARK Flexibility Score: inf
ROOT
ATOM      1  C   UNL A   1      32.135  27.765  27.289  1.00  0.00     0.042 C 
ENDROOT
BRANCH   1   2
ATOM      2  C   UNL A   1      32.032  26.432  26.569  1.00  0.00     0.117 C 
BRANCH   2   3
ATOM      3  N   UNL A   1      30.832  26.308  25.760  1.00  0.00    -0.354 N 
ATOM      4  C   UNL A   1      30.559  26.796  24.516  1.00  0.00     0.243 C 
ATOM      5  O   UNL A   1      29.578  26.333  23.927  1.00  0.00    -0.273 OA
ATOM      6  H   UNL A   1      30.102  25.792  26.173  1.00  0.00     0.163 HD
BRANCH   4   7
ATOM      7  C   UNL A   1      31.520  27.763  23.804  1.00  0.00     0.184 C 
BRANCH   7   8
ATOM      8  C   UNL A   1      30.853  29.139  23.840  1.00  0.00     0.157 C 
BRANCH   8   9
ATOM      9  C   UNL A   1      30.087  29.480  22.604  1.00  0.00     0.308 C 
ATOM     10  O   UNL A   1      29.828  28.660  21.730  1.00  0.00    -0.252 OA
BRANCH   9  11
ATOM     11  O   UNL A   1      29.707  30.782  22.607  1.00  0.00    -0.469 OA
ATOM     12  C   UNL A   1      29.081  31.189  23.825  1.00  0.00     0.282 C 
ENDBRANCH   9  11
ENDBRANCH   8   9
ENDBRANCH   7   8
BRANCH   7  13
ATOM     13  N   UNL A   1      31.910  27.262  22.481  1.00  0.00    -0.326 N 
ATOM     14  C   UNL A   1      32.705  26.211  22.150  1.00  0.00     0.318 C 
ATOM     15  H   UNL A   1      31.540  27.764  21.719  1.00  0.00     0.166 HD
ATOM     16  O   UNL A   1      33.271  26.276  21.058  1.00  0.00    -0.249 OA
BRANCH  14  17
ATOM     17  N   UNL A   1      32.904  25.172  23.022  1.00  0.00    -0.313 N 
ATOM     18  C   UNL A   1      32.089  23.961  23.075  1.00  0.00     0.183 C 
ATOM     19  C   UNL A   1      34.132  25.136  23.815  1.00  0.00     0.186 C 
ATOM     20  C   UNL A   1      32.697  22.766  23.832  1.00  0.00     0.284 C 
ATOM     21  C   UNL A   1      34.922  23.820  23.665  1.00  0.00     0.204 C 
ATOM     22  N   UNL A   1      34.136  22.567  23.670  1.00  0.00    -0.330 N 
ATOM     23  C   UNL A   1      35.963  23.650  24.774  1.00  0.00     0.073 C 
ATOM     24  C   UNL A   1      34.682  21.665  24.691  1.00  0.00     0.262 C 
ATOM     25  H   UNL A   1      34.229  22.143  22.746  1.00  0.00     0.348 HD
ATOM     26  C   UNL A   1      36.100  22.148  24.918  1.00  0.00     0.068 C 
ENDBRANCH  14  17
ENDBRANCH   7  13
ENDBRANCH   4   7
ENDBRANCH   2   3
ENDBRANCH   1   2
BRANCH   1  27
ATOM     27  C   UNL A   1      33.517  28.404  27.228  1.00  0.00     0.118 C 
BRANCH  27  28
ATOM     28  N   UNL A   1      33.509  29.818  27.586  1.00  0.00    -0.352 N 
ATOM     29  C   UNL A   1      34.479  30.596  28.171  1.00  0.00     0.251 C 
ATOM     30  H   UNL A   1      32.674  30.293  27.373  1.00  0.00     0.163 HD
ATOM     31  O   UNL A   1      34.197  31.731  28.543  1.00  0.00    -0.269 OA
BRANCH  29  32
ATOM     32  C   UNL A   1      35.843  30.065  28.377  1.00  0.00     0.039 A 
ATOM     33  C   UNL A   1      36.754  30.106  27.318  1.00  0.00     0.014 A 
ATOM     34  C   UNL A   1      36.226  29.524  29.606  1.00  0.00     0.014 A 
ATOM     35  C   UNL A   1      38.071  29.686  27.520  1.00  0.00     0.010 A 
ATOM     36  C   UNL A   1      37.559  29.195  29.832  1.00  0.00     0.010 A 
ATOM     37  C   UNL A   1      38.498  29.273  28.793  1.00  0.00    -0.014 A 
BRANCH  37  38
ATOM     38  C   UNL A   1      39.919  28.935  29.065  1.00  0.00     0.031 A 
ATOM     39  C   UNL A   1      40.856  29.982  29.604  1.00  0.00     0.074 A 
ATOM     40  C   UNL A   1      40.383  27.709  28.749  1.00  0.00     0.049 A 
ATOM     41  N   UNL A   1      42.145  29.906  29.814  1.00  0.00    -0.248 NA
ATOM     42  C   UNL A   1      40.274  31.297  29.922  1.00  0.00     0.031 C 
ATOM     43  C   UNL A   1      39.584  26.623  28.173  1.00  0.00     0.029 A 
ATOM     44  N   UNL A   1      41.642  27.171  28.847  1.00  0.00    -0.354 N 
ATOM     45  C   UNL A   1      42.530  31.163  30.267  1.00  0.00     0.074 A 
ATOM     46  C   UNL A   1      41.348  31.997  30.256  1.00  0.00     0.031 C 
ATOM     47  C   UNL A   1      40.366  25.548  27.989  1.00  0.00     0.029 A 
ATOM     48  C   UNL A   1      41.731  25.878  28.384  1.00  0.00     0.049 A 
ATOM     49  H   UNL A   1      42.410  27.665  29.215  1.00  0.00     0.167 HD
ATOM     50  C   UNL A   1      43.754  31.577  30.674  1.00  0.00     0.037 A 
ATOM     51  C   UNL A   1      42.793  25.057  28.272  1.00  0.00     0.037 A 
ATOM     52  C   UNL A   1      44.919  30.731  30.707  1.00  0.00     0.049 A 
ATOM     53  C   UNL A   1      44.145  25.546  28.721  1.00  0.00     0.074 A 
ATOM     54  C   UNL A   1      46.186  31.034  31.172  1.00  0.00     0.029 A 
ATOM     55  N   UNL A   1      44.964  29.423  30.248  1.00  0.00    -0.354 N 
ATOM     56  N   UNL A   1      44.474  26.712  29.224  1.00  0.00    -0.248 NA
ATOM     57  C   UNL A   1      45.270  24.610  28.588  1.00  0.00     0.031 C 
ATOM     58  C   UNL A   1      47.012  29.930  30.940  1.00  0.00     0.029 A 
ATOM     59  C   UNL A   1      46.245  28.916  30.389  1.00  0.00     0.049 A 
ATOM     60  H   UNL A   1      44.198  28.927  29.878  1.00  0.00     0.167 HD
ATOM     61  C   UNL A   1      45.837  26.638  29.495  1.00  0.00     0.074 A 
ATOM     62  C   UNL A   1      46.267  25.310  29.112  1.00  0.00     0.031 C 
ATOM     63  C   UNL A   1      46.657  27.586  30.014  1.00  0.00     0.037 A 
BRANCH  50  64
ATOM     64  C   UNL A   1      43.902  33.008  31.117  1.00  0.00     0.058 A 
ATOM     65  C   UNL A   1      43.808  33.380  32.467  1.00  0.00     0.135 A 
ATOM     66  C   UNL A   1      44.196  34.014  30.181  1.00  0.00     0.135 A 
ATOM     67  F   UNL A   1      43.516  32.463  33.403  1.00  0.00    -0.206 F 
ATOM     68  C   UNL A   1      43.973  34.701  32.872  1.00  0.00     0.059 A 
ATOM     69  C   UNL A   1      44.397  35.337  30.567  1.00  0.00     0.059 A 
ATOM     70  F   UNL A   1      44.297  33.717  28.876  1.00  0.00    -0.206 F 
ATOM     71  C   UNL A   1      44.271  35.672  31.914  1.00  0.00     0.060 A 
BRANCH  71  72
ATOM     72  S   UNL A   1      44.498  37.378  32.461  1.00  0.00     0.124 S 
ATOM     73  O   UNL A   1      43.313  37.578  33.290  1.00  0.00    -0.237 OA
ATOM     74  O   UNL A   1      45.768  37.308  33.177  1.00  0.00    -0.237 OA
ATOM     75  O   UNL A   1      44.525  38.135  31.213  1.00  0.00    -0.744 OA
ENDBRANCH  71  72
ENDBRANCH  50  64
BRANCH  51  76
ATOM     76  C   UNL A   1      42.625  23.686  27.720  1.00  0.00     0.058 A 
ATOM     77  C   UNL A   1      42.681  23.451  26.338  1.00  0.00     0.135 A 
ATOM     78  C   UNL A   1      42.404  22.581  28.559  1.00  0.00     0.135 A 
ATOM     79  F   UNL A   1      42.884  24.473  25.492  1.00  0.00    -0.206 F 
ATOM     80  C   UNL A   1      42.500  22.179  25.805  1.00  0.00     0.059 A 
ATOM     81  C   UNL A   1      42.250  21.294  28.052  1.00  0.00     0.059 A 
ATOM     82  F   UNL A   1      42.358  22.747  29.890  1.00  0.00    -0.206 F 
ATOM     83  C   UNL A   1      42.285  21.106  26.672  1.00  0.00     0.060 A 
BRANCH  83  84
ATOM     84  S   UNL A   1      42.082  19.454  25.970  1.00  0.00     0.124 S 
ATOM     85  O   UNL A   1      42.900  19.544  24.766  1.00  0.00    -0.237 OA
ATOM     86  O   UNL A   1      42.604  18.603  27.035  1.00  0.00    -0.237 OA
ATOM     87  O   UNL A   1      40.642  19.357  25.748  1.00  0.00    -0.744 OA
ENDBRANCH  83  84
ENDBRANCH  51  76
BRANCH  63  88
ATOM     88  C   UNL A   1      48.098  27.214  30.237  1.00  0.00     0.058 A 
ATOM     89  C   UNL A   1      49.102  27.555  29.317  1.00  0.00     0.135 A 
ATOM     90  C   UNL A   1      48.489  26.568  31.422  1.00  0.00     0.135 A 
ATOM     91  F   UNL A   1      48.783  28.165  28.164  1.00  0.00    -0.206 F 
ATOM     92  C   UNL A   1      50.438  27.254  29.555  1.00  0.00     0.059 A 
ATOM     93  C   UNL A   1      49.823  26.287  31.696  1.00  0.00     0.059 A 
ATOM     94  F   UNL A   1      47.570  26.229  32.341  1.00  0.00    -0.206 F 
ATOM     95  C   UNL A   1      50.790  26.625  30.752  1.00  0.00     0.060 A 
BRANCH  95  96
ATOM     96  S   UNL A   1      52.534  26.287  31.071  1.00  0.00     0.124 S 
ATOM     97  O   UNL A   1      53.076  26.227  29.717  1.00  0.00    -0.237 OA
ATOM     98  O   UNL A   1      52.936  27.445  31.863  1.00  0.00    -0.237 OA
ATOM     99  O   UNL A   1      52.509  25.019  31.793  1.00  0.00    -0.744 OA
ENDBRANCH  95  96
ENDBRANCH  63  88
ENDBRANCH  37  38
ENDBRANCH  29  32
ENDBRANCH  27  28
ENDBRANCH   1  27
TORSDOF 18
ENDMDL
MODEL 2
REMARK VINA RESULT:     -11.0      1.209      2.424
REMARK SMILES COC(=O)C[C@H](NC(=O)N1CC[N@@H+]2CCC[C@@H]2C1)C(=O)NCCCNC(=O)c1ccc(-c2c3nc(c(-c4c(F)cc(S(=O)(=O)[O-])cc4F)c4ccc([nH]4)c(-c4c(F)cc(S(=O)(=O)[O-])cc4F)c4nc(c(-c5c(F)cc(S(=O)(=O)[O-])cc5F)c5ccc2[nH]5)C=C4)C=C3)cc1
REMARK SMILES IDX 23 1 22 2 21 3 19 4 20 5 6 7 5 8 3 9 4 10 2 11 1 12 7 13
REMARK SMILES IDX 8 14 9 16 10 17 11 18 18 19 12 20 17 21 13 22 16 23 14 24
REMARK SMILES IDX 15 26 24 27 25 28 26 29 27 31 28 32 29 33 93 34 30 35 92 36
REMARK SMILES IDX 31 37 32 38 33 39 86 40 34 41 91 42 85 43 87 44 35 45 90 46
REMARK SMILES IDX 84 47 83 48 36 50 70 51 49 52 69 53 50 54 53 55 68 56 88 57
REMARK SMILES IDX 51 58 52 59 67 61 89 62 54 63 37 64 38 65 47 66 39 67 40 68
REMARK SMILES IDX 46 69 48 70 41 71 42 72 43 73 44 74 45 75 71 76 72 77 81 78
REMARK SMILES IDX 73 79 74 80 80 81 82 82 75 83 76 84 77 85 78 86 79 87 55 88
REMARK SMILES IDX 56 89 65 90 57 91 58 92 64 93 66 94 59 95 60 96 61 97 62 98
REMARK SMILES IDX 63 99
REMARK H PARENT 21 6 7 15 13 25 25 30 87 49 53 60
REMARK Flexibility Score: inf
ROOT
ATOM      1  C   UNL A   1      34.106  28.508  25.796  1.00  0.00     0.042 C 
ENDROOT
BRANCH   1   2
ATOM      2  C   UNL A   1      33.430  27.399  25.009  1.00  0.00     0.117 C 
BRANCH   2   3
ATOM      3  N   UNL A   1      32.005  27.613  24.826  1.00  0.00    -0.354 N 
ATOM      4  C   UNL A   1      30.971  26.727  24.886  1.00  0.00     0.243 C 
ATOM      5  O   UNL A   1      29.829  27.190  24.965  1.00  0.00    -0.273 OA
ATOM      6  H   UNL A   1      31.745  28.542  24.627  1.00  0.00     0.163 HD
BRANCH   4   7
ATOM      7  C   UNL A   1      31.217  25.214  25.016  1.00  0.00     0.184 C 
BRANCH   7   8
ATOM      8  C   UNL A   1      30.734  24.585  23.707  1.00  0.00     0.157 C 
BRANCH   8   9
ATOM      9  C   UNL A   1      31.794  24.457  22.663  1.00  0.00     0.308 C 
ATOM     10  O   UNL A   1      32.583  23.519  22.622  1.00  0.00    -0.252 OA
BRANCH   9  11
ATOM     11  O   UNL A   1      31.736  25.483  21.777  1.00  0.00    -0.469 OA
ATOM     12  C   UNL A   1      33.011  26.060  21.490  1.00  0.00     0.282 C 
ENDBRANCH   9  11
ENDBRANCH   8   9
ENDBRANCH   7   8
BRANCH   7  13
ATOM     13  N   UNL A   1      30.635  24.674  26.249  1.00  0.00    -0.326 N 
ATOM     14  C   UNL A   1      30.741  23.431  26.789  1.00  0.00     0.318 C 
ATOM     15  H   UNL A   1      30.085  25.308  26.764  1.00  0.00     0.166 HD
ATOM     16  O   UNL A   1      29.816  23.070  27.518  1.00  0.00    -0.249 OA
BRANCH  14  17
ATOM     17  N   UNL A   1      31.796  22.613  26.477  1.00  0.00    -0.313 N 
ATOM     18  C   UNL A   1      31.735  21.500  25.532  1.00  0.00     0.183 C 
ATOM     19  C   UNL A   1      33.138  22.979  26.928  1.00  0.00     0.186 C 
ATOM     20  C   UNL A   1      33.088  20.963  25.028  1.00  0.00     0.284 C 
ATOM     21  C   UNL A   1      34.173  23.045  25.786  1.00  0.00     0.204 C 
ATOM     22  N   UNL A   1      34.124  21.963  24.779  1.00  0.00    -0.330 N 
ATOM     23  C   UNL A   1      35.609  23.041  26.317  1.00  0.00     0.073 C 
ATOM     24  C   UNL A   1      35.455  21.355  24.668  1.00  0.00     0.262 C 
ATOM     25  H   UNL A   1      33.859  22.385  23.889  1.00  0.00     0.348 HD
ATOM     26  C   UNL A   1      36.409  22.406  25.198  1.00  0.00     0.068 C 
ENDBRANCH  14  17
ENDBRANCH   7  13
ENDBRANCH   4   7
ENDBRANCH   2   3
ENDBRANCH   1   2
BRANCH   1  27
ATOM     27  C   UNL A   1      33.617  28.645  27.232  1.00  0.00     0.118 C 
BRANCH  27  28
ATOM     28  N   UNL A   1      33.604  30.026  27.703  1.00  0.00    -0.352 N 
ATOM     29  C   UNL A   1      34.562  30.750  28.370  1.00  0.00     0.251 C 
ATOM     30  H   UNL A   1      32.774  30.519  27.511  1.00  0.00     0.163 HD
ATOM     31  O   UNL A   1      34.273  31.853  28.827  1.00  0.00    -0.269 OA
BRANCH  29  32
ATOM     32  C   UNL A   1      35.920  30.199  28.562  1.00  0.00     0.039 A 
ATOM     33  C   UNL A   1      36.826  30.242  27.499  1.00  0.00     0.014 A 
ATOM     34  C   UNL A   1      36.303  29.639  29.782  1.00  0.00     0.014 A 
ATOM     35  C   UNL A   1      38.138  29.803  27.689  1.00  0.00     0.010 A 
ATOM     36  C   UNL A   1      37.633  29.290  29.997  1.00  0.00     0.010 A 
ATOM     37  C   UNL A   1      38.567  29.370  28.953  1.00  0.00    -0.014 A 
BRANCH  37  38
ATOM     38  C   UNL A   1      39.985  29.010  29.214  1.00  0.00     0.031 A 
ATOM     39  C   UNL A   1      40.937  30.037  29.764  1.00  0.00     0.074 A 
ATOM     40  C   UNL A   1      40.432  27.783  28.877  1.00  0.00     0.049 A 
ATOM     41  N   UNL A   1      42.226  29.943  29.967  1.00  0.00    -0.248 NA
ATOM     42  C   UNL A   1      40.373  31.354  30.105  1.00  0.00     0.031 C 
ATOM     43  C   UNL A   1      39.617  26.716  28.289  1.00  0.00     0.029 A 
ATOM     44  N   UNL A   1      41.685  27.229  28.961  1.00  0.00    -0.354 N 
ATOM     45  C   UNL A   1      42.629  31.188  30.437  1.00  0.00     0.074 A 
ATOM     46  C   UNL A   1      41.457  32.036  30.444  1.00  0.00     0.031 C 
ATOM     47  C   UNL A   1      40.385  25.635  28.085  1.00  0.00     0.029 A 
ATOM     48  C   UNL A   1      41.757  25.942  28.479  1.00  0.00     0.049 A 
ATOM     49  H   UNL A   1      42.461  27.708  29.332  1.00  0.00     0.167 HD
ATOM     50  C   UNL A   1      43.859  31.581  30.844  1.00  0.00     0.037 A 
ATOM     51  C   UNL A   1      42.808  25.110  28.349  1.00  0.00     0.037 A 
ATOM     52  C   UNL A   1      45.015  30.721  30.858  1.00  0.00     0.049 A 
ATOM     53  C   UNL A   1      44.168  25.576  28.798  1.00  0.00     0.074 A 
ATOM     54  C   UNL A   1      46.287  31.001  31.321  1.00  0.00     0.029 A 
ATOM     55  N   UNL A   1      45.041  29.419  30.379  1.00  0.00    -0.354 N 
ATOM     56  N   UNL A   1      44.514  26.730  29.318  1.00  0.00    -0.248 NA
ATOM     57  C   UNL A   1      45.281  24.629  28.646  1.00  0.00     0.031 C 
ATOM     58  C   UNL A   1      47.099  29.891  31.069  1.00  0.00     0.029 A 
ATOM     59  C   UNL A   1      46.316  28.894  30.506  1.00  0.00     0.049 A 
ATOM     60  H   UNL A   1      44.267  28.938  30.006  1.00  0.00     0.167 HD
ATOM     61  C   UNL A   1      45.877  26.635  29.580  1.00  0.00     0.074 A 
ATOM     62  C   UNL A   1      46.289  25.308  29.176  1.00  0.00     0.031 C 
ATOM     63  C   UNL A   1      46.710  27.565  30.109  1.00  0.00     0.037 A 
BRANCH  50  64
ATOM     64  C   UNL A   1      44.027  33.003  31.307  1.00  0.00     0.058 A 
ATOM     65  C   UNL A   1      44.214  34.061  30.403  1.00  0.00     0.135 A 
ATOM     66  C   UNL A   1      43.947  33.320  32.674  1.00  0.00     0.135 A 
ATOM     67  F   UNL A   1      44.312  33.816  29.086  1.00  0.00    -0.206 F 
ATOM     68  C   UNL A   1      44.341  35.377  30.837  1.00  0.00     0.059 A 
ATOM     69  C   UNL A   1      44.039  34.632  33.128  1.00  0.00     0.059 A 
ATOM     70  F   UNL A   1      43.770  32.349  33.584  1.00  0.00    -0.206 F 
ATOM     71  C   UNL A   1      44.249  35.653  32.203  1.00  0.00     0.060 A 
BRANCH  71  72
ATOM     72  S   UNL A   1      44.400  37.368  32.745  1.00  0.00     0.124 S 
ATOM     73  O   UNL A   1      45.551  37.290  33.639  1.00  0.00    -0.237 OA
ATOM     74  O   UNL A   1      44.621  38.073  31.487  1.00  0.00    -0.237 OA
ATOM     75  O   UNL A   1      43.119  37.634  33.394  1.00  0.00    -0.744 OA
ENDBRANCH  71  72
ENDBRANCH  50  64
BRANCH  51  76
ATOM     76  C   UNL A   1      42.620  23.749  27.777  1.00  0.00     0.058 A 
ATOM     77  C   UNL A   1      42.538  22.621  28.605  1.00  0.00     0.135 A 
ATOM     78  C   UNL A   1      42.520  23.548  26.390  1.00  0.00     0.135 A 
ATOM     79  F   UNL A   1      42.634  22.758  29.936  1.00  0.00    -0.206 F 
ATOM     80  C   UNL A   1      42.389  21.340  28.083  1.00  0.00     0.059 A 
ATOM     81  C   UNL A   1      42.340  22.280  25.845  1.00  0.00     0.059 A 
ATOM     82  F   UNL A   1      42.576  24.595  25.553  1.00  0.00    -0.206 F 
ATOM     83  C   UNL A   1      42.290  21.180  26.700  1.00  0.00     0.060 A 
BRANCH  83  84
ATOM     84  S   UNL A   1      42.066  19.516  26.035  1.00  0.00     0.124 S 
ATOM     85  O   UNL A   1      42.918  19.555  24.852  1.00  0.00    -0.237 OA
ATOM     86  O   UNL A   1      42.539  18.681  27.135  1.00  0.00    -0.237 OA
ATOM     87  O   UNL A   1      40.631  19.447  25.777  1.00  0.00    -0.744 OA
ENDBRANCH  83  84
ENDBRANCH  51  76
BRANCH  63  88
ATOM     88  C   UNL A   1      48.148  27.173  30.320  1.00  0.00     0.058 A 
ATOM     89  C   UNL A   1      49.151  27.511  29.398  1.00  0.00     0.135 A 
ATOM     90  C   UNL A   1      48.537  26.509  31.496  1.00  0.00     0.135 A 
ATOM     91  F   UNL A   1      48.833  28.138  28.253  1.00  0.00    -0.206 F 
ATOM     92  C   UNL A   1      50.484  27.190  29.625  1.00  0.00     0.059 A 
ATOM     93  C   UNL A   1      49.869  26.208  31.759  1.00  0.00     0.059 A 
ATOM     94  F   UNL A   1      47.619  26.171  32.416  1.00  0.00    -0.206 F 
ATOM     95  C   UNL A   1      50.835  26.544  30.813  1.00  0.00     0.060 A 
BRANCH  95  96
ATOM     96  S   UNL A   1      52.577  26.181  31.118  1.00  0.00     0.124 S 
ATOM     97  O   UNL A   1      53.002  27.368  31.851  1.00  0.00    -0.237 OA
ATOM     98  O   UNL A   1      52.506  24.947  31.894  1.00  0.00    -0.237 OA
ATOM     99  O   UNL A   1      53.135  26.039  29.776  1.00  0.00    -0.744 OA
ENDBRANCH  95  96
ENDBRANCH  63  88
ENDBRANCH  37  38
ENDBRANCH  29  32
ENDBRANCH  27  28
ENDBRANCH   1  27
TORSDOF 18
ENDMDL
MODEL 3
REMARK VINA RESULT:     -11.0      1.202      3.369
REMARK SMILES COC(=O)C[C@H](NC(=O)N1CC[N@@H+]2CCC[C@@H]2C1)C(=O)NCCCNC(=O)c1ccc(-c2c3nc(c(-c4c(F)cc(S(=O)(=O)[O-])cc4F)c4ccc([nH]4)c(-c4c(F)cc(S(=O)(=O)[O-])cc4F)c4nc(c(-c5c(F)cc(S(=O)(=O)[O-])cc5F)c5ccc2[nH]5)C=C4)C=C3)cc1
REMARK SMILES IDX 23 1 22 2 21 3 19 4 20 5 6 7 5 8 3 9 4 10 2 11 1 12 7 13
REMARK SMILES IDX 8 14 9 16 10 17 11 18 18 19 12 20 17 21 13 22 16 23 14 24
REMARK SMILES IDX 15 26 24 27 25 28 26 29 27 31 28 32 29 33 93 34 30 35 92 36
REMARK SMILES IDX 31 37 32 38 33 39 86 40 34 41 91 42 85 43 87 44 35 45 90 46
REMARK SMILES IDX 84 47 83 48 36 50 70 51 49 52 69 53 50 54 53 55 68 56 88 57
REMARK SMILES IDX 51 58 52 59 67 61 89 62 54 63 37 64 38 65 47 66 39 67 40 68
REMARK SMILES IDX 46 69 48 70 41 71 42 72 43 73 44 74 45 75 71 76 72 77 81 78
REMARK SMILES IDX 73 79 74 80 80 81 82 82 75 83 76 84 77 85 78 86 79 87 55 88
REMARK SMILES IDX 56 89 65 90 57 91 58 92 64 93 66 94 59 95 60 96 61 97 62 98
REMARK SMILES IDX 63 99
REMARK H PARENT 21 6 7 15 13 25 25 30 87 49 53 60
REMARK Flexibility Score: inf
ROOT
ATOM      1  C   UNL A   1      32.091  27.849  27.522  1.00  0.00     0.042 C 
ENDROOT
BRANCH   1   2
ATOM      2  C   UNL A   1      31.761  26.744  26.533  1.00  0.00     0.117 C 
BRANCH   2   3
ATOM      3  N   UNL A   1      32.924  25.982  26.114  1.00  0.00    -0.354 N 
ATOM      4  C   UNL A   1      33.093  25.161  25.040  1.00  0.00     0.243 C 
ATOM      5  O   UNL A   1      34.249  24.841  24.745  1.00  0.00    -0.273 OA
ATOM      6  H   UNL A   1      33.713  26.073  26.697  1.00  0.00     0.163 HD
BRANCH   4   7
ATOM      7  C   UNL A   1      31.914  24.776  24.129  1.00  0.00     0.184 C 
BRANCH   7   8
ATOM      8  C   UNL A   1      31.754  23.259  24.250  1.00  0.00     0.157 C 
BRANCH   8   9
ATOM      9  C   UNL A   1      31.582  22.772  25.651  1.00  0.00     0.308 C 
ATOM     10  O   UNL A   1      32.269  21.880  26.137  1.00  0.00    -0.252 OA
BRANCH   9  11
ATOM     11  O   UNL A   1      30.607  23.462  26.294  1.00  0.00    -0.469 OA
ATOM     12  C   UNL A   1      29.704  22.627  27.020  1.00  0.00     0.282 C 
ENDBRANCH   9  11
ENDBRANCH   8   9
ENDBRANCH   7   8
BRANCH   7  13
ATOM     13  N   UNL A   1      32.082  25.307  22.772  1.00  0.00    -0.326 N 
ATOM     14  C   UNL A   1      31.506  26.388  22.185  1.00  0.00     0.318 C 
ATOM     15  H   UNL A   1      32.707  24.803  22.201  1.00  0.00     0.166 HD
ATOM     16  O   UNL A   1      31.407  26.357  20.957  1.00  0.00    -0.249 OA
BRANCH  14  17
ATOM     17  N   UNL A   1      31.009  27.421  22.938  1.00  0.00    -0.313 N 
ATOM     18  C   UNL A   1      31.820  28.473  23.546  1.00  0.00     0.183 C 
ATOM     19  C   UNL A   1      29.564  27.645  22.972  1.00  0.00     0.186 C 
ATOM     20  C   UNL A   1      31.063  29.733  24.006  1.00  0.00     0.284 C 
ATOM     21  C   UNL A   1      29.155  29.080  22.584  1.00  0.00     0.204 C 
ATOM     22  N   UNL A   1      29.973  30.180  23.141  1.00  0.00    -0.330 N 
ATOM     23  C   UNL A   1      27.716  29.395  22.999  1.00  0.00     0.073 C 
ATOM     24  C   UNL A   1      29.089  31.133  23.824  1.00  0.00     0.262 C 
ATOM     25  H   UNL A   1      30.443  30.638  22.360  1.00  0.00     0.348 HD
ATOM     26  C   UNL A   1      27.720  30.894  23.221  1.00  0.00     0.068 C 
ENDBRANCH  14  17
ENDBRANCH   7  13
ENDBRANCH   4   7
ENDBRANCH   2   3
ENDBRANCH   1   2
BRANCH   1  27
ATOM     27  C   UNL A   1      33.437  28.521  27.282  1.00  0.00     0.118 C 
BRANCH  27  28
ATOM     28  N   UNL A   1      33.438  29.939  27.627  1.00  0.00    -0.352 N 
ATOM     29  C   UNL A   1      34.413  30.715  28.205  1.00  0.00     0.251 C 
ATOM     30  H   UNL A   1      32.606  30.416  27.412  1.00  0.00     0.163 HD
ATOM     31  O   UNL A   1      34.138  31.856  28.568  1.00  0.00    -0.269 OA
BRANCH  29  32
ATOM     32  C   UNL A   1      35.774  30.178  28.414  1.00  0.00     0.039 A 
ATOM     33  C   UNL A   1      36.665  30.150  27.337  1.00  0.00     0.014 A 
ATOM     34  C   UNL A   1      36.175  29.700  29.663  1.00  0.00     0.014 A 
ATOM     35  C   UNL A   1      37.980  29.724  27.537  1.00  0.00     0.010 A 
ATOM     36  C   UNL A   1      37.508  29.365  29.881  1.00  0.00     0.010 A 
ATOM     37  C   UNL A   1      38.427  29.375  28.822  1.00  0.00    -0.014 A 
BRANCH  37  38
ATOM     38  C   UNL A   1      39.849  29.033  29.085  1.00  0.00     0.031 A 
ATOM     39  C   UNL A   1      40.794  30.080  29.608  1.00  0.00     0.074 A 
ATOM     40  C   UNL A   1      40.305  27.803  28.774  1.00  0.00     0.049 A 
ATOM     41  N   UNL A   1      42.084  30.001  29.809  1.00  0.00    -0.248 NA
ATOM     42  C   UNL A   1      40.220  31.400  29.921  1.00  0.00     0.031 C 
ATOM     43  C   UNL A   1      39.497  26.716  28.213  1.00  0.00     0.029 A 
ATOM     44  N   UNL A   1      41.563  27.260  28.867  1.00  0.00    -0.354 N 
ATOM     45  C   UNL A   1      42.479  31.260  30.249  1.00  0.00     0.074 A 
ATOM     46  C   UNL A   1      41.300  32.098  30.241  1.00  0.00     0.031 C 
ATOM     47  C   UNL A   1      40.273  25.637  28.031  1.00  0.00     0.029 A 
ATOM     48  C   UNL A   1      41.643  25.964  28.413  1.00  0.00     0.049 A 
ATOM     49  H   UNL A   1      42.336  27.754  29.224  1.00  0.00     0.167 HD
ATOM     50  C   UNL A   1      43.707  31.672  30.643  1.00  0.00     0.037 A 
ATOM     51  C   UNL A   1      42.701  25.138  28.299  1.00  0.00     0.037 A 
ATOM     52  C   UNL A   1      44.869  30.822  30.673  1.00  0.00     0.049 A 
ATOM     53  C   UNL A   1      44.059  25.625  28.733  1.00  0.00     0.074 A 
ATOM     54  C   UNL A   1      46.141  31.123  31.125  1.00  0.00     0.029 A 
ATOM     55  N   UNL A   1      44.905  29.510  30.224  1.00  0.00    -0.354 N 
ATOM     56  N   UNL A   1      44.397  26.794  29.225  1.00  0.00    -0.248 NA
ATOM     57  C   UNL A   1      45.179  24.684  28.598  1.00  0.00     0.031 C 
ATOM     58  C   UNL A   1      46.961  30.014  30.896  1.00  0.00     0.029 A 
ATOM     59  C   UNL A   1      46.185  28.998  30.358  1.00  0.00     0.049 A 
ATOM     60  H   UNL A   1      44.134  29.014  29.864  1.00  0.00     0.167 HD
ATOM     61  C   UNL A   1      45.761  26.716  29.485  1.00  0.00     0.074 A 
ATOM     62  C   UNL A   1      46.183  25.383  29.109  1.00  0.00     0.031 C 
ATOM     63  C   UNL A   1      46.589  27.664  29.990  1.00  0.00     0.037 A 
BRANCH  50  64
ATOM     64  C   UNL A   1      43.864  33.106  31.074  1.00  0.00     0.058 A 
ATOM     65  C   UNL A   1      43.680  33.504  32.407  1.00  0.00     0.135 A 
ATOM     66  C   UNL A   1      44.258  34.086  30.148  1.00  0.00     0.135 A 
ATOM     67  F   UNL A   1      43.291  32.612  33.332  1.00  0.00    -0.206 F 
ATOM     68  C   UNL A   1      43.854  34.826  32.804  1.00  0.00     0.059 A 
ATOM     69  C   UNL A   1      44.469  35.409  30.528  1.00  0.00     0.059 A 
ATOM     70  F   UNL A   1      44.448  33.763  28.859  1.00  0.00    -0.206 F 
ATOM     71  C   UNL A   1      44.252  35.772  31.856  1.00  0.00     0.060 A 
BRANCH  71  72
ATOM     72  S   UNL A   1      44.489  37.479  32.392  1.00  0.00     0.124 S 
ATOM     73  O   UNL A   1      45.945  37.573  32.429  1.00  0.00    -0.237 OA
ATOM     74  O   UNL A   1      43.832  38.233  31.330  1.00  0.00    -0.237 OA
ATOM     75  O   UNL A   1      43.825  37.523  33.692  1.00  0.00    -0.744 OA
ENDBRANCH  71  72
ENDBRANCH  50  64
BRANCH  51  76
ATOM     76  C   UNL A   1      42.523  23.763  27.758  1.00  0.00     0.058 A 
ATOM     77  C   UNL A   1      42.461  23.532  26.376  1.00  0.00     0.135 A 
ATOM     78  C   UNL A   1      42.411  22.651  28.610  1.00  0.00     0.135 A 
ATOM     79  F   UNL A   1      42.557  24.561  25.520  1.00  0.00    -0.206 F 
ATOM     80  C   UNL A   1      42.269  22.256  25.856  1.00  0.00     0.059 A 
ATOM     81  C   UNL A   1      42.248  21.361  28.113  1.00  0.00     0.059 A 
ATOM     82  F   UNL A   1      42.480  22.814  29.940  1.00  0.00    -0.206 F 
ATOM     83  C   UNL A   1      42.164  21.176  26.734  1.00  0.00     0.060 A 
BRANCH  83  84
ATOM     84  S   UNL A   1      41.946  19.520  26.047  1.00  0.00     0.124 S 
ATOM     85  O   UNL A   1      42.340  18.681  27.172  1.00  0.00    -0.237 OA
ATOM     86  O   UNL A   1      40.525  19.513  25.711  1.00  0.00    -0.237 OA
ATOM     87  O   UNL A   1      42.853  19.509  24.903  1.00  0.00    -0.744 OA
ENDBRANCH  83  84
ENDBRANCH  51  76
BRANCH  63  88
ATOM     88  C   UNL A   1      48.031  27.289  30.204  1.00  0.00     0.058 A 
ATOM     89  C   UNL A   1      49.006  27.504  29.219  1.00  0.00     0.135 A 
ATOM     90  C   UNL A   1      48.452  26.769  31.440  1.00  0.00     0.135 A 
ATOM     91  F   UNL A   1      48.657  27.990  28.016  1.00  0.00    -0.206 F 
ATOM     92  C   UNL A   1      50.345  27.202  29.444  1.00  0.00     0.059 A 
ATOM     93  C   UNL A   1      49.789  26.491  31.698  1.00  0.00     0.059 A 
ATOM     94  F   UNL A   1      47.560  26.553  32.421  1.00  0.00    -0.206 F 
ATOM     95  C   UNL A   1      50.728  26.702  30.691  1.00  0.00     0.060 A 
BRANCH  95  96
ATOM     96  S   UNL A   1      52.477  26.364  30.986  1.00  0.00     0.124 S 
ATOM     97  O   UNL A   1      52.884  27.548  31.736  1.00  0.00    -0.237 OA
ATOM     98  O   UNL A   1      52.429  25.118  31.745  1.00  0.00    -0.237 OA
ATOM     99  O   UNL A   1      53.033  26.251  29.641  1.00  0.00    -0.744 OA
ENDBRANCH  95  96
ENDBRANCH  63  88
ENDBRANCH  37  38
ENDBRANCH  29  32
ENDBRANCH  27  28
ENDBRANCH   1  27
TORSDOF 18
ENDMDL
