MODEL 1
REMARK VINA RESULT:     -12.6      0.000      0.000
REMARK SMILES CCNC(=O)c1ccc(NC(=O)CC2(C(=O)NCCCNC(=O)c3ccc(-c4c5nc(c(-c6c(F)cc(S(=O)(=O)[O-])cc6F)c6ccc([nH]6)c(-c6c(F)cc(S(=O)(=O)[O-])cc6F)c6nc(c(-c7c(F)cc(S(=O)(=O)[O-])cc7F)c7ccc4[nH]7)C=C6)C=C5)cc3)CCCC2)cc1
REMARK SMILES IDX 18 1 17 2 15 3 16 4 14 6 90 7 93 8 91 9 92 10 13 11 11 12
REMARK SMILES IDX 10 13 12 15 9 16 6 17 7 18 95 19 8 20 94 21 4 22 3 23 5 25
REMARK SMILES IDX 2 26 1 27 19 28 20 29 21 30 22 31 23 33 24 34 25 35 89 36
REMARK SMILES IDX 26 37 88 38 27 39 28 40 29 41 82 42 30 43 87 44 81 45 83 46
REMARK SMILES IDX 31 47 86 48 80 49 79 50 32 52 66 53 45 54 65 55 46 56 49 57
REMARK SMILES IDX 64 58 84 59 47 60 48 61 63 63 85 64 50 65 33 66 34 67 43 68
REMARK SMILES IDX 35 69 36 70 42 71 44 72 37 73 38 74 39 75 40 76 41 77 67 78
REMARK SMILES IDX 68 79 77 80 69 81 70 82 76 83 78 84 71 85 72 86 73 87 74 88
REMARK SMILES IDX 75 89 51 90 52 91 61 92 53 93 54 94 60 95 62 96 55 97 56 98
REMARK SMILES IDX 57 99 58 100 59 101
REMARK H PARENT 17 5 10 14 3 24 21 32 83 51 49 62
REMARK Flexibility Score: inf
ROOT
ATOM      1  C   UNL A   1      36.160  23.336  25.765  1.00  0.00     0.117 C 
ENDROOT
BRANCH   1   2
ATOM      2  N   UNL A   1      35.360  22.430  26.557  1.00  0.00    -0.356 N 
ATOM      3  C   UNL A   1      34.113  21.937  26.360  1.00  0.00     0.226 C 
ATOM      4  O   UNL A   1      33.948  20.780  26.772  1.00  0.00    -0.274 OA
ATOM      5  H   UNL A   1      35.797  22.115  27.381  1.00  0.00     0.163 HD
BRANCH   3   6
ATOM      6  C   UNL A   1      32.944  22.681  25.653  1.00  0.00     0.058 C 
ATOM      7  C   UNL A   1      31.925  21.615  25.169  1.00  0.00     0.017 C 
ATOM      8  C   UNL A   1      33.273  23.471  24.373  1.00  0.00     0.017 C 
ATOM      9  C   UNL A   1      32.200  21.367  23.696  1.00  0.00     0.001 C 
ATOM     10  C   UNL A   1      32.799  22.659  23.165  1.00  0.00     0.001 C 
BRANCH   6  11
ATOM     11  C   UNL A   1      32.259  23.583  26.754  1.00  0.00     0.117 C 
BRANCH  11  12
ATOM     12  C   UNL A   1      30.736  23.630  26.803  1.00  0.00     0.225 C 
ATOM     13  N   UNL A   1      29.977  24.388  25.965  1.00  0.00    -0.326 N 
ATOM     14  H   UNL A   1      29.017  24.168  25.994  1.00  0.00     0.169 HD
ATOM     15  O   UNL A   1      30.134  22.889  27.591  1.00  0.00    -0.275 OA
BRANCH  13  16
ATOM     16  C   UNL A   1      30.290  25.418  25.072  1.00  0.00     0.041 A 
ATOM     17  C   UNL A   1      30.756  27.613  23.410  1.00  0.00     0.039 A 
ATOM     18  C   UNL A   1      30.503  26.363  22.854  1.00  0.00     0.016 A 
ATOM     19  C   UNL A   1      30.843  27.768  24.794  1.00  0.00     0.016 A 
ATOM     20  C   UNL A   1      30.302  25.263  23.690  1.00  0.00     0.027 A 
ATOM     21  C   UNL A   1      30.629  26.662  25.622  1.00  0.00     0.027 A 
BRANCH  17  22
ATOM     22  C   UNL A   1      30.857  28.778  22.519  1.00  0.00     0.251 C 
ATOM     23  N   UNL A   1      32.037  29.460  22.426  1.00  0.00    -0.352 N 
ATOM     24  H   UNL A   1      32.003  30.305  21.923  1.00  0.00     0.163 HD
ATOM     25  O   UNL A   1      29.872  29.113  21.862  1.00  0.00    -0.269 OA
BRANCH  23  26
ATOM     26  C   UNL A   1      33.331  29.102  22.972  1.00  0.00     0.112 C 
ATOM     27  C   UNL A   1      34.040  28.113  22.064  1.00  0.00     0.027 C 
ENDBRANCH  23  26
ENDBRANCH  17  22
ENDBRANCH  13  16
ENDBRANCH  11  12
ENDBRANCH   6  11
ENDBRANCH   3   6
ENDBRANCH   1   2
BRANCH   1  28
ATOM     28  C   UNL A   1      37.649  23.046  25.791  1.00  0.00     0.042 C 
BRANCH  28  29
ATOM     29  C   UNL A   1      38.476  24.168  26.401  1.00  0.00     0.118 C 
BRANCH  29  30
ATOM     30  N   UNL A   1      39.911  23.977  26.214  1.00  0.00    -0.352 N 
ATOM     31  C   UNL A   1      40.987  24.704  26.657  1.00  0.00     0.251 C 
ATOM     32  H   UNL A   1      40.149  23.187  25.677  1.00  0.00     0.163 HD
ATOM     33  O   UNL A   1      42.100  24.475  26.194  1.00  0.00    -0.269 OA
BRANCH  31  34
ATOM     34  C   UNL A   1      40.811  25.765  27.671  1.00  0.00     0.039 A 
ATOM     35  C   UNL A   1      39.754  25.670  28.582  1.00  0.00     0.014 A 
ATOM     36  C   UNL A   1      41.660  26.872  27.706  1.00  0.00     0.014 A 
ATOM     37  C   UNL A   1      39.596  26.648  29.566  1.00  0.00     0.010 A 
ATOM     38  C   UNL A   1      41.570  27.784  28.749  1.00  0.00     0.010 A 
ATOM     39  C   UNL A   1      40.527  27.692  29.683  1.00  0.00    -0.014 A 
BRANCH  39  40
ATOM     40  C   UNL A   1      40.422  28.719  30.750  1.00  0.00     0.031 A 
ATOM     41  C   UNL A   1      41.285  28.611  31.979  1.00  0.00     0.074 A 
ATOM     42  C   UNL A   1      39.501  29.697  30.649  1.00  0.00     0.049 A 
ATOM     43  N   UNL A   1      41.269  29.336  33.068  1.00  0.00    -0.248 NA
ATOM     44  C   UNL A   1      42.274  27.519  32.004  1.00  0.00     0.031 C 
ATOM     45  C   UNL A   1      38.573  29.876  29.529  1.00  0.00     0.029 A 
ATOM     46  N   UNL A   1      39.181  30.719  31.508  1.00  0.00    -0.354 N 
ATOM     47  C   UNL A   1      42.225  28.777  33.910  1.00  0.00     0.074 A 
ATOM     48  C   UNL A   1      42.757  27.614  33.233  1.00  0.00     0.031 C 
ATOM     49  C   UNL A   1      37.810  30.957  29.756  1.00  0.00     0.029 A 
ATOM     50  C   UNL A   1      38.157  31.520  31.057  1.00  0.00     0.049 A 
ATOM     51  H   UNL A   1      39.641  30.865  32.366  1.00  0.00     0.167 HD
ATOM     52  C   UNL A   1      42.641  29.209  35.123  1.00  0.00     0.037 A 
ATOM     53  C   UNL A   1      37.559  32.581  31.632  1.00  0.00     0.037 A 
ATOM     54  C   UNL A   1      42.127  30.386  35.772  1.00  0.00     0.049 A 
ATOM     55  C   UNL A   1      38.038  33.042  32.982  1.00  0.00     0.074 A 
ATOM     56  C   UNL A   1      42.520  30.946  36.974  1.00  0.00     0.029 A 
ATOM     57  N   UNL A   1      41.110  31.187  35.271  1.00  0.00    -0.354 N 
ATOM     58  N   UNL A   1      38.983  32.536  33.740  1.00  0.00    -0.248 NA
ATOM     59  C   UNL A   1      37.376  34.222  33.555  1.00  0.00     0.031 C 
ATOM     60  C   UNL A   1      41.707  32.056  37.224  1.00  0.00     0.029 A 
ATOM     61  C   UNL A   1      40.847  32.223  36.150  1.00  0.00     0.049 A 
ATOM     62  H   UNL A   1      40.645  31.039  34.416  1.00  0.00     0.167 HD
ATOM     63  C   UNL A   1      39.050  33.353  34.863  1.00  0.00     0.074 A 
ATOM     64  C   UNL A   1      38.057  34.393  34.680  1.00  0.00     0.031 C 
ATOM     65  C   UNL A   1      39.860  33.255  35.946  1.00  0.00     0.037 A 
BRANCH  52  66
ATOM     66  C   UNL A   1      43.705  28.406  35.824  1.00  0.00     0.058 A 
ATOM     67  C   UNL A   1      43.384  27.375  36.722  1.00  0.00     0.135 A 
ATOM     68  C   UNL A   1      45.065  28.652  35.573  1.00  0.00     0.135 A 
ATOM     69  F   UNL A   1      42.101  27.106  37.012  1.00  0.00    -0.206 F 
ATOM     70  C   UNL A   1      44.370  26.642  37.373  1.00  0.00     0.059 A 
ATOM     71  C   UNL A   1      46.069  27.908  36.188  1.00  0.00     0.059 A 
ATOM     72  F   UNL A   1      45.432  29.625  34.725  1.00  0.00    -0.206 F 
ATOM     73  C   UNL A   1      45.710  26.915  37.098  1.00  0.00     0.060 A 
BRANCH  73  74
ATOM     74  S   UNL A   1      46.977  25.951  37.949  1.00  0.00     0.124 S 
ATOM     75  O   UNL A   1      47.332  24.970  36.927  1.00  0.00    -0.237 OA
ATOM     76  O   UNL A   1      47.993  26.959  38.239  1.00  0.00    -0.237 OA
ATOM     77  O   UNL A   1      46.277  25.418  39.113  1.00  0.00    -0.744 OA
ENDBRANCH  73  74
ENDBRANCH  52  66
BRANCH  53  78
ATOM     78  C   UNL A   1      36.460  33.290  30.925  1.00  0.00     0.058 A 
ATOM     79  C   UNL A   1      35.130  33.171  31.355  1.00  0.00     0.135 A 
ATOM     80  C   UNL A   1      36.714  34.112  29.816  1.00  0.00     0.135 A 
ATOM     81  F   UNL A   1      34.834  32.393  32.407  1.00  0.00    -0.206 F 
ATOM     82  C   UNL A   1      34.090  33.824  30.702  1.00  0.00     0.059 A 
ATOM     83  C   UNL A   1      35.694  34.799  29.163  1.00  0.00     0.059 A 
ATOM     84  F   UNL A   1      37.971  34.276  29.373  1.00  0.00    -0.206 F 
ATOM     85  C   UNL A   1      34.383  34.639  29.608  1.00  0.00     0.060 A 
BRANCH  85  86
ATOM     86  S   UNL A   1      33.030  35.518  28.797  1.00  0.00     0.124 S 
ATOM     87  O   UNL A   1      32.272  36.011  29.941  1.00  0.00    -0.237 OA
ATOM     88  O   UNL A   1      33.743  36.526  28.019  1.00  0.00    -0.237 OA
ATOM     89  O   UNL A   1      32.377  34.476  28.009  1.00  0.00    -0.744 OA
ENDBRANCH  85  86
ENDBRANCH  53  78
BRANCH  65  90
ATOM     90  C   UNL A   1      39.739  34.319  37.002  1.00  0.00     0.058 A 
ATOM     91  C   UNL A   1      39.006  34.112  38.181  1.00  0.00     0.135 A 
ATOM     92  C   UNL A   1      40.415  35.541  36.855  1.00  0.00     0.135 A 
ATOM     93  F   UNL A   1      38.336  32.964  38.368  1.00  0.00    -0.206 F 
ATOM     94  C   UNL A   1      38.929  35.089  39.168  1.00  0.00     0.059 A 
ATOM     95  C   UNL A   1      40.378  36.520  37.842  1.00  0.00     0.059 A 
ATOM     96  F   UNL A   1      41.140  35.785  35.751  1.00  0.00    -0.206 F 
ATOM     97  C   UNL A   1      39.622  36.289  38.991  1.00  0.00     0.060 A 
BRANCH  97  98
ATOM     98  S   UNL A   1      39.544  37.532  40.297  1.00  0.00     0.124 S 
ATOM     99  O   UNL A   1      38.749  38.577  39.661  1.00  0.00    -0.237 OA
ATOM    100  O   UNL A   1      38.888  36.806  41.379  1.00  0.00    -0.237 OA
ATOM    101  O   UNL A   1      40.946  37.865  40.534  1.00  0.00    -0.744 OA
ENDBRANCH  97  98
ENDBRANCH  65  90
ENDBRANCH  39  40
ENDBRANCH  31  34
ENDBRANCH  29  30
ENDBRANCH  28  29
ENDBRANCH   1  28
TORSDOF 18
ENDMDL
MODEL 2
REMARK VINA RESULT:     -12.5      6.529     11.947
REMARK SMILES CCNC(=O)c1ccc(NC(=O)CC2(C(=O)NCCCNC(=O)c3ccc(-c4c5nc(c(-c6c(F)cc(S(=O)(=O)[O-])cc6F)c6ccc([nH]6)c(-c6c(F)cc(S(=O)(=O)[O-])cc6F)c6nc(c(-c7c(F)cc(S(=O)(=O)[O-])cc7F)c7ccc4[nH]7)C=C6)C=C5)cc3)CCCC2)cc1
REMARK SMILES IDX 18 1 17 2 15 3 16 4 14 6 90 7 93 8 91 9 92 10 13 11 11 12
REMARK SMILES IDX 10 13 12 15 9 16 6 17 7 18 95 19 8 20 94 21 4 22 3 23 5 25
REMARK SMILES IDX 2 26 1 27 19 28 20 29 21 30 22 31 23 33 24 34 25 35 89 36
REMARK SMILES IDX 26 37 88 38 27 39 28 40 29 41 82 42 30 43 87 44 81 45 83 46
REMARK SMILES IDX 31 47 86 48 80 49 79 50 32 52 66 53 45 54 65 55 46 56 49 57
REMARK SMILES IDX 64 58 84 59 47 60 48 61 63 63 85 64 50 65 33 66 34 67 43 68
REMARK SMILES IDX 35 69 36 70 42 71 44 72 37 73 38 74 39 75 40 76 41 77 67 78
REMARK SMILES IDX 68 79 77 80 69 81 70 82 76 83 78 84 71 85 72 86 73 87 74 88
REMARK SMILES IDX 75 89 51 90 52 91 61 92 53 93 54 94 60 95 62 96 55 97 56 98
REMARK SMILES IDX 57 99 58 100 59 101
REMARK H PARENT 17 5 10 14 3 24 21 32 83 51 49 62
REMARK Flexibility Score: inf
ROOT
ATOM      1  C   UNL A   1      33.541  29.707  26.389  1.00  0.00     0.117 C 
ENDROOT
BRANCH   1   2
ATOM      2  N   UNL A   1      32.300  29.268  26.986  1.00  0.00    -0.356 N 
ATOM      3  C   UNL A   1      31.700  28.053  27.005  1.00  0.00     0.226 C 
ATOM      4  O   UNL A   1      31.073  27.808  28.046  1.00  0.00    -0.274 OA
ATOM      5  H   UNL A   1      31.805  29.974  27.461  1.00  0.00     0.163 HD
BRANCH   3   6
ATOM      6  C   UNL A   1      31.776  26.985  25.876  1.00  0.00     0.058 C 
ATOM      7  C   UNL A   1      32.847  25.938  26.283  1.00  0.00     0.017 C 
ATOM      8  C   UNL A   1      32.239  27.452  24.484  1.00  0.00     0.017 C 
ATOM      9  C   UNL A   1      34.129  26.300  25.552  1.00  0.00     0.001 C 
ATOM     10  C   UNL A   1      33.692  27.014  24.283  1.00  0.00     0.001 C 
BRANCH   6  11
ATOM     11  C   UNL A   1      30.362  26.282  25.834  1.00  0.00     0.117 C 
BRANCH  11  12
ATOM     12  C   UNL A   1      29.849  25.775  24.491  1.00  0.00     0.225 C 
ATOM     13  N   UNL A   1      30.233  24.594  23.932  1.00  0.00    -0.326 N 
ATOM     14  H   UNL A   1      29.677  24.320  23.167  1.00  0.00     0.169 HD
ATOM     15  O   UNL A   1      28.977  26.421  23.896  1.00  0.00    -0.275 OA
BRANCH  13  16
ATOM     16  C   UNL A   1      31.262  23.695  24.230  1.00  0.00     0.041 A 
ATOM     17  C   UNL A   1      33.313  21.986  25.051  1.00  0.00     0.039 A 
ATOM     18  C   UNL A   1      33.457  22.734  23.886  1.00  0.00     0.016 A 
ATOM     19  C   UNL A   1      32.124  22.035  25.781  1.00  0.00     0.016 A 
ATOM     20  C   UNL A   1      32.415  23.562  23.463  1.00  0.00     0.027 A 
ATOM     21  C   UNL A   1      31.092  22.876  25.355  1.00  0.00     0.027 A 
BRANCH  17  22
ATOM     22  C   UNL A   1      34.458  21.205  25.538  1.00  0.00     0.251 C 
ATOM     23  N   UNL A   1      34.533  19.869  25.265  1.00  0.00    -0.352 N 
ATOM     24  H   UNL A   1      35.247  19.377  25.731  1.00  0.00     0.163 HD
ATOM     25  O   UNL A   1      35.340  21.776  26.179  1.00  0.00    -0.269 OA
BRANCH  23  26
ATOM     26  C   UNL A   1      33.696  19.081  24.380  1.00  0.00     0.112 C 
ATOM     27  C   UNL A   1      34.289  17.700  24.174  1.00  0.00     0.027 C 
ENDBRANCH  23  26
ENDBRANCH  17  22
ENDBRANCH  13  16
ENDBRANCH  11  12
ENDBRANCH   6  11
ENDBRANCH   3   6
ENDBRANCH   1   2
BRANCH   1  28
ATOM     28  C   UNL A   1      34.771  29.458  27.243  1.00  0.00     0.042 C 
BRANCH  28  29
ATOM     29  C   UNL A   1      35.446  30.734  27.721  1.00  0.00     0.118 C 
BRANCH  29  30
ATOM     30  N   UNL A   1      35.391  30.892  29.171  1.00  0.00    -0.352 N 
ATOM     31  C   UNL A   1      36.310  30.607  30.149  1.00  0.00     0.251 C 
ATOM     32  H   UNL A   1      34.546  31.271  29.506  1.00  0.00     0.163 HD
ATOM     33  O   UNL A   1      35.961  30.623  31.326  1.00  0.00    -0.269 OA
BRANCH  31  34
ATOM     34  C   UNL A   1      37.704  30.269  29.795  1.00  0.00     0.039 A 
ATOM     35  C   UNL A   1      38.624  30.013  30.818  1.00  0.00     0.014 A 
ATOM     36  C   UNL A   1      38.120  30.240  28.464  1.00  0.00     0.014 A 
ATOM     37  C   UNL A   1      39.937  29.660  30.497  1.00  0.00     0.010 A 
ATOM     38  C   UNL A   1      39.392  29.783  28.143  1.00  0.00     0.010 A 
ATOM     39  C   UNL A   1      40.320  29.503  29.156  1.00  0.00    -0.014 A 
BRANCH  39  40
ATOM     40  C   UNL A   1      41.692  29.076  28.780  1.00  0.00     0.031 A 
ATOM     41  C   UNL A   1      42.806  30.089  28.739  1.00  0.00     0.074 A 
ATOM     42  C   UNL A   1      41.916  27.801  28.403  1.00  0.00     0.049 A 
ATOM     43  N   UNL A   1      44.040  29.944  28.333  1.00  0.00    -0.248 NA
ATOM     44  C   UNL A   1      42.478  31.455  29.178  1.00  0.00     0.031 C 
ATOM     45  C   UNL A   1      40.906  26.741  28.354  1.00  0.00     0.029 A 
ATOM     46  N   UNL A   1      43.063  27.183  27.973  1.00  0.00    -0.354 N 
ATOM     47  C   UNL A   1      44.627  31.200  28.447  1.00  0.00     0.074 A 
ATOM     48  C   UNL A   1      43.596  32.108  28.900  1.00  0.00     0.031 C 
ATOM     49  C   UNL A   1      41.483  25.600  27.947  1.00  0.00     0.029 A 
ATOM     50  C   UNL A   1      42.891  25.855  27.658  1.00  0.00     0.049 A 
ATOM     51  H   UNL A   1      43.929  27.646  27.898  1.00  0.00     0.167 HD
ATOM     52  C   UNL A   1      45.913  31.558  28.223  1.00  0.00     0.037 A 
ATOM     53  C   UNL A   1      43.766  24.948  27.181  1.00  0.00     0.037 A 
ATOM     54  C   UNL A   1      46.938  30.638  27.804  1.00  0.00     0.049 A 
ATOM     55  C   UNL A   1      45.190  25.370  26.939  1.00  0.00     0.074 A 
ATOM     56  C   UNL A   1      48.284  30.883  27.606  1.00  0.00     0.029 A 
ATOM     57  N   UNL A   1      46.729  29.296  27.523  1.00  0.00    -0.354 N 
ATOM     58  N   UNL A   1      45.741  26.549  27.107  1.00  0.00    -0.248 NA
ATOM     59  C   UNL A   1      46.114  24.339  26.448  1.00  0.00     0.031 C 
ATOM     60  C   UNL A   1      48.880  29.701  27.156  1.00  0.00     0.029 A 
ATOM     61  C   UNL A   1      47.918  28.704  27.130  1.00  0.00     0.049 A 
ATOM     62  H   UNL A   1      45.863  28.832  27.592  1.00  0.00     0.167 HD
ATOM     63  C   UNL A   1      47.082  26.394  26.773  1.00  0.00     0.074 A 
ATOM     64  C   UNL A   1      47.260  25.004  26.403  1.00  0.00     0.031 C 
ATOM     65  C   UNL A   1      48.077  27.315  26.774  1.00  0.00     0.037 A 
BRANCH  52  66
ATOM     66  C   UNL A   1      46.282  33.003  28.430  1.00  0.00     0.058 A 
ATOM     67  C   UNL A   1      46.186  33.947  27.395  1.00  0.00     0.135 A 
ATOM     68  C   UNL A   1      46.712  33.456  29.688  1.00  0.00     0.135 A 
ATOM     69  F   UNL A   1      45.796  33.569  26.168  1.00  0.00    -0.206 F 
ATOM     70  C   UNL A   1      46.536  35.279  27.589  1.00  0.00     0.059 A 
ATOM     71  C   UNL A   1      47.036  34.792  29.914  1.00  0.00     0.059 A 
ATOM     72  F   UNL A   1      46.824  32.598  30.715  1.00  0.00    -0.206 F 
ATOM     73  C   UNL A   1      46.959  35.692  28.853  1.00  0.00     0.060 A 
BRANCH  73  74
ATOM     74  S   UNL A   1      47.406  37.425  29.088  1.00  0.00     0.124 S 
ATOM     75  O   UNL A   1      48.076  37.380  30.384  1.00  0.00    -0.237 OA
ATOM     76  O   UNL A   1      48.267  37.684  27.938  1.00  0.00    -0.237 OA
ATOM     77  O   UNL A   1      46.119  38.114  29.072  1.00  0.00    -0.744 OA
ENDBRANCH  73  74
ENDBRANCH  52  66
BRANCH  53  78
ATOM     78  C   UNL A   1      43.324  23.551  26.923  1.00  0.00     0.058 A 
ATOM     79  C   UNL A   1      43.095  22.661  27.983  1.00  0.00     0.135 A 
ATOM     80  C   UNL A   1      43.108  23.081  25.619  1.00  0.00     0.135 A 
ATOM     81  F   UNL A   1      43.293  23.060  29.249  1.00  0.00    -0.206 F 
ATOM     82  C   UNL A   1      42.685  21.350  27.759  1.00  0.00     0.059 A 
ATOM     83  C   UNL A   1      42.671  21.783  25.371  1.00  0.00     0.059 A 
ATOM     84  F   UNL A   1      43.295  23.897  24.569  1.00  0.00    -0.206 F 
ATOM     85  C   UNL A   1      42.473  20.922  26.448  1.00  0.00     0.060 A 
BRANCH  85  86
ATOM     86  S   UNL A   1      41.898  19.232  26.173  1.00  0.00     0.124 S 
ATOM     87  O   UNL A   1      42.679  18.842  25.005  1.00  0.00    -0.237 OA
ATOM     88  O   UNL A   1      42.254  18.579  27.428  1.00  0.00    -0.237 OA
ATOM     89  O   UNL A   1      40.464  19.399  25.947  1.00  0.00    -0.744 OA
ENDBRANCH  85  86
ENDBRANCH  53  78
BRANCH  65  90
ATOM     90  C   UNL A   1      49.457  26.847  26.403  1.00  0.00     0.058 A 
ATOM     91  C   UNL A   1      50.272  26.152  27.309  1.00  0.00     0.135 A 
ATOM     92  C   UNL A   1      49.944  27.047  25.101  1.00  0.00     0.135 A 
ATOM     93  F   UNL A   1      49.855  25.940  28.568  1.00  0.00    -0.206 F 
ATOM     94  C   UNL A   1      51.533  25.691  26.945  1.00  0.00     0.059 A 
ATOM     95  C   UNL A   1      51.189  26.569  24.706  1.00  0.00     0.059 A 
ATOM     96  F   UNL A   1      49.200  27.696  24.191  1.00  0.00    -0.206 F 
ATOM     97  C   UNL A   1      51.981  25.901  25.639  1.00  0.00     0.060 A 
BRANCH  97  98
ATOM     98  S   UNL A   1      53.604  25.265  25.170  1.00  0.00     0.124 S 
ATOM     99  O   UNL A   1      53.646  25.589  23.748  1.00  0.00    -0.237 OA
ATOM    100  O   UNL A   1      54.500  26.037  26.024  1.00  0.00    -0.237 OA
ATOM    101  O   UNL A   1      53.516  23.842  25.488  1.00  0.00    -0.744 OA
ENDBRANCH  97  98
ENDBRANCH  65  90
ENDBRANCH  39  40
ENDBRANCH  31  34
ENDBRANCH  29  30
ENDBRANCH  28  29
ENDBRANCH   1  28
TORSDOF 18
ENDMDL
MODEL 3
REMARK VINA RESULT:     -12.5      6.651     11.533
REMARK SMILES CCNC(=O)c1ccc(NC(=O)CC2(C(=O)NCCCNC(=O)c3ccc(-c4c5nc(c(-c6c(F)cc(S(=O)(=O)[O-])cc6F)c6ccc([nH]6)c(-c6c(F)cc(S(=O)(=O)[O-])cc6F)c6nc(c(-c7c(F)cc(S(=O)(=O)[O-])cc7F)c7ccc4[nH]7)C=C6)C=C5)cc3)CCCC2)cc1
REMARK SMILES IDX 18 1 17 2 15 3 16 4 14 6 90 7 93 8 91 9 92 10 13 11 11 12
REMARK SMILES IDX 10 13 12 15 9 16 6 17 7 18 95 19 8 20 94 21 4 22 3 23 5 25
REMARK SMILES IDX 2 26 1 27 19 28 20 29 21 30 22 31 23 33 24 34 25 35 89 36
REMARK SMILES IDX 26 37 88 38 27 39 28 40 29 41 82 42 30 43 87 44 81 45 83 46
REMARK SMILES IDX 31 47 86 48 80 49 79 50 32 52 66 53 45 54 65 55 46 56 49 57
REMARK SMILES IDX 64 58 84 59 47 60 48 61 63 63 85 64 50 65 33 66 34 67 43 68
REMARK SMILES IDX 35 69 36 70 42 71 44 72 37 73 38 74 39 75 40 76 41 77 67 78
REMARK SMILES IDX 68 79 77 80 69 81 70 82 76 83 78 84 71 85 72 86 73 87 74 88
REMARK SMILES IDX 75 89 51 90 52 91 61 92 53 93 54 94 60 95 62 96 55 97 56 98
REMARK SMILES IDX 57 99 58 100 59 101
REMARK H PARENT 17 5 10 14 3 24 21 32 83 51 49 62
REMARK Flexibility Score: inf
ROOT
ATOM      1  C   UNL A   1      33.667  29.620  26.437  1.00  0.00     0.117 C 
ENDROOT
BRANCH   1   2
ATOM      2  N   UNL A   1      32.400  29.218  27.002  1.00  0.00    -0.356 N 
ATOM      3  C   UNL A   1      31.747  28.030  26.974  1.00  0.00     0.226 C 
ATOM      4  O   UNL A   1      31.095  27.779  27.997  1.00  0.00    -0.274 OA
ATOM      5  H   UNL A   1      31.929  29.929  27.495  1.00  0.00     0.163 HD
BRANCH   3   6
ATOM      6  C   UNL A   1      31.793  26.998  25.811  1.00  0.00     0.058 C 
ATOM      7  C   UNL A   1      32.876  25.941  26.155  1.00  0.00     0.017 C 
ATOM      8  C   UNL A   1      32.216  27.508  24.421  1.00  0.00     0.017 C 
ATOM      9  C   UNL A   1      34.136  26.328  25.399  1.00  0.00     0.001 C 
ATOM     10  C   UNL A   1      33.663  27.079  24.166  1.00  0.00     0.001 C 
BRANCH   6  11
ATOM     11  C   UNL A   1      30.379  26.293  25.786  1.00  0.00     0.117 C 
BRANCH  11  12
ATOM     12  C   UNL A   1      29.794  25.896  24.436  1.00  0.00     0.225 C 
ATOM     13  N   UNL A   1      30.113  24.744  23.783  1.00  0.00    -0.326 N 
ATOM     14  H   UNL A   1      29.517  24.542  23.026  1.00  0.00     0.169 HD
ATOM     15  O   UNL A   1      28.922  26.610  23.923  1.00  0.00    -0.275 OA
BRANCH  13  16
ATOM     16  C   UNL A   1      31.120  23.793  23.976  1.00  0.00     0.041 A 
ATOM     17  C   UNL A   1      33.143  21.968  24.591  1.00  0.00     0.039 A 
ATOM     18  C   UNL A   1      33.257  22.778  23.465  1.00  0.00     0.016 A 
ATOM     19  C   UNL A   1      31.994  22.016  25.383  1.00  0.00     0.016 A 
ATOM     20  C   UNL A   1      32.228  23.666  23.144  1.00  0.00     0.027 A 
ATOM     21  C   UNL A   1      30.975  22.916  25.059  1.00  0.00     0.027 A 
BRANCH  17  22
ATOM     22  C   UNL A   1      34.280  21.120  24.972  1.00  0.00     0.251 C 
ATOM     23  N   UNL A   1      35.323  21.658  25.671  1.00  0.00    -0.352 N 
ATOM     24  H   UNL A   1      36.111  21.078  25.777  1.00  0.00     0.163 HD
ATOM     25  O   UNL A   1      34.266  19.929  24.662  1.00  0.00    -0.269 OA
BRANCH  23  26
ATOM     26  C   UNL A   1      35.421  22.973  26.274  1.00  0.00     0.112 C 
ATOM     27  C   UNL A   1      36.569  23.756  25.665  1.00  0.00     0.027 C 
ENDBRANCH  23  26
ENDBRANCH  17  22
ENDBRANCH  13  16
ENDBRANCH  11  12
ENDBRANCH   6  11
ENDBRANCH   3   6
ENDBRANCH   1   2
BRANCH   1  28
ATOM     28  C   UNL A   1      34.876  29.245  27.274  1.00  0.00     0.042 C 
BRANCH  28  29
ATOM     29  C   UNL A   1      35.531  30.433  27.962  1.00  0.00     0.118 C 
BRANCH  29  30
ATOM     30  N   UNL A   1      35.525  30.317  29.417  1.00  0.00    -0.352 N 
ATOM     31  C   UNL A   1      36.491  29.896  30.296  1.00  0.00     0.251 C 
ATOM     32  H   UNL A   1      34.680  30.588  29.843  1.00  0.00     0.163 HD
ATOM     33  O   UNL A   1      36.187  29.677  31.465  1.00  0.00    -0.269 OA
BRANCH  31  34
ATOM     34  C   UNL A   1      37.883  29.693  29.843  1.00  0.00     0.039 A 
ATOM     35  C   UNL A   1      38.865  29.363  30.784  1.00  0.00     0.014 A 
ATOM     36  C   UNL A   1      38.233  29.861  28.503  1.00  0.00     0.014 A 
ATOM     37  C   UNL A   1      40.178  29.136  30.365  1.00  0.00     0.010 A 
ATOM     38  C   UNL A   1      39.512  29.528  28.073  1.00  0.00     0.010 A 
ATOM     39  C   UNL A   1      40.503  29.177  29.000  1.00  0.00    -0.014 A 
BRANCH  39  40
ATOM     40  C   UNL A   1      41.876  28.887  28.514  1.00  0.00     0.031 A 
ATOM     41  C   UNL A   1      42.236  27.490  28.082  1.00  0.00     0.074 A 
ATOM     42  C   UNL A   1      42.811  29.856  28.535  1.00  0.00     0.049 A 
ATOM     43  N   UNL A   1      43.400  27.007  27.732  1.00  0.00    -0.248 NA
ATOM     44  C   UNL A   1      41.151  26.494  28.078  1.00  0.00     0.031 C 
ATOM     45  C   UNL A   1      42.594  31.236  28.979  1.00  0.00     0.029 A 
ATOM     46  N   UNL A   1      44.139  29.827  28.188  1.00  0.00    -0.354 N 
ATOM     47  C   UNL A   1      43.191  25.654  27.488  1.00  0.00     0.074 A 
ATOM     48  C   UNL A   1      41.805  25.378  27.792  1.00  0.00     0.031 C 
ATOM     49  C   UNL A   1      43.738  31.926  28.851  1.00  0.00     0.029 A 
ATOM     50  C   UNL A   1      44.783  31.030  28.363  1.00  0.00     0.049 A 
ATOM     51  H   UNL A   1      44.589  29.022  27.844  1.00  0.00     0.167 HD
ATOM     52  C   UNL A   1      44.068  24.731  27.027  1.00  0.00     0.037 A 
ATOM     53  C   UNL A   1      46.071  31.370  28.165  1.00  0.00     0.037 A 
ATOM     54  C   UNL A   1      45.438  25.024  26.697  1.00  0.00     0.049 A 
ATOM     55  C   UNL A   1      47.027  30.327  27.653  1.00  0.00     0.074 A 
ATOM     56  C   UNL A   1      46.395  24.178  26.166  1.00  0.00     0.029 A 
ATOM     57  N   UNL A   1      46.045  26.261  26.863  1.00  0.00    -0.354 N 
ATOM     58  N   UNL A   1      46.800  29.065  27.373  1.00  0.00    -0.248 NA
ATOM     59  C   UNL A   1      48.415  30.753  27.422  1.00  0.00     0.031 C 
ATOM     60  C   UNL A   1      47.594  24.890  26.059  1.00  0.00     0.029 A 
ATOM     61  C   UNL A   1      47.370  26.195  26.467  1.00  0.00     0.049 A 
ATOM     62  H   UNL A   1      45.599  27.067  27.211  1.00  0.00     0.167 HD
ATOM     63  C   UNL A   1      48.005  28.555  26.904  1.00  0.00     0.074 A 
ATOM     64  C   UNL A   1      48.956  29.648  26.929  1.00  0.00     0.031 C 
ATOM     65  C   UNL A   1      48.300  27.298  26.489  1.00  0.00     0.037 A 
BRANCH  52  66
ATOM     66  C   UNL A   1      43.570  23.321  26.850  1.00  0.00     0.058 A 
ATOM     67  C   UNL A   1      43.341  22.473  27.946  1.00  0.00     0.135 A 
ATOM     68  C   UNL A   1      43.292  22.819  25.568  1.00  0.00     0.135 A 
ATOM     69  F   UNL A   1      43.605  22.894  29.193  1.00  0.00    -0.206 F 
ATOM     70  C   UNL A   1      42.889  21.169  27.777  1.00  0.00     0.059 A 
ATOM     71  C   UNL A   1      42.807  21.527  25.377  1.00  0.00     0.059 A 
ATOM     72  F   UNL A   1      43.492  23.584  24.483  1.00  0.00    -0.206 F 
ATOM     73  C   UNL A   1      42.623  20.705  26.488  1.00  0.00     0.060 A 
BRANCH  73  74
ATOM     74  S   UNL A   1      42.033  19.012  26.286  1.00  0.00     0.124 S 
ATOM     75  O   UNL A   1      42.111  18.511  27.656  1.00  0.00    -0.237 OA
ATOM     76  O   UNL A   1      40.687  19.211  25.760  1.00  0.00    -0.237 OA
ATOM     77  O   UNL A   1      42.989  18.427  25.351  1.00  0.00    -0.744 OA
ENDBRANCH  73  74
ENDBRANCH  52  66
BRANCH  53  78
ATOM     78  C   UNL A   1      46.523  32.762  28.430  1.00  0.00     0.058 A 
ATOM     79  C   UNL A   1      47.011  33.134  29.692  1.00  0.00     0.135 A 
ATOM     80  C   UNL A   1      46.493  33.744  27.428  1.00  0.00     0.135 A 
ATOM     81  F   UNL A   1      47.055  32.233  30.685  1.00  0.00    -0.206 F 
ATOM     82  C   UNL A   1      47.434  34.433  29.957  1.00  0.00     0.059 A 
ATOM     83  C   UNL A   1      46.938  35.043  27.661  1.00  0.00     0.059 A 
ATOM     84  F   UNL A   1      46.053  33.437  26.197  1.00  0.00    -0.206 F 
ATOM     85  C   UNL A   1      47.396  35.379  28.933  1.00  0.00     0.060 A 
BRANCH  85  86
ATOM     86  S   UNL A   1      47.991  37.050  29.277  1.00  0.00     0.124 S 
ATOM     87  O   UNL A   1      49.203  37.103  28.467  1.00  0.00    -0.237 OA
ATOM     88  O   UNL A   1      46.877  37.872  28.816  1.00  0.00    -0.237 OA
ATOM     89  O   UNL A   1      48.197  37.042  30.723  1.00  0.00    -0.744 OA
ENDBRANCH  85  86
ENDBRANCH  53  78
BRANCH  65  90
ATOM     90  C   UNL A   1      49.694  27.041  25.989  1.00  0.00     0.058 A 
ATOM     91  C   UNL A   1      50.716  26.595  26.841  1.00  0.00     0.135 A 
ATOM     92  C   UNL A   1      49.994  27.188  24.625  1.00  0.00     0.135 A 
ATOM     93  F   UNL A   1      50.484  26.445  28.154  1.00  0.00    -0.206 F 
ATOM     94  C   UNL A   1      51.994  26.326  26.362  1.00  0.00     0.059 A 
ATOM     95  C   UNL A   1      51.256  26.895  24.118  1.00  0.00     0.059 A 
ATOM     96  F   UNL A   1      49.048  27.600  23.764  1.00  0.00    -0.206 F 
ATOM     97  C   UNL A   1      52.253  26.475  24.998  1.00  0.00     0.060 A 
BRANCH  97  98
ATOM     98  S   UNL A   1      53.905  26.086  24.384  1.00  0.00     0.124 S 
ATOM     99  O   UNL A   1      53.741  26.290  22.949  1.00  0.00    -0.237 OA
ATOM    100  O   UNL A   1      54.734  27.069  25.074  1.00  0.00    -0.237 OA
ATOM    101  O   UNL A   1      54.106  24.701  24.803  1.00  0.00    -0.744 OA
ENDBRANCH  97  98
ENDBRANCH  65  90
ENDBRANCH  39  40
ENDBRANCH  31  34
ENDBRANCH  29  30
ENDBRANCH  28  29
ENDBRANCH   1  28
TORSDOF 18
ENDMDL
