MODEL 1
REMARK VINA RESULT:     -14.2      0.000      0.000
REMARK SMILES COc1ccc(-c2cc(Cl)cc3c2O[C@@H](C(F)(F)F)C(C(=O)NCCCNC(=O)c2ccc(-c4c5nc(c(-c6c(F)cc(S(=O)(=O)[O-])cc6F)c6ccc([nH]6)c(-c6c(F)cc(S(=O)(=O)[O-])cc6F)c6nc(c(-c7c(F)cc(S(=O)(=O)[O-])cc7F)c7ccc4[nH]7)C=C6)C=C5)cc2)=C3)cc1C
REMARK SMILES IDX 25 1 24 2 23 3 21 4 22 5 20 7 7 8 8 9 13 10 9 11 12 12 14 13
REMARK SMILES IDX 10 14 11 15 96 16 15 17 6 18 3 19 4 20 98 21 5 22 97 23
REMARK SMILES IDX 99 24 2 25 1 26 16 27 17 28 18 29 19 30 26 31 27 32 28 33
REMARK SMILES IDX 29 35 30 36 31 37 95 38 32 39 94 40 33 41 34 42 35 43 88 44
REMARK SMILES IDX 36 45 93 46 87 47 89 48 37 49 92 50 86 51 85 52 38 54 72 55
REMARK SMILES IDX 51 56 71 57 52 58 55 59 70 60 90 61 53 62 54 63 69 65 91 66
REMARK SMILES IDX 56 67 39 68 40 69 49 70 41 71 42 72 48 73 50 74 43 75 44 76
REMARK SMILES IDX 45 77 46 78 47 79 73 80 74 81 83 82 75 83 76 84 82 85 84 86
REMARK SMILES IDX 77 87 78 88 79 89 80 90 81 91 57 92 58 93 67 94 59 95 60 96
REMARK SMILES IDX 66 97 68 98 61 99 62 100 63 101 64 102 65 103
REMARK H PARENT 23 6 27 34 89 53 55 64
REMARK Flexibility Score: inf
ROOT
ATOM      1  C   UNL A   1      32.432  29.409  25.055  1.00  0.00     0.042 C 
ENDROOT
BRANCH   1   2
ATOM      2  C   UNL A   1      33.127  28.841  23.819  1.00  0.00     0.118 C 
BRANCH   2   3
ATOM      3  N   UNL A   1      33.709  27.518  24.043  1.00  0.00    -0.352 N 
ATOM      4  C   UNL A   1      33.371  26.277  23.590  1.00  0.00     0.251 C 
ATOM      5  O   UNL A   1      34.303  25.515  23.316  1.00  0.00    -0.270 OA
ATOM      6  H   UNL A   1      34.496  27.525  24.633  1.00  0.00     0.163 HD
BRANCH   4   7
ATOM      7  C   UNL A   1      31.930  25.756  23.545  1.00  0.00     0.067 C 
ATOM      8  C   UNL A   1      33.554  22.269  24.838  1.00  0.00     0.026 A 
ATOM      9  C   UNL A   1      33.182  21.046  24.248  1.00  0.00     0.033 A 
ATOM     10  C   UNL A   1      32.793  23.379  24.476  1.00  0.00     0.135 A 
ATOM     11  C   UNL A   1      32.338  21.022  23.134  1.00  0.00     0.042 A 
ATOM     12  C   UNL A   1      32.172  23.414  23.196  1.00  0.00     0.019 A 
ATOM     13  O   UNL A   1      32.517  24.393  25.417  1.00  0.00    -0.475 OA
ATOM     14  Cl  UNL A   1      31.954  19.515  22.395  1.00  0.00    -0.084 Cl
ATOM     15  C   UNL A   1      31.911  22.213  22.545  1.00  0.00     0.032 A 
ATOM     16  C   UNL A   1      31.804  24.759  22.626  1.00  0.00     0.025 C 
ATOM     17  C   UNL A   1      31.434  25.211  24.877  1.00  0.00     0.314 C 
BRANCH   8  18
ATOM     18  C   UNL A   1      35.007  22.410  25.119  1.00  0.00    -0.014 A 
ATOM     19  C   UNL A   1      37.734  22.251  25.865  1.00  0.00     0.121 A 
ATOM     20  C   UNL A   1      36.952  23.375  26.183  1.00  0.00     0.047 A 
ATOM     21  C   UNL A   1      37.173  21.191  25.152  1.00  0.00    -0.008 A 
ATOM     22  C   UNL A   1      35.597  23.459  25.816  1.00  0.00     0.013 A 
ATOM     23  C   UNL A   1      35.834  21.315  24.751  1.00  0.00     0.016 A 
ATOM     24  C   UNL A   1      37.899  19.917  24.837  1.00  0.00     0.048 C 
BRANCH  19  25
ATOM     25  O   UNL A   1      38.987  22.220  26.417  1.00  0.00    -0.496 OA
ATOM     26  C   UNL A   1      39.604  23.500  26.548  1.00  0.00     0.278 C 
ENDBRANCH  19  25
ENDBRANCH   8  18
BRANCH  17  27
ATOM     27  C   UNL A   1      30.584  26.141  25.748  1.00  0.00     0.429 C 
ATOM     28  F   UNL A   1      30.118  27.176  24.984  1.00  0.00    -0.167 F 
ATOM     29  F   UNL A   1      29.496  25.543  26.267  1.00  0.00    -0.167 F 
ATOM     30  F   UNL A   1      31.277  26.737  26.739  1.00  0.00    -0.167 F 
ENDBRANCH  17  27
ENDBRANCH   4   7
ENDBRANCH   2   3
ENDBRANCH   1   2
BRANCH   1  31
ATOM     31  C   UNL A   1      33.295  29.465  26.310  1.00  0.00     0.118 C 
BRANCH  31  32
ATOM     32  N   UNL A   1      33.615  30.826  26.739  1.00  0.00    -0.352 N 
ATOM     33  C   UNL A   1      34.630  31.229  27.600  1.00  0.00     0.251 C 
ATOM     34  H   UNL A   1      33.044  31.541  26.377  1.00  0.00     0.163 HD
ATOM     35  O   UNL A   1      34.756  32.374  27.981  1.00  0.00    -0.269 OA
BRANCH  33  36
ATOM     36  C   UNL A   1      35.597  30.185  27.996  1.00  0.00     0.039 A 
ATOM     37  C   UNL A   1      35.702  29.891  29.360  1.00  0.00     0.014 A 
ATOM     38  C   UNL A   1      36.592  29.828  27.093  1.00  0.00     0.014 A 
ATOM     39  C   UNL A   1      36.916  29.434  29.862  1.00  0.00     0.010 A 
ATOM     40  C   UNL A   1      37.817  29.450  27.604  1.00  0.00     0.010 A 
ATOM     41  C   UNL A   1      37.999  29.320  28.993  1.00  0.00    -0.014 A 
BRANCH  41  42
ATOM     42  C   UNL A   1      39.388  29.211  29.432  1.00  0.00     0.031 A 
ATOM     43  C   UNL A   1      40.180  28.005  29.102  1.00  0.00     0.074 A 
ATOM     44  C   UNL A   1      39.999  30.291  29.968  1.00  0.00     0.049 A 
ATOM     45  N   UNL A   1      41.362  27.754  29.556  1.00  0.00    -0.248 NA
ATOM     46  C   UNL A   1      39.670  26.955  28.231  1.00  0.00     0.031 C 
ATOM     47  C   UNL A   1      41.435  30.539  30.061  1.00  0.00     0.029 A 
ATOM     48  N   UNL A   1      39.424  31.313  30.730  1.00  0.00    -0.354 N 
ATOM     49  C   UNL A   1      41.866  26.676  28.865  1.00  0.00     0.074 A 
ATOM     50  C   UNL A   1      40.759  26.199  28.067  1.00  0.00     0.031 C 
ATOM     51  C   UNL A   1      41.658  31.453  31.015  1.00  0.00     0.029 A 
ATOM     52  C   UNL A   1      40.394  31.710  31.677  1.00  0.00     0.049 A 
ATOM     53  H   UNL A   1      38.518  31.684  30.627  1.00  0.00     0.167 HD
ATOM     54  C   UNL A   1      43.192  26.372  28.976  1.00  0.00     0.037 A 
ATOM     55  C   UNL A   1      40.169  31.535  33.014  1.00  0.00     0.037 A 
ATOM     56  C   UNL A   1      43.840  27.190  30.000  1.00  0.00     0.049 A 
ATOM     57  C   UNL A   1      41.085  30.527  33.683  1.00  0.00     0.074 A 
ATOM     58  C   UNL A   1      44.587  28.357  29.995  1.00  0.00     0.029 A 
ATOM     59  N   UNL A   1      43.490  26.971  31.319  1.00  0.00    -0.354 N 
ATOM     60  N   UNL A   1      42.056  29.895  33.080  1.00  0.00    -0.248 NA
ATOM     61  C   UNL A   1      40.930  30.097  35.075  1.00  0.00     0.031 C 
ATOM     62  C   UNL A   1      44.611  28.872  31.326  1.00  0.00     0.029 A 
ATOM     63  C   UNL A   1      43.892  28.009  32.134  1.00  0.00     0.049 A 
ATOM     64  H   UNL A   1      43.010  26.171  31.637  1.00  0.00     0.167 HD
ATOM     65  C   UNL A   1      42.560  28.938  33.917  1.00  0.00     0.074 A 
ATOM     66  C   UNL A   1      41.859  29.130  35.170  1.00  0.00     0.031 C 
ATOM     67  C   UNL A   1      43.472  28.003  33.524  1.00  0.00     0.037 A 
BRANCH  54  68
ATOM     68  C   UNL A   1      43.938  25.471  28.018  1.00  0.00     0.058 A 
ATOM     69  C   UNL A   1      44.216  25.899  26.702  1.00  0.00     0.135 A 
ATOM     70  C   UNL A   1      44.359  24.159  28.309  1.00  0.00     0.135 A 
ATOM     71  F   UNL A   1      43.951  27.151  26.303  1.00  0.00    -0.206 F 
ATOM     72  C   UNL A   1      44.762  25.060  25.728  1.00  0.00     0.059 A 
ATOM     73  C   UNL A   1      44.846  23.278  27.339  1.00  0.00     0.059 A 
ATOM     74  F   UNL A   1      44.367  23.692  29.565  1.00  0.00    -0.206 F 
ATOM     75  C   UNL A   1      45.037  23.737  26.044  1.00  0.00     0.060 A 
BRANCH  75  76
ATOM     76  S   UNL A   1      45.646  22.639  24.751  1.00  0.00     0.124 S 
ATOM     77  O   UNL A   1      46.546  23.512  24.004  1.00  0.00    -0.237 OA
ATOM     78  O   UNL A   1      46.286  21.582  25.527  1.00  0.00    -0.237 OA
ATOM     79  O   UNL A   1      44.433  22.247  24.038  1.00  0.00    -0.744 OA
ENDBRANCH  75  76
ENDBRANCH  54  68
BRANCH  55  80
ATOM     80  C   UNL A   1      38.754  31.814  33.384  1.00  0.00     0.058 A 
ATOM     81  C   UNL A   1      38.387  33.166  33.540  1.00  0.00     0.135 A 
ATOM     82  C   UNL A   1      37.735  30.888  33.123  1.00  0.00     0.135 A 
ATOM     83  F   UNL A   1      39.325  34.090  33.806  1.00  0.00    -0.206 F 
ATOM     84  C   UNL A   1      37.101  33.608  33.261  1.00  0.00     0.059 A 
ATOM     85  C   UNL A   1      36.432  31.309  32.854  1.00  0.00     0.059 A 
ATOM     86  F   UNL A   1      38.025  29.587  32.973  1.00  0.00    -0.206 F 
ATOM     87  C   UNL A   1      36.151  32.676  32.849  1.00  0.00     0.060 A 
BRANCH  87  88
ATOM     88  S   UNL A   1      34.631  33.312  32.101  1.00  0.00     0.124 S 
ATOM     89  O   UNL A   1      34.425  32.383  30.996  1.00  0.00    -0.237 OA
ATOM     90  O   UNL A   1      33.690  33.192  33.213  1.00  0.00    -0.237 OA
ATOM     91  O   UNL A   1      34.990  34.674  31.723  1.00  0.00    -0.744 OA
ENDBRANCH  87  88
ENDBRANCH  55  80
BRANCH  67  92
ATOM     92  C   UNL A   1      44.021  26.981  34.465  1.00  0.00     0.058 A 
ATOM     93  C   UNL A   1      45.381  26.969  34.811  1.00  0.00     0.135 A 
ATOM     94  C   UNL A   1      43.235  25.908  34.929  1.00  0.00     0.135 A 
ATOM     95  F   UNL A   1      46.197  27.951  34.396  1.00  0.00    -0.206 F 
ATOM     96  C   UNL A   1      45.934  25.944  35.576  1.00  0.00     0.059 A 
ATOM     97  C   UNL A   1      43.774  24.855  35.661  1.00  0.00     0.059 A 
ATOM     98  F   UNL A   1      41.915  25.868  34.692  1.00  0.00    -0.206 F 
ATOM     99  C   UNL A   1      45.124  24.888  35.990  1.00  0.00     0.060 A 
BRANCH  99 100
ATOM    100  S   UNL A   1      45.844  23.529  36.933  1.00  0.00     0.124 S 
ATOM    101  O   UNL A   1      47.277  23.788  36.833  1.00  0.00    -0.237 OA
ATOM    102  O   UNL A   1      45.254  23.747  38.249  1.00  0.00    -0.237 OA
ATOM    103  O   UNL A   1      45.377  22.344  36.220  1.00  0.00    -0.744 OA
ENDBRANCH  99 100
ENDBRANCH  67  92
ENDBRANCH  41  42
ENDBRANCH  33  36
ENDBRANCH  31  32
ENDBRANCH   1  31
TORSDOF 16
ENDMDL
MODEL 2
REMARK VINA RESULT:     -13.6      4.170     10.274
REMARK SMILES COc1ccc(-c2cc(Cl)cc3c2O[C@@H](C(F)(F)F)C(C(=O)NCCCNC(=O)c2ccc(-c4c5nc(c(-c6c(F)cc(S(=O)(=O)[O-])cc6F)c6ccc([nH]6)c(-c6c(F)cc(S(=O)(=O)[O-])cc6F)c6nc(c(-c7c(F)cc(S(=O)(=O)[O-])cc7F)c7ccc4[nH]7)C=C6)C=C5)cc2)=C3)cc1C
REMARK SMILES IDX 25 1 24 2 23 3 21 4 22 5 20 7 7 8 8 9 13 10 9 11 12 12 14 13
REMARK SMILES IDX 10 14 11 15 96 16 15 17 6 18 3 19 4 20 98 21 5 22 97 23
REMARK SMILES IDX 99 24 2 25 1 26 16 27 17 28 18 29 19 30 26 31 27 32 28 33
REMARK SMILES IDX 29 35 30 36 31 37 95 38 32 39 94 40 33 41 34 42 35 43 88 44
REMARK SMILES IDX 36 45 93 46 87 47 89 48 37 49 92 50 86 51 85 52 38 54 72 55
REMARK SMILES IDX 51 56 71 57 52 58 55 59 70 60 90 61 53 62 54 63 69 65 91 66
REMARK SMILES IDX 56 67 39 68 40 69 49 70 41 71 42 72 48 73 50 74 43 75 44 76
REMARK SMILES IDX 45 77 46 78 47 79 73 80 74 81 83 82 75 83 76 84 82 85 84 86
REMARK SMILES IDX 77 87 78 88 79 89 80 90 81 91 57 92 58 93 67 94 59 95 60 96
REMARK SMILES IDX 66 97 68 98 61 99 62 100 63 101 64 102 65 103
REMARK H PARENT 23 6 27 34 89 53 55 64
REMARK Flexibility Score: inf
ROOT
ATOM      1  C   UNL A   1      38.316  21.297  25.419  1.00  0.00     0.042 C 
ENDROOT
BRANCH   1   2
ATOM      2  C   UNL A   1      37.095  21.421  24.508  1.00  0.00     0.118 C 
BRANCH   2   3
ATOM      3  N   UNL A   1      36.174  22.479  24.921  1.00  0.00    -0.352 N 
ATOM      4  C   UNL A   1      35.322  22.595  25.980  1.00  0.00     0.251 C 
ATOM      5  O   UNL A   1      35.221  23.715  26.489  1.00  0.00    -0.270 OA
ATOM      6  H   UNL A   1      36.168  23.258  24.320  1.00  0.00     0.163 HD
BRANCH   4   7
ATOM      7  C   UNL A   1      34.407  21.461  26.457  1.00  0.00     0.067 C 
ATOM      8  C   UNL A   1      31.454  23.619  24.701  1.00  0.00     0.026 A 
ATOM      9  C   UNL A   1      30.230  23.828  25.366  1.00  0.00     0.033 A 
ATOM     10  C   UNL A   1      32.318  22.696  25.287  1.00  0.00     0.135 A 
ATOM     11  C   UNL A   1      30.054  23.397  26.684  1.00  0.00     0.042 A 
ATOM     12  C   UNL A   1      32.278  22.498  26.696  1.00  0.00     0.019 A 
ATOM     13  O   UNL A   1      33.123  21.862  24.484  1.00  0.00    -0.475 OA
ATOM     14  Cl  UNL A   1      28.570  23.725  27.491  1.00  0.00    -0.084 Cl
ATOM     15  C   UNL A   1      31.113  22.818  27.385  1.00  0.00     0.032 A 
ATOM     16  C   UNL A   1      33.500  21.920  27.362  1.00  0.00     0.025 C 
ATOM     17  C   UNL A   1      33.629  20.788  25.335  1.00  0.00     0.314 C 
BRANCH   8  18
ATOM     18  C   UNL A   1      31.989  24.810  23.992  1.00  0.00    -0.014 A 
ATOM     19  C   UNL A   1      33.255  26.764  22.380  1.00  0.00     0.121 A 
ATOM     20  C   UNL A   1      33.289  26.838  23.783  1.00  0.00     0.047 A 
ATOM     21  C   UNL A   1      32.572  25.721  21.754  1.00  0.00    -0.008 A 
ATOM     22  C   UNL A   1      32.662  25.870  24.589  1.00  0.00     0.013 A 
ATOM     23  C   UNL A   1      31.911  24.793  22.573  1.00  0.00     0.016 A 
ATOM     24  C   UNL A   1      32.548  25.510  20.269  1.00  0.00     0.048 C 
BRANCH  19  25
ATOM     25  O   UNL A   1      34.036  27.672  21.715  1.00  0.00    -0.496 OA
ATOM     26  C   UNL A   1      34.270  28.883  22.432  1.00  0.00     0.278 C 
ENDBRANCH  19  25
ENDBRANCH   8  18
BRANCH  17  27
ATOM     27  C   UNL A   1      34.192  19.479  24.772  1.00  0.00     0.429 C 
ATOM     28  F   UNL A   1      33.816  19.352  23.463  1.00  0.00    -0.167 F 
ATOM     29  F   UNL A   1      35.536  19.427  24.781  1.00  0.00    -0.167 F 
ATOM     30  F   UNL A   1      33.701  18.377  25.374  1.00  0.00    -0.167 F 
ENDBRANCH  17  27
ENDBRANCH   4   7
ENDBRANCH   2   3
ENDBRANCH   1   2
BRANCH   1  31
ATOM     31  C   UNL A   1      38.830  22.614  25.989  1.00  0.00     0.118 C 
BRANCH  31  32
ATOM     32  N   UNL A   1      40.238  22.571  26.383  1.00  0.00    -0.352 N 
ATOM     33  C   UNL A   1      41.028  23.624  26.829  1.00  0.00     0.251 C 
ATOM     34  H   UNL A   1      40.678  21.692  26.323  1.00  0.00     0.163 HD
ATOM     35  O   UNL A   1      42.218  23.514  27.036  1.00  0.00    -0.269 OA
BRANCH  33  36
ATOM     36  C   UNL A   1      40.325  24.895  27.094  1.00  0.00     0.039 A 
ATOM     37  C   UNL A   1      40.595  25.969  26.237  1.00  0.00     0.014 A 
ATOM     38  C   UNL A   1      39.750  25.085  28.346  1.00  0.00     0.014 A 
ATOM     39  C   UNL A   1      40.495  27.267  26.728  1.00  0.00     0.010 A 
ATOM     40  C   UNL A   1      39.728  26.369  28.854  1.00  0.00     0.010 A 
ATOM     41  C   UNL A   1      40.165  27.452  28.069  1.00  0.00    -0.014 A 
BRANCH  41  42
ATOM     42  C   UNL A   1      40.379  28.701  28.796  1.00  0.00     0.031 A 
ATOM     43  C   UNL A   1      39.355  29.769  28.757  1.00  0.00     0.074 A 
ATOM     44  C   UNL A   1      41.419  28.798  29.654  1.00  0.00     0.049 A 
ATOM     45  N   UNL A   1      39.507  30.952  29.248  1.00  0.00    -0.248 NA
ATOM     46  C   UNL A   1      38.058  29.578  28.120  1.00  0.00     0.031 C 
ATOM     47  C   UNL A   1      41.565  29.736  30.763  1.00  0.00     0.029 A 
ATOM     48  N   UNL A   1      42.669  28.178  29.561  1.00  0.00    -0.354 N 
ATOM     49  C   UNL A   1      38.284  31.584  29.228  1.00  0.00     0.074 A 
ATOM     50  C   UNL A   1      37.419  30.692  28.490  1.00  0.00     0.031 C 
ATOM     51  C   UNL A   1      42.862  29.831  31.086  1.00  0.00     0.029 A 
ATOM     52  C   UNL A   1      43.613  29.082  30.098  1.00  0.00     0.049 A 
ATOM     53  H   UNL A   1      42.855  27.283  29.195  1.00  0.00     0.167 HD
ATOM     54  C   UNL A   1      38.122  32.747  29.925  1.00  0.00     0.037 A 
ATOM     55  C   UNL A   1      44.593  29.611  29.304  1.00  0.00     0.037 A 
ATOM     56  C   UNL A   1      39.395  33.229  30.457  1.00  0.00     0.049 A 
ATOM     57  C   UNL A   1      44.481  31.106  29.072  1.00  0.00     0.074 A 
ATOM     58  C   UNL A   1      40.046  33.136  31.677  1.00  0.00     0.029 A 
ATOM     59  N   UNL A   1      40.341  33.683  29.557  1.00  0.00    -0.354 N 
ATOM     60  N   UNL A   1      43.570  31.871  29.609  1.00  0.00    -0.248 NA
ATOM     61  C   UNL A   1      45.349  31.846  28.153  1.00  0.00     0.031 C 
ATOM     62  C   UNL A   1      41.419  33.470  31.472  1.00  0.00     0.029 A 
ATOM     63  C   UNL A   1      41.591  33.778  30.134  1.00  0.00     0.049 A 
ATOM     64  H   UNL A   1      40.146  33.911  28.619  1.00  0.00     0.167 HD
ATOM     65  C   UNL A   1      43.644  33.120  29.054  1.00  0.00     0.074 A 
ATOM     66  C   UNL A   1      44.801  33.073  28.182  1.00  0.00     0.031 C 
ATOM     67  C   UNL A   1      42.725  34.099  29.285  1.00  0.00     0.037 A 
BRANCH  54  68
ATOM     68  C   UNL A   1      36.778  33.339  30.285  1.00  0.00     0.058 A 
ATOM     69  C   UNL A   1      35.930  33.851  29.280  1.00  0.00     0.135 A 
ATOM     70  C   UNL A   1      36.286  33.483  31.597  1.00  0.00     0.135 A 
ATOM     71  F   UNL A   1      36.222  33.712  27.979  1.00  0.00    -0.206 F 
ATOM     72  C   UNL A   1      34.750  34.546  29.560  1.00  0.00     0.059 A 
ATOM     73  C   UNL A   1      35.146  34.229  31.909  1.00  0.00     0.059 A 
ATOM     74  F   UNL A   1      36.864  32.856  32.630  1.00  0.00    -0.206 F 
ATOM     75  C   UNL A   1      34.386  34.766  30.880  1.00  0.00     0.060 A 
BRANCH  75  76
ATOM     76  S   UNL A   1      32.917  35.751  31.229  1.00  0.00     0.124 S 
ATOM     77  O   UNL A   1      33.491  36.979  31.770  1.00  0.00    -0.237 OA
ATOM     78  O   UNL A   1      32.307  35.863  29.908  1.00  0.00    -0.237 OA
ATOM     79  O   UNL A   1      32.182  34.936  32.192  1.00  0.00    -0.744 OA
ENDBRANCH  75  76
ENDBRANCH  54  68
BRANCH  55  80
ATOM     80  C   UNL A   1      45.131  28.611  28.340  1.00  0.00     0.058 A 
ATOM     81  C   UNL A   1      44.526  28.558  27.068  1.00  0.00     0.135 A 
ATOM     82  C   UNL A   1      46.430  28.101  28.465  1.00  0.00     0.135 A 
ATOM     83  F   UNL A   1      43.276  29.021  26.899  1.00  0.00    -0.206 F 
ATOM     84  C   UNL A   1      45.242  28.194  25.936  1.00  0.00     0.059 A 
ATOM     85  C   UNL A   1      47.163  27.715  27.342  1.00  0.00     0.059 A 
ATOM     86  F   UNL A   1      47.052  28.118  29.654  1.00  0.00    -0.206 F 
ATOM     87  C   UNL A   1      46.582  27.843  26.079  1.00  0.00     0.060 A 
BRANCH  87  88
ATOM     88  S   UNL A   1      47.591  27.781  24.579  1.00  0.00     0.124 S 
ATOM     89  O   UNL A   1      48.871  28.293  25.053  1.00  0.00    -0.237 OA
ATOM     90  O   UNL A   1      47.557  26.353  24.268  1.00  0.00    -0.237 OA
ATOM     91  O   UNL A   1      46.867  28.645  23.654  1.00  0.00    -0.744 OA
ENDBRANCH  87  88
ENDBRANCH  55  80
BRANCH  67  92
ATOM     92  C   UNL A   1      42.842  35.461  28.681  1.00  0.00     0.058 A 
ATOM     93  C   UNL A   1      43.140  36.582  29.470  1.00  0.00     0.135 A 
ATOM     94  C   UNL A   1      42.519  35.699  27.331  1.00  0.00     0.135 A 
ATOM     95  F   UNL A   1      43.447  36.438  30.770  1.00  0.00    -0.206 F 
ATOM     96  C   UNL A   1      43.119  37.874  28.948  1.00  0.00     0.059 A 
ATOM     97  C   UNL A   1      42.453  36.982  26.798  1.00  0.00     0.059 A 
ATOM     98  F   UNL A   1      42.274  34.681  26.491  1.00  0.00    -0.206 F 
ATOM     99  C   UNL A   1      42.766  38.064  27.612  1.00  0.00     0.060 A 
BRANCH  99 100
ATOM    100  S   UNL A   1      42.680  39.737  26.943  1.00  0.00     0.124 S 
ATOM    101  O   UNL A   1      43.923  39.849  26.187  1.00  0.00    -0.237 OA
ATOM    102  O   UNL A   1      41.461  39.665  26.144  1.00  0.00    -0.237 OA
ATOM    103  O   UNL A   1      42.603  40.571  28.139  1.00  0.00    -0.744 OA
ENDBRANCH  99 100
ENDBRANCH  67  92
ENDBRANCH  41  42
ENDBRANCH  33  36
ENDBRANCH  31  32
ENDBRANCH   1  31
TORSDOF 16
ENDMDL
MODEL 3
REMARK VINA RESULT:     -13.4      5.263      8.308
REMARK SMILES COc1ccc(-c2cc(Cl)cc3c2O[C@@H](C(F)(F)F)C(C(=O)NCCCNC(=O)c2ccc(-c4c5nc(c(-c6c(F)cc(S(=O)(=O)[O-])cc6F)c6ccc([nH]6)c(-c6c(F)cc(S(=O)(=O)[O-])cc6F)c6nc(c(-c7c(F)cc(S(=O)(=O)[O-])cc7F)c7ccc4[nH]7)C=C6)C=C5)cc2)=C3)cc1C
REMARK SMILES IDX 25 1 24 2 23 3 21 4 22 5 20 7 7 8 8 9 13 10 9 11 12 12 14 13
REMARK SMILES IDX 10 14 11 15 96 16 15 17 6 18 3 19 4 20 98 21 5 22 97 23
REMARK SMILES IDX 99 24 2 25 1 26 16 27 17 28 18 29 19 30 26 31 27 32 28 33
REMARK SMILES IDX 29 35 30 36 31 37 95 38 32 39 94 40 33 41 34 42 35 43 88 44
REMARK SMILES IDX 36 45 93 46 87 47 89 48 37 49 92 50 86 51 85 52 38 54 72 55
REMARK SMILES IDX 51 56 71 57 52 58 55 59 70 60 90 61 53 62 54 63 69 65 91 66
REMARK SMILES IDX 56 67 39 68 40 69 49 70 41 71 42 72 48 73 50 74 43 75 44 76
REMARK SMILES IDX 45 77 46 78 47 79 73 80 74 81 83 82 75 83 76 84 82 85 84 86
REMARK SMILES IDX 77 87 78 88 79 89 80 90 81 91 57 92 58 93 67 94 59 95 60 96
REMARK SMILES IDX 66 97 68 98 61 99 62 100 63 101 64 102 65 103
REMARK H PARENT 23 6 27 34 89 53 55 64
REMARK Flexibility Score: inf
ROOT
ATOM      1  C   UNL A   1      39.088  33.693  29.348  1.00  0.00     0.042 C 
ENDROOT
BRANCH   1   2
ATOM      2  C   UNL A   1      40.310  34.050  30.194  1.00  0.00     0.118 C 
BRANCH   2   3
ATOM      3  N   UNL A   1      41.474  33.215  29.904  1.00  0.00    -0.352 N 
ATOM      4  C   UNL A   1      42.816  33.447  29.988  1.00  0.00     0.251 C 
ATOM      5  O   UNL A   1      43.517  32.507  30.375  1.00  0.00    -0.270 OA
ATOM      6  H   UNL A   1      41.247  32.311  29.587  1.00  0.00     0.163 HD
BRANCH   4   7
ATOM      7  C   UNL A   1      43.483  34.739  29.502  1.00  0.00     0.067 C 
ATOM      8  C   UNL A   1      45.273  32.333  26.768  1.00  0.00     0.026 A 
ATOM      9  C   UNL A   1      46.652  32.451  26.507  1.00  0.00     0.033 A 
ATOM     10  C   UNL A   1      44.713  33.335  27.558  1.00  0.00     0.135 A 
ATOM     11  C   UNL A   1      47.448  33.315  27.264  1.00  0.00     0.042 A 
ATOM     12  C   UNL A   1      45.523  34.002  28.520  1.00  0.00     0.019 A 
ATOM     13  O   UNL A   1      43.400  33.786  27.313  1.00  0.00    -0.475 OA
ATOM     14  Cl  UNL A   1      49.140  33.389  26.964  1.00  0.00    -0.084 Cl
ATOM     15  C   UNL A   1      46.901  34.019  28.338  1.00  0.00     0.032 A 
ATOM     16  C   UNL A   1      44.832  34.681  29.674  1.00  0.00     0.025 C 
ATOM     17  C   UNL A   1      43.226  35.045  28.033  1.00  0.00     0.314 C 
BRANCH   8  18
ATOM     18  C   UNL A   1      44.772  30.936  26.852  1.00  0.00    -0.014 A 
ATOM     19  C   UNL A   1      44.072  28.203  26.616  1.00  0.00     0.121 A 
ATOM     20  C   UNL A   1      43.092  29.199  26.760  1.00  0.00     0.047 A 
ATOM     21  C   UNL A   1      45.423  28.551  26.604  1.00  0.00    -0.008 A 
ATOM     22  C   UNL A   1      43.434  30.559  26.878  1.00  0.00     0.013 A 
ATOM     23  C   UNL A   1      45.746  29.906  26.773  1.00  0.00     0.016 A 
ATOM     24  C   UNL A   1      46.537  27.573  26.373  1.00  0.00     0.048 C 
BRANCH  19  25
ATOM     25  O   UNL A   1      43.608  26.942  26.350  1.00  0.00    -0.496 OA
ATOM     26  C   UNL A   1      42.909  26.822  25.111  1.00  0.00     0.278 C 
ENDBRANCH  19  25
ENDBRANCH   8  18
BRANCH  17  27
ATOM     27  C   UNL A   1      42.110  36.041  27.705  1.00  0.00     0.429 C 
ATOM     28  F   UNL A   1      42.452  36.751  26.586  1.00  0.00    -0.167 F 
ATOM     29  F   UNL A   1      40.932  35.453  27.426  1.00  0.00    -0.167 F 
ATOM     30  F   UNL A   1      41.923  36.977  28.657  1.00  0.00    -0.167 F 
ENDBRANCH  17  27
ENDBRANCH   4   7
ENDBRANCH   2   3
ENDBRANCH   1   2
BRANCH   1  31
ATOM     31  C   UNL A   1      38.551  32.281  29.556  1.00  0.00     0.118 C 
BRANCH  31  32
ATOM     32  N   UNL A   1      37.094  32.192  29.468  1.00  0.00    -0.352 N 
ATOM     33  C   UNL A   1      36.329  31.074  29.154  1.00  0.00     0.251 C 
ATOM     34  H   UNL A   1      36.596  33.021  29.652  1.00  0.00     0.163 HD
ATOM     35  O   UNL A   1      35.126  31.119  29.004  1.00  0.00    -0.269 OA
BRANCH  33  36
ATOM     36  C   UNL A   1      37.060  29.794  29.059  1.00  0.00     0.039 A 
ATOM     37  C   UNL A   1      37.179  29.034  30.228  1.00  0.00     0.014 A 
ATOM     38  C   UNL A   1      37.894  29.588  27.965  1.00  0.00     0.014 A 
ATOM     39  C   UNL A   1      38.288  28.209  30.389  1.00  0.00     0.010 A 
ATOM     40  C   UNL A   1      39.032  28.831  28.160  1.00  0.00     0.010 A 
ATOM     41  C   UNL A   1      39.263  28.198  29.394  1.00  0.00    -0.014 A 
BRANCH  41  42
ATOM     42  C   UNL A   1      40.617  27.683  29.587  1.00  0.00     0.031 A 
ATOM     43  C   UNL A   1      40.992  26.357  29.047  1.00  0.00     0.074 A 
ATOM     44  C   UNL A   1      41.571  28.500  30.086  1.00  0.00     0.049 A 
ATOM     45  N   UNL A   1      42.111  25.758  29.278  1.00  0.00    -0.248 NA
ATOM     46  C   UNL A   1      40.093  25.579  28.203  1.00  0.00     0.031 C 
ATOM     47  C   UNL A   1      43.017  28.352  29.954  1.00  0.00     0.029 A 
ATOM     48  N   UNL A   1      41.414  29.544  31.002  1.00  0.00    -0.354 N 
ATOM     49  C   UNL A   1      42.195  24.669  28.440  1.00  0.00     0.074 A 
ATOM     50  C   UNL A   1      40.898  24.589  27.808  1.00  0.00     0.031 C 
ATOM     51  C   UNL A   1      43.617  29.064  30.918  1.00  0.00     0.029 A 
ATOM     52  C   UNL A   1      42.580  29.567  31.798  1.00  0.00     0.049 A 
ATOM     53  H   UNL A   1      40.640  30.148  31.078  1.00  0.00     0.167 HD
ATOM     54  C   UNL A   1      43.388  24.020  28.307  1.00  0.00     0.037 A 
ATOM     55  C   UNL A   1      42.509  29.309  33.140  1.00  0.00     0.037 A 
ATOM     56  C   UNL A   1      44.375  24.521  29.262  1.00  0.00     0.049 A 
ATOM     57  C   UNL A   1      43.197  28.029  33.574  1.00  0.00     0.074 A 
ATOM     58  C   UNL A   1      45.405  25.446  29.213  1.00  0.00     0.029 A 
ATOM     59  N   UNL A   1      44.169  24.255  30.603  1.00  0.00    -0.354 N 
ATOM     60  N   UNL A   1      43.861  27.237  32.776  1.00  0.00    -0.248 NA
ATOM     61  C   UNL A   1      43.130  27.502  34.940  1.00  0.00     0.031 C 
ATOM     62  C   UNL A   1      45.760  25.785  30.553  1.00  0.00     0.029 A 
ATOM     63  C   UNL A   1      44.954  25.055  31.409  1.00  0.00     0.049 A 
ATOM     64  H   UNL A   1      43.539  23.578  30.941  1.00  0.00     0.167 HD
ATOM     65  C   UNL A   1      44.196  26.094  33.449  1.00  0.00     0.074 A 
ATOM     66  C   UNL A   1      43.760  26.321  34.812  1.00  0.00     0.031 C 
ATOM     67  C   UNL A   1      44.750  25.004  32.846  1.00  0.00     0.037 A 
BRANCH  54  68
ATOM     68  C   UNL A   1      43.713  23.067  27.178  1.00  0.00     0.058 A 
ATOM     69  C   UNL A   1      43.010  21.850  27.045  1.00  0.00     0.135 A 
ATOM     70  C   UNL A   1      44.736  23.260  26.230  1.00  0.00     0.135 A 
ATOM     71  F   UNL A   1      41.955  21.563  27.821  1.00  0.00    -0.206 F 
ATOM     72  C   UNL A   1      43.364  20.864  26.122  1.00  0.00     0.059 A 
ATOM     73  C   UNL A   1      45.153  22.266  25.341  1.00  0.00     0.059 A 
ATOM     74  F   UNL A   1      45.339  24.448  26.088  1.00  0.00    -0.206 F 
ATOM     75  C   UNL A   1      44.464  21.063  25.300  1.00  0.00     0.060 A 
BRANCH  75  76
ATOM     76  S   UNL A   1      44.972  19.740  24.185  1.00  0.00     0.124 S 
ATOM     77  O   UNL A   1      44.231  18.596  24.708  1.00  0.00    -0.237 OA
ATOM     78  O   UNL A   1      44.528  20.247  22.891  1.00  0.00    -0.237 OA
ATOM     79  O   UNL A   1      46.419  19.675  24.371  1.00  0.00    -0.744 OA
ENDBRANCH  75  76
ENDBRANCH  54  68
BRANCH  55  80
ATOM     80  C   UNL A   1      41.292  29.904  33.759  1.00  0.00     0.058 A 
ATOM     81  C   UNL A   1      41.344  31.275  34.084  1.00  0.00     0.135 A 
ATOM     82  C   UNL A   1      40.029  29.321  33.593  1.00  0.00     0.135 A 
ATOM     83  F   UNL A   1      42.531  31.877  34.267  1.00  0.00    -0.206 F 
ATOM     84  C   UNL A   1      40.208  32.072  34.058  1.00  0.00     0.059 A 
ATOM     85  C   UNL A   1      38.872  30.102  33.579  1.00  0.00     0.059 A 
ATOM     86  F   UNL A   1      39.919  28.018  33.291  1.00  0.00    -0.206 F 
ATOM     87  C   UNL A   1      38.988  31.484  33.732  1.00  0.00     0.060 A 
BRANCH  87  88
ATOM     88  S   UNL A   1      37.622  32.588  33.300  1.00  0.00     0.124 S 
ATOM     89  O   UNL A   1      36.847  31.764  32.379  1.00  0.00    -0.237 OA
ATOM     90  O   UNL A   1      37.012  32.819  34.608  1.00  0.00    -0.237 OA
ATOM     91  O   UNL A   1      38.296  33.737  32.707  1.00  0.00    -0.744 OA
ENDBRANCH  87  88
ENDBRANCH  55  80
BRANCH  67  92
ATOM     92  C   UNL A   1      45.125  23.775  33.609  1.00  0.00     0.058 A 
ATOM     93  C   UNL A   1      44.163  22.819  33.965  1.00  0.00     0.135 A 
ATOM     94  C   UNL A   1      46.424  23.596  34.125  1.00  0.00     0.135 A 
ATOM     95  F   UNL A   1      42.899  22.928  33.522  1.00  0.00    -0.206 F 
ATOM     96  C   UNL A   1      44.470  21.740  34.791  1.00  0.00     0.059 A 
ATOM     97  C   UNL A   1      46.744  22.549  34.983  1.00  0.00     0.059 A 
ATOM     98  F   UNL A   1      47.419  24.433  33.791  1.00  0.00    -0.206 F 
ATOM     99  C   UNL A   1      45.762  21.618  35.301  1.00  0.00     0.060 A 
BRANCH  99 100
ATOM    100  S   UNL A   1      46.154  20.257  36.417  1.00  0.00     0.124 S 
ATOM    101  O   UNL A   1      45.414  19.140  35.840  1.00  0.00    -0.237 OA
ATOM    102  O   UNL A   1      47.606  20.185  36.286  1.00  0.00    -0.237 OA
ATOM    103  O   UNL A   1      45.659  20.729  37.707  1.00  0.00    -0.744 OA
ENDBRANCH  99 100
ENDBRANCH  67  92
ENDBRANCH  41  42
ENDBRANCH  33  36
ENDBRANCH  31  32
ENDBRANCH   1  31
TORSDOF 16
ENDMDL
