MODEL 1
REMARK VINA RESULT:     -10.5      0.000      0.000
REMARK SMILES C[C@@H]1[C@@H](C(=O)NCCCNC(=O)c2ccc(-c3c4nc(c(-c5c(F)cc(S(=O)(=O)[O-])cc5F)c5ccc([nH]5)c(-c5c(F)cc(S(=O)(=O)[O-])cc5F)c5nc(c(-c6c(F)cc(S(=O)(=O)[O-])cc6F)c6ccc3[nH]6)C=C5)C=C4)cc2)CC[N@@H+]1C[C@H]1Cc2ccccc2O1
REMARK SMILES IDX 8 1 7 2 6 3 4 4 5 5 3 7 1 8 2 9 81 10 79 11 80 12 82 14
REMARK SMILES IDX 83 15 84 16 91 17 85 18 90 19 86 20 89 21 87 22 88 23 9 24
REMARK SMILES IDX 10 25 11 26 12 28 13 29 14 30 78 31 15 32 77 33 16 34 17 35
REMARK SMILES IDX 18 36 71 37 19 38 76 39 70 40 72 41 20 42 75 43 69 44 68 45
REMARK SMILES IDX 21 47 55 48 34 49 54 50 35 51 38 52 53 53 73 54 36 55 37 56
REMARK SMILES IDX 52 58 74 59 39 60 22 61 23 62 32 63 24 64 25 65 31 66 33 67
REMARK SMILES IDX 26 68 27 69 28 70 29 71 30 72 56 73 57 74 66 75 58 76 59 77
REMARK SMILES IDX 65 78 67 79 60 80 61 81 62 82 63 83 64 84 40 85 41 86 50 87
REMARK SMILES IDX 42 88 43 89 49 90 51 91 44 92 45 93 46 94 47 95 48 96
REMARK H PARENT 6 6 81 13 10 27 72 46 38 57
REMARK Flexibility Score: inf
ROOT
ATOM      1  C   UNL A   1      34.215  33.821  28.250  1.00  0.00     0.042 C 
ENDROOT
BRANCH   1   2
ATOM      2  C   UNL A   1      34.163  35.043  29.158  1.00  0.00     0.117 C 
BRANCH   2   3
ATOM      3  N   UNL A   1      33.343  34.838  30.340  1.00  0.00    -0.356 N 
ATOM      4  C   UNL A   1      33.581  34.960  31.669  1.00  0.00     0.229 C 
ATOM      5  O   UNL A   1      32.597  34.804  32.405  1.00  0.00    -0.275 OA
ATOM      6  H   UNL A   1      32.424  34.550  30.133  1.00  0.00     0.163 HD
BRANCH   4   7
ATOM      7  C   UNL A   1      34.949  35.172  32.312  1.00  0.00     0.142 C 
ATOM      8  C   UNL A   1      37.267  34.516  31.562  1.00  0.00     0.076 C 
ATOM      9  C   UNL A   1      35.984  34.041  32.252  1.00  0.00     0.193 C 
ATOM     10  N   UNL A   1      36.131  33.596  33.641  1.00  0.00    -0.329 N 
ATOM     11  C   UNL A   1      34.840  35.547  33.783  1.00  0.00     0.081 C 
ATOM     12  C   UNL A   1      35.227  34.293  34.530  1.00  0.00     0.263 C 
ATOM     13  H   UNL A   1      35.837  32.623  33.549  1.00  0.00     0.348 HD
BRANCH  10  14
ATOM     14  C   UNL A   1      37.366  33.051  34.180  1.00  0.00     0.308 C 
BRANCH  14  15
ATOM     15  C   UNL A   1      38.058  31.941  33.366  1.00  0.00     0.232 C 
ATOM     16  C   UNL A   1      39.487  31.609  33.814  1.00  0.00     0.090 C 
ATOM     17  O   UNL A   1      37.291  30.701  33.434  1.00  0.00    -0.484 OA
ATOM     18  C   UNL A   1      39.543  30.216  33.330  1.00  0.00    -0.002 A 
ATOM     19  C   UNL A   1      38.247  29.748  33.170  1.00  0.00     0.123 A 
ATOM     20  C   UNL A   1      40.640  29.412  33.091  1.00  0.00     0.007 A 
ATOM     21  C   UNL A   1      37.992  28.456  32.773  1.00  0.00     0.047 A 
ATOM     22  C   UNL A   1      40.404  28.109  32.657  1.00  0.00     0.001 A 
ATOM     23  C   UNL A   1      39.089  27.633  32.503  1.00  0.00     0.004 A 
ENDBRANCH  14  15
ENDBRANCH  10  14
ENDBRANCH   4   7
ENDBRANCH   2   3
ENDBRANCH   1   2
BRANCH   1  24
ATOM     24  C   UNL A   1      34.481  32.508  28.967  1.00  0.00     0.118 C 
BRANCH  24  25
ATOM     25  N   UNL A   1      33.896  31.364  28.284  1.00  0.00    -0.352 N 
ATOM     26  C   UNL A   1      34.467  30.210  27.805  1.00  0.00     0.251 C 
ATOM     27  H   UNL A   1      32.924  31.429  28.141  1.00  0.00     0.163 HD
ATOM     28  O   UNL A   1      33.788  29.469  27.096  1.00  0.00    -0.269 OA
BRANCH  26  29
ATOM     29  C   UNL A   1      35.875  29.851  28.107  1.00  0.00     0.039 A 
ATOM     30  C   UNL A   1      36.841  30.033  27.110  1.00  0.00     0.014 A 
ATOM     31  C   UNL A   1      36.249  29.286  29.327  1.00  0.00     0.014 A 
ATOM     32  C   UNL A   1      38.177  29.700  27.358  1.00  0.00     0.010 A 
ATOM     33  C   UNL A   1      37.593  29.050  29.609  1.00  0.00     0.010 A 
ATOM     34  C   UNL A   1      38.571  29.234  28.621  1.00  0.00    -0.014 A 
BRANCH  34  35
ATOM     35  C   UNL A   1      39.987  28.888  28.918  1.00  0.00     0.031 A 
ATOM     36  C   UNL A   1      40.900  29.918  29.535  1.00  0.00     0.074 A 
ATOM     37  C   UNL A   1      40.469  27.676  28.581  1.00  0.00     0.049 A 
ATOM     38  N   UNL A   1      42.182  29.846  29.781  1.00  0.00    -0.248 NA
ATOM     39  C   UNL A   1      40.295  31.212  29.892  1.00  0.00     0.031 C 
ATOM     40  C   UNL A   1      39.703  26.607  27.936  1.00  0.00     0.029 A 
ATOM     41  N   UNL A   1      41.725  27.140  28.724  1.00  0.00    -0.354 N 
ATOM     42  C   UNL A   1      42.541  31.089  30.292  1.00  0.00     0.074 A 
ATOM     43  C   UNL A   1      41.352  31.912  30.274  1.00  0.00     0.031 C 
ATOM     44  C   UNL A   1      40.496  25.536  27.765  1.00  0.00     0.029 A 
ATOM     45  C   UNL A   1      41.834  25.853  28.252  1.00  0.00     0.049 A 
ATOM     46  H   UNL A   1      42.476  27.631  29.128  1.00  0.00     0.167 HD
ATOM     47  C   UNL A   1      43.744  31.499  30.761  1.00  0.00     0.037 A 
ATOM     48  C   UNL A   1      42.894  25.022  28.213  1.00  0.00     0.037 A 
ATOM     49  C   UNL A   1      44.912  30.662  30.823  1.00  0.00     0.049 A 
ATOM     50  C   UNL A   1      44.213  25.490  28.764  1.00  0.00     0.074 A 
ATOM     51  C   UNL A   1      46.162  30.963  31.335  1.00  0.00     0.029 A 
ATOM     52  N   UNL A   1      44.970  29.352  30.369  1.00  0.00    -0.354 N 
ATOM     53  N   UNL A   1      44.522  26.654  29.285  1.00  0.00    -0.248 NA
ATOM     54  C   UNL A   1      45.327  24.532  28.730  1.00  0.00     0.031 C 
ATOM     55  C   UNL A   1      46.985  29.844  31.164  1.00  0.00     0.029 A 
ATOM     56  C   UNL A   1      46.236  28.834  30.580  1.00  0.00     0.049 A 
ATOM     57  H   UNL A   1      44.221  28.865  29.956  1.00  0.00     0.167 HD
ATOM     58  C   UNL A   1      45.856  26.559  29.662  1.00  0.00     0.074 A 
ATOM     59  C   UNL A   1      46.294  25.222  29.320  1.00  0.00     0.031 C 
ATOM     60  C   UNL A   1      46.649  27.496  30.241  1.00  0.00     0.037 A 
BRANCH  47  61
ATOM     61  C   UNL A   1      43.850  32.917  31.256  1.00  0.00     0.058 A 
ATOM     62  C   UNL A   1      44.318  33.952  30.431  1.00  0.00     0.135 A 
ATOM     63  C   UNL A   1      43.459  33.248  32.563  1.00  0.00     0.135 A 
ATOM     64  F   UNL A   1      44.720  33.687  29.177  1.00  0.00    -0.206 F 
ATOM     65  C   UNL A   1      44.429  35.258  30.894  1.00  0.00     0.059 A 
ATOM     66  C   UNL A   1      43.536  34.554  33.039  1.00  0.00     0.059 A 
ATOM     67  F   UNL A   1      43.004  32.299  33.395  1.00  0.00    -0.206 F 
ATOM     68  C   UNL A   1      44.038  35.549  32.202  1.00  0.00     0.060 A 
BRANCH  68  69
ATOM     69  S   UNL A   1      44.191  37.250  32.790  1.00  0.00     0.124 S 
ATOM     70  O   UNL A   1      43.806  38.002  31.600  1.00  0.00    -0.237 OA
ATOM     71  O   UNL A   1      43.243  37.286  33.897  1.00  0.00    -0.237 OA
ATOM     72  O   UNL A   1      45.598  37.353  33.168  1.00  0.00    -0.744 OA
ENDBRANCH  68  69
ENDBRANCH  47  61
BRANCH  48  73
ATOM     73  C   UNL A   1      42.743  23.651  27.658  1.00  0.00     0.058 A 
ATOM     74  C   UNL A   1      42.454  22.565  28.497  1.00  0.00     0.135 A 
ATOM     75  C   UNL A   1      42.864  23.401  26.283  1.00  0.00     0.135 A 
ATOM     76  F   UNL A   1      42.334  22.755  29.820  1.00  0.00    -0.206 F 
ATOM     77  C   UNL A   1      42.304  21.276  27.997  1.00  0.00     0.059 A 
ATOM     78  C   UNL A   1      42.697  22.123  25.755  1.00  0.00     0.059 A 
ATOM     79  F   UNL A   1      43.124  24.409  25.435  1.00  0.00    -0.206 F 
ATOM     80  C   UNL A   1      42.426  21.066  26.623  1.00  0.00     0.060 A 
BRANCH  80  81
ATOM     81  S   UNL A   1      42.177  19.399  25.975  1.00  0.00     0.124 S 
ATOM     82  O   UNL A   1      42.668  18.580  27.078  1.00  0.00    -0.237 OA
ATOM     83  O   UNL A   1      40.735  19.367  25.749  1.00  0.00    -0.237 OA
ATOM     84  O   UNL A   1      42.993  19.385  24.765  1.00  0.00    -0.744 OA
ENDBRANCH  80  81
ENDBRANCH  48  73
BRANCH  60  85
ATOM     85  C   UNL A   1      48.059  27.097  30.571  1.00  0.00     0.058 A 
ATOM     86  C   UNL A   1      49.117  27.341  29.684  1.00  0.00     0.135 A 
ATOM     87  C   UNL A   1      48.360  26.515  31.813  1.00  0.00     0.135 A 
ATOM     88  F   UNL A   1      48.880  27.890  28.482  1.00  0.00    -0.206 F 
ATOM     89  C   UNL A   1      50.427  27.004  30.008  1.00  0.00     0.059 A 
ATOM     90  C   UNL A   1      49.665  26.191  32.167  1.00  0.00     0.059 A 
ATOM     91  F   UNL A   1      47.383  26.271  32.699  1.00  0.00    -0.206 F 
ATOM     92  C   UNL A   1      50.691  26.429  31.253  1.00  0.00     0.060 A 
BRANCH  92  93
ATOM     93  S   UNL A   1      52.399  26.029  31.679  1.00  0.00     0.124 S 
ATOM     94  O   UNL A   1      52.707  27.061  32.664  1.00  0.00    -0.237 OA
ATOM     95  O   UNL A   1      52.283  24.670  32.201  1.00  0.00    -0.237 OA
ATOM     96  O   UNL A   1      53.103  26.146  30.406  1.00  0.00    -0.744 OA
ENDBRANCH  92  93
ENDBRANCH  60  85
ENDBRANCH  34  35
ENDBRANCH  26  29
ENDBRANCH  24  25
ENDBRANCH   1  24
TORSDOF 15
ENDMDL
MODEL 2
REMARK VINA RESULT:     -10.5      3.966      6.852
REMARK SMILES C[C@@H]1[C@@H](C(=O)NCCCNC(=O)c2ccc(-c3c4nc(c(-c5c(F)cc(S(=O)(=O)[O-])cc5F)c5ccc([nH]5)c(-c5c(F)cc(S(=O)(=O)[O-])cc5F)c5nc(c(-c6c(F)cc(S(=O)(=O)[O-])cc6F)c6ccc3[nH]6)C=C5)C=C4)cc2)CC[N@@H+]1C[C@H]1Cc2ccccc2O1
REMARK SMILES IDX 8 1 7 2 6 3 4 4 5 5 3 7 1 8 2 9 81 10 79 11 80 12 82 14
REMARK SMILES IDX 83 15 84 16 91 17 85 18 90 19 86 20 89 21 87 22 88 23 9 24
REMARK SMILES IDX 10 25 11 26 12 28 13 29 14 30 78 31 15 32 77 33 16 34 17 35
REMARK SMILES IDX 18 36 71 37 19 38 76 39 70 40 72 41 20 42 75 43 69 44 68 45
REMARK SMILES IDX 21 47 55 48 34 49 54 50 35 51 38 52 53 53 73 54 36 55 37 56
REMARK SMILES IDX 52 58 74 59 39 60 22 61 23 62 32 63 24 64 25 65 31 66 33 67
REMARK SMILES IDX 26 68 27 69 28 70 29 71 30 72 56 73 57 74 66 75 58 76 59 77
REMARK SMILES IDX 65 78 67 79 60 80 61 81 62 82 63 83 64 84 40 85 41 86 50 87
REMARK SMILES IDX 42 88 43 89 49 90 51 91 44 92 45 93 46 94 47 95 48 96
REMARK H PARENT 6 6 81 13 10 27 72 46 38 57
REMARK Flexibility Score: inf
ROOT
ATOM      1  C   UNL A   1      33.637  27.982  25.427  1.00  0.00     0.042 C 
ENDROOT
BRANCH   1   2
ATOM      2  C   UNL A   1      32.248  28.152  24.825  1.00  0.00     0.117 C 
BRANCH   2   3
ATOM      3  N   UNL A   1      32.103  27.495  23.537  1.00  0.00    -0.356 N 
ATOM      4  C   UNL A   1      31.580  26.304  23.155  1.00  0.00     0.229 C 
ATOM      5  O   UNL A   1      31.526  26.111  21.933  1.00  0.00    -0.275 OA
ATOM      6  H   UNL A   1      32.458  28.025  22.786  1.00  0.00     0.163 HD
BRANCH   4   7
ATOM      7  C   UNL A   1      31.157  25.176  24.093  1.00  0.00     0.142 C 
ATOM      8  C   UNL A   1      31.754  24.689  26.495  1.00  0.00     0.076 C 
ATOM      9  C   UNL A   1      32.199  24.560  25.034  1.00  0.00     0.193 C 
ATOM     10  N   UNL A   1      32.386  23.193  24.540  1.00  0.00    -0.329 N 
ATOM     11  C   UNL A   1      30.543  24.004  23.340  1.00  0.00     0.081 C 
ATOM     12  C   UNL A   1      31.615  22.942  23.340  1.00  0.00     0.263 C 
ATOM     13  H   UNL A   1      33.378  23.220  24.309  1.00  0.00     0.348 HD
BRANCH  10  14
ATOM     14  C   UNL A   1      32.733  22.071  25.399  1.00  0.00     0.308 C 
BRANCH  14  15
ATOM     15  C   UNL A   1      32.960  20.709  24.715  1.00  0.00     0.232 C 
ATOM     16  C   UNL A   1      34.407  20.201  24.757  1.00  0.00     0.090 C 
ATOM     17  O   UNL A   1      32.129  19.680  25.333  1.00  0.00    -0.484 OA
ATOM     18  C   UNL A   1      34.128  18.756  24.648  1.00  0.00    -0.002 A 
ATOM     19  C   UNL A   1      32.813  18.527  25.029  1.00  0.00     0.123 A 
ATOM     20  C   UNL A   1      34.970  17.724  24.286  1.00  0.00     0.007 A 
ATOM     21  C   UNL A   1      32.288  17.257  25.073  1.00  0.00     0.047 A 
ATOM     22  C   UNL A   1      34.447  16.431  24.292  1.00  0.00     0.001 A 
ATOM     23  C   UNL A   1      33.117  16.199  24.687  1.00  0.00     0.004 A 
ENDBRANCH  14  15
ENDBRANCH  10  14
ENDBRANCH   4   7
ENDBRANCH   2   3
ENDBRANCH   1   2
BRANCH   1  24
ATOM     24  C   UNL A   1      33.702  28.162  26.934  1.00  0.00     0.118 C 
BRANCH  24  25
ATOM     25  N   UNL A   1      33.556  29.551  27.342  1.00  0.00    -0.352 N 
ATOM     26  C   UNL A   1      34.413  30.389  28.013  1.00  0.00     0.251 C 
ATOM     27  H   UNL A   1      32.696  29.960  27.095  1.00  0.00     0.163 HD
ATOM     28  O   UNL A   1      33.986  31.474  28.406  1.00  0.00    -0.269 OA
BRANCH  26  29
ATOM     29  C   UNL A   1      35.821  30.011  28.286  1.00  0.00     0.039 A 
ATOM     30  C   UNL A   1      36.757  30.120  27.250  1.00  0.00     0.014 A 
ATOM     31  C   UNL A   1      36.225  29.497  29.520  1.00  0.00     0.014 A 
ATOM     32  C   UNL A   1      38.093  29.767  27.470  1.00  0.00     0.010 A 
ATOM     33  C   UNL A   1      37.572  29.242  29.769  1.00  0.00     0.010 A 
ATOM     34  C   UNL A   1      38.518  29.354  28.741  1.00  0.00    -0.014 A 
BRANCH  34  35
ATOM     35  C   UNL A   1      39.935  28.987  29.008  1.00  0.00     0.031 A 
ATOM     36  C   UNL A   1      40.877  30.006  29.599  1.00  0.00     0.074 A 
ATOM     37  C   UNL A   1      40.392  27.767  28.666  1.00  0.00     0.049 A 
ATOM     38  N   UNL A   1      42.164  29.917  29.817  1.00  0.00    -0.248 NA
ATOM     39  C   UNL A   1      40.300  31.311  29.964  1.00  0.00     0.031 C 
ATOM     40  C   UNL A   1      39.596  26.707  28.043  1.00  0.00     0.029 A 
ATOM     41  N   UNL A   1      41.643  27.213  28.783  1.00  0.00    -0.354 N 
ATOM     42  C   UNL A   1      42.552  31.156  30.314  1.00  0.00     0.074 A 
ATOM     43  C   UNL A   1      41.376  31.997  30.319  1.00  0.00     0.031 C 
ATOM     44  C   UNL A   1      40.369  25.624  27.860  1.00  0.00     0.029 A 
ATOM     45  C   UNL A   1      41.722  25.922  28.315  1.00  0.00     0.049 A 
ATOM     46  H   UNL A   1      42.410  27.694  29.168  1.00  0.00     0.167 HD
ATOM     47  C   UNL A   1      43.772  31.551  30.753  1.00  0.00     0.037 A 
ATOM     48  C   UNL A   1      42.769  25.076  28.256  1.00  0.00     0.037 A 
ATOM     49  C   UNL A   1      44.928  30.696  30.794  1.00  0.00     0.049 A 
ATOM     50  C   UNL A   1      44.107  25.526  28.776  1.00  0.00     0.074 A 
ATOM     51  C   UNL A   1      46.194  30.980  31.277  1.00  0.00     0.029 A 
ATOM     52  N   UNL A   1      44.956  29.383  30.345  1.00  0.00    -0.354 N 
ATOM     53  N   UNL A   1      44.444  26.688  29.284  1.00  0.00    -0.248 NA
ATOM     54  C   UNL A   1      45.205  24.551  28.722  1.00  0.00     0.031 C 
ATOM     55  C   UNL A   1      46.996  29.849  31.092  1.00  0.00     0.029 A 
ATOM     56  C   UNL A   1      46.219  28.848  30.530  1.00  0.00     0.049 A 
ATOM     57  H   UNL A   1      44.191  28.905  29.952  1.00  0.00     0.167 HD
ATOM     58  C   UNL A   1      45.785  26.575  29.632  1.00  0.00     0.074 A 
ATOM     59  C   UNL A   1      46.195  25.229  29.286  1.00  0.00     0.031 C 
ATOM     60  C   UNL A   1      46.605  27.502  30.188  1.00  0.00     0.037 A 
BRANCH  47  61
ATOM     61  C   UNL A   1      43.910  32.968  31.239  1.00  0.00     0.058 A 
ATOM     62  C   UNL A   1      43.720  33.306  32.589  1.00  0.00     0.135 A 
ATOM     63  C   UNL A   1      44.258  33.998  30.350  1.00  0.00     0.135 A 
ATOM     64  F   UNL A   1      43.370  32.363  33.478  1.00  0.00    -0.206 F 
ATOM     65  C   UNL A   1      43.835  34.619  33.034  1.00  0.00     0.059 A 
ATOM     66  C   UNL A   1      44.405  35.315  30.779  1.00  0.00     0.059 A 
ATOM     67  F   UNL A   1      44.452  33.732  29.049  1.00  0.00    -0.206 F 
ATOM     68  C   UNL A   1      44.174  35.617  32.120  1.00  0.00     0.060 A 
BRANCH  68  69
ATOM     69  S   UNL A   1      44.316  37.317  32.713  1.00  0.00     0.124 S 
ATOM     70  O   UNL A   1      44.075  38.071  31.487  1.00  0.00    -0.237 OA
ATOM     71  O   UNL A   1      43.261  37.389  33.718  1.00  0.00    -0.237 OA
ATOM     72  O   UNL A   1      45.679  37.382  33.232  1.00  0.00    -0.744 OA
ENDBRANCH  68  69
ENDBRANCH  47  61
BRANCH  48  73
ATOM     73  C   UNL A   1      42.585  23.705  27.712  1.00  0.00     0.058 A 
ATOM     74  C   UNL A   1      42.623  23.469  26.330  1.00  0.00     0.135 A 
ATOM     75  C   UNL A   1      42.389  22.602  28.558  1.00  0.00     0.135 A 
ATOM     76  F   UNL A   1      42.803  24.494  25.482  1.00  0.00    -0.206 F 
ATOM     77  C   UNL A   1      42.458  22.193  25.802  1.00  0.00     0.059 A 
ATOM     78  C   UNL A   1      42.244  21.312  28.055  1.00  0.00     0.059 A 
ATOM     79  F   UNL A   1      42.363  22.772  29.889  1.00  0.00    -0.206 F 
ATOM     80  C   UNL A   1      42.271  21.120  26.674  1.00  0.00     0.060 A 
BRANCH  80  81
ATOM     81  S   UNL A   1      42.110  19.459  25.983  1.00  0.00     0.124 S 
ATOM     82  O   UNL A   1      40.669  19.364  25.780  1.00  0.00    -0.237 OA
ATOM     83  O   UNL A   1      42.922  19.549  24.773  1.00  0.00    -0.237 OA
ATOM     84  O   UNL A   1      42.658  18.606  27.033  1.00  0.00    -0.744 OA
ENDBRANCH  80  81
ENDBRANCH  48  73
BRANCH  60  85
ATOM     85  C   UNL A   1      48.015  27.084  30.488  1.00  0.00     0.058 A 
ATOM     86  C   UNL A   1      49.059  27.318  29.581  1.00  0.00     0.135 A 
ATOM     87  C   UNL A   1      48.334  26.492  31.721  1.00  0.00     0.135 A 
ATOM     88  F   UNL A   1      48.805  27.875  28.387  1.00  0.00    -0.206 F 
ATOM     89  C   UNL A   1      50.371  26.962  29.878  1.00  0.00     0.059 A 
ATOM     90  C   UNL A   1      49.641  26.149  32.048  1.00  0.00     0.059 A 
ATOM     91  F   UNL A   1      47.371  26.257  32.627  1.00  0.00    -0.206 F 
ATOM     92  C   UNL A   1      50.652  26.379  31.116  1.00  0.00     0.060 A 
BRANCH  92  93
ATOM     93  S   UNL A   1      52.363  25.955  31.506  1.00  0.00     0.124 S 
ATOM     94  O   UNL A   1      52.218  24.598  32.023  1.00  0.00    -0.237 OA
ATOM     95  O   UNL A   1      53.019  26.071  30.207  1.00  0.00    -0.237 OA
ATOM     96  O   UNL A   1      52.747  26.964  32.488  1.00  0.00    -0.744 OA
ENDBRANCH  92  93
ENDBRANCH  60  85
ENDBRANCH  34  35
ENDBRANCH  26  29
ENDBRANCH  24  25
ENDBRANCH   1  24
TORSDOF 15
ENDMDL
MODEL 3
REMARK VINA RESULT:     -10.5      5.109     11.869
REMARK SMILES C[C@@H]1[C@@H](C(=O)NCCCNC(=O)c2ccc(-c3c4nc(c(-c5c(F)cc(S(=O)(=O)[O-])cc5F)c5ccc([nH]5)c(-c5c(F)cc(S(=O)(=O)[O-])cc5F)c5nc(c(-c6c(F)cc(S(=O)(=O)[O-])cc6F)c6ccc3[nH]6)C=C5)C=C4)cc2)CC[N@@H+]1C[C@H]1Cc2ccccc2O1
REMARK SMILES IDX 8 1 7 2 6 3 4 4 5 5 3 7 1 8 2 9 81 10 79 11 80 12 82 14
REMARK SMILES IDX 83 15 84 16 91 17 85 18 90 19 86 20 89 21 87 22 88 23 9 24
REMARK SMILES IDX 10 25 11 26 12 28 13 29 14 30 78 31 15 32 77 33 16 34 17 35
REMARK SMILES IDX 18 36 71 37 19 38 76 39 70 40 72 41 20 42 75 43 69 44 68 45
REMARK SMILES IDX 21 47 55 48 34 49 54 50 35 51 38 52 53 53 73 54 36 55 37 56
REMARK SMILES IDX 52 58 74 59 39 60 22 61 23 62 32 63 24 64 25 65 31 66 33 67
REMARK SMILES IDX 26 68 27 69 28 70 29 71 30 72 56 73 57 74 66 75 58 76 59 77
REMARK SMILES IDX 65 78 67 79 60 80 61 81 62 82 63 83 64 84 40 85 41 86 50 87
REMARK SMILES IDX 42 88 43 89 49 90 51 91 44 92 45 93 46 94 47 95 48 96
REMARK H PARENT 6 6 81 13 10 27 72 46 38 57
REMARK Flexibility Score: inf
ROOT
ATOM      1  C   UNL A   1      37.611  23.614  25.642  1.00  0.00     0.042 C 
ENDROOT
BRANCH   1   2
ATOM      2  C   UNL A   1      37.038  22.221  25.415  1.00  0.00     0.117 C 
BRANCH   2   3
ATOM      3  N   UNL A   1      36.013  21.864  26.380  1.00  0.00    -0.356 N 
ATOM      4  C   UNL A   1      34.676  21.664  26.284  1.00  0.00     0.229 C 
ATOM      5  O   UNL A   1      34.120  21.257  27.313  1.00  0.00    -0.275 OA
ATOM      6  H   UNL A   1      36.361  21.743  27.293  1.00  0.00     0.163 HD
BRANCH   4   7
ATOM      7  C   UNL A   1      33.813  21.986  25.067  1.00  0.00     0.142 C 
ATOM      8  C   UNL A   1      33.881  23.906  23.432  1.00  0.00     0.076 C 
ATOM      9  C   UNL A   1      33.400  23.441  24.810  1.00  0.00     0.193 C 
ATOM     10  N   UNL A   1      31.950  23.460  25.022  1.00  0.00    -0.329 N 
ATOM     11  C   UNL A   1      32.517  21.186  25.053  1.00  0.00     0.081 C 
ATOM     12  C   UNL A   1      31.451  22.174  25.460  1.00  0.00     0.263 C 
ATOM     13  H   UNL A   1      31.890  24.129  25.790  1.00  0.00     0.348 HD
BRANCH  10  14
ATOM     14  C   UNL A   1      31.050  24.360  24.320  1.00  0.00     0.308 C 
BRANCH  14  15
ATOM     15  C   UNL A   1      30.805  25.743  24.954  1.00  0.00     0.232 C 
ATOM     16  C   UNL A   1      31.367  25.910  26.371  1.00  0.00     0.090 C 
ATOM     17  O   UNL A   1      31.399  26.795  24.134  1.00  0.00    -0.484 OA
ATOM     18  C   UNL A   1      31.537  27.376  26.362  1.00  0.00    -0.002 A 
ATOM     19  C   UNL A   1      31.583  27.809  25.044  1.00  0.00     0.123 A 
ATOM     20  C   UNL A   1      31.681  28.251  27.420  1.00  0.00     0.007 A 
ATOM     21  C   UNL A   1      31.786  29.133  24.729  1.00  0.00     0.047 A 
ATOM     22  C   UNL A   1      31.855  29.602  27.123  1.00  0.00     0.001 A 
ATOM     23  C   UNL A   1      31.911  30.039  25.787  1.00  0.00     0.004 A 
ENDBRANCH  14  15
ENDBRANCH  10  14
ENDBRANCH   4   7
ENDBRANCH   2   3
ENDBRANCH   1   2
BRANCH   1  24
ATOM     24  C   UNL A   1      38.663  23.697  26.735  1.00  0.00     0.118 C 
BRANCH  24  25
ATOM     25  N   UNL A   1      40.013  23.827  26.210  1.00  0.00    -0.352 N 
ATOM     26  C   UNL A   1      40.996  24.752  26.465  1.00  0.00     0.251 C 
ATOM     27  H   UNL A   1      40.266  23.132  25.561  1.00  0.00     0.163 HD
ATOM     28  O   UNL A   1      41.999  24.756  25.752  1.00  0.00    -0.269 OA
BRANCH  26  29
ATOM     29  C   UNL A   1      40.868  25.747  27.557  1.00  0.00     0.039 A 
ATOM     30  C   UNL A   1      41.934  26.622  27.796  1.00  0.00     0.014 A 
ATOM     31  C   UNL A   1      39.746  25.796  28.387  1.00  0.00     0.014 A 
ATOM     32  C   UNL A   1      41.850  27.570  28.822  1.00  0.00     0.010 A 
ATOM     33  C   UNL A   1      39.620  26.803  29.341  1.00  0.00     0.010 A 
ATOM     34  C   UNL A   1      40.678  27.689  29.584  1.00  0.00    -0.014 A 
BRANCH  34  35
ATOM     35  C   UNL A   1      40.554  28.698  30.671  1.00  0.00     0.031 A 
ATOM     36  C   UNL A   1      41.437  28.603  31.890  1.00  0.00     0.074 A 
ATOM     37  C   UNL A   1      39.613  29.659  30.594  1.00  0.00     0.049 A 
ATOM     38  N   UNL A   1      41.420  29.321  32.983  1.00  0.00    -0.248 NA
ATOM     39  C   UNL A   1      42.454  27.538  31.892  1.00  0.00     0.031 C 
ATOM     40  C   UNL A   1      38.664  29.831  29.492  1.00  0.00     0.029 A 
ATOM     41  N   UNL A   1      39.290  30.668  31.466  1.00  0.00    -0.354 N 
ATOM     42  C   UNL A   1      42.398  28.779  33.809  1.00  0.00     0.074 A 
ATOM     43  C   UNL A   1      42.955  27.640  33.114  1.00  0.00     0.031 C 
ATOM     44  C   UNL A   1      37.886  30.897  29.740  1.00  0.00     0.029 A 
ATOM     45  C   UNL A   1      38.253  31.462  31.035  1.00  0.00     0.049 A 
ATOM     46  H   UNL A   1      39.758  30.811  32.320  1.00  0.00     0.167 HD
ATOM     47  C   UNL A   1      42.814  29.205  35.026  1.00  0.00     0.037 A 
ATOM     48  C   UNL A   1      37.663  32.524  31.618  1.00  0.00     0.037 A 
ATOM     49  C   UNL A   1      42.292  30.368  35.693  1.00  0.00     0.049 A 
ATOM     50  C   UNL A   1      38.161  32.997  32.956  1.00  0.00     0.074 A 
ATOM     51  C   UNL A   1      42.688  30.920  36.899  1.00  0.00     0.029 A 
ATOM     52  N   UNL A   1      41.268  31.166  35.204  1.00  0.00    -0.354 N 
ATOM     53  N   UNL A   1      39.117  32.498  33.702  1.00  0.00    -0.248 NA
ATOM     54  C   UNL A   1      37.506  34.182  33.529  1.00  0.00     0.031 C 
ATOM     55  C   UNL A   1      41.882  32.036  37.154  1.00  0.00     0.029 A 
ATOM     56  C   UNL A   1      41.012  32.200  36.088  1.00  0.00     0.049 A 
ATOM     57  H   UNL A   1      40.794  31.018  34.354  1.00  0.00     0.167 HD
ATOM     58  C   UNL A   1      39.195  33.320  34.820  1.00  0.00     0.074 A 
ATOM     59  C   UNL A   1      38.196  34.355  34.648  1.00  0.00     0.031 C 
ATOM     60  C   UNL A   1      40.019  33.227  35.893  1.00  0.00     0.037 A 
BRANCH  47  61
ATOM     61  C   UNL A   1      43.900  28.415  35.706  1.00  0.00     0.058 A 
ATOM     62  C   UNL A   1      43.603  27.366  36.591  1.00  0.00     0.135 A 
ATOM     63  C   UNL A   1      45.253  28.694  35.453  1.00  0.00     0.135 A 
ATOM     64  F   UNL A   1      42.326  27.068  36.880  1.00  0.00    -0.206 F 
ATOM     65  C   UNL A   1      44.606  26.646  37.229  1.00  0.00     0.059 A 
ATOM     66  C   UNL A   1      46.274  27.968  36.060  1.00  0.00     0.059 A 
ATOM     67  F   UNL A   1      45.594  29.685  34.615  1.00  0.00    -0.206 F 
ATOM     68  C   UNL A   1      45.940  26.957  36.960  1.00  0.00     0.060 A 
BRANCH  68  69
ATOM     69  S   UNL A   1      47.232  26.014  37.799  1.00  0.00     0.124 S 
ATOM     70  O   UNL A   1      46.836  26.162  39.195  1.00  0.00    -0.237 OA
ATOM     71  O   UNL A   1      47.067  24.681  37.231  1.00  0.00    -0.237 OA
ATOM     72  O   UNL A   1      48.459  26.708  37.418  1.00  0.00    -0.744 OA
ENDBRANCH  68  69
ENDBRANCH  47  61
BRANCH  48  73
ATOM     73  C   UNL A   1      36.555  33.231  30.923  1.00  0.00     0.058 A 
ATOM     74  C   UNL A   1      35.224  33.056  31.330  1.00  0.00     0.135 A 
ATOM     75  C   UNL A   1      36.802  34.108  29.856  1.00  0.00     0.135 A 
ATOM     76  F   UNL A   1      34.938  32.224  32.343  1.00  0.00    -0.206 F 
ATOM     77  C   UNL A   1      34.175  33.713  30.696  1.00  0.00     0.059 A 
ATOM     78  C   UNL A   1      35.771  34.794  29.220  1.00  0.00     0.059 A 
ATOM     79  F   UNL A   1      38.060  34.323  29.439  1.00  0.00    -0.206 F 
ATOM     80  C   UNL A   1      34.460  34.582  29.642  1.00  0.00     0.060 A 
BRANCH  80  81
ATOM     81  S   UNL A   1      33.097  35.471  28.859  1.00  0.00     0.124 S 
ATOM     82  O   UNL A   1      32.376  35.983  30.019  1.00  0.00    -0.237 OA
ATOM     83  O   UNL A   1      33.799  36.466  28.053  1.00  0.00    -0.237 OA
ATOM     84  O   UNL A   1      32.412  34.431  28.097  1.00  0.00    -0.744 OA
ENDBRANCH  80  81
ENDBRANCH  48  73
BRANCH  60  85
ATOM     85  C   UNL A   1      39.900  34.289  36.948  1.00  0.00     0.058 A 
ATOM     86  C   UNL A   1      40.583  35.510  36.842  1.00  0.00     0.135 A 
ATOM     87  C   UNL A   1      39.049  34.104  38.049  1.00  0.00     0.135 A 
ATOM     88  F   UNL A   1      41.413  35.733  35.810  1.00  0.00    -0.206 F 
ATOM     89  C   UNL A   1      40.442  36.505  37.802  1.00  0.00     0.059 A 
ATOM     90  C   UNL A   1      38.875  35.095  39.010  1.00  0.00     0.059 A 
ATOM     91  F   UNL A   1      38.366  32.957  38.190  1.00  0.00    -0.206 F 
ATOM     92  C   UNL A   1      39.584  36.289  38.883  1.00  0.00     0.060 A 
BRANCH  92  93
ATOM     93  S   UNL A   1      39.379  37.602  40.105  1.00  0.00     0.124 S 
ATOM     94  O   UNL A   1      40.662  38.291  40.014  1.00  0.00    -0.237 OA
ATOM     95  O   UNL A   1      38.228  38.335  39.588  1.00  0.00    -0.237 OA
ATOM     96  O   UNL A   1      39.143  36.874  41.348  1.00  0.00    -0.744 OA
ENDBRANCH  92  93
ENDBRANCH  60  85
ENDBRANCH  34  35
ENDBRANCH  26  29
ENDBRANCH  24  25
ENDBRANCH   1  24
TORSDOF 15
ENDMDL
