MODEL 1
REMARK VINA RESULT:     -12.4      0.000      0.000
REMARK SMILES C[C@H](NC(=O)[C@@H]1CCCN(S(=O)(=O)c2ccc(Cl)cc2)C1)C(=O)NCCCNC(=O)c1ccc(-c2c3nc(c(-c4c(F)cc(S(=O)(=O)[O-])cc4F)c4ccc([nH]4)c(-c4c(F)cc(S(=O)(=O)[O-])cc4F)c4nc(c(-c5c(F)cc(S(=O)(=O)[O-])cc5F)c5ccc2[nH]5)C=C4)C=C3)cc1
REMARK SMILES IDX 25 1 24 2 22 3 23 4 2 6 1 7 3 8 4 9 5 11 6 12 7 13 21 14
REMARK SMILES IDX 8 15 10 16 9 17 11 18 12 19 13 20 14 21 15 22 20 23 16 24
REMARK SMILES IDX 19 25 17 26 18 27 26 28 27 29 28 30 29 31 30 33 31 34 32 35
REMARK SMILES IDX 96 36 33 37 95 38 34 39 35 40 36 41 89 42 37 43 94 44 88 45
REMARK SMILES IDX 90 46 38 47 93 48 87 49 86 50 39 52 73 53 52 54 72 55 53 56
REMARK SMILES IDX 56 57 71 58 91 59 54 60 55 61 70 63 92 64 57 65 40 66 41 67
REMARK SMILES IDX 50 68 42 69 43 70 49 71 51 72 44 73 45 74 46 75 47 76 48 77
REMARK SMILES IDX 74 78 75 79 84 80 76 81 77 82 83 83 85 84 78 85 79 86 80 87
REMARK SMILES IDX 81 88 82 89 58 90 59 91 68 92 60 93 61 94 67 95 69 96 62 97
REMARK SMILES IDX 63 98 64 99 65 100 66 101
REMARK H PARENT 24 5 3 10 28 32 90 51 56 62
REMARK Flexibility Score: inf
ROOT
ATOM      1  C   UNL A   1      33.456  30.043  26.936  1.00  0.00     0.117 C 
ENDROOT
BRANCH   1   2
ATOM      2  N   UNL A   1      33.582  29.930  25.497  1.00  0.00    -0.354 N 
ATOM      3  C   UNL A   1      33.237  28.881  24.694  1.00  0.00     0.242 C 
ATOM      4  O   UNL A   1      33.295  29.036  23.472  1.00  0.00    -0.273 OA
ATOM      5  H   UNL A   1      33.965  30.713  25.039  1.00  0.00     0.163 HD
BRANCH   3   6
ATOM      6  C   UNL A   1      32.592  27.624  25.313  1.00  0.00     0.168 C 
ATOM      7  C   UNL A   1      33.713  26.626  25.473  1.00  0.00     0.041 C 
BRANCH   6   8
ATOM      8  N   UNL A   1      31.373  27.257  24.566  1.00  0.00    -0.344 N 
ATOM      9  C   UNL A   1      30.538  26.241  24.294  1.00  0.00     0.225 C 
ATOM     10  H   UNL A   1      31.053  28.055  24.085  1.00  0.00     0.164 HD
ATOM     11  O   UNL A   1      29.640  26.560  23.494  1.00  0.00    -0.275 OA
BRANCH   9  12
ATOM     12  C   UNL A   1      30.554  24.785  24.772  1.00  0.00     0.094 C 
ATOM     13  C   UNL A   1      30.507  24.502  26.266  1.00  0.00     0.016 C 
ATOM     14  C   UNL A   1      31.417  23.831  23.949  1.00  0.00     0.116 C 
ATOM     15  C   UNL A   1      31.764  23.896  26.877  1.00  0.00     0.018 C 
ATOM     16  N   UNL A   1      32.747  23.558  24.579  1.00  0.00    -0.197 NA
ATOM     17  C   UNL A   1      32.587  22.993  25.956  1.00  0.00     0.102 C 
BRANCH  16  18
ATOM     18  S   UNL A   1      33.797  22.615  23.557  1.00  0.00     0.243 S 
ATOM     19  O   UNL A   1      33.288  21.266  23.499  1.00  0.00    -0.207 OA
ATOM     20  O   UNL A   1      34.036  23.398  22.360  1.00  0.00    -0.207 OA
BRANCH  18  21
ATOM     21  C   UNL A   1      35.366  22.548  24.415  1.00  0.00     0.082 A 
ATOM     22  C   UNL A   1      36.013  23.703  24.856  1.00  0.00     0.023 A 
ATOM     23  C   UNL A   1      35.947  21.292  24.649  1.00  0.00     0.023 A 
ATOM     24  C   UNL A   1      37.258  23.602  25.491  1.00  0.00     0.022 A 
ATOM     25  C   UNL A   1      37.195  21.196  25.278  1.00  0.00     0.022 A 
ATOM     26  C   UNL A   1      37.850  22.352  25.688  1.00  0.00     0.041 A 
ATOM     27  Cl  UNL A   1      39.395  22.244  26.434  1.00  0.00    -0.084 Cl
ENDBRANCH  18  21
ENDBRANCH  16  18
ENDBRANCH   9  12
ENDBRANCH   6   8
ENDBRANCH   3   6
ENDBRANCH   1   2
BRANCH   1  28
ATOM     28  C   UNL A   1      34.674  29.501  27.658  1.00  0.00     0.042 C 
BRANCH  28  29
ATOM     29  C   UNL A   1      35.556  30.617  28.186  1.00  0.00     0.118 C 
BRANCH  29  30
ATOM     30  N   UNL A   1      35.557  30.668  29.644  1.00  0.00    -0.352 N 
ATOM     31  C   UNL A   1      36.464  30.138  30.526  1.00  0.00     0.251 C 
ATOM     32  H   UNL A   1      34.802  31.150  30.052  1.00  0.00     0.163 HD
ATOM     33  O   UNL A   1      36.217  30.087  31.725  1.00  0.00    -0.269 OA
BRANCH  31  34
ATOM     34  C   UNL A   1      37.736  29.642  29.985  1.00  0.00     0.039 A 
ATOM     35  C   UNL A   1      38.080  29.907  28.662  1.00  0.00     0.014 A 
ATOM     36  C   UNL A   1      38.613  28.969  30.840  1.00  0.00     0.014 A 
ATOM     37  C   UNL A   1      39.343  29.536  28.209  1.00  0.00     0.010 A 
ATOM     38  C   UNL A   1      39.906  28.720  30.427  1.00  0.00     0.010 A 
ATOM     39  C   UNL A   1      40.274  28.971  29.100  1.00  0.00    -0.014 A 
BRANCH  39  40
ATOM     40  C   UNL A   1      41.635  28.594  28.662  1.00  0.00     0.031 A 
ATOM     41  C   UNL A   1      42.703  29.652  28.590  1.00  0.00     0.074 A 
ATOM     42  C   UNL A   1      41.876  27.331  28.265  1.00  0.00     0.049 A 
ATOM     43  N   UNL A   1      43.934  29.552  28.167  1.00  0.00    -0.248 NA
ATOM     44  C   UNL A   1      42.324  31.014  29.008  1.00  0.00     0.031 C 
ATOM     45  C   UNL A   1      40.887  26.249  28.228  1.00  0.00     0.029 A 
ATOM     46  N   UNL A   1      43.026  26.743  27.810  1.00  0.00    -0.354 N 
ATOM     47  C   UNL A   1      44.466  30.834  28.250  1.00  0.00     0.074 A 
ATOM     48  C   UNL A   1      43.403  31.709  28.687  1.00  0.00     0.031 C 
ATOM     49  C   UNL A   1      41.484  25.122  27.813  1.00  0.00     0.029 A 
ATOM     50  C   UNL A   1      42.883  25.409  27.514  1.00  0.00     0.049 A 
ATOM     51  H   UNL A   1      43.875  27.230  27.705  1.00  0.00     0.167 HD
ATOM     52  C   UNL A   1      45.736  31.236  28.019  1.00  0.00     0.037 A 
ATOM     53  C   UNL A   1      43.784  24.521  27.054  1.00  0.00     0.037 A 
ATOM     54  C   UNL A   1      46.787  30.342  27.615  1.00  0.00     0.049 A 
ATOM     55  C   UNL A   1      45.196  24.988  26.823  1.00  0.00     0.074 A 
ATOM     56  C   UNL A   1      48.125  30.621  27.408  1.00  0.00     0.029 A 
ATOM     57  N   UNL A   1      46.614  28.987  27.358  1.00  0.00    -0.354 N 
ATOM     58  N   UNL A   1      45.702  26.190  26.974  1.00  0.00    -0.248 NA
ATOM     59  C   UNL A   1      46.161  23.978  26.375  1.00  0.00     0.031 C 
ATOM     60  C   UNL A   1      48.751  29.447  26.975  1.00  0.00     0.029 A 
ATOM     61  C   UNL A   1      47.818  28.421  26.977  1.00  0.00     0.049 A 
ATOM     62  H   UNL A   1      45.762  28.502  27.438  1.00  0.00     0.167 HD
ATOM     63  C   UNL A   1      47.054  26.074  26.670  1.00  0.00     0.074 A 
ATOM     64  C   UNL A   1      47.285  24.679  26.345  1.00  0.00     0.031 C 
ATOM     65  C   UNL A   1      48.019  27.028  26.662  1.00  0.00     0.037 A 
BRANCH  52  66
ATOM     66  C   UNL A   1      46.053  32.696  28.210  1.00  0.00     0.058 A 
ATOM     67  C   UNL A   1      45.944  33.622  27.160  1.00  0.00     0.135 A 
ATOM     68  C   UNL A   1      46.453  33.180  29.467  1.00  0.00     0.135 A 
ATOM     69  F   UNL A   1      45.588  33.215  25.931  1.00  0.00    -0.206 F 
ATOM     70  C   UNL A   1      46.248  34.968  27.339  1.00  0.00     0.059 A 
ATOM     71  C   UNL A   1      46.729  34.528  29.677  1.00  0.00     0.059 A 
ATOM     72  F   UNL A   1      46.582  32.340  30.505  1.00  0.00    -0.206 F 
ATOM     73  C   UNL A   1      46.637  35.412  28.604  1.00  0.00     0.060 A 
BRANCH  73  74
ATOM     74  S   UNL A   1      47.010  37.164  28.821  1.00  0.00     0.124 S 
ATOM     75  O   UNL A   1      48.287  37.105  29.527  1.00  0.00    -0.237 OA
ATOM     76  O   UNL A   1      47.070  37.643  27.444  1.00  0.00    -0.237 OA
ATOM     77  O   UNL A   1      45.884  37.657  29.607  1.00  0.00    -0.744 OA
ENDBRANCH  73  74
ENDBRANCH  52  66
BRANCH  53  78
ATOM     78  C   UNL A   1      43.388  23.106  26.823  1.00  0.00     0.058 A 
ATOM     79  C   UNL A   1      43.126  22.244  27.898  1.00  0.00     0.135 A 
ATOM     80  C   UNL A   1      43.244  22.590  25.525  1.00  0.00     0.135 A 
ATOM     81  F   UNL A   1      43.247  22.689  29.159  1.00  0.00    -0.206 F 
ATOM     82  C   UNL A   1      42.763  20.916  27.698  1.00  0.00     0.059 A 
ATOM     83  C   UNL A   1      42.853  21.274  25.299  1.00  0.00     0.059 A 
ATOM     84  F   UNL A   1      43.460  23.378  24.460  1.00  0.00    -0.206 F 
ATOM     85  C   UNL A   1      42.628  20.440  26.393  1.00  0.00     0.060 A 
BRANCH  85  86
ATOM     86  S   UNL A   1      42.121  18.725  26.146  1.00  0.00     0.124 S 
ATOM     87  O   UNL A   1      43.038  18.295  25.097  1.00  0.00    -0.237 OA
ATOM     88  O   UNL A   1      42.345  18.147  27.468  1.00  0.00    -0.237 OA
ATOM     89  O   UNL A   1      40.721  18.842  25.751  1.00  0.00    -0.744 OA
ENDBRANCH  85  86
ENDBRANCH  53  78
BRANCH  65  90
ATOM     90  C   UNL A   1      49.418  26.583  26.334  1.00  0.00     0.058 A 
ATOM     91  C   UNL A   1      50.248  25.977  27.289  1.00  0.00     0.135 A 
ATOM     92  C   UNL A   1      49.921  26.743  25.032  1.00  0.00     0.135 A 
ATOM     93  F   UNL A   1      49.816  25.803  28.548  1.00  0.00    -0.206 F 
ATOM     94  C   UNL A   1      51.546  25.587  26.977  1.00  0.00     0.059 A 
ATOM     95  C   UNL A   1      51.202  26.327  24.689  1.00  0.00     0.059 A 
ATOM     96  F   UNL A   1      49.162  27.302  24.076  1.00  0.00    -0.206 F 
ATOM     97  C   UNL A   1      52.014  25.768  25.674  1.00  0.00     0.060 A 
BRANCH  97  98
ATOM     98  S   UNL A   1      53.699  25.255  25.283  1.00  0.00     0.124 S 
ATOM     99  O   UNL A   1      53.798  25.627  23.876  1.00  0.00    -0.237 OA
ATOM    100  O   UNL A   1      54.492  26.057  26.210  1.00  0.00    -0.237 OA
ATOM    101  O   UNL A   1      53.688  23.821  25.554  1.00  0.00    -0.744 OA
ENDBRANCH  97  98
ENDBRANCH  65  90
ENDBRANCH  39  40
ENDBRANCH  31  34
ENDBRANCH  29  30
ENDBRANCH  28  29
ENDBRANCH   1  28
TORSDOF 17
ENDMDL
MODEL 2
REMARK VINA RESULT:     -12.3      6.569     12.036
REMARK SMILES C[C@H](NC(=O)[C@@H]1CCCN(S(=O)(=O)c2ccc(Cl)cc2)C1)C(=O)NCCCNC(=O)c1ccc(-c2c3nc(c(-c4c(F)cc(S(=O)(=O)[O-])cc4F)c4ccc([nH]4)c(-c4c(F)cc(S(=O)(=O)[O-])cc4F)c4nc(c(-c5c(F)cc(S(=O)(=O)[O-])cc5F)c5ccc2[nH]5)C=C4)C=C3)cc1
REMARK SMILES IDX 25 1 24 2 22 3 23 4 2 6 1 7 3 8 4 9 5 11 6 12 7 13 21 14
REMARK SMILES IDX 8 15 10 16 9 17 11 18 12 19 13 20 14 21 15 22 20 23 16 24
REMARK SMILES IDX 19 25 17 26 18 27 26 28 27 29 28 30 29 31 30 33 31 34 32 35
REMARK SMILES IDX 96 36 33 37 95 38 34 39 35 40 36 41 89 42 37 43 94 44 88 45
REMARK SMILES IDX 90 46 38 47 93 48 87 49 86 50 39 52 73 53 52 54 72 55 53 56
REMARK SMILES IDX 56 57 71 58 91 59 54 60 55 61 70 63 92 64 57 65 40 66 41 67
REMARK SMILES IDX 50 68 42 69 43 70 49 71 51 72 44 73 45 74 46 75 47 76 48 77
REMARK SMILES IDX 74 78 75 79 84 80 76 81 77 82 83 83 85 84 78 85 79 86 80 87
REMARK SMILES IDX 81 88 82 89 58 90 59 91 68 92 60 93 61 94 67 95 69 96 62 97
REMARK SMILES IDX 63 98 64 99 65 100 66 101
REMARK H PARENT 24 5 3 10 28 32 90 51 56 62
REMARK Flexibility Score: inf
ROOT
ATOM      1  C   UNL A   1      36.217  23.519  25.876  1.00  0.00     0.117 C 
ENDROOT
BRANCH   1   2
ATOM      2  N   UNL A   1      35.604  22.570  26.784  1.00  0.00    -0.354 N 
ATOM      3  C   UNL A   1      34.278  22.293  26.956  1.00  0.00     0.242 C 
ATOM      4  O   UNL A   1      33.968  21.347  27.684  1.00  0.00    -0.273 OA
ATOM      5  H   UNL A   1      36.226  22.058  27.349  1.00  0.00     0.163 HD
BRANCH   3   6
ATOM      6  C   UNL A   1      33.227  23.014  26.087  1.00  0.00     0.168 C 
ATOM      7  C   UNL A   1      32.164  23.494  27.045  1.00  0.00     0.041 C 
BRANCH   6   8
ATOM      8  N   UNL A   1      32.859  22.174  24.931  1.00  0.00    -0.344 N 
ATOM      9  C   UNL A   1      32.413  22.214  23.665  1.00  0.00     0.225 C 
ATOM     10  H   UNL A   1      32.987  21.230  25.182  1.00  0.00     0.164 HD
ATOM     11  O   UNL A   1      32.240  21.081  23.181  1.00  0.00    -0.275 OA
BRANCH   9  12
ATOM     12  C   UNL A   1      32.054  23.409  22.774  1.00  0.00     0.094 C 
ATOM     13  C   UNL A   1      33.152  24.069  21.954  1.00  0.00     0.016 C 
ATOM     14  C   UNL A   1      30.994  24.353  23.336  1.00  0.00     0.116 C 
ATOM     15  C   UNL A   1      33.535  25.487  22.359  1.00  0.00     0.018 C 
ATOM     16  N   UNL A   1      31.579  25.588  23.947  1.00  0.00    -0.197 NA
ATOM     17  C   UNL A   1      32.414  26.338  22.957  1.00  0.00     0.102 C 
BRANCH  16  18
ATOM     18  S   UNL A   1      30.386  26.578  24.743  1.00  0.00     0.243 S 
ATOM     19  O   UNL A   1      29.580  27.223  23.735  1.00  0.00    -0.207 OA
ATOM     20  O   UNL A   1      29.798  25.768  25.794  1.00  0.00    -0.207 OA
BRANCH  18  21
ATOM     21  C   UNL A   1      31.310  27.862  25.579  1.00  0.00     0.082 A 
ATOM     22  C   UNL A   1      31.296  29.185  25.134  1.00  0.00     0.023 A 
ATOM     23  C   UNL A   1      32.059  27.517  26.715  1.00  0.00     0.023 A 
ATOM     24  C   UNL A   1      32.066  30.149  25.801  1.00  0.00     0.022 A 
ATOM     25  C   UNL A   1      32.831  28.482  27.373  1.00  0.00     0.022 A 
ATOM     26  C   UNL A   1      32.839  29.792  26.907  1.00  0.00     0.041 A 
ATOM     27  Cl  UNL A   1      33.808  30.975  27.693  1.00  0.00    -0.084 Cl
ENDBRANCH  18  21
ENDBRANCH  16  18
ENDBRANCH   9  12
ENDBRANCH   6   8
ENDBRANCH   3   6
ENDBRANCH   1   2
BRANCH   1  28
ATOM     28  C   UNL A   1      37.701  23.266  25.706  1.00  0.00     0.042 C 
BRANCH  28  29
ATOM     29  C   UNL A   1      38.533  24.241  26.520  1.00  0.00     0.118 C 
BRANCH  29  30
ATOM     30  N   UNL A   1      39.949  24.166  26.180  1.00  0.00    -0.352 N 
ATOM     31  C   UNL A   1      40.966  25.018  26.525  1.00  0.00     0.251 C 
ATOM     32  H   UNL A   1      40.212  23.395  25.625  1.00  0.00     0.163 HD
ATOM     33  O   UNL A   1      42.066  24.933  25.990  1.00  0.00    -0.269 OA
BRANCH  31  34
ATOM     34  C   UNL A   1      40.694  26.026  27.558  1.00  0.00     0.039 A 
ATOM     35  C   UNL A   1      39.737  25.778  28.538  1.00  0.00     0.014 A 
ATOM     36  C   UNL A   1      41.461  27.195  27.574  1.00  0.00     0.014 A 
ATOM     37  C   UNL A   1      39.585  26.693  29.576  1.00  0.00     0.010 A 
ATOM     38  C   UNL A   1      41.398  28.032  28.670  1.00  0.00     0.010 A 
ATOM     39  C   UNL A   1      40.439  27.807  29.664  1.00  0.00    -0.014 A 
BRANCH  39  40
ATOM     40  C   UNL A   1      40.329  28.783  30.771  1.00  0.00     0.031 A 
ATOM     41  C   UNL A   1      41.211  28.625  31.979  1.00  0.00     0.074 A 
ATOM     42  C   UNL A   1      39.392  29.747  30.711  1.00  0.00     0.049 A 
ATOM     43  N   UNL A   1      41.226  29.321  33.084  1.00  0.00    -0.248 NA
ATOM     44  C   UNL A   1      42.176  27.511  31.963  1.00  0.00     0.031 C 
ATOM     45  C   UNL A   1      38.438  29.937  29.614  1.00  0.00     0.029 A 
ATOM     46  N   UNL A   1      39.082  30.745  31.595  1.00  0.00    -0.354 N 
ATOM     47  C   UNL A   1      42.182  28.720  33.894  1.00  0.00     0.074 A 
ATOM     48  C   UNL A   1      42.668  27.556  33.190  1.00  0.00     0.031 C 
ATOM     49  C   UNL A   1      37.677  31.011  29.874  1.00  0.00     0.029 A 
ATOM     50  C   UNL A   1      38.059  31.559  31.171  1.00  0.00     0.049 A 
ATOM     51  H   UNL A   1      39.547  30.868  32.454  1.00  0.00     0.167 HD
ATOM     52  C   UNL A   1      42.639  29.124  35.102  1.00  0.00     0.037 A 
ATOM     53  C   UNL A   1      37.496  32.626  31.767  1.00  0.00     0.037 A 
ATOM     54  C   UNL A   1      42.163  30.304  35.771  1.00  0.00     0.049 A 
ATOM     55  C   UNL A   1      38.034  33.068  33.101  1.00  0.00     0.074 A 
ATOM     56  C   UNL A   1      42.590  30.847  36.969  1.00  0.00     0.029 A 
ATOM     57  N   UNL A   1      41.149  31.126  35.296  1.00  0.00    -0.354 N 
ATOM     58  N   UNL A   1      38.989  32.530  33.825  1.00  0.00    -0.248 NA
ATOM     59  C   UNL A   1      37.432  34.269  33.692  1.00  0.00     0.031 C 
ATOM     60  C   UNL A   1      41.799  31.967  37.243  1.00  0.00     0.029 A 
ATOM     61  C   UNL A   1      40.924  32.162  36.185  1.00  0.00     0.049 A 
ATOM     62  H   UNL A   1      40.663  30.992  34.451  1.00  0.00     0.167 HD
ATOM     63  C   UNL A   1      39.123  33.346  34.942  1.00  0.00     0.074 A 
ATOM     64  C   UNL A   1      38.164  34.422  34.786  1.00  0.00     0.031 C 
ATOM     65  C   UNL A   1      39.964  33.222  36.001  1.00  0.00     0.037 A 
BRANCH  52  66
ATOM     66  C   UNL A   1      43.708  28.292  35.759  1.00  0.00     0.058 A 
ATOM     67  C   UNL A   1      45.074  28.514  35.518  1.00  0.00     0.135 A 
ATOM     68  C   UNL A   1      43.363  27.270  36.659  1.00  0.00     0.135 A 
ATOM     69  F   UNL A   1      45.464  29.462  34.651  1.00  0.00    -0.206 F 
ATOM     70  C   UNL A   1      46.057  27.735  36.119  1.00  0.00     0.059 A 
ATOM     71  C   UNL A   1      44.331  26.502  37.299  1.00  0.00     0.059 A 
ATOM     72  F   UNL A   1      42.073  27.007  36.922  1.00  0.00    -0.206 F 
ATOM     73  C   UNL A   1      45.675  26.732  37.012  1.00  0.00     0.060 A 
BRANCH  73  74
ATOM     74  S   UNL A   1      46.965  25.744  37.797  1.00  0.00     0.124 S 
ATOM     75  O   UNL A   1      48.037  25.824  36.809  1.00  0.00    -0.237 OA
ATOM     76  O   UNL A   1      47.199  26.470  39.042  1.00  0.00    -0.237 OA
ATOM     77  O   UNL A   1      46.346  24.431  37.946  1.00  0.00    -0.744 OA
ENDBRANCH  73  74
ENDBRANCH  52  66
BRANCH  53  78
ATOM     78  C   UNL A   1      36.396  33.366  31.091  1.00  0.00     0.058 A 
ATOM     79  C   UNL A   1      36.641  34.138  29.946  1.00  0.00     0.135 A 
ATOM     80  C   UNL A   1      35.075  33.301  31.564  1.00  0.00     0.135 A 
ATOM     81  F   UNL A   1      37.886  34.230  29.454  1.00  0.00    -0.206 F 
ATOM     82  C   UNL A   1      35.625  34.842  29.309  1.00  0.00     0.059 A 
ATOM     83  C   UNL A   1      34.036  33.972  30.926  1.00  0.00     0.059 A 
ATOM     84  F   UNL A   1      34.782  32.559  32.642  1.00  0.00    -0.206 F 
ATOM     85  C   UNL A   1      34.323  34.751  29.806  1.00  0.00     0.060 A 
BRANCH  85  86
ATOM     86  S   UNL A   1      33.007  35.640  28.948  1.00  0.00     0.124 S 
ATOM     87  O   UNL A   1      32.415  34.581  28.139  1.00  0.00    -0.237 OA
ATOM     88  O   UNL A   1      32.192  36.127  30.058  1.00  0.00    -0.237 OA
ATOM     89  O   UNL A   1      33.725  36.673  28.208  1.00  0.00    -0.744 OA
ENDBRANCH  85  86
ENDBRANCH  53  78
BRANCH  65  90
ATOM     90  C   UNL A   1      39.910  34.302  37.046  1.00  0.00     0.058 A 
ATOM     91  C   UNL A   1      39.039  34.233  38.144  1.00  0.00     0.135 A 
ATOM     92  C   UNL A   1      40.769  35.411  36.958  1.00  0.00     0.135 A 
ATOM     93  F   UNL A   1      38.197  33.196  38.274  1.00  0.00    -0.206 F 
ATOM     94  C   UNL A   1      38.987  35.248  39.093  1.00  0.00     0.059 A 
ATOM     95  C   UNL A   1      40.760  36.419  37.915  1.00  0.00     0.059 A 
ATOM     96  F   UNL A   1      41.634  35.518  35.937  1.00  0.00    -0.206 F 
ATOM     97  C   UNL A   1      39.851  36.338  38.968  1.00  0.00     0.060 A 
BRANCH  97  98
ATOM     98  S   UNL A   1      39.775  37.646  40.208  1.00  0.00     0.124 S 
ATOM     99  O   UNL A   1      38.384  38.070  40.101  1.00  0.00    -0.237 OA
ATOM    100  O   UNL A   1      40.130  36.936  41.433  1.00  0.00    -0.237 OA
ATOM    101  O   UNL A   1      40.764  38.613  39.742  1.00  0.00    -0.744 OA
ENDBRANCH  97  98
ENDBRANCH  65  90
ENDBRANCH  39  40
ENDBRANCH  31  34
ENDBRANCH  29  30
ENDBRANCH  28  29
ENDBRANCH   1  28
TORSDOF 17
ENDMDL
MODEL 3
REMARK VINA RESULT:     -11.9      6.647     11.515
REMARK SMILES C[C@H](NC(=O)[C@@H]1CCCN(S(=O)(=O)c2ccc(Cl)cc2)C1)C(=O)NCCCNC(=O)c1ccc(-c2c3nc(c(-c4c(F)cc(S(=O)(=O)[O-])cc4F)c4ccc([nH]4)c(-c4c(F)cc(S(=O)(=O)[O-])cc4F)c4nc(c(-c5c(F)cc(S(=O)(=O)[O-])cc5F)c5ccc2[nH]5)C=C4)C=C3)cc1
REMARK SMILES IDX 25 1 24 2 22 3 23 4 2 6 1 7 3 8 4 9 5 11 6 12 7 13 21 14
REMARK SMILES IDX 8 15 10 16 9 17 11 18 12 19 13 20 14 21 15 22 20 23 16 24
REMARK SMILES IDX 19 25 17 26 18 27 26 28 27 29 28 30 29 31 30 33 31 34 32 35
REMARK SMILES IDX 96 36 33 37 95 38 34 39 35 40 36 41 89 42 37 43 94 44 88 45
REMARK SMILES IDX 90 46 38 47 93 48 87 49 86 50 39 52 73 53 52 54 72 55 53 56
REMARK SMILES IDX 56 57 71 58 91 59 54 60 55 61 70 63 92 64 57 65 40 66 41 67
REMARK SMILES IDX 50 68 42 69 43 70 49 71 51 72 44 73 45 74 46 75 47 76 48 77
REMARK SMILES IDX 74 78 75 79 84 80 76 81 77 82 83 83 85 84 78 85 79 86 80 87
REMARK SMILES IDX 81 88 82 89 58 90 59 91 68 92 60 93 61 94 67 95 69 96 62 97
REMARK SMILES IDX 63 98 64 99 65 100 66 101
REMARK H PARENT 24 5 3 10 28 32 90 51 56 62
REMARK Flexibility Score: inf
ROOT
ATOM      1  C   UNL A   1      38.569  22.027  25.833  1.00  0.00     0.117 C 
ENDROOT
BRANCH   1   2
ATOM      2  N   UNL A   1      37.350  22.593  26.375  1.00  0.00    -0.354 N 
ATOM      3  C   UNL A   1      36.103  22.617  25.819  1.00  0.00     0.242 C 
ATOM      4  O   UNL A   1      35.164  23.026  26.505  1.00  0.00    -0.273 OA
ATOM      5  H   UNL A   1      37.432  23.016  27.260  1.00  0.00     0.163 HD
BRANCH   3   6
ATOM      6  C   UNL A   1      35.864  21.945  24.450  1.00  0.00     0.168 C 
ATOM      7  C   UNL A   1      35.174  22.984  23.600  1.00  0.00     0.041 C 
BRANCH   6   8
ATOM      8  N   UNL A   1      35.252  20.614  24.637  1.00  0.00    -0.344 N 
ATOM      9  C   UNL A   1      34.085  19.950  24.620  1.00  0.00     0.225 C 
ATOM     10  H   UNL A   1      35.967  19.974  24.858  1.00  0.00     0.164 HD
ATOM     11  O   UNL A   1      34.211  18.751  24.927  1.00  0.00    -0.275 OA
BRANCH   9  12
ATOM     12  C   UNL A   1      32.663  20.445  24.333  1.00  0.00     0.094 C 
ATOM     13  C   UNL A   1      32.298  20.845  22.911  1.00  0.00     0.016 C 
ATOM     14  C   UNL A   1      32.023  21.283  25.438  1.00  0.00     0.116 C 
ATOM     15  C   UNL A   1      32.020  22.324  22.678  1.00  0.00     0.018 C 
ATOM     16  N   UNL A   1      32.083  22.753  25.162  1.00  0.00    -0.197 NA
ATOM     17  C   UNL A   1      31.422  23.088  23.862  1.00  0.00     0.102 C 
BRANCH  16  18
ATOM     18  S   UNL A   1      31.513  23.714  26.500  1.00  0.00     0.243 S 
ATOM     19  O   UNL A   1      30.071  23.680  26.506  1.00  0.00    -0.207 OA
ATOM     20  O   UNL A   1      32.296  23.330  27.659  1.00  0.00    -0.207 OA
BRANCH  18  21
ATOM     21  C   UNL A   1      31.997  25.395  26.122  1.00  0.00     0.082 A 
ATOM     22  C   UNL A   1      33.337  25.761  25.985  1.00  0.00     0.023 A 
ATOM     23  C   UNL A   1      30.991  26.359  25.956  1.00  0.00     0.023 A 
ATOM     24  C   UNL A   1      33.667  27.098  25.725  1.00  0.00     0.022 A 
ATOM     25  C   UNL A   1      31.326  27.695  25.703  1.00  0.00     0.022 A 
ATOM     26  C   UNL A   1      32.664  28.061  25.599  1.00  0.00     0.041 A 
ATOM     27  Cl  UNL A   1      33.084  29.704  25.318  1.00  0.00    -0.084 Cl
ENDBRANCH  18  21
ENDBRANCH  16  18
ENDBRANCH   9  12
ENDBRANCH   6   8
ENDBRANCH   3   6
ENDBRANCH   1   2
BRANCH   1  28
ATOM     28  C   UNL A   1      39.745  22.209  26.770  1.00  0.00     0.042 C 
BRANCH  28  29
ATOM     29  C   UNL A   1      39.964  23.670  27.120  1.00  0.00     0.118 C 
BRANCH  29  30
ATOM     30  N   UNL A   1      40.767  24.357  26.114  1.00  0.00    -0.352 N 
ATOM     31  C   UNL A   1      41.082  25.689  26.023  1.00  0.00     0.251 C 
ATOM     32  H   UNL A   1      41.135  23.785  25.401  1.00  0.00     0.163 HD
ATOM     33  O   UNL A   1      41.593  26.145  25.007  1.00  0.00    -0.269 OA
BRANCH  31  34
ATOM     34  C   UNL A   1      40.792  26.542  27.183  1.00  0.00     0.039 A 
ATOM     35  C   UNL A   1      39.957  26.078  28.197  1.00  0.00     0.014 A 
ATOM     36  C   UNL A   1      41.424  27.785  27.277  1.00  0.00     0.014 A 
ATOM     37  C   UNL A   1      39.798  26.853  29.343  1.00  0.00     0.010 A 
ATOM     38  C   UNL A   1      41.366  28.487  28.464  1.00  0.00     0.010 A 
ATOM     39  C   UNL A   1      40.528  28.045  29.495  1.00  0.00    -0.014 A 
BRANCH  39  40
ATOM     40  C   UNL A   1      40.409  28.877  30.712  1.00  0.00     0.031 A 
ATOM     41  C   UNL A   1      39.375  29.968  30.758  1.00  0.00     0.074 A 
ATOM     42  C   UNL A   1      41.277  28.694  31.725  1.00  0.00     0.049 A 
ATOM     43  N   UNL A   1      39.152  30.853  31.692  1.00  0.00    -0.248 NA
ATOM     44  C   UNL A   1      38.501  30.112  29.579  1.00  0.00     0.031 C 
ATOM     45  C   UNL A   1      42.364  27.710  31.746  1.00  0.00     0.029 A 
ATOM     46  N   UNL A   1      41.386  29.332  32.932  1.00  0.00    -0.354 N 
ATOM     47  C   UNL A   1      38.133  31.664  31.206  1.00  0.00     0.074 A 
ATOM     48  C   UNL A   1      37.835  31.218  29.865  1.00  0.00     0.031 C 
ATOM     49  C   UNL A   1      43.003  27.786  32.923  1.00  0.00     0.029 A 
ATOM     50  C   UNL A   1      42.401  28.847  33.721  1.00  0.00     0.049 A 
ATOM     51  H   UNL A   1      40.794  30.068  33.208  1.00  0.00     0.167 HD
ATOM     52  C   UNL A   1      37.479  32.666  31.838  1.00  0.00     0.037 A 
ATOM     53  C   UNL A   1      42.797  29.222  34.952  1.00  0.00     0.037 A 
ATOM     54  C   UNL A   1      37.771  33.073  33.185  1.00  0.00     0.049 A 
ATOM     55  C   UNL A   1      42.042  30.326  35.642  1.00  0.00     0.074 A 
ATOM     56  C   UNL A   1      37.139  34.034  33.951  1.00  0.00     0.029 A 
ATOM     57  N   UNL A   1      38.784  32.536  33.970  1.00  0.00    -0.354 N 
ATOM     58  N   UNL A   1      41.032  31.038  35.197  1.00  0.00    -0.248 NA
ATOM     59  C   UNL A   1      42.468  30.667  37.004  1.00  0.00     0.031 C 
ATOM     60  C   UNL A   1      37.803  34.115  35.180  1.00  0.00     0.029 A 
ATOM     61  C   UNL A   1      38.806  33.158  35.206  1.00  0.00     0.049 A 
ATOM     62  H   UNL A   1      39.395  31.818  33.689  1.00  0.00     0.167 HD
ATOM     63  C   UNL A   1      40.681  31.891  36.237  1.00  0.00     0.074 A 
ATOM     64  C   UNL A   1      41.577  31.590  37.337  1.00  0.00     0.031 C 
ATOM     65  C   UNL A   1      39.707  32.835  36.284  1.00  0.00     0.037 A 
BRANCH  52  66
ATOM     66  C   UNL A   1      36.386  33.374  31.081  1.00  0.00     0.058 A 
ATOM     67  C   UNL A   1      35.030  33.197  31.399  1.00  0.00     0.135 A 
ATOM     68  C   UNL A   1      36.700  34.257  30.036  1.00  0.00     0.135 A 
ATOM     69  F   UNL A   1      34.667  32.347  32.374  1.00  0.00    -0.206 F 
ATOM     70  C   UNL A   1      34.023  33.844  30.690  1.00  0.00     0.059 A 
ATOM     71  C   UNL A   1      35.711  34.942  29.336  1.00  0.00     0.059 A 
ATOM     72  F   UNL A   1      37.979  34.460  29.683  1.00  0.00    -0.206 F 
ATOM     73  C   UNL A   1      34.375  34.719  29.661  1.00  0.00     0.060 A 
BRANCH  73  74
ATOM     74  S   UNL A   1      33.057  35.565  28.764  1.00  0.00     0.124 S 
ATOM     75  O   UNL A   1      32.495  34.474  27.974  1.00  0.00    -0.237 OA
ATOM     76  O   UNL A   1      32.213  36.061  29.847  1.00  0.00    -0.237 OA
ATOM     77  O   UNL A   1      33.765  36.590  28.004  1.00  0.00    -0.744 OA
ENDBRANCH  73  74
ENDBRANCH  52  66
BRANCH  53  78
ATOM     78  C   UNL A   1      43.929  28.524  35.618  1.00  0.00     0.058 A 
ATOM     79  C   UNL A   1      43.707  27.420  36.453  1.00  0.00     0.135 A 
ATOM     80  C   UNL A   1      45.258  28.933  35.418  1.00  0.00     0.135 A 
ATOM     81  F   UNL A   1      42.455  26.988  36.675  1.00  0.00    -0.206 F 
ATOM     82  C   UNL A   1      44.754  26.762  37.090  1.00  0.00     0.059 A 
ATOM     83  C   UNL A   1      46.325  28.273  36.019  1.00  0.00     0.059 A 
ATOM     84  F   UNL A   1      45.528  29.969  34.610  1.00  0.00    -0.206 F 
ATOM     85  C   UNL A   1      46.062  27.196  36.865  1.00  0.00     0.060 A 
BRANCH  85  86
ATOM     86  S   UNL A   1      47.416  26.311  37.667  1.00  0.00     0.124 S 
ATOM     87  O   UNL A   1      47.554  27.053  38.915  1.00  0.00    -0.237 OA
ATOM     88  O   UNL A   1      46.874  24.961  37.783  1.00  0.00    -0.237 OA
ATOM     89  O   UNL A   1      48.520  26.457  36.722  1.00  0.00    -0.744 OA
ENDBRANCH  85  86
ENDBRANCH  53  78
BRANCH  65  90
ATOM     90  C   UNL A   1      39.534  33.575  37.582  1.00  0.00     0.058 A 
ATOM     91  C   UNL A   1      38.639  33.141  38.571  1.00  0.00     0.135 A 
ATOM     92  C   UNL A   1      40.300  34.723  37.846  1.00  0.00     0.135 A 
ATOM     93  F   UNL A   1      37.883  32.051  38.368  1.00  0.00    -0.206 F 
ATOM     94  C   UNL A   1      38.476  33.844  39.760  1.00  0.00     0.059 A 
ATOM     95  C   UNL A   1      40.179  35.421  39.043  1.00  0.00     0.059 A 
ATOM     96  F   UNL A   1      41.183  35.172  36.940  1.00  0.00    -0.206 F 
ATOM     97  C   UNL A   1      39.249  34.985  39.984  1.00  0.00     0.060 A 
BRANCH  97  98
ATOM     98  S   UNL A   1      39.029  35.887  41.531  1.00  0.00     0.124 S 
ATOM     99  O   UNL A   1      40.249  35.537  42.250  1.00  0.00    -0.237 OA
ATOM    100  O   UNL A   1      38.934  37.270  41.075  1.00  0.00    -0.237 OA
ATOM    101  O   UNL A   1      37.796  35.327  42.078  1.00  0.00    -0.744 OA
ENDBRANCH  97  98
ENDBRANCH  65  90
ENDBRANCH  39  40
ENDBRANCH  31  34
ENDBRANCH  29  30
ENDBRANCH  28  29
ENDBRANCH   1  28
TORSDOF 17
ENDMDL
