MODEL 1
REMARK VINA RESULT:      -8.9      0.000      0.000
REMARK SMILES Cc1ccc(S(=O)(=O)n2cc(C(=O)C(=O)NCC(=O)N[C@@H](Cc3c[nH]c4ccccc34)C(=O)NCCCNC(=O)c3ccc(-c4c5nc(c(-c6c(F)cc(S(=O)(=O)[O-])cc6F)c6ccc([nH]6)c(-c6c(F)cc(S(=O)(=O)[O-])cc6F)c6nc(c(-c7c(F)cc(S(=O)(=O)[O-])cc7F)c7ccc4[nH]7)C=C6)C=C5)cc3)c3ccccc32)cc1
REMARK SMILES IDX 32 1 33 2 34 3 21 5 20 6 18 7 19 8 17 10 16 11 14 12 15 13
REMARK SMILES IDX 12 15 13 16 11 17 9 18 10 19 112 20 107 21 111 22 108 23
REMARK SMILES IDX 110 24 109 25 6 26 7 27 8 28 5 29 1 30 2 31 3 32 114 33 4 34
REMARK SMILES IDX 113 35 22 36 23 37 24 38 31 39 25 40 26 41 30 42 27 44 29 45
REMARK SMILES IDX 28 46 35 47 36 48 37 49 38 50 39 51 40 53 41 54 42 55 106 56
REMARK SMILES IDX 43 57 105 58 44 59 45 60 46 61 99 62 47 63 104 64 98 65
REMARK SMILES IDX 100 66 48 67 103 68 97 69 96 70 49 72 83 73 62 74 82 75
REMARK SMILES IDX 63 76 66 77 81 78 101 79 64 80 65 81 80 83 102 84 67 85
REMARK SMILES IDX 50 86 51 87 60 88 52 89 53 90 59 91 61 92 54 93 55 94 56 95
REMARK SMILES IDX 57 96 58 97 84 98 85 99 94 100 86 101 87 102 93 103 95 104
REMARK SMILES IDX 88 105 89 106 90 107 91 108 92 109 68 110 69 111 78 112
REMARK SMILES IDX 70 113 71 114 77 115 79 116 72 117 73 118 74 119 75 120
REMARK SMILES IDX 76 121
REMARK H PARENT 34 4 20 9 16 14 25 43 38 52 100 71 66 82
REMARK Flexibility Score: inf
ROOT
ATOM      1  C   UNL A   1      41.362  29.021  26.629  1.00  0.00     0.242 C 
ATOM      2  O   UNL A   1      41.495  28.927  25.403  1.00  0.00    -0.273 OA
ATOM      3  N   UNL A   1      42.437  29.440  27.355  1.00  0.00    -0.354 N 
ATOM      4  H   UNL A   1      43.309  29.351  26.905  1.00  0.00     0.163 HD
ENDROOT
BRANCH   1   5
ATOM      5  C   UNL A   1      39.992  28.700  27.263  1.00  0.00     0.175 C 
BRANCH   5   6
ATOM      6  N   UNL A   1      39.878  27.294  27.673  1.00  0.00    -0.342 N 
ATOM      7  C   UNL A   1      39.639  26.818  28.937  1.00  0.00     0.240 C 
ATOM      8  O   UNL A   1      39.222  25.667  29.069  1.00  0.00    -0.273 OA
ATOM      9  H   UNL A   1      39.986  26.619  26.963  1.00  0.00     0.164 HD
BRANCH   7  10
ATOM     10  C   UNL A   1      39.861  27.741  30.150  1.00  0.00     0.216 C 
BRANCH  10  11
ATOM     11  N   UNL A   1      38.737  27.628  31.085  1.00  0.00    -0.340 N 
ATOM     12  C   UNL A   1      38.693  27.995  32.417  1.00  0.00     0.292 C 
ATOM     13  O   UNL A   1      37.718  27.741  33.114  1.00  0.00    -0.265 OA
ATOM     14  H   UNL A   1      37.910  27.241  30.717  1.00  0.00     0.164 HD
BRANCH  12  15
ATOM     15  C   UNL A   1      39.885  28.745  33.015  1.00  0.00     0.252 C 
ATOM     16  O   UNL A   1      40.940  28.116  33.088  1.00  0.00    -0.283 OA
BRANCH  15  17
ATOM     17  C   UNL A   1      39.731  30.084  33.598  1.00  0.00     0.054 A 
ATOM     18  N   UNL A   1      39.272  31.871  34.905  1.00  0.00    -0.240 N 
ATOM     19  C   UNL A   1      39.190  30.481  34.825  1.00  0.00     0.117 A 
ATOM     20  C   UNL A   1      40.083  32.309  33.850  1.00  0.00     0.065 A 
ATOM     21  C   UNL A   1      40.073  31.285  32.905  1.00  0.00     0.012 A 
ATOM     22  C   UNL A   1      40.594  33.584  33.548  1.00  0.00     0.028 A 
ATOM     23  C   UNL A   1      40.412  31.597  31.571  1.00  0.00     0.011 A 
ATOM     24  C   UNL A   1      40.874  33.881  32.216  1.00  0.00     0.002 A 
ATOM     25  C   UNL A   1      40.744  32.911  31.231  1.00  0.00     0.001 A 
BRANCH  18  26
ATOM     26  S   UNL A   1      37.909  32.932  35.165  1.00  0.00     0.268 S 
ATOM     27  O   UNL A   1      38.526  34.223  35.423  1.00  0.00    -0.201 OA
ATOM     28  O   UNL A   1      37.138  32.244  36.190  1.00  0.00    -0.201 OA
BRANCH  26  29
ATOM     29  C   UNL A   1      36.681  33.246  33.945  1.00  0.00     0.088 A 
ATOM     30  C   UNL A   1      33.622  34.869  31.366  1.00  0.00     0.044 C 
ATOM     31  C   UNL A   1      34.706  34.279  32.221  1.00  0.00    -0.051 A 
ATOM     32  C   UNL A   1      35.382  35.136  33.078  1.00  0.00     0.005 A 
ATOM     33  C   UNL A   1      35.030  32.905  32.232  1.00  0.00     0.005 A 
ATOM     34  C   UNL A   1      36.358  34.625  33.914  1.00  0.00     0.022 A 
ATOM     35  C   UNL A   1      36.020  32.374  33.098  1.00  0.00     0.022 A 
ENDBRANCH  26  29
ENDBRANCH  18  26
ENDBRANCH  15  17
ENDBRANCH  12  15
ENDBRANCH  10  11
ENDBRANCH   7  10
ENDBRANCH   5   6
BRANCH   5  36
ATOM     36  C   UNL A   1      39.447  29.724  28.280  1.00  0.00     0.072 C 
BRANCH  36  37
ATOM     37  C   UNL A   1      38.042  30.197  28.091  1.00  0.00    -0.020 A 
ATOM     38  C   UNL A   1      37.022  29.471  27.504  1.00  0.00     0.087 A 
ATOM     39  C   UNL A   1      37.476  31.461  28.466  1.00  0.00     0.003 A 
ATOM     40  N   UNL A   1      35.935  30.293  27.339  1.00  0.00    -0.361 N 
ATOM     41  C   UNL A   1      36.179  31.503  27.950  1.00  0.00     0.046 A 
ATOM     42  C   UNL A   1      37.951  32.592  29.164  1.00  0.00     0.010 A 
ATOM     43  H   UNL A   1      35.110  30.056  26.858  1.00  0.00     0.166 HD
ATOM     44  C   UNL A   1      35.349  32.624  28.062  1.00  0.00     0.026 A 
ATOM     45  C   UNL A   1      37.117  33.708  29.323  1.00  0.00     0.001 A 
ATOM     46  C   UNL A   1      35.839  33.725  28.769  1.00  0.00     0.002 A 
ENDBRANCH  36  37
ENDBRANCH   5  36
ENDBRANCH   1   5
BRANCH   3  47
ATOM     47  C   UNL A   1      42.484  30.000  28.697  1.00  0.00     0.117 C 
BRANCH  47  48
ATOM     48  C   UNL A   1      42.995  31.426  28.745  1.00  0.00     0.042 C 
BRANCH  48  49
ATOM     49  C   UNL A   1      44.263  31.580  27.925  1.00  0.00     0.118 C 
BRANCH  49  50
ATOM     50  N   UNL A   1      44.265  32.713  27.003  1.00  0.00    -0.352 N 
ATOM     51  C   UNL A   1      44.375  34.072  27.306  1.00  0.00     0.251 C 
ATOM     52  H   UNL A   1      44.178  32.491  26.048  1.00  0.00     0.163 HD
ATOM     53  O   UNL A   1      44.196  34.925  26.476  1.00  0.00    -0.269 OA
BRANCH  51  54
ATOM     54  C   UNL A   1      44.783  34.415  28.693  1.00  0.00     0.039 A 
ATOM     55  C   UNL A   1      46.012  33.943  29.164  1.00  0.00     0.014 A 
ATOM     56  C   UNL A   1      43.829  34.919  29.567  1.00  0.00     0.014 A 
ATOM     57  C   UNL A   1      46.193  33.772  30.538  1.00  0.00     0.010 A 
ATOM     58  C   UNL A   1      43.948  34.606  30.902  1.00  0.00     0.010 A 
ATOM     59  C   UNL A   1      45.117  34.008  31.392  1.00  0.00    -0.014 A 
BRANCH  59  60
ATOM     60  C   UNL A   1      45.072  33.608  32.794  1.00  0.00     0.031 A 
ATOM     61  C   UNL A   1      44.379  32.355  33.183  1.00  0.00     0.074 A 
ATOM     62  C   UNL A   1      45.787  34.290  33.719  1.00  0.00     0.049 A 
ATOM     63  N   UNL A   1      43.990  32.081  34.383  1.00  0.00    -0.248 NA
ATOM     64  C   UNL A   1      44.050  31.301  32.226  1.00  0.00     0.031 C 
ATOM     65  C   UNL A   1      46.157  33.829  35.056  1.00  0.00     0.029 A 
ATOM     66  N   UNL A   1      46.183  35.631  33.697  1.00  0.00    -0.354 N 
ATOM     67  C   UNL A   1      43.637  30.751  34.414  1.00  0.00     0.074 A 
ATOM     68  C   UNL A   1      43.658  30.318  33.038  1.00  0.00     0.031 C 
ATOM     69  C   UNL A   1      46.481  34.887  35.811  1.00  0.00     0.029 A 
ATOM     70  C   UNL A   1      46.190  36.078  35.035  1.00  0.00     0.049 A 
ATOM     71  H   UNL A   1      46.412  36.162  32.900  1.00  0.00     0.167 HD
ATOM     72  C   UNL A   1      43.489  30.113  35.610  1.00  0.00     0.037 A 
ATOM     73  C   UNL A   1      45.365  37.085  35.449  1.00  0.00     0.037 A 
ATOM     74  C   UNL A   1      43.682  31.031  36.728  1.00  0.00     0.049 A 
ATOM     75  C   UNL A   1      44.354  36.667  36.491  1.00  0.00     0.074 A 
ATOM     76  C   UNL A   1      44.773  31.310  37.535  1.00  0.00     0.029 A 
ATOM     77  N   UNL A   1      42.770  32.060  36.935  1.00  0.00    -0.354 N 
ATOM     78  N   UNL A   1      44.069  35.426  36.777  1.00  0.00    -0.248 NA
ATOM     79  C   UNL A   1      43.574  37.609  37.290  1.00  0.00     0.031 C 
ATOM     80  C   UNL A   1      44.540  32.547  38.183  1.00  0.00     0.029 A 
ATOM     81  C   UNL A   1      43.298  33.013  37.787  1.00  0.00     0.049 A 
ATOM     82  H   UNL A   1      41.873  32.106  36.530  1.00  0.00     0.167 HD
ATOM     83  C   UNL A   1      43.074  35.382  37.721  1.00  0.00     0.074 A 
ATOM     84  C   UNL A   1      42.825  36.777  38.035  1.00  0.00     0.031 C 
ATOM     85  C   UNL A   1      42.536  34.200  38.152  1.00  0.00     0.037 A 
BRANCH  72  86
ATOM     86  C   UNL A   1      43.476  28.606  35.718  1.00  0.00     0.058 A 
ATOM     87  C   UNL A   1      44.640  27.847  35.478  1.00  0.00     0.135 A 
ATOM     88  C   UNL A   1      42.319  27.849  35.988  1.00  0.00     0.135 A 
ATOM     89  F   UNL A   1      45.832  28.430  35.291  1.00  0.00    -0.206 F 
ATOM     90  C   UNL A   1      44.633  26.454  35.395  1.00  0.00     0.059 A 
ATOM     91  C   UNL A   1      42.272  26.457  35.854  1.00  0.00     0.059 A 
ATOM     92  F   UNL A   1      41.191  28.441  36.410  1.00  0.00    -0.206 F 
ATOM     93  C   UNL A   1      43.437  25.768  35.546  1.00  0.00     0.060 A 
BRANCH  93  94
ATOM     94  S   UNL A   1      43.428  23.979  35.314  1.00  0.00     0.124 S 
ATOM     95  O   UNL A   1      44.381  23.528  36.325  1.00  0.00    -0.237 OA
ATOM     96  O   UNL A   1      42.031  23.648  35.566  1.00  0.00    -0.237 OA
ATOM     97  O   UNL A   1      43.874  23.816  33.933  1.00  0.00    -0.744 OA
ENDBRANCH  93  94
ENDBRANCH  72  86
BRANCH  73  98
ATOM     98  C   UNL A   1      45.191  38.147  34.422  1.00  0.00     0.058 A 
ATOM     99  C   UNL A   1      44.027  38.086  33.631  1.00  0.00     0.135 A 
ATOM    100  C   UNL A   1      45.825  39.392  34.543  1.00  0.00     0.135 A 
ATOM    101  F   UNL A   1      43.391  36.915  33.464  1.00  0.00    -0.206 F 
ATOM    102  C   UNL A   1      43.416  39.232  33.138  1.00  0.00     0.059 A 
ATOM    103  C   UNL A   1      45.230  40.558  34.052  1.00  0.00     0.059 A 
ATOM    104  F   UNL A   1      46.941  39.511  35.279  1.00  0.00    -0.206 F 
ATOM    105  C   UNL A   1      43.988  40.471  33.417  1.00  0.00     0.060 A 
BRANCH 105 106
ATOM    106  S   UNL A   1      42.980  41.943  33.122  1.00  0.00     0.124 S 
ATOM    107  O   UNL A   1      41.826  41.703  33.979  1.00  0.00    -0.237 OA
ATOM    108  O   UNL A   1      43.865  43.018  33.580  1.00  0.00    -0.237 OA
ATOM    109  O   UNL A   1      42.730  41.902  31.689  1.00  0.00    -0.744 OA
ENDBRANCH 105 106
ENDBRANCH  73  98
BRANCH  85 110
ATOM    110  C   UNL A   1      41.311  34.031  39.026  1.00  0.00     0.058 A 
ATOM    111  C   UNL A   1      41.323  33.442  40.302  1.00  0.00     0.135 A 
ATOM    112  C   UNL A   1      40.072  34.604  38.638  1.00  0.00     0.135 A 
ATOM    113  F   UNL A   1      42.453  32.968  40.843  1.00  0.00    -0.206 F 
ATOM    114  C   UNL A   1      40.179  33.364  41.104  1.00  0.00     0.059 A 
ATOM    115  C   UNL A   1      38.937  34.589  39.444  1.00  0.00     0.059 A 
ATOM    116  F   UNL A   1      39.924  35.217  37.453  1.00  0.00    -0.206 F 
ATOM    117  C   UNL A   1      38.991  33.940  40.668  1.00  0.00     0.060 A 
BRANCH 117 118
ATOM    118  S   UNL A   1      37.529  33.906  41.721  1.00  0.00     0.124 S 
ATOM    119  O   UNL A   1      37.953  32.994  42.778  1.00  0.00    -0.237 OA
ATOM    120  O   UNL A   1      37.379  35.304  42.117  1.00  0.00    -0.237 OA
ATOM    121  O   UNL A   1      36.490  33.402  40.828  1.00  0.00    -0.744 OA
ENDBRANCH 117 118
ENDBRANCH  85 110
ENDBRANCH  59  60
ENDBRANCH  51  54
ENDBRANCH  49  50
ENDBRANCH  48  49
ENDBRANCH  47  48
ENDBRANCH   3  47
TORSDOF 22
ENDMDL
MODEL 2
REMARK VINA RESULT:      -8.9      4.471     10.933
REMARK SMILES Cc1ccc(S(=O)(=O)n2cc(C(=O)C(=O)NCC(=O)N[C@@H](Cc3c[nH]c4ccccc34)C(=O)NCCCNC(=O)c3ccc(-c4c5nc(c(-c6c(F)cc(S(=O)(=O)[O-])cc6F)c6ccc([nH]6)c(-c6c(F)cc(S(=O)(=O)[O-])cc6F)c6nc(c(-c7c(F)cc(S(=O)(=O)[O-])cc7F)c7ccc4[nH]7)C=C6)C=C5)cc3)c3ccccc32)cc1
REMARK SMILES IDX 32 1 33 2 34 3 21 5 20 6 18 7 19 8 17 10 16 11 14 12 15 13
REMARK SMILES IDX 12 15 13 16 11 17 9 18 10 19 112 20 107 21 111 22 108 23
REMARK SMILES IDX 110 24 109 25 6 26 7 27 8 28 5 29 1 30 2 31 3 32 114 33 4 34
REMARK SMILES IDX 113 35 22 36 23 37 24 38 31 39 25 40 26 41 30 42 27 44 29 45
REMARK SMILES IDX 28 46 35 47 36 48 37 49 38 50 39 51 40 53 41 54 42 55 106 56
REMARK SMILES IDX 43 57 105 58 44 59 45 60 46 61 99 62 47 63 104 64 98 65
REMARK SMILES IDX 100 66 48 67 103 68 97 69 96 70 49 72 83 73 62 74 82 75
REMARK SMILES IDX 63 76 66 77 81 78 101 79 64 80 65 81 80 83 102 84 67 85
REMARK SMILES IDX 50 86 51 87 60 88 52 89 53 90 59 91 61 92 54 93 55 94 56 95
REMARK SMILES IDX 57 96 58 97 84 98 85 99 94 100 86 101 87 102 93 103 95 104
REMARK SMILES IDX 88 105 89 106 90 107 91 108 92 109 68 110 69 111 78 112
REMARK SMILES IDX 70 113 71 114 77 115 79 116 72 117 73 118 74 119 75 120
REMARK SMILES IDX 76 121
REMARK H PARENT 34 4 20 9 16 14 25 43 38 52 100 71 66 82
REMARK Flexibility Score: inf
ROOT
ATOM      1  C   UNL A   1      46.505  27.910  24.612  1.00  0.00     0.242 C 
ATOM      2  O   UNL A   1      46.883  28.730  23.768  1.00  0.00    -0.273 OA
ATOM      3  N   UNL A   1      45.219  27.462  24.534  1.00  0.00    -0.354 N 
ATOM      4  H   UNL A   1      44.607  28.030  24.012  1.00  0.00     0.163 HD
ENDROOT
BRANCH   1   5
ATOM      5  C   UNL A   1      47.506  27.411  25.676  1.00  0.00     0.175 C 
BRANCH   5   6
ATOM      6  N   UNL A   1      47.024  27.631  27.046  1.00  0.00    -0.342 N 
ATOM      7  C   UNL A   1      47.460  28.580  27.935  1.00  0.00     0.240 C 
ATOM      8  O   UNL A   1      46.742  28.876  28.889  1.00  0.00    -0.273 OA
ATOM      9  H   UNL A   1      46.309  27.030  27.363  1.00  0.00     0.164 HD
BRANCH   7  10
ATOM     10  C   UNL A   1      48.814  29.275  27.698  1.00  0.00     0.216 C 
BRANCH  10  11
ATOM     11  N   UNL A   1      49.319  29.843  28.951  1.00  0.00    -0.340 N 
ATOM     12  C   UNL A   1      49.562  31.170  29.253  1.00  0.00     0.292 C 
ATOM     13  O   UNL A   1      50.092  31.496  30.309  1.00  0.00    -0.265 OA
ATOM     14  H   UNL A   1      49.509  29.197  29.669  1.00  0.00     0.164 HD
BRANCH  12  15
ATOM     15  C   UNL A   1      49.143  32.244  28.245  1.00  0.00     0.252 C 
ATOM     16  O   UNL A   1      49.973  33.123  28.015  1.00  0.00    -0.283 OA
BRANCH  15  17
ATOM     17  C   UNL A   1      47.779  32.294  27.706  1.00  0.00     0.054 A 
ATOM     18  N   UNL A   1      45.936  32.414  26.402  1.00  0.00    -0.240 N 
ATOM     19  C   UNL A   1      47.330  32.405  26.386  1.00  0.00     0.117 A 
ATOM     20  C   UNL A   1      45.524  32.061  27.694  1.00  0.00     0.065 A 
ATOM     21  C   UNL A   1      46.611  32.315  28.528  1.00  0.00     0.012 A 
ATOM     22  C   UNL A   1      44.245  31.793  28.213  1.00  0.00     0.028 A 
ATOM     23  C   UNL A   1      46.374  32.489  29.908  1.00  0.00     0.011 A 
ATOM     24  C   UNL A   1      44.026  32.020  29.570  1.00  0.00     0.002 A 
ATOM     25  C   UNL A   1      45.069  32.406  30.402  1.00  0.00     0.001 A 
BRANCH  18  26
ATOM     26  S   UNL A   1      44.944  33.684  25.726  1.00  0.00     0.268 S 
ATOM     27  O   UNL A   1      43.792  32.972  25.198  1.00  0.00    -0.201 OA
ATOM     28  O   UNL A   1      45.862  34.394  24.847  1.00  0.00    -0.201 OA
BRANCH  26  29
ATOM     29  C   UNL A   1      44.273  35.000  26.681  1.00  0.00     0.088 A 
ATOM     30  C   UNL A   1      42.052  38.341  28.278  1.00  0.00     0.044 C 
ATOM     31  C   UNL A   1      42.827  37.158  27.771  1.00  0.00    -0.051 A 
ATOM     32  C   UNL A   1      42.358  36.529  26.626  1.00  0.00     0.005 A 
ATOM     33  C   UNL A   1      44.021  36.695  28.366  1.00  0.00     0.005 A 
ATOM     34  C   UNL A   1      43.067  35.463  26.102  1.00  0.00     0.022 A 
ATOM     35  C   UNL A   1      44.758  35.611  27.824  1.00  0.00     0.022 A 
ENDBRANCH  26  29
ENDBRANCH  18  26
ENDBRANCH  15  17
ENDBRANCH  12  15
ENDBRANCH  10  11
ENDBRANCH   7  10
ENDBRANCH   5   6
BRANCH   5  36
ATOM     36  C   UNL A   1      48.151  26.034  25.423  1.00  0.00     0.072 C 
BRANCH  36  37
ATOM     37  C   UNL A   1      49.355  25.680  26.236  1.00  0.00    -0.020 A 
ATOM     38  C   UNL A   1      49.333  25.093  27.488  1.00  0.00     0.087 A 
ATOM     39  C   UNL A   1      50.736  25.869  25.900  1.00  0.00     0.003 A 
ATOM     40  N   UNL A   1      50.609  25.092  27.996  1.00  0.00    -0.361 N 
ATOM     41  C   UNL A   1      51.486  25.530  27.029  1.00  0.00     0.046 A 
ATOM     42  C   UNL A   1      51.425  26.331  24.758  1.00  0.00     0.010 A 
ATOM     43  H   UNL A   1      50.858  24.821  28.908  1.00  0.00     0.166 HD
ATOM     44  C   UNL A   1      52.878  25.664  27.088  1.00  0.00     0.026 A 
ATOM     45  C   UNL A   1      52.823  26.430  24.786  1.00  0.00     0.001 A 
ATOM     46  C   UNL A   1      53.536  26.110  25.940  1.00  0.00     0.002 A 
ENDBRANCH  36  37
ENDBRANCH   5  36
ENDBRANCH   1   5
BRANCH   3  47
ATOM     47  C   UNL A   1      44.621  26.265  25.107  1.00  0.00     0.117 C 
BRANCH  47  48
ATOM     48  C   UNL A   1      43.495  26.553  26.079  1.00  0.00     0.042 C 
BRANCH  48  49
ATOM     49  C   UNL A   1      42.146  26.230  25.464  1.00  0.00     0.118 C 
BRANCH  49  50
ATOM     50  N   UNL A   1      41.594  24.930  25.840  1.00  0.00    -0.352 N 
ATOM     51  C   UNL A   1      40.681  24.642  26.856  1.00  0.00     0.251 C 
ATOM     52  H   UNL A   1      41.907  24.161  25.311  1.00  0.00     0.163 HD
ATOM     53  O   UNL A   1      40.428  23.510  27.181  1.00  0.00    -0.269 OA
BRANCH  51  54
ATOM     54  C   UNL A   1      39.989  25.799  27.480  1.00  0.00     0.039 A 
ATOM     55  C   UNL A   1      40.403  27.089  27.134  1.00  0.00     0.014 A 
ATOM     56  C   UNL A   1      39.185  25.580  28.590  1.00  0.00     0.014 A 
ATOM     57  C   UNL A   1      40.188  28.135  28.034  1.00  0.00     0.010 A 
ATOM     58  C   UNL A   1      39.113  26.573  29.540  1.00  0.00     0.010 A 
ATOM     59  C   UNL A   1      39.636  27.847  29.280  1.00  0.00    -0.014 A 
BRANCH  59  60
ATOM     60  C   UNL A   1      39.614  28.772  30.409  1.00  0.00     0.031 A 
ATOM     61  C   UNL A   1      38.792  30.006  30.336  1.00  0.00     0.074 A 
ATOM     62  C   UNL A   1      40.213  28.438  31.574  1.00  0.00     0.049 A 
ATOM     63  N   UNL A   1      38.953  31.033  31.101  1.00  0.00    -0.248 NA
ATOM     64  C   UNL A   1      37.716  30.186  29.363  1.00  0.00     0.031 C 
ATOM     65  C   UNL A   1      39.981  29.042  32.885  1.00  0.00     0.029 A 
ATOM     66  N   UNL A   1      41.301  27.582  31.780  1.00  0.00    -0.354 N 
ATOM     67  C   UNL A   1      37.863  31.857  30.928  1.00  0.00     0.074 A 
ATOM     68  C   UNL A   1      37.140  31.303  29.810  1.00  0.00     0.031 C 
ATOM     69  C   UNL A   1      41.016  28.759  33.689  1.00  0.00     0.029 A 
ATOM     70  C   UNL A   1      42.019  28.088  32.883  1.00  0.00     0.049 A 
ATOM     71  H   UNL A   1      41.522  26.779  31.254  1.00  0.00     0.167 HD
ATOM     72  C   UNL A   1      37.610  32.849  31.829  1.00  0.00     0.037 A 
ATOM     73  C   UNL A   1      43.311  28.512  32.751  1.00  0.00     0.037 A 
ATOM     74  C   UNL A   1      38.645  32.910  32.856  1.00  0.00     0.049 A 
ATOM     75  C   UNL A   1      43.511  29.984  33.033  1.00  0.00     0.074 A 
ATOM     76  C   UNL A   1      38.723  32.395  34.139  1.00  0.00     0.029 A 
ATOM     77  N   UNL A   1      39.938  33.283  32.504  1.00  0.00    -0.354 N 
ATOM     78  N   UNL A   1      42.540  30.852  33.108  1.00  0.00    -0.248 NA
ATOM     79  C   UNL A   1      44.818  30.600  33.244  1.00  0.00     0.031 C 
ATOM     80  C   UNL A   1      40.082  32.403  34.537  1.00  0.00     0.029 A 
ATOM     81  C   UNL A   1      40.830  32.940  33.504  1.00  0.00     0.049 A 
ATOM     82  H   UNL A   1      40.186  33.727  31.661  1.00  0.00     0.167 HD
ATOM     83  C   UNL A   1      43.053  32.107  33.318  1.00  0.00     0.074 A 
ATOM     84  C   UNL A   1      44.483  31.889  33.432  1.00  0.00     0.031 C 
ATOM     85  C   UNL A   1      42.254  33.217  33.368  1.00  0.00     0.037 A 
BRANCH  72  86
ATOM     86  C   UNL A   1      36.264  33.529  31.913  1.00  0.00     0.058 A 
ATOM     87  C   UNL A   1      35.769  34.301  30.841  1.00  0.00     0.135 A 
ATOM     88  C   UNL A   1      35.446  33.512  33.060  1.00  0.00     0.135 A 
ATOM     89  F   UNL A   1      36.395  34.344  29.658  1.00  0.00    -0.206 F 
ATOM     90  C   UNL A   1      34.619  35.086  30.940  1.00  0.00     0.059 A 
ATOM     91  C   UNL A   1      34.323  34.333  33.206  1.00  0.00     0.059 A 
ATOM     92  F   UNL A   1      35.706  32.678  34.079  1.00  0.00    -0.206 F 
ATOM     93  C   UNL A   1      33.921  35.126  32.139  1.00  0.00     0.060 A 
BRANCH  93  94
ATOM     94  S   UNL A   1      32.510  36.240  32.284  1.00  0.00     0.124 S 
ATOM     95  O   UNL A   1      32.520  36.926  30.996  1.00  0.00    -0.237 OA
ATOM     96  O   UNL A   1      31.410  35.307  32.497  1.00  0.00    -0.237 OA
ATOM     97  O   UNL A   1      32.857  37.077  33.430  1.00  0.00    -0.744 OA
ENDBRANCH  93  94
ENDBRANCH  72  86
BRANCH  73  98
ATOM     98  C   UNL A   1      44.099  27.677  31.806  1.00  0.00     0.058 A 
ATOM     99  C   UNL A   1      44.677  26.501  32.321  1.00  0.00     0.135 A 
ATOM    100  C   UNL A   1      43.880  27.738  30.422  1.00  0.00     0.135 A 
ATOM    101  F   UNL A   1      44.927  26.398  33.636  1.00  0.00    -0.206 F 
ATOM    102  C   UNL A   1      44.858  25.369  31.535  1.00  0.00     0.059 A 
ATOM    103  C   UNL A   1      44.059  26.612  29.612  1.00  0.00     0.059 A 
ATOM    104  F   UNL A   1      43.338  28.835  29.872  1.00  0.00    -0.206 F 
ATOM    105  C   UNL A   1      44.477  25.414  30.197  1.00  0.00     0.060 A 
BRANCH 105 106
ATOM    106  S   UNL A   1      44.342  23.841  29.313  1.00  0.00     0.124 S 
ATOM    107  O   UNL A   1      43.204  24.078  28.434  1.00  0.00    -0.237 OA
ATOM    108  O   UNL A   1      45.636  23.763  28.628  1.00  0.00    -0.237 OA
ATOM    109  O   UNL A   1      44.134  22.870  30.377  1.00  0.00    -0.744 OA
ENDBRANCH 105 106
ENDBRANCH  73  98
BRANCH  85 110
ATOM    110  C   UNL A   1      42.713  34.660  33.390  1.00  0.00     0.058 A 
ATOM    111  C   UNL A   1      43.158  35.368  32.260  1.00  0.00     0.135 A 
ATOM    112  C   UNL A   1      42.582  35.434  34.572  1.00  0.00     0.135 A 
ATOM    113  F   UNL A   1      43.215  34.791  31.052  1.00  0.00    -0.206 F 
ATOM    114  C   UNL A   1      43.512  36.720  32.311  1.00  0.00     0.059 A 
ATOM    115  C   UNL A   1      42.873  36.794  34.632  1.00  0.00     0.059 A 
ATOM    116  F   UNL A   1      42.148  34.891  35.720  1.00  0.00    -0.206 F 
ATOM    117  C   UNL A   1      43.366  37.425  33.501  1.00  0.00     0.060 A 
BRANCH 117 118
ATOM    118  S   UNL A   1      43.754  39.184  33.562  1.00  0.00     0.124 S 
ATOM    119  O   UNL A   1      42.457  39.757  33.908  1.00  0.00    -0.237 OA
ATOM    120  O   UNL A   1      44.773  39.257  34.606  1.00  0.00    -0.237 OA
ATOM    121  O   UNL A   1      44.232  39.465  32.212  1.00  0.00    -0.744 OA
ENDBRANCH 117 118
ENDBRANCH  85 110
ENDBRANCH  59  60
ENDBRANCH  51  54
ENDBRANCH  49  50
ENDBRANCH  48  49
ENDBRANCH  47  48
ENDBRANCH   3  47
TORSDOF 22
ENDMDL
MODEL 3
REMARK VINA RESULT:      -8.5      4.181     10.333
REMARK SMILES Cc1ccc(S(=O)(=O)n2cc(C(=O)C(=O)NCC(=O)N[C@@H](Cc3c[nH]c4ccccc34)C(=O)NCCCNC(=O)c3ccc(-c4c5nc(c(-c6c(F)cc(S(=O)(=O)[O-])cc6F)c6ccc([nH]6)c(-c6c(F)cc(S(=O)(=O)[O-])cc6F)c6nc(c(-c7c(F)cc(S(=O)(=O)[O-])cc7F)c7ccc4[nH]7)C=C6)C=C5)cc3)c3ccccc32)cc1
REMARK SMILES IDX 32 1 33 2 34 3 21 5 20 6 18 7 19 8 17 10 16 11 14 12 15 13
REMARK SMILES IDX 12 15 13 16 11 17 9 18 10 19 112 20 107 21 111 22 108 23
REMARK SMILES IDX 110 24 109 25 6 26 7 27 8 28 5 29 1 30 2 31 3 32 114 33 4 34
REMARK SMILES IDX 113 35 22 36 23 37 24 38 31 39 25 40 26 41 30 42 27 44 29 45
REMARK SMILES IDX 28 46 35 47 36 48 37 49 38 50 39 51 40 53 41 54 42 55 106 56
REMARK SMILES IDX 43 57 105 58 44 59 45 60 46 61 99 62 47 63 104 64 98 65
REMARK SMILES IDX 100 66 48 67 103 68 97 69 96 70 49 72 83 73 62 74 82 75
REMARK SMILES IDX 63 76 66 77 81 78 101 79 64 80 65 81 80 83 102 84 67 85
REMARK SMILES IDX 50 86 51 87 60 88 52 89 53 90 59 91 61 92 54 93 55 94 56 95
REMARK SMILES IDX 57 96 58 97 84 98 85 99 94 100 86 101 87 102 93 103 95 104
REMARK SMILES IDX 88 105 89 106 90 107 91 108 92 109 68 110 69 111 78 112
REMARK SMILES IDX 70 113 71 114 77 115 79 116 72 117 73 118 74 119 75 120
REMARK SMILES IDX 76 121
REMARK H PARENT 34 4 20 9 16 14 25 43 38 52 100 71 66 82
REMARK Flexibility Score: inf
ROOT
ATOM      1  C   UNL A   1      41.949  29.000  35.897  1.00  0.00     0.242 C 
ATOM      2  O   UNL A   1      42.166  29.659  36.920  1.00  0.00    -0.273 OA
ATOM      3  N   UNL A   1      42.681  27.867  35.701  1.00  0.00    -0.354 N 
ATOM      4  H   UNL A   1      43.517  27.812  36.218  1.00  0.00     0.163 HD
ENDROOT
BRANCH   1   5
ATOM      5  C   UNL A   1      40.846  29.468  34.923  1.00  0.00     0.175 C 
BRANCH   5   6
ATOM      6  N   UNL A   1      39.584  29.776  35.610  1.00  0.00    -0.342 N 
ATOM      7  C   UNL A   1      39.145  31.010  36.017  1.00  0.00     0.240 C 
ATOM      8  O   UNL A   1      37.946  31.167  36.248  1.00  0.00    -0.273 OA
ATOM      9  H   UNL A   1      38.989  29.014  35.801  1.00  0.00     0.164 HD
BRANCH   7  10
ATOM     10  C   UNL A   1      40.149  32.172  36.137  1.00  0.00     0.216 C 
BRANCH  10  11
ATOM     11  N   UNL A   1      39.625  33.203  37.037  1.00  0.00    -0.340 N 
ATOM     12  C   UNL A   1      39.390  34.538  36.765  1.00  0.00     0.292 C 
ATOM     13  O   UNL A   1      39.053  35.318  37.648  1.00  0.00    -0.265 OA
ATOM     14  H   UNL A   1      39.415  32.908  37.953  1.00  0.00     0.164 HD
BRANCH  12  15
ATOM     15  C   UNL A   1      39.543  35.035  35.325  1.00  0.00     0.252 C 
ATOM     16  O   UNL A   1      40.397  35.901  35.139  1.00  0.00    -0.283 OA
BRANCH  15  17
ATOM     17  C   UNL A   1      38.622  34.604  34.266  1.00  0.00     0.054 A 
ATOM     18  N   UNL A   1      36.832  34.011  33.020  1.00  0.00    -0.240 N 
ATOM     19  C   UNL A   1      37.232  34.448  34.282  1.00  0.00     0.117 A 
ATOM     20  C   UNL A   1      37.930  34.135  32.159  1.00  0.00     0.065 A 
ATOM     21  C   UNL A   1      39.058  34.171  32.976  1.00  0.00     0.012 A 
ATOM     22  C   UNL A   1      38.035  33.962  30.767  1.00  0.00     0.028 A 
ATOM     23  C   UNL A   1      40.309  33.843  32.412  1.00  0.00     0.011 A 
ATOM     24  C   UNL A   1      39.271  33.590  30.243  1.00  0.00     0.002 A 
ATOM     25  C   UNL A   1      40.388  33.489  31.062  1.00  0.00     0.001 A 
BRANCH  18  26
ATOM     26  S   UNL A   1      35.929  32.545  32.718  1.00  0.00     0.268 S 
ATOM     27  O   UNL A   1      34.585  32.876  33.161  1.00  0.00    -0.201 OA
ATOM     28  O   UNL A   1      36.717  31.522  33.390  1.00  0.00    -0.201 OA
BRANCH  26  29
ATOM     29  C   UNL A   1      35.726  31.846  31.117  1.00  0.00     0.088 A 
ATOM     30  C   UNL A   1      35.939  29.561  27.459  1.00  0.00     0.044 C 
ATOM     31  C   UNL A   1      35.812  30.358  28.726  1.00  0.00    -0.051 A 
ATOM     32  C   UNL A   1      36.516  29.911  29.835  1.00  0.00     0.005 A 
ATOM     33  C   UNL A   1      35.063  31.551  28.826  1.00  0.00     0.005 A 
ATOM     34  C   UNL A   1      36.461  30.640  31.009  1.00  0.00     0.022 A 
ATOM     35  C   UNL A   1      35.016  32.309  30.023  1.00  0.00     0.022 A 
ENDBRANCH  26  29
ENDBRANCH  18  26
ENDBRANCH  15  17
ENDBRANCH  12  15
ENDBRANCH  10  11
ENDBRANCH   7  10
ENDBRANCH   5   6
BRANCH   5  36
ATOM     36  C   UNL A   1      41.267  30.484  33.842  1.00  0.00     0.072 C 
BRANCH  36  37
ATOM     37  C   UNL A   1      42.031  29.961  32.669  1.00  0.00    -0.020 A 
ATOM     38  C   UNL A   1      43.348  29.541  32.691  1.00  0.00     0.087 A 
ATOM     39  C   UNL A   1      41.573  29.791  31.320  1.00  0.00     0.003 A 
ATOM     40  N   UNL A   1      43.757  29.307  31.401  1.00  0.00    -0.361 N 
ATOM     41  C   UNL A   1      42.679  29.421  30.552  1.00  0.00     0.046 A 
ATOM     42  C   UNL A   1      40.333  29.949  30.666  1.00  0.00     0.010 A 
ATOM     43  H   UNL A   1      44.678  29.093  31.126  1.00  0.00     0.166 HD
ATOM     44  C   UNL A   1      42.619  29.240  29.165  1.00  0.00     0.026 A 
ATOM     45  C   UNL A   1      40.245  29.730  29.284  1.00  0.00     0.001 A 
ATOM     46  C   UNL A   1      41.377  29.390  28.545  1.00  0.00     0.002 A 
ENDBRANCH  36  37
ENDBRANCH   5  36
ENDBRANCH   1   5
BRANCH   3  47
ATOM     47  C   UNL A   1      42.405  26.725  34.841  1.00  0.00     0.117 C 
BRANCH  47  48
ATOM     48  C   UNL A   1      42.289  25.412  35.590  1.00  0.00     0.042 C 
BRANCH  48  49
ATOM     49  C   UNL A   1      43.654  24.902  36.013  1.00  0.00     0.118 C 
BRANCH  49  50
ATOM     50  N   UNL A   1      43.802  23.449  35.989  1.00  0.00    -0.352 N 
ATOM     51  C   UNL A   1      44.426  22.661  35.020  1.00  0.00     0.251 C 
ATOM     52  H   UNL A   1      43.411  22.964  36.751  1.00  0.00     0.163 HD
ATOM     53  O   UNL A   1      44.339  21.460  35.023  1.00  0.00    -0.269 OA
BRANCH  51  54
ATOM     54  C   UNL A   1      45.256  23.373  34.013  1.00  0.00     0.039 A 
ATOM     55  C   UNL A   1      46.600  23.619  34.311  1.00  0.00     0.014 A 
ATOM     56  C   UNL A   1      44.623  24.031  32.968  1.00  0.00     0.014 A 
ATOM     57  C   UNL A   1      47.246  24.692  33.693  1.00  0.00     0.010 A 
ATOM     58  C   UNL A   1      45.207  25.177  32.479  1.00  0.00     0.010 A 
ATOM     59  C   UNL A   1      46.510  25.530  32.858  1.00  0.00    -0.014 A 
BRANCH  59  60
ATOM     60  C   UNL A   1      46.969  26.828  32.376  1.00  0.00     0.031 A 
ATOM     61  C   UNL A   1      46.774  28.037  33.214  1.00  0.00     0.074 A 
ATOM     62  C   UNL A   1      47.705  26.913  31.244  1.00  0.00     0.049 A 
ATOM     63  N   UNL A   1      46.825  29.247  32.768  1.00  0.00    -0.248 NA
ATOM     64  C   UNL A   1      46.483  27.973  34.645  1.00  0.00     0.031 C 
ATOM     65  C   UNL A   1      48.545  28.034  30.826  1.00  0.00     0.029 A 
ATOM     66  N   UNL A   1      47.706  26.053  30.141  1.00  0.00    -0.354 N 
ATOM     67  C   UNL A   1      46.864  30.092  33.855  1.00  0.00     0.074 A 
ATOM     68  C   UNL A   1      46.612  29.252  35.000  1.00  0.00     0.031 C 
ATOM     69  C   UNL A   1      48.773  27.944  29.508  1.00  0.00     0.029 A 
ATOM     70  C   UNL A   1      47.969  26.846  29.004  1.00  0.00     0.049 A 
ATOM     71  H   UNL A   1      47.552  25.081  30.155  1.00  0.00     0.167 HD
ATOM     72  C   UNL A   1      47.234  31.394  33.693  1.00  0.00     0.037 A 
ATOM     73  C   UNL A   1      47.056  26.960  27.995  1.00  0.00     0.037 A 
ATOM     74  C   UNL A   1      47.480  31.705  32.288  1.00  0.00     0.049 A 
ATOM     75  C   UNL A   1      46.528  28.363  27.794  1.00  0.00     0.074 A 
ATOM     76  C   UNL A   1      48.638  31.762  31.530  1.00  0.00     0.029 A 
ATOM     77  N   UNL A   1      46.422  31.682  31.386  1.00  0.00    -0.354 N 
ATOM     78  N   UNL A   1      46.677  29.330  28.657  1.00  0.00    -0.248 NA
ATOM     79  C   UNL A   1      45.782  28.789  26.613  1.00  0.00     0.031 C 
ATOM     80  C   UNL A   1      48.275  31.711  30.163  1.00  0.00     0.029 A 
ATOM     81  C   UNL A   1      46.894  31.643  30.086  1.00  0.00     0.049 A 
ATOM     82  H   UNL A   1      45.469  31.691  31.636  1.00  0.00     0.167 HD
ATOM     83  C   UNL A   1      46.036  30.457  28.208  1.00  0.00     0.074 A 
ATOM     84  C   UNL A   1      45.522  30.075  26.906  1.00  0.00     0.031 C 
ATOM     85  C   UNL A   1      45.977  31.603  28.955  1.00  0.00     0.037 A 
BRANCH  72  86
ATOM     86  C   UNL A   1      47.654  32.258  34.858  1.00  0.00     0.058 A 
ATOM     87  C   UNL A   1      46.751  33.157  35.463  1.00  0.00     0.135 A 
ATOM     88  C   UNL A   1      48.964  32.292  35.378  1.00  0.00     0.135 A 
ATOM     89  F   UNL A   1      45.454  33.178  35.132  1.00  0.00    -0.206 F 
ATOM     90  C   UNL A   1      47.142  34.094  36.421  1.00  0.00     0.059 A 
ATOM     91  C   UNL A   1      49.394  33.259  36.293  1.00  0.00     0.059 A 
ATOM     92  F   UNL A   1      49.871  31.370  35.020  1.00  0.00    -0.206 F 
ATOM     93  C   UNL A   1      48.474  34.164  36.804  1.00  0.00     0.060 A 
BRANCH  93  94
ATOM     94  S   UNL A   1      48.979  35.462  37.950  1.00  0.00     0.124 S 
ATOM     95  O   UNL A   1      50.219  35.945  37.349  1.00  0.00    -0.237 OA
ATOM     96  O   UNL A   1      47.846  36.377  37.889  1.00  0.00    -0.237 OA
ATOM     97  O   UNL A   1      49.145  34.749  39.214  1.00  0.00    -0.744 OA
ENDBRANCH  93  94
ENDBRANCH  72  86
BRANCH  73  98
ATOM     98  C   UNL A   1      46.323  25.692  27.733  1.00  0.00     0.058 A 
ATOM     99  C   UNL A   1      45.025  25.583  28.268  1.00  0.00     0.135 A 
ATOM    100  C   UNL A   1      46.642  24.878  26.637  1.00  0.00     0.135 A 
ATOM    101  F   UNL A   1      44.674  26.324  29.332  1.00  0.00    -0.206 F 
ATOM    102  C   UNL A   1      44.033  24.843  27.637  1.00  0.00     0.059 A 
ATOM    103  C   UNL A   1      45.660  24.123  25.988  1.00  0.00     0.059 A 
ATOM    104  F   UNL A   1      47.864  24.935  26.087  1.00  0.00    -0.206 F 
ATOM    105  C   UNL A   1      44.344  24.175  26.455  1.00  0.00     0.060 A 
BRANCH 105 106
ATOM    106  S   UNL A   1      42.967  23.567  25.452  1.00  0.00     0.124 S 
ATOM    107  O   UNL A   1      42.328  24.804  25.024  1.00  0.00    -0.237 OA
ATOM    108  O   UNL A   1      43.662  22.839  24.387  1.00  0.00    -0.237 OA
ATOM    109  O   UNL A   1      42.206  22.746  26.382  1.00  0.00    -0.744 OA
ENDBRANCH 105 106
ENDBRANCH  73  98
BRANCH  85 110
ATOM    110  C   UNL A   1      45.139  32.829  28.662  1.00  0.00     0.058 A 
ATOM    111  C   UNL A   1      45.375  33.716  27.598  1.00  0.00     0.135 A 
ATOM    112  C   UNL A   1      43.949  33.073  29.396  1.00  0.00     0.135 A 
ATOM    113  F   UNL A   1      46.397  33.534  26.750  1.00  0.00    -0.206 F 
ATOM    114  C   UNL A   1      44.537  34.802  27.324  1.00  0.00     0.059 A 
ATOM    115  C   UNL A   1      43.070  34.112  29.104  1.00  0.00     0.059 A 
ATOM    116  F   UNL A   1      43.588  32.291  30.426  1.00  0.00    -0.206 F 
ATOM    117  C   UNL A   1      43.386  34.992  28.081  1.00  0.00     0.060 A 
BRANCH 117 118
ATOM    118  S   UNL A   1      42.262  36.347  27.694  1.00  0.00     0.124 S 
ATOM    119  O   UNL A   1      42.650  36.665  26.324  1.00  0.00    -0.237 OA
ATOM    120  O   UNL A   1      40.946  35.734  27.851  1.00  0.00    -0.237 OA
ATOM    121  O   UNL A   1      42.599  37.352  28.698  1.00  0.00    -0.744 OA
ENDBRANCH 117 118
ENDBRANCH  85 110
ENDBRANCH  59  60
ENDBRANCH  51  54
ENDBRANCH  49  50
ENDBRANCH  48  49
ENDBRANCH  47  48
ENDBRANCH   3  47
TORSDOF 22
ENDMDL
