MODEL 1
REMARK VINA RESULT:      -9.9      0.000      0.000
REMARK SMILES O=C(CNC(=O)CNC(=O)OCc1ccccc1)NCCCNC(=O)c1ccc(-c2c3nc(c(-c4c(F)cc(S(=O)(=O)[O-])cc4F)c4ccc([nH]4)c(-c4c(F)cc(S(=O)(=O)[O-])cc4F)c4nc(c(-c5c(F)cc(S(=O)(=O)[O-])cc5F)c5ccc2[nH]5)C=C4)C=C3)cc1
REMARK SMILES IDX 1 1 2 2 19 3 3 5 4 6 5 7 6 9 7 10 8 11 9 12 10 14 11 15
REMARK SMILES IDX 12 16 13 17 14 18 18 19 15 20 17 21 16 22 20 23 21 24 22 25
REMARK SMILES IDX 23 26 24 27 25 29 26 30 27 31 91 32 28 33 90 34 29 35 30 36
REMARK SMILES IDX 31 37 84 38 32 39 89 40 83 41 85 42 33 43 88 44 82 45 81 46
REMARK SMILES IDX 34 48 68 49 47 50 67 51 48 52 51 53 66 54 86 55 49 56 50 57
REMARK SMILES IDX 65 59 87 60 52 61 35 62 36 63 45 64 37 65 38 66 44 67 46 68
REMARK SMILES IDX 39 69 40 70 41 71 42 72 43 73 69 74 70 75 79 76 71 77 72 78
REMARK SMILES IDX 78 79 80 80 73 81 74 82 75 83 76 84 77 85 53 86 54 87 63 88
REMARK SMILES IDX 55 89 56 90 62 91 64 92 57 93 58 94 59 95 60 96 61 97
REMARK H PARENT 19 4 4 8 8 13 23 28 85 47 51 58
REMARK Flexibility Score: inf
ROOT
ATOM      1  O   UNL A   1      32.949  36.924  28.780  1.00  0.00    -0.273 OA
ATOM      2  C   UNL A   1      33.287  36.101  29.627  1.00  0.00     0.239 C 
ATOM      3  N   UNL A   1      34.134  35.046  29.365  1.00  0.00    -0.355 N 
ATOM      4  H   UNL A   1      34.445  34.493  30.119  1.00  0.00     0.163 HD
ENDROOT
BRANCH   2   5
ATOM      5  C   UNL A   1      32.873  36.259  31.097  1.00  0.00     0.216 C 
BRANCH   5   6
ATOM      6  N   UNL A   1      32.909  35.015  31.860  1.00  0.00    -0.346 N 
ATOM      7  C   UNL A   1      33.833  34.564  32.757  1.00  0.00     0.239 C 
ATOM      8  H   UNL A   1      32.149  34.409  31.705  1.00  0.00     0.164 HD
ATOM      9  O   UNL A   1      33.569  33.545  33.396  1.00  0.00    -0.273 OA
BRANCH   7  10
ATOM     10  C   UNL A   1      35.138  35.325  32.979  1.00  0.00     0.219 C 
BRANCH  10  11
ATOM     11  N   UNL A   1      36.120  34.883  32.008  1.00  0.00    -0.312 N 
ATOM     12  C   UNL A   1      37.243  34.163  32.268  1.00  0.00     0.407 C 
ATOM     13  H   UNL A   1      35.959  35.129  31.068  1.00  0.00     0.167 HD
ATOM     14  O   UNL A   1      38.109  34.015  31.419  1.00  0.00    -0.225 OA
BRANCH  12  15
ATOM     15  O   UNL A   1      37.264  33.662  33.525  1.00  0.00    -0.445 OA
BRANCH  15  16
ATOM     16  C   UNL A   1      37.006  32.254  33.633  1.00  0.00     0.270 C 
BRANCH  16  17
ATOM     17  C   UNL A   1      38.243  31.386  33.625  1.00  0.00    -0.011 A 
ATOM     18  C   UNL A   1      39.443  31.916  34.123  1.00  0.00     0.007 A 
ATOM     19  C   UNL A   1      38.247  30.078  33.115  1.00  0.00     0.007 A 
ATOM     20  C   UNL A   1      40.626  31.179  34.061  1.00  0.00     0.000 A 
ATOM     21  C   UNL A   1      39.435  29.350  33.037  1.00  0.00     0.000 A 
ATOM     22  C   UNL A   1      40.624  29.903  33.502  1.00  0.00     0.000 A 
ENDBRANCH  16  17
ENDBRANCH  15  16
ENDBRANCH  12  15
ENDBRANCH  10  11
ENDBRANCH   7  10
ENDBRANCH   5   6
ENDBRANCH   2   5
BRANCH   3  23
ATOM     23  C   UNL A   1      34.587  34.716  28.027  1.00  0.00     0.117 C 
BRANCH  23  24
ATOM     24  C   UNL A   1      35.011  33.260  27.853  1.00  0.00     0.042 C 
BRANCH  24  25
ATOM     25  C   UNL A   1      34.364  32.276  28.825  1.00  0.00     0.118 C 
BRANCH  25  26
ATOM     26  N   UNL A   1      33.905  31.045  28.195  1.00  0.00    -0.352 N 
ATOM     27  C   UNL A   1      34.588  29.905  27.846  1.00  0.00     0.251 C 
ATOM     28  H   UNL A   1      32.943  31.028  27.981  1.00  0.00     0.163 HD
ATOM     29  O   UNL A   1      33.990  29.021  27.237  1.00  0.00    -0.269 OA
BRANCH  27  30
ATOM     30  C   UNL A   1      36.027  29.737  28.159  1.00  0.00     0.039 A 
ATOM     31  C   UNL A   1      36.383  29.344  29.454  1.00  0.00     0.014 A 
ATOM     32  C   UNL A   1      37.026  29.984  27.215  1.00  0.00     0.014 A 
ATOM     33  C   UNL A   1      37.726  29.123  29.776  1.00  0.00     0.010 A 
ATOM     34  C   UNL A   1      38.358  29.694  27.514  1.00  0.00     0.010 A 
ATOM     35  C   UNL A   1      38.723  29.254  28.796  1.00  0.00    -0.014 A 
BRANCH  35  36
ATOM     36  C   UNL A   1      40.142  28.909  29.088  1.00  0.00     0.031 A 
ATOM     37  C   UNL A   1      41.067  29.927  29.698  1.00  0.00     0.074 A 
ATOM     38  C   UNL A   1      40.616  27.694  28.742  1.00  0.00     0.049 A 
ATOM     39  N   UNL A   1      42.347  29.831  29.957  1.00  0.00    -0.248 NA
ATOM     40  C   UNL A   1      40.484  31.232  30.045  1.00  0.00     0.031 C 
ATOM     41  C   UNL A   1      39.834  26.632  28.105  1.00  0.00     0.029 A 
ATOM     42  N   UNL A   1      41.872  27.149  28.864  1.00  0.00    -0.354 N 
ATOM     43  C   UNL A   1      42.724  31.062  30.481  1.00  0.00     0.074 A 
ATOM     44  C   UNL A   1      41.549  31.904  30.459  1.00  0.00     0.031 C 
ATOM     45  C   UNL A   1      40.619  25.561  27.910  1.00  0.00     0.029 A 
ATOM     46  C   UNL A   1      41.971  25.871  28.364  1.00  0.00     0.049 A 
ATOM     47  H   UNL A   1      42.629  27.629  29.271  1.00  0.00     0.167 HD
ATOM     48  C   UNL A   1      43.934  31.447  30.956  1.00  0.00     0.037 A 
ATOM     49  C   UNL A   1      43.033  25.045  28.269  1.00  0.00     0.037 A 
ATOM     50  C   UNL A   1      45.098  30.598  30.990  1.00  0.00     0.049 A 
ATOM     51  C   UNL A   1      44.369  25.502  28.787  1.00  0.00     0.074 A 
ATOM     52  C   UNL A   1      46.352  30.880  31.500  1.00  0.00     0.029 A 
ATOM     53  N   UNL A   1      45.153  29.305  30.489  1.00  0.00    -0.354 N 
ATOM     54  N   UNL A   1      44.692  26.647  29.339  1.00  0.00    -0.248 NA
ATOM     55  C   UNL A   1      45.486  24.553  28.677  1.00  0.00     0.031 C 
ATOM     56  C   UNL A   1      47.181  29.779  31.261  1.00  0.00     0.029 A 
ATOM     57  C   UNL A   1      46.427  28.787  30.656  1.00  0.00     0.049 A 
ATOM     58  H   UNL A   1      44.399  28.827  30.076  1.00  0.00     0.167 HD
ATOM     59  C   UNL A   1      46.039  26.545  29.671  1.00  0.00     0.074 A 
ATOM     60  C   UNL A   1      46.469  25.223  29.265  1.00  0.00     0.031 C 
ATOM     61  C   UNL A   1      46.843  27.463  30.261  1.00  0.00     0.037 A 
BRANCH  48  62
ATOM     62  C   UNL A   1      44.066  32.853  31.478  1.00  0.00     0.058 A 
ATOM     63  C   UNL A   1      44.289  33.942  30.619  1.00  0.00     0.135 A 
ATOM     64  C   UNL A   1      43.920  33.125  32.848  1.00  0.00     0.135 A 
ATOM     65  F   UNL A   1      44.448  33.742  29.301  1.00  0.00    -0.206 F 
ATOM     66  C   UNL A   1      44.395  35.242  31.102  1.00  0.00     0.059 A 
ATOM     67  C   UNL A   1      43.991  34.421  33.351  1.00  0.00     0.059 A 
ATOM     68  F   UNL A   1      43.702  32.124  33.716  1.00  0.00    -0.206 F 
ATOM     69  C   UNL A   1      44.245  35.472  32.471  1.00  0.00     0.060 A 
BRANCH  69  70
ATOM     70  S   UNL A   1      44.383  37.166  33.080  1.00  0.00     0.124 S 
ATOM     71  O   UNL A   1      45.431  37.028  34.086  1.00  0.00    -0.237 OA
ATOM     72  O   UNL A   1      44.752  37.901  31.876  1.00  0.00    -0.237 OA
ATOM     73  O   UNL A   1      43.049  37.450  33.601  1.00  0.00    -0.744 OA
ENDBRANCH  69  70
ENDBRANCH  48  62
BRANCH  49  74
ATOM     74  C   UNL A   1      42.869  23.692  27.669  1.00  0.00     0.058 A 
ATOM     75  C   UNL A   1      43.117  23.470  26.306  1.00  0.00     0.135 A 
ATOM     76  C   UNL A   1      42.474  22.592  28.447  1.00  0.00     0.135 A 
ATOM     77  F   UNL A   1      43.491  24.490  25.518  1.00  0.00    -0.206 F 
ATOM     78  C   UNL A   1      42.962  22.213  25.731  1.00  0.00     0.059 A 
ATOM     79  C   UNL A   1      42.339  21.320  27.901  1.00  0.00     0.059 A 
ATOM     80  F   UNL A   1      42.238  22.746  29.760  1.00  0.00    -0.206 F 
ATOM     81  C   UNL A   1      42.575  21.142  26.538  1.00  0.00     0.060 A 
BRANCH  81  82
ATOM     82  S   UNL A   1      42.419  19.506  25.789  1.00  0.00     0.124 S 
ATOM     83  O   UNL A   1      43.333  19.614  24.658  1.00  0.00    -0.237 OA
ATOM     84  O   UNL A   1      42.846  18.630  26.876  1.00  0.00    -0.237 OA
ATOM     85  O   UNL A   1      41.001  19.426  25.450  1.00  0.00    -0.744 OA
ENDBRANCH  81  82
ENDBRANCH  49  74
BRANCH  61  86
ATOM     86  C   UNL A   1      48.264  27.062  30.552  1.00  0.00     0.058 A 
ATOM     87  C   UNL A   1      49.318  27.375  29.680  1.00  0.00     0.135 A 
ATOM     88  C   UNL A   1      48.582  26.410  31.756  1.00  0.00     0.135 A 
ATOM     89  F   UNL A   1      49.069  27.990  28.512  1.00  0.00    -0.206 F 
ATOM     90  C   UNL A   1      50.635  27.041  29.981  1.00  0.00     0.059 A 
ATOM     91  C   UNL A   1      49.895  26.094  32.092  1.00  0.00     0.059 A 
ATOM     92  F   UNL A   1      47.615  26.095  32.631  1.00  0.00    -0.206 F 
ATOM     93  C   UNL A   1      50.915  26.406  31.193  1.00  0.00     0.060 A 
BRANCH  93  94
ATOM     94  S   UNL A   1      52.632  26.022  31.593  1.00  0.00     0.124 S 
ATOM     95  O   UNL A   1      53.274  26.143  30.288  1.00  0.00    -0.237 OA
ATOM     96  O   UNL A   1      52.966  27.061  32.563  1.00  0.00    -0.237 OA
ATOM     97  O   UNL A   1      52.562  24.667  32.134  1.00  0.00    -0.744 OA
ENDBRANCH  93  94
ENDBRANCH  61  86
ENDBRANCH  35  36
ENDBRANCH  27  30
ENDBRANCH  25  26
ENDBRANCH  24  25
ENDBRANCH  23  24
ENDBRANCH   3  23
TORSDOF 19
ENDMDL
MODEL 2
REMARK VINA RESULT:      -9.6      0.638      8.370
REMARK SMILES O=C(CNC(=O)CNC(=O)OCc1ccccc1)NCCCNC(=O)c1ccc(-c2c3nc(c(-c4c(F)cc(S(=O)(=O)[O-])cc4F)c4ccc([nH]4)c(-c4c(F)cc(S(=O)(=O)[O-])cc4F)c4nc(c(-c5c(F)cc(S(=O)(=O)[O-])cc5F)c5ccc2[nH]5)C=C4)C=C3)cc1
REMARK SMILES IDX 1 1 2 2 19 3 3 5 4 6 5 7 6 9 7 10 8 11 9 12 10 14 11 15
REMARK SMILES IDX 12 16 13 17 14 18 18 19 15 20 17 21 16 22 20 23 21 24 22 25
REMARK SMILES IDX 23 26 24 27 25 29 26 30 27 31 91 32 28 33 90 34 29 35 30 36
REMARK SMILES IDX 31 37 84 38 32 39 89 40 83 41 85 42 33 43 88 44 82 45 81 46
REMARK SMILES IDX 34 48 68 49 47 50 67 51 48 52 51 53 66 54 86 55 49 56 50 57
REMARK SMILES IDX 65 59 87 60 52 61 35 62 36 63 45 64 37 65 38 66 44 67 46 68
REMARK SMILES IDX 39 69 40 70 41 71 42 72 43 73 69 74 70 75 79 76 71 77 72 78
REMARK SMILES IDX 78 79 80 80 73 81 74 82 75 83 76 84 77 85 53 86 54 87 63 88
REMARK SMILES IDX 55 89 56 90 62 91 64 92 57 93 58 94 59 95 60 96 61 97
REMARK H PARENT 19 4 4 8 8 13 23 28 85 47 51 58
REMARK Flexibility Score: inf
ROOT
ATOM      1  O   UNL A   1      32.996  37.401  30.343  1.00  0.00    -0.273 OA
ATOM      2  C   UNL A   1      33.116  36.262  30.788  1.00  0.00     0.239 C 
ATOM      3  N   UNL A   1      33.785  35.255  30.127  1.00  0.00    -0.355 N 
ATOM      4  H   UNL A   1      33.934  34.401  30.595  1.00  0.00     0.163 HD
ENDROOT
BRANCH   2   5
ATOM      5  C   UNL A   1      32.620  35.904  32.197  1.00  0.00     0.216 C 
BRANCH   5   6
ATOM      6  N   UNL A   1      33.015  34.571  32.643  1.00  0.00    -0.346 N 
ATOM      7  C   UNL A   1      34.120  34.170  33.334  1.00  0.00     0.239 C 
ATOM      8  H   UNL A   1      32.386  33.850  32.409  1.00  0.00     0.164 HD
ATOM      9  O   UNL A   1      34.160  33.006  33.736  1.00  0.00    -0.273 OA
BRANCH   7  10
ATOM     10  C   UNL A   1      35.254  35.151  33.625  1.00  0.00     0.219 C 
BRANCH  10  11
ATOM     11  N   UNL A   1      36.194  35.137  32.522  1.00  0.00    -0.312 N 
ATOM     12  C   UNL A   1      37.304  34.358  32.419  1.00  0.00     0.407 C 
ATOM     13  H   UNL A   1      36.012  35.751  31.774  1.00  0.00     0.167 HD
ATOM     14  O   UNL A   1      38.140  34.563  31.552  1.00  0.00    -0.225 OA
BRANCH  12  15
ATOM     15  O   UNL A   1      37.348  33.383  33.356  1.00  0.00    -0.445 OA
BRANCH  15  16
ATOM     16  C   UNL A   1      38.638  33.142  33.937  1.00  0.00     0.270 C 
BRANCH  16  17
ATOM     17  C   UNL A   1      39.213  31.775  33.648  1.00  0.00    -0.011 A 
ATOM     18  C   UNL A   1      38.372  30.789  33.109  1.00  0.00     0.007 A 
ATOM     19  C   UNL A   1      40.549  31.442  33.920  1.00  0.00     0.007 A 
ATOM     20  C   UNL A   1      38.840  29.491  32.902  1.00  0.00     0.000 A 
ATOM     21  C   UNL A   1      41.010  30.139  33.730  1.00  0.00     0.000 A 
ATOM     22  C   UNL A   1      40.154  29.163  33.229  1.00  0.00     0.000 A 
ENDBRANCH  16  17
ENDBRANCH  15  16
ENDBRANCH  12  15
ENDBRANCH  10  11
ENDBRANCH   7  10
ENDBRANCH   5   6
ENDBRANCH   2   5
BRANCH   3  23
ATOM     23  C   UNL A   1      34.279  35.399  28.770  1.00  0.00     0.117 C 
BRANCH  23  24
ATOM     24  C   UNL A   1      34.220  34.117  27.945  1.00  0.00     0.042 C 
BRANCH  24  25
ATOM     25  C   UNL A   1      34.652  32.852  28.682  1.00  0.00     0.118 C 
BRANCH  25  26
ATOM     26  N   UNL A   1      33.911  31.661  28.287  1.00  0.00    -0.352 N 
ATOM     27  C   UNL A   1      34.332  30.370  28.074  1.00  0.00     0.251 C 
ATOM     28  H   UNL A   1      32.947  31.805  28.148  1.00  0.00     0.163 HD
ATOM     29  O   UNL A   1      33.522  29.546  27.655  1.00  0.00    -0.269 OA
BRANCH  27  30
ATOM     30  C   UNL A   1      35.739  29.966  28.305  1.00  0.00     0.039 A 
ATOM     31  C   UNL A   1      36.633  30.029  27.229  1.00  0.00     0.014 A 
ATOM     32  C   UNL A   1      36.186  29.504  29.545  1.00  0.00     0.014 A 
ATOM     33  C   UNL A   1      37.981  29.706  27.418  1.00  0.00     0.010 A 
ATOM     34  C   UNL A   1      37.543  29.254  29.750  1.00  0.00     0.010 A 
ATOM     35  C   UNL A   1      38.458  29.357  28.691  1.00  0.00    -0.014 A 
BRANCH  35  36
ATOM     36  C   UNL A   1      39.909  29.126  28.935  1.00  0.00     0.031 A 
ATOM     37  C   UNL A   1      40.537  27.798  28.613  1.00  0.00     0.074 A 
ATOM     38  C   UNL A   1      40.649  30.097  29.510  1.00  0.00     0.049 A 
ATOM     39  N   UNL A   1      41.764  27.391  28.822  1.00  0.00    -0.248 NA
ATOM     40  C   UNL A   1      39.669  26.784  27.993  1.00  0.00     0.031 C 
ATOM     41  C   UNL A   1      40.150  31.415  29.910  1.00  0.00     0.029 A 
ATOM     42  N   UNL A   1      41.974  30.123  29.871  1.00  0.00    -0.354 N 
ATOM     43  C   UNL A   1      41.812  26.075  28.374  1.00  0.00     0.074 A 
ATOM     44  C   UNL A   1      40.479  25.737  27.927  1.00  0.00     0.031 C 
ATOM     45  C   UNL A   1      41.158  32.125  30.442  1.00  0.00     0.029 A 
ATOM     46  C   UNL A   1      42.363  31.303  30.464  1.00  0.00     0.049 A 
ATOM     47  H   UNL A   1      42.589  29.369  29.719  1.00  0.00     0.167 HD
ATOM     48  C   UNL A   1      42.874  25.235  28.323  1.00  0.00     0.037 A 
ATOM     49  C   UNL A   1      43.551  31.676  30.981  1.00  0.00     0.037 A 
ATOM     50  C   UNL A   1      44.203  25.583  28.756  1.00  0.00     0.049 A 
ATOM     51  C   UNL A   1      44.710  30.719  30.928  1.00  0.00     0.074 A 
ATOM     52  C   UNL A   1      45.355  24.819  28.694  1.00  0.00     0.029 A 
ATOM     53  N   UNL A   1      44.559  26.793  29.336  1.00  0.00    -0.354 N 
ATOM     54  N   UNL A   1      44.753  29.502  30.442  1.00  0.00    -0.248 NA
ATOM     55  C   UNL A   1      45.987  31.187  31.486  1.00  0.00     0.031 C 
ATOM     56  C   UNL A   1      46.395  25.544  29.284  1.00  0.00     0.029 A 
ATOM     57  C   UNL A   1      45.906  26.785  29.659  1.00  0.00     0.049 A 
ATOM     58  H   UNL A   1      43.944  27.545  29.495  1.00  0.00     0.167 HD
ATOM     59  C   UNL A   1      46.065  29.071  30.606  1.00  0.00     0.074 A 
ATOM     60  C   UNL A   1      46.787  30.161  31.229  1.00  0.00     0.031 C 
ATOM     61  C   UNL A   1      46.620  27.881  30.267  1.00  0.00     0.037 A 
BRANCH  48  62
ATOM     62  C   UNL A   1      42.644  23.849  27.780  1.00  0.00     0.058 A 
ATOM     63  C   UNL A   1      42.441  22.748  28.628  1.00  0.00     0.135 A 
ATOM     64  C   UNL A   1      42.577  23.625  26.395  1.00  0.00     0.135 A 
ATOM     65  F   UNL A   1      42.505  22.899  29.960  1.00  0.00    -0.206 F 
ATOM     66  C   UNL A   1      42.215  21.472  28.124  1.00  0.00     0.059 A 
ATOM     67  C   UNL A   1      42.321  22.363  25.868  1.00  0.00     0.059 A 
ATOM     68  F   UNL A   1      42.760  24.641  25.536  1.00  0.00    -0.206 F 
ATOM     69  C   UNL A   1      42.156  21.289  26.741  1.00  0.00     0.060 A 
BRANCH  69  70
ATOM     70  S   UNL A   1      41.857  19.626  26.104  1.00  0.00     0.124 S 
ATOM     71  O   UNL A   1      42.770  19.582  24.966  1.00  0.00    -0.237 OA
ATOM     72  O   UNL A   1      42.221  18.787  27.240  1.00  0.00    -0.237 OA
ATOM     73  O   UNL A   1      40.437  19.640  25.768  1.00  0.00    -0.744 OA
ENDBRANCH  69  70
ENDBRANCH  48  62
BRANCH  49  74
ATOM     74  C   UNL A   1      43.707  33.030  31.582  1.00  0.00     0.058 A 
ATOM     75  C   UNL A   1      43.831  34.170  30.773  1.00  0.00     0.135 A 
ATOM     76  C   UNL A   1      43.723  33.213  32.973  1.00  0.00     0.135 A 
ATOM     77  F   UNL A   1      43.828  34.047  29.437  1.00  0.00    -0.206 F 
ATOM     78  C   UNL A   1      43.984  35.440  31.321  1.00  0.00     0.059 A 
ATOM     79  C   UNL A   1      43.847  34.476  33.545  1.00  0.00     0.059 A 
ATOM     80  F   UNL A   1      43.593  32.157  33.793  1.00  0.00    -0.206 F 
ATOM     81  C   UNL A   1      43.989  35.583  32.709  1.00  0.00     0.060 A 
BRANCH  81  82
ATOM     82  S   UNL A   1      44.144  37.241  33.407  1.00  0.00     0.124 S 
ATOM     83  O   UNL A   1      45.202  37.047  34.391  1.00  0.00    -0.237 OA
ATOM     84  O   UNL A   1      44.498  38.035  32.234  1.00  0.00    -0.237 OA
ATOM     85  O   UNL A   1      42.815  37.502  33.953  1.00  0.00    -0.744 OA
ENDBRANCH  81  82
ENDBRANCH  49  74
BRANCH  61  86
ATOM     86  C   UNL A   1      48.093  27.701  30.517  1.00  0.00     0.058 A 
ATOM     87  C   UNL A   1      48.579  27.085  31.681  1.00  0.00     0.135 A 
ATOM     88  C   UNL A   1      49.028  28.094  29.545  1.00  0.00     0.135 A 
ATOM     89  F   UNL A   1      47.731  26.697  32.646  1.00  0.00    -0.206 F 
ATOM     90  C   UNL A   1      49.942  26.881  31.881  1.00  0.00     0.059 A 
ATOM     91  C   UNL A   1      50.392  27.873  29.710  1.00  0.00     0.059 A 
ATOM     92  F   UNL A   1      48.617  28.680  28.409  1.00  0.00    -0.206 F 
ATOM     93  C   UNL A   1      50.840  27.273  30.886  1.00  0.00     0.060 A 
BRANCH  93  94
ATOM     94  S   UNL A   1      52.600  26.959  31.136  1.00  0.00     0.124 S 
ATOM     95  O   UNL A   1      52.587  26.161  32.358  1.00  0.00    -0.237 OA
ATOM     96  O   UNL A   1      52.966  26.245  29.916  1.00  0.00    -0.237 OA
ATOM     97  O   UNL A   1      53.170  28.297  31.267  1.00  0.00    -0.744 OA
ENDBRANCH  93  94
ENDBRANCH  61  86
ENDBRANCH  35  36
ENDBRANCH  27  30
ENDBRANCH  25  26
ENDBRANCH  24  25
ENDBRANCH  23  24
ENDBRANCH   3  23
TORSDOF 19
ENDMDL
MODEL 3
REMARK VINA RESULT:      -9.5      3.972      6.656
REMARK SMILES O=C(CNC(=O)CNC(=O)OCc1ccccc1)NCCCNC(=O)c1ccc(-c2c3nc(c(-c4c(F)cc(S(=O)(=O)[O-])cc4F)c4ccc([nH]4)c(-c4c(F)cc(S(=O)(=O)[O-])cc4F)c4nc(c(-c5c(F)cc(S(=O)(=O)[O-])cc5F)c5ccc2[nH]5)C=C4)C=C3)cc1
REMARK SMILES IDX 1 1 2 2 19 3 3 5 4 6 5 7 6 9 7 10 8 11 9 12 10 14 11 15
REMARK SMILES IDX 12 16 13 17 14 18 18 19 15 20 17 21 16 22 20 23 21 24 22 25
REMARK SMILES IDX 23 26 24 27 25 29 26 30 27 31 91 32 28 33 90 34 29 35 30 36
REMARK SMILES IDX 31 37 84 38 32 39 89 40 83 41 85 42 33 43 88 44 82 45 81 46
REMARK SMILES IDX 34 48 68 49 47 50 67 51 48 52 51 53 66 54 86 55 49 56 50 57
REMARK SMILES IDX 65 59 87 60 52 61 35 62 36 63 45 64 37 65 38 66 44 67 46 68
REMARK SMILES IDX 39 69 40 70 41 71 42 72 43 73 69 74 70 75 79 76 71 77 72 78
REMARK SMILES IDX 78 79 80 80 73 81 74 82 75 83 76 84 77 85 53 86 54 87 63 88
REMARK SMILES IDX 55 89 56 90 62 91 64 92 57 93 58 94 59 95 60 96 61 97
REMARK H PARENT 19 4 4 8 8 13 23 28 85 47 51 58
REMARK Flexibility Score: inf
ROOT
ATOM      1  O   UNL A   1      31.453  27.915  27.637  1.00  0.00    -0.273 OA
ATOM      2  C   UNL A   1      31.834  27.984  26.471  1.00  0.00     0.239 C 
ATOM      3  N   UNL A   1      32.790  28.875  26.034  1.00  0.00    -0.355 N 
ATOM      4  H   UNL A   1      33.122  28.795  25.111  1.00  0.00     0.163 HD
ENDROOT
BRANCH   2   5
ATOM      5  C   UNL A   1      31.346  26.979  25.416  1.00  0.00     0.216 C 
BRANCH   5   6
ATOM      6  N   UNL A   1      30.544  27.579  24.354  1.00  0.00    -0.346 N 
ATOM      7  C   UNL A   1      30.879  27.876  23.065  1.00  0.00     0.239 C 
ATOM      8  H   UNL A   1      29.619  27.802  24.605  1.00  0.00     0.164 HD
ATOM      9  O   UNL A   1      29.982  28.237  22.303  1.00  0.00    -0.273 OA
BRANCH   7  10
ATOM     10  C   UNL A   1      32.321  27.730  22.583  1.00  0.00     0.219 C 
BRANCH  10  11
ATOM     11  N   UNL A   1      32.366  26.778  21.491  1.00  0.00    -0.312 N 
ATOM     12  C   UNL A   1      33.038  25.596  21.479  1.00  0.00     0.407 C 
ATOM     13  H   UNL A   1      31.861  27.009  20.678  1.00  0.00     0.167 HD
ATOM     14  O   UNL A   1      33.182  24.963  20.445  1.00  0.00    -0.225 OA
BRANCH  12  15
ATOM     15  O   UNL A   1      33.495  25.243  22.703  1.00  0.00    -0.445 OA
BRANCH  15  16
ATOM     16  C   UNL A   1      33.087  23.946  23.164  1.00  0.00     0.270 C 
BRANCH  16  17
ATOM     17  C   UNL A   1      34.222  23.049  23.603  1.00  0.00    -0.011 A 
ATOM     18  C   UNL A   1      33.920  21.872  24.304  1.00  0.00     0.007 A 
ATOM     19  C   UNL A   1      35.569  23.359  23.360  1.00  0.00     0.007 A 
ATOM     20  C   UNL A   1      34.938  21.057  24.798  1.00  0.00     0.000 A 
ATOM     21  C   UNL A   1      36.587  22.552  23.871  1.00  0.00     0.000 A 
ATOM     22  C   UNL A   1      36.271  21.407  24.595  1.00  0.00     0.000 A 
ENDBRANCH  16  17
ENDBRANCH  15  16
ENDBRANCH  12  15
ENDBRANCH  10  11
ENDBRANCH   7  10
ENDBRANCH   5   6
ENDBRANCH   2   5
BRANCH   3  23
ATOM     23  C   UNL A   1      33.328  29.925  26.880  1.00  0.00     0.117 C 
BRANCH  23  24
ATOM     24  C   UNL A   1      34.754  29.670  27.359  1.00  0.00     0.042 C 
BRANCH  24  25
ATOM     25  C   UNL A   1      35.405  30.832  28.105  1.00  0.00     0.118 C 
BRANCH  25  26
ATOM     26  N   UNL A   1      35.374  30.690  29.555  1.00  0.00    -0.352 N 
ATOM     27  C   UNL A   1      36.361  30.338  30.444  1.00  0.00     0.251 C 
ATOM     28  H   UNL A   1      34.500  30.877  29.966  1.00  0.00     0.163 HD
ATOM     29  O   UNL A   1      36.067  30.200  31.629  1.00  0.00    -0.269 OA
BRANCH  27  30
ATOM     30  C   UNL A   1      37.754  30.090  29.999  1.00  0.00     0.039 A 
ATOM     31  C   UNL A   1      38.771  30.113  30.960  1.00  0.00     0.014 A 
ATOM     32  C   UNL A   1      38.077  29.864  28.660  1.00  0.00     0.014 A 
ATOM     33  C   UNL A   1      40.090  29.833  30.592  1.00  0.00     0.010 A 
ATOM     34  C   UNL A   1      39.380  29.513  28.305  1.00  0.00     0.010 A 
ATOM     35  C   UNL A   1      40.401  29.487  29.267  1.00  0.00    -0.014 A 
BRANCH  35  36
ATOM     36  C   UNL A   1      41.777  29.070  28.881  1.00  0.00     0.031 A 
ATOM     37  C   UNL A   1      42.897  30.075  28.835  1.00  0.00     0.074 A 
ATOM     38  C   UNL A   1      42.006  27.794  28.507  1.00  0.00     0.049 A 
ATOM     39  N   UNL A   1      44.139  29.912  28.455  1.00  0.00    -0.248 NA
ATOM     40  C   UNL A   1      42.575  31.449  29.251  1.00  0.00     0.031 C 
ATOM     41  C   UNL A   1      40.997  26.733  28.466  1.00  0.00     0.029 A 
ATOM     42  N   UNL A   1      43.154  27.174  28.076  1.00  0.00    -0.354 N 
ATOM     43  C   UNL A   1      44.741  31.160  28.572  1.00  0.00     0.074 A 
ATOM     44  C   UNL A   1      43.716  32.080  29.012  1.00  0.00     0.031 C 
ATOM     45  C   UNL A   1      41.574  25.592  28.054  1.00  0.00     0.029 A 
ATOM     46  C   UNL A   1      42.980  25.847  27.758  1.00  0.00     0.049 A 
ATOM     47  H   UNL A   1      44.021  27.636  28.004  1.00  0.00     0.167 HD
ATOM     48  C   UNL A   1      46.034  31.502  28.352  1.00  0.00     0.037 A 
ATOM     49  C   UNL A   1      43.849  24.939  27.268  1.00  0.00     0.037 A 
ATOM     50  C   UNL A   1      47.055  30.577  27.929  1.00  0.00     0.049 A 
ATOM     51  C   UNL A   1      45.275  25.348  27.016  1.00  0.00     0.074 A 
ATOM     52  C   UNL A   1      48.403  30.817  27.731  1.00  0.00     0.029 A 
ATOM     53  N   UNL A   1      46.841  29.239  27.632  1.00  0.00    -0.354 N 
ATOM     54  N   UNL A   1      45.841  26.517  27.194  1.00  0.00    -0.248 NA
ATOM     55  C   UNL A   1      46.183  24.313  26.503  1.00  0.00     0.031 C 
ATOM     56  C   UNL A   1      48.995  29.640  27.264  1.00  0.00     0.029 A 
ATOM     57  C   UNL A   1      48.028  28.648  27.229  1.00  0.00     0.049 A 
ATOM     58  H   UNL A   1      45.975  28.777  27.697  1.00  0.00     0.167 HD
ATOM     59  C   UNL A   1      47.177  26.351  26.846  1.00  0.00     0.074 A 
ATOM     60  C   UNL A   1      47.337  24.966  26.455  1.00  0.00     0.031 C 
ATOM     61  C   UNL A   1      48.181  27.263  26.854  1.00  0.00     0.037 A 
BRANCH  48  62
ATOM     62  C   UNL A   1      46.423  32.942  28.563  1.00  0.00     0.058 A 
ATOM     63  C   UNL A   1      46.393  33.876  27.514  1.00  0.00     0.135 A 
ATOM     64  C   UNL A   1      46.784  33.406  29.838  1.00  0.00     0.135 A 
ATOM     65  F   UNL A   1      46.066  33.487  26.272  1.00  0.00    -0.206 F 
ATOM     66  C   UNL A   1      46.738  35.208  27.715  1.00  0.00     0.059 A 
ATOM     67  C   UNL A   1      47.103  34.741  30.069  1.00  0.00     0.059 A 
ATOM     68  F   UNL A   1      46.827  32.559  30.879  1.00  0.00    -0.206 F 
ATOM     69  C   UNL A   1      47.092  35.632  28.997  1.00  0.00     0.060 A 
BRANCH  69  70
ATOM     70  S   UNL A   1      47.534  37.365  29.240  1.00  0.00     0.124 S 
ATOM     71  O   UNL A   1      48.872  37.408  28.657  1.00  0.00    -0.237 OA
ATOM     72  O   UNL A   1      46.494  38.060  28.490  1.00  0.00    -0.237 OA
ATOM     73  O   UNL A   1      47.477  37.532  30.689  1.00  0.00    -0.744 OA
ENDBRANCH  69  70
ENDBRANCH  48  62
BRANCH  49  74
ATOM     74  C   UNL A   1      43.395  23.547  26.999  1.00  0.00     0.058 A 
ATOM     75  C   UNL A   1      43.206  23.089  25.686  1.00  0.00     0.135 A 
ATOM     76  C   UNL A   1      43.153  22.643  28.045  1.00  0.00     0.135 A 
ATOM     77  F   UNL A   1      43.418  23.917  24.651  1.00  0.00    -0.206 F 
ATOM     78  C   UNL A   1      42.776  21.793  25.420  1.00  0.00     0.059 A 
ATOM     79  C   UNL A   1      42.750  21.334  27.804  1.00  0.00     0.059 A 
ATOM     80  F   UNL A   1      43.334  23.025  29.320  1.00  0.00    -0.206 F 
ATOM     81  C   UNL A   1      42.553  20.921  26.487  1.00  0.00     0.060 A 
BRANCH  81  82
ATOM     82  S   UNL A   1      42.037  19.228  26.126  1.00  0.00     0.124 S 
ATOM     83  O   UNL A   1      42.833  18.925  24.942  1.00  0.00    -0.237 OA
ATOM     84  O   UNL A   1      42.417  18.526  27.348  1.00  0.00    -0.237 OA
ATOM     85  O   UNL A   1      40.600  19.355  25.905  1.00  0.00    -0.744 OA
ENDBRANCH  81  82
ENDBRANCH  49  74
BRANCH  61  86
ATOM     86  C   UNL A   1      49.558  26.791  26.473  1.00  0.00     0.058 A 
ATOM     87  C   UNL A   1      50.436  26.228  27.412  1.00  0.00     0.135 A 
ATOM     88  C   UNL A   1      49.977  26.845  25.134  1.00  0.00     0.135 A 
ATOM     89  F   UNL A   1      50.089  26.159  28.707  1.00  0.00    -0.206 F 
ATOM     90  C   UNL A   1      51.690  25.750  27.039  1.00  0.00     0.059 A 
ATOM     91  C   UNL A   1      51.213  26.346  24.733  1.00  0.00     0.059 A 
ATOM     92  F   UNL A   1      49.173  27.365  24.192  1.00  0.00    -0.206 F 
ATOM     93  C   UNL A   1      52.067  25.809  25.696  1.00  0.00     0.060 A 
BRANCH  93  94
ATOM     94  S   UNL A   1      53.675  25.143  25.219  1.00  0.00     0.124 S 
ATOM     95  O   UNL A   1      54.538  25.671  26.270  1.00  0.00    -0.237 OA
ATOM     96  O   UNL A   1      53.440  23.702  25.257  1.00  0.00    -0.237 OA
ATOM     97  O   UNL A   1      53.895  25.701  23.888  1.00  0.00    -0.744 OA
ENDBRANCH  93  94
ENDBRANCH  61  86
ENDBRANCH  35  36
ENDBRANCH  27  30
ENDBRANCH  25  26
ENDBRANCH  24  25
ENDBRANCH  23  24
ENDBRANCH   3  23
TORSDOF 19
ENDMDL
