MODEL 1
REMARK VINA RESULT:     -12.2      0.000      0.000
REMARK SMILES C[C@@H](C(=O)NCCCNC(=O)c1ccc(-c2c3nc(c(-c4c(F)cc(S(=O)(=O)[O-])cc4F)c4ccc([nH]4)c(-c4c(F)cc(S(=O)(=O)[O-])cc4F)c4nc(c(-c5c(F)cc(S(=O)(=O)[O-])cc5F)c5ccc2[nH]5)C=C4)C=C3)cc1)S(=O)(=O)N[C@@]12C[C@@H]3C[C@@](C)(C[C@@](C)(C3)C1)C2
REMARK SMILES IDX 7 1 6 2 5 3 3 4 4 5 2 7 1 8 78 9 79 10 80 11 81 12 82 14
REMARK SMILES IDX 83 15 92 16 93 17 84 18 89 19 86 20 91 21 85 22 88 23 90 24
REMARK SMILES IDX 87 25 8 26 9 27 10 28 11 30 12 31 13 32 77 33 14 34 76 35
REMARK SMILES IDX 15 36 16 37 17 38 70 39 18 40 75 41 69 42 71 43 19 44 74 45
REMARK SMILES IDX 68 46 67 47 20 49 54 50 33 51 53 52 34 53 37 54 52 55 72 56
REMARK SMILES IDX 35 57 36 58 51 60 73 61 38 62 21 63 22 64 31 65 23 66 24 67
REMARK SMILES IDX 30 68 32 69 25 70 26 71 27 72 28 73 29 74 55 75 56 76 65 77
REMARK SMILES IDX 57 78 58 79 64 80 66 81 59 82 60 83 61 84 62 85 63 86 39 87
REMARK SMILES IDX 40 88 49 89 41 90 42 91 48 92 50 93 43 94 44 95 45 96 46 97
REMARK SMILES IDX 47 98
REMARK H PARENT 5 6 81 13 9 29 71 48 37 59
REMARK Flexibility Score: inf
ROOT
ATOM      1  C   UNL A   1      32.164  27.935  27.116  1.00  0.00     0.042 C 
ENDROOT
BRANCH   1   2
ATOM      2  C   UNL A   1      32.013  26.858  26.039  1.00  0.00     0.117 C 
BRANCH   2   3
ATOM      3  N   UNL A   1      31.330  27.383  24.867  1.00  0.00    -0.355 N 
ATOM      4  C   UNL A   1      31.777  27.703  23.611  1.00  0.00     0.239 C 
ATOM      5  O   UNL A   1      30.962  28.290  22.897  1.00  0.00    -0.274 OA
ATOM      6  H   UNL A   1      30.366  27.537  25.001  1.00  0.00     0.163 HD
BRANCH   4   7
ATOM      7  C   UNL A   1      33.147  27.258  23.134  1.00  0.00     0.209 C 
ATOM      8  C   UNL A   1      34.011  28.308  22.438  1.00  0.00     0.037 C 
BRANCH   7   9
ATOM      9  S   UNL A   1      33.039  25.663  22.239  1.00  0.00     0.223 S 
ATOM     10  O   UNL A   1      31.835  24.972  22.672  1.00  0.00    -0.212 OA
ATOM     11  O   UNL A   1      33.173  25.962  20.828  1.00  0.00    -0.212 OA
BRANCH   9  12
ATOM     12  N   UNL A   1      34.336  24.674  22.583  1.00  0.00    -0.208 NA
ATOM     13  H   UNL A   1      35.118  25.318  22.698  1.00  0.00     0.141 HD
BRANCH  12  14
ATOM     14  C   UNL A   1      34.510  23.692  23.677  1.00  0.00     0.034 C 
ATOM     15  C   UNL A   1      34.498  24.463  25.017  1.00  0.00     0.027 C 
ATOM     16  C   UNL A   1      33.406  22.648  23.696  1.00  0.00     0.030 C 
ATOM     17  C   UNL A   1      35.866  22.951  23.576  1.00  0.00     0.030 C 
ATOM     18  C   UNL A   1      34.628  23.490  26.201  1.00  0.00    -0.008 C 
ATOM     19  C   UNL A   1      33.507  21.667  24.862  1.00  0.00    -0.030 C 
ATOM     20  C   UNL A   1      36.022  21.943  24.760  1.00  0.00    -0.030 C 
ATOM     21  C   UNL A   1      33.466  22.483  26.170  1.00  0.00     0.010 C 
ATOM     22  C   UNL A   1      35.956  22.727  26.093  1.00  0.00     0.010 C 
ATOM     23  C   UNL A   1      34.849  20.931  24.738  1.00  0.00     0.013 C 
ATOM     24  C   UNL A   1      32.320  20.700  24.782  1.00  0.00     0.011 C 
ATOM     25  C   UNL A   1      37.347  21.180  24.667  1.00  0.00     0.011 C 
ENDBRANCH  12  14
ENDBRANCH   9  12
ENDBRANCH   7   9
ENDBRANCH   4   7
ENDBRANCH   2   3
ENDBRANCH   1   2
BRANCH   1  26
ATOM     26  C   UNL A   1      33.583  28.501  27.209  1.00  0.00     0.118 C 
BRANCH  26  27
ATOM     27  N   UNL A   1      33.575  29.925  27.514  1.00  0.00    -0.352 N 
ATOM     28  C   UNL A   1      34.488  30.688  28.194  1.00  0.00     0.251 C 
ATOM     29  H   UNL A   1      32.790  30.417  27.179  1.00  0.00     0.163 HD
ATOM     30  O   UNL A   1      34.162  31.806  28.584  1.00  0.00    -0.269 OA
BRANCH  28  31
ATOM     31  C   UNL A   1      35.848  30.176  28.460  1.00  0.00     0.039 A 
ATOM     32  C   UNL A   1      36.792  30.205  27.430  1.00  0.00     0.014 A 
ATOM     33  C   UNL A   1      36.183  29.631  29.704  1.00  0.00     0.014 A 
ATOM     34  C   UNL A   1      38.091  29.751  27.669  1.00  0.00     0.010 A 
ATOM     35  C   UNL A   1      37.496  29.236  29.958  1.00  0.00     0.010 A 
ATOM     36  C   UNL A   1      38.465  29.305  28.947  1.00  0.00    -0.014 A 
BRANCH  36  37
ATOM     37  C   UNL A   1      39.878  28.968  29.256  1.00  0.00     0.031 A 
ATOM     38  C   UNL A   1      40.801  29.995  29.852  1.00  0.00     0.074 A 
ATOM     39  C   UNL A   1      40.342  27.746  28.923  1.00  0.00     0.049 A 
ATOM     40  N   UNL A   1      42.077  29.896  30.115  1.00  0.00    -0.248 NA
ATOM     41  C   UNL A   1      40.221  31.308  30.179  1.00  0.00     0.031 C 
ATOM     42  C   UNL A   1      39.549  26.685  28.294  1.00  0.00     0.029 A 
ATOM     43  N   UNL A   1      41.591  27.191  29.048  1.00  0.00    -0.354 N 
ATOM     44  C   UNL A   1      42.459  31.132  30.625  1.00  0.00     0.074 A 
ATOM     45  C   UNL A   1      41.286  31.978  30.603  1.00  0.00     0.031 C 
ATOM     46  C   UNL A   1      40.325  25.609  28.099  1.00  0.00     0.029 A 
ATOM     47  C   UNL A   1      41.681  25.914  28.543  1.00  0.00     0.049 A 
ATOM     48  H   UNL A   1      42.351  27.662  29.459  1.00  0.00     0.167 HD
ATOM     49  C   UNL A   1      43.675  31.516  31.080  1.00  0.00     0.037 A 
ATOM     50  C   UNL A   1      42.740  25.090  28.427  1.00  0.00     0.037 A 
ATOM     51  C   UNL A   1      44.830  30.655  31.121  1.00  0.00     0.049 A 
ATOM     52  C   UNL A   1      44.081  25.555  28.926  1.00  0.00     0.074 A 
ATOM     53  C   UNL A   1      46.083  30.927  31.644  1.00  0.00     0.029 A 
ATOM     54  N   UNL A   1      44.881  29.366  30.612  1.00  0.00    -0.354 N 
ATOM     55  N   UNL A   1      44.400  26.694  29.493  1.00  0.00    -0.248 NA
ATOM     56  C   UNL A   1      45.209  24.625  28.769  1.00  0.00     0.031 C 
ATOM     57  C   UNL A   1      46.908  29.826  31.395  1.00  0.00     0.029 A 
ATOM     58  C   UNL A   1      46.155  28.846  30.770  1.00  0.00     0.049 A 
ATOM     59  H   UNL A   1      44.123  28.891  30.201  1.00  0.00     0.167 HD
ATOM     60  C   UNL A   1      45.758  26.610  29.777  1.00  0.00     0.074 A 
ATOM     61  C   UNL A   1      46.195  25.298  29.346  1.00  0.00     0.031 C 
ATOM     62  C   UNL A   1      46.574  27.537  30.337  1.00  0.00     0.037 A 
BRANCH  49  63
ATOM     63  C   UNL A   1      43.842  32.925  31.580  1.00  0.00     0.058 A 
ATOM     64  C   UNL A   1      44.049  34.000  30.702  1.00  0.00     0.135 A 
ATOM     65  C   UNL A   1      43.682  33.217  32.945  1.00  0.00     0.135 A 
ATOM     66  F   UNL A   1      44.225  33.777  29.389  1.00  0.00    -0.206 F 
ATOM     67  C   UNL A   1      44.089  35.313  31.158  1.00  0.00     0.059 A 
ATOM     68  C   UNL A   1      43.692  34.525  33.420  1.00  0.00     0.059 A 
ATOM     69  F   UNL A   1      43.486  32.225  33.829  1.00  0.00    -0.206 F 
ATOM     70  C   UNL A   1      43.898  35.567  32.517  1.00  0.00     0.060 A 
BRANCH  70  71
ATOM     71  S   UNL A   1      43.890  37.283  33.081  1.00  0.00     0.124 S 
ATOM     72  O   UNL A   1      42.682  37.317  33.899  1.00  0.00    -0.237 OA
ATOM     73  O   UNL A   1      45.152  37.374  33.809  1.00  0.00    -0.237 OA
ATOM     74  O   UNL A   1      43.829  38.049  31.841  1.00  0.00    -0.744 OA
ENDBRANCH  70  71
ENDBRANCH  49  63
BRANCH  50  75
ATOM     75  C   UNL A   1      42.588  23.752  27.793  1.00  0.00     0.058 A 
ATOM     76  C   UNL A   1      42.430  22.594  28.570  1.00  0.00     0.135 A 
ATOM     77  C   UNL A   1      42.632  23.599  26.398  1.00  0.00     0.135 A 
ATOM     78  F   UNL A   1      42.387  22.686  29.908  1.00  0.00    -0.206 F 
ATOM     79  C   UNL A   1      42.361  21.331  27.992  1.00  0.00     0.059 A 
ATOM     80  C   UNL A   1      42.531  22.350  25.795  1.00  0.00     0.059 A 
ATOM     81  F   UNL A   1      42.760  24.675  25.606  1.00  0.00    -0.206 F 
ATOM     82  C   UNL A   1      42.417  21.220  26.602  1.00  0.00     0.060 A 
BRANCH  82  83
ATOM     83  S   UNL A   1      42.324  19.577  25.857  1.00  0.00     0.124 S 
ATOM     84  O   UNL A   1      42.728  18.729  26.972  1.00  0.00    -0.237 OA
ATOM     85  O   UNL A   1      40.920  19.496  25.468  1.00  0.00    -0.237 OA
ATOM     86  O   UNL A   1      43.271  19.659  24.749  1.00  0.00    -0.744 OA
ENDBRANCH  82  83
ENDBRANCH  50  75
BRANCH  62  87
ATOM     87  C   UNL A   1      48.017  27.162  30.530  1.00  0.00     0.058 A 
ATOM     88  C   UNL A   1      48.967  27.353  29.513  1.00  0.00     0.135 A 
ATOM     89  C   UNL A   1      48.467  26.657  31.760  1.00  0.00     0.135 A 
ATOM     90  F   UNL A   1      48.587  27.823  28.314  1.00  0.00    -0.206 F 
ATOM     91  C   UNL A   1      50.306  27.034  29.702  1.00  0.00     0.059 A 
ATOM     92  C   UNL A   1      49.808  26.362  31.982  1.00  0.00     0.059 A 
ATOM     93  F   UNL A   1      47.602  26.464  32.769  1.00  0.00    -0.206 F 
ATOM     94  C   UNL A   1      50.718  26.544  30.942  1.00  0.00     0.060 A 
BRANCH  94  95
ATOM     95  S   UNL A   1      52.469  26.174  31.184  1.00  0.00     0.124 S 
ATOM     96  O   UNL A   1      52.412  24.818  31.719  1.00  0.00    -0.237 OA
ATOM     97  O   UNL A   1      53.004  26.301  29.833  1.00  0.00    -0.237 OA
ATOM     98  O   UNL A   1      52.907  27.202  32.125  1.00  0.00    -0.744 OA
ENDBRANCH  94  95
ENDBRANCH  62  87
ENDBRANCH  36  37
ENDBRANCH  28  31
ENDBRANCH  26  27
ENDBRANCH   1  26
TORSDOF 16
ENDMDL
MODEL 2
REMARK VINA RESULT:     -12.2      0.386      8.136
REMARK SMILES C[C@@H](C(=O)NCCCNC(=O)c1ccc(-c2c3nc(c(-c4c(F)cc(S(=O)(=O)[O-])cc4F)c4ccc([nH]4)c(-c4c(F)cc(S(=O)(=O)[O-])cc4F)c4nc(c(-c5c(F)cc(S(=O)(=O)[O-])cc5F)c5ccc2[nH]5)C=C4)C=C3)cc1)S(=O)(=O)N[C@@]12C[C@@H]3C[C@@](C)(C[C@@](C)(C3)C1)C2
REMARK SMILES IDX 7 1 6 2 5 3 3 4 4 5 2 7 1 8 78 9 79 10 80 11 81 12 82 14
REMARK SMILES IDX 83 15 92 16 93 17 84 18 89 19 86 20 91 21 85 22 88 23 90 24
REMARK SMILES IDX 87 25 8 26 9 27 10 28 11 30 12 31 13 32 77 33 14 34 76 35
REMARK SMILES IDX 15 36 16 37 17 38 70 39 18 40 75 41 69 42 71 43 19 44 74 45
REMARK SMILES IDX 68 46 67 47 20 49 54 50 33 51 53 52 34 53 37 54 52 55 72 56
REMARK SMILES IDX 35 57 36 58 51 60 73 61 38 62 21 63 22 64 31 65 23 66 24 67
REMARK SMILES IDX 30 68 32 69 25 70 26 71 27 72 28 73 29 74 55 75 56 76 65 77
REMARK SMILES IDX 57 78 58 79 64 80 66 81 59 82 60 83 61 84 62 85 63 86 39 87
REMARK SMILES IDX 40 88 49 89 41 90 42 91 48 92 50 93 43 94 44 95 45 96 46 97
REMARK SMILES IDX 47 98
REMARK H PARENT 5 6 81 13 9 29 71 48 37 59
REMARK Flexibility Score: inf
ROOT
ATOM      1  C   UNL A   1      32.179  27.847  27.085  1.00  0.00     0.042 C 
ENDROOT
BRANCH   1   2
ATOM      2  C   UNL A   1      32.065  26.825  25.951  1.00  0.00     0.117 C 
BRANCH   2   3
ATOM      3  N   UNL A   1      31.399  27.402  24.794  1.00  0.00    -0.355 N 
ATOM      4  C   UNL A   1      31.852  27.723  23.540  1.00  0.00     0.239 C 
ATOM      5  O   UNL A   1      31.061  28.360  22.842  1.00  0.00    -0.274 OA
ATOM      6  H   UNL A   1      30.444  27.597  24.937  1.00  0.00     0.163 HD
BRANCH   4   7
ATOM      7  C   UNL A   1      33.197  27.224  23.045  1.00  0.00     0.209 C 
ATOM      8  C   UNL A   1      34.098  28.243  22.349  1.00  0.00     0.037 C 
BRANCH   7   9
ATOM      9  S   UNL A   1      33.012  25.643  22.138  1.00  0.00     0.223 S 
ATOM     10  O   UNL A   1      31.801  24.986  22.601  1.00  0.00    -0.212 OA
ATOM     11  O   UNL A   1      33.113  25.954  20.727  1.00  0.00    -0.212 OA
BRANCH   9  12
ATOM     12  N   UNL A   1      34.287  24.611  22.433  1.00  0.00    -0.208 NA
ATOM     13  H   UNL A   1      35.106  25.218  22.434  1.00  0.00     0.141 HD
BRANCH  12  14
ATOM     14  C   UNL A   1      34.515  23.694  23.572  1.00  0.00     0.034 C 
ATOM     15  C   UNL A   1      34.437  24.522  24.875  1.00  0.00     0.027 C 
ATOM     16  C   UNL A   1      33.483  22.580  23.631  1.00  0.00     0.030 C 
ATOM     17  C   UNL A   1      35.919  23.042  23.516  1.00  0.00     0.030 C 
ATOM     18  C   UNL A   1      34.620  23.615  26.104  1.00  0.00    -0.008 C 
ATOM     19  C   UNL A   1      33.637  21.661  24.842  1.00  0.00    -0.030 C 
ATOM     20  C   UNL A   1      36.129  22.101  24.746  1.00  0.00    -0.030 C 
ATOM     21  C   UNL A   1      33.528  22.532  26.111  1.00  0.00     0.010 C 
ATOM     22  C   UNL A   1      35.997  22.939  26.040  1.00  0.00     0.010 C 
ATOM     23  C   UNL A   1      35.027  21.013  24.762  1.00  0.00     0.013 C 
ATOM     24  C   UNL A   1      32.518  20.614  24.797  1.00  0.00     0.011 C 
ATOM     25  C   UNL A   1      37.503  21.425  24.698  1.00  0.00     0.011 C 
ENDBRANCH  12  14
ENDBRANCH   9  12
ENDBRANCH   7   9
ENDBRANCH   4   7
ENDBRANCH   2   3
ENDBRANCH   1   2
BRANCH   1  26
ATOM     26  C   UNL A   1      33.592  28.409  27.250  1.00  0.00     0.118 C 
BRANCH  26  27
ATOM     27  N   UNL A   1      33.571  29.826  27.589  1.00  0.00    -0.352 N 
ATOM     28  C   UNL A   1      34.511  30.596  28.224  1.00  0.00     0.251 C 
ATOM     29  H   UNL A   1      32.754  30.305  27.320  1.00  0.00     0.163 HD
ATOM     30  O   UNL A   1      34.186  31.696  28.663  1.00  0.00    -0.269 OA
BRANCH  28  31
ATOM     31  C   UNL A   1      35.898  30.113  28.385  1.00  0.00     0.039 A 
ATOM     32  C   UNL A   1      36.754  30.142  27.281  1.00  0.00     0.014 A 
ATOM     33  C   UNL A   1      36.344  29.594  29.604  1.00  0.00     0.014 A 
ATOM     34  C   UNL A   1      38.076  29.716  27.418  1.00  0.00     0.010 A 
ATOM     35  C   UNL A   1      37.680  29.227  29.756  1.00  0.00     0.010 A 
ATOM     36  C   UNL A   1      38.562  29.297  28.667  1.00  0.00    -0.014 A 
BRANCH  36  37
ATOM     37  C   UNL A   1      40.001  28.991  28.865  1.00  0.00     0.031 A 
ATOM     38  C   UNL A   1      40.557  27.640  28.507  1.00  0.00     0.074 A 
ATOM     39  C   UNL A   1      40.789  29.921  29.443  1.00  0.00     0.049 A 
ATOM     40  N   UNL A   1      41.767  27.178  28.682  1.00  0.00    -0.248 NA
ATOM     41  C   UNL A   1      39.631  26.676  27.889  1.00  0.00     0.031 C 
ATOM     42  C   UNL A   1      40.347  31.250  29.877  1.00  0.00     0.029 A 
ATOM     43  N   UNL A   1      42.119  29.892  29.782  1.00  0.00    -0.354 N 
ATOM     44  C   UNL A   1      41.749  25.870  28.210  1.00  0.00     0.074 A 
ATOM     45  C   UNL A   1      40.397  25.599  27.772  1.00  0.00     0.031 C 
ATOM     46  C   UNL A   1      41.385  31.909  30.412  1.00  0.00     0.029 A 
ATOM     47  C   UNL A   1      42.556  31.038  30.405  1.00  0.00     0.049 A 
ATOM     48  H   UNL A   1      42.705  29.122  29.597  1.00  0.00     0.167 HD
ATOM     49  C   UNL A   1      42.772  24.986  28.140  1.00  0.00     0.037 A 
ATOM     50  C   UNL A   1      43.756  31.345  30.935  1.00  0.00     0.037 A 
ATOM     51  C   UNL A   1      44.120  25.278  28.555  1.00  0.00     0.049 A 
ATOM     52  C   UNL A   1      44.866  30.332  30.856  1.00  0.00     0.074 A 
ATOM     53  C   UNL A   1      45.244  24.476  28.444  1.00  0.00     0.029 A 
ATOM     54  N   UNL A   1      44.528  26.452  29.172  1.00  0.00    -0.354 N 
ATOM     55  N   UNL A   1      44.853  29.136  30.318  1.00  0.00    -0.248 NA
ATOM     56  C   UNL A   1      46.154  30.709  31.455  1.00  0.00     0.031 C 
ATOM     57  C   UNL A   1      46.316  25.140  29.048  1.00  0.00     0.029 A 
ATOM     58  C   UNL A   1      45.875  26.378  29.484  1.00  0.00     0.049 A 
ATOM     59  H   UNL A   1      43.945  27.223  29.358  1.00  0.00     0.167 HD
ATOM     60  C   UNL A   1      46.133  28.625  30.499  1.00  0.00     0.074 A 
ATOM     61  C   UNL A   1      46.903  29.653  31.169  1.00  0.00     0.031 C 
ATOM     62  C   UNL A   1      46.628  27.412  30.150  1.00  0.00     0.037 A 
BRANCH  49  63
ATOM     63  C   UNL A   1      42.497  23.613  27.592  1.00  0.00     0.058 A 
ATOM     64  C   UNL A   1      42.532  23.348  26.214  1.00  0.00     0.135 A 
ATOM     65  C   UNL A   1      42.305  22.527  28.462  1.00  0.00     0.135 A 
ATOM     66  F   UNL A   1      42.696  24.351  25.336  1.00  0.00    -0.206 F 
ATOM     67  C   UNL A   1      42.390  22.056  25.719  1.00  0.00     0.059 A 
ATOM     68  C   UNL A   1      42.186  21.223  27.991  1.00  0.00     0.059 A 
ATOM     69  F   UNL A   1      42.258  22.726  29.789  1.00  0.00    -0.206 F 
ATOM     70  C   UNL A   1      42.229  20.998  26.616  1.00  0.00     0.060 A 
BRANCH  70  71
ATOM     71  S   UNL A   1      42.109  19.321  25.957  1.00  0.00     0.124 S 
ATOM     72  O   UNL A   1      40.674  19.204  25.715  1.00  0.00    -0.237 OA
ATOM     73  O   UNL A   1      42.948  19.396  24.765  1.00  0.00    -0.237 OA
ATOM     74  O   UNL A   1      42.632  18.491  27.037  1.00  0.00    -0.744 OA
ENDBRANCH  70  71
ENDBRANCH  49  63
BRANCH  50  75
ATOM     75  C   UNL A   1      43.970  32.656  31.607  1.00  0.00     0.058 A 
ATOM     76  C   UNL A   1      43.652  32.838  32.960  1.00  0.00     0.135 A 
ATOM     77  C   UNL A   1      44.466  33.762  30.899  1.00  0.00     0.135 A 
ATOM     78  F   UNL A   1      43.169  31.812  33.679  1.00  0.00    -0.206 F 
ATOM     79  C   UNL A   1      43.778  34.077  33.579  1.00  0.00     0.059 A 
ATOM     80  C   UNL A   1      44.634  35.003  31.505  1.00  0.00     0.059 A 
ATOM     81  F   UNL A   1      44.807  33.639  29.606  1.00  0.00    -0.206 F 
ATOM     82  C   UNL A   1      44.267  35.156  32.840  1.00  0.00     0.060 A 
BRANCH  82  83
ATOM     83  S   UNL A   1      44.431  36.761  33.651  1.00  0.00     0.124 S 
ATOM     84  O   UNL A   1      45.316  36.437  34.763  1.00  0.00    -0.237 OA
ATOM     85  O   UNL A   1      45.010  37.581  32.591  1.00  0.00    -0.237 OA
ATOM     86  O   UNL A   1      43.056  37.095  34.011  1.00  0.00    -0.744 OA
ENDBRANCH  82  83
ENDBRANCH  50  75
BRANCH  62  87
ATOM     87  C   UNL A   1      48.070  27.134  30.471  1.00  0.00     0.058 A 
ATOM     88  C   UNL A   1      49.101  27.505  29.593  1.00  0.00     0.135 A 
ATOM     89  C   UNL A   1      48.431  26.539  31.690  1.00  0.00     0.135 A 
ATOM     90  F   UNL A   1      48.811  28.068  28.409  1.00  0.00    -0.206 F 
ATOM     91  C   UNL A   1      50.437  27.275  29.903  1.00  0.00     0.059 A 
ATOM     92  C   UNL A   1      49.761  26.329  32.035  1.00  0.00     0.059 A 
ATOM     93  F   UNL A   1      47.484  26.173  32.570  1.00  0.00    -0.206 F 
ATOM     94  C   UNL A   1      50.757  26.691  31.130  1.00  0.00     0.060 A 
BRANCH  94  95
ATOM     95  S   UNL A   1      52.498  26.438  31.536  1.00  0.00     0.124 S 
ATOM     96  O   UNL A   1      52.747  27.537  32.463  1.00  0.00    -0.237 OA
ATOM     97  O   UNL A   1      52.490  25.103  32.123  1.00  0.00    -0.237 OA
ATOM     98  O   UNL A   1      53.168  26.544  30.243  1.00  0.00    -0.744 OA
ENDBRANCH  94  95
ENDBRANCH  62  87
ENDBRANCH  36  37
ENDBRANCH  28  31
ENDBRANCH  26  27
ENDBRANCH   1  26
TORSDOF 16
ENDMDL
MODEL 3
REMARK VINA RESULT:     -11.9      2.849      8.362
REMARK SMILES C[C@@H](C(=O)NCCCNC(=O)c1ccc(-c2c3nc(c(-c4c(F)cc(S(=O)(=O)[O-])cc4F)c4ccc([nH]4)c(-c4c(F)cc(S(=O)(=O)[O-])cc4F)c4nc(c(-c5c(F)cc(S(=O)(=O)[O-])cc5F)c5ccc2[nH]5)C=C4)C=C3)cc1)S(=O)(=O)N[C@@]12C[C@@H]3C[C@@](C)(C[C@@](C)(C3)C1)C2
REMARK SMILES IDX 7 1 6 2 5 3 3 4 4 5 2 7 1 8 78 9 79 10 80 11 81 12 82 14
REMARK SMILES IDX 83 15 92 16 93 17 84 18 89 19 86 20 91 21 85 22 88 23 90 24
REMARK SMILES IDX 87 25 8 26 9 27 10 28 11 30 12 31 13 32 77 33 14 34 76 35
REMARK SMILES IDX 15 36 16 37 17 38 70 39 18 40 75 41 69 42 71 43 19 44 74 45
REMARK SMILES IDX 68 46 67 47 20 49 54 50 33 51 53 52 34 53 37 54 52 55 72 56
REMARK SMILES IDX 35 57 36 58 51 60 73 61 38 62 21 63 22 64 31 65 23 66 24 67
REMARK SMILES IDX 30 68 32 69 25 70 26 71 27 72 28 73 29 74 55 75 56 76 65 77
REMARK SMILES IDX 57 78 58 79 64 80 66 81 59 82 60 83 61 84 62 85 63 86 39 87
REMARK SMILES IDX 40 88 49 89 41 90 42 91 48 92 50 93 43 94 44 95 45 96 46 97
REMARK SMILES IDX 47 98
REMARK H PARENT 5 6 81 13 9 29 71 48 37 59
REMARK Flexibility Score: inf
ROOT
ATOM      1  C   UNL A   1      36.177  23.360  23.943  1.00  0.00     0.042 C 
ENDROOT
BRANCH   1   2
ATOM      2  C   UNL A   1      34.681  23.682  23.991  1.00  0.00     0.117 C 
BRANCH   2   3
ATOM      3  N   UNL A   1      33.898  22.490  24.275  1.00  0.00    -0.355 N 
ATOM      4  C   UNL A   1      33.239  22.071  25.402  1.00  0.00     0.239 C 
ATOM      5  O   UNL A   1      32.809  20.918  25.362  1.00  0.00    -0.274 OA
ATOM      6  H   UNL A   1      33.828  21.867  23.515  1.00  0.00     0.163 HD
BRANCH   4   7
ATOM      7  C   UNL A   1      32.988  23.024  26.557  1.00  0.00     0.209 C 
ATOM      8  C   UNL A   1      33.317  22.511  27.958  1.00  0.00     0.037 C 
BRANCH   7   9
ATOM      9  S   UNL A   1      31.336  23.803  26.412  1.00  0.00     0.223 S 
ATOM     10  O   UNL A   1      30.924  23.752  25.018  1.00  0.00    -0.212 OA
ATOM     11  O   UNL A   1      30.482  23.164  27.391  1.00  0.00    -0.212 OA
BRANCH   9  12
ATOM     12  N   UNL A   1      31.370  25.407  26.865  1.00  0.00    -0.208 NA
ATOM     13  H   UNL A   1      31.991  25.425  27.674  1.00  0.00     0.141 HD
BRANCH  12  14
ATOM     14  C   UNL A   1      31.757  26.602  26.083  1.00  0.00     0.034 C 
ATOM     15  C   UNL A   1      33.218  26.411  25.613  1.00  0.00     0.027 C 
ATOM     16  C   UNL A   1      30.869  26.808  24.867  1.00  0.00     0.030 C 
ATOM     17  C   UNL A   1      31.705  27.892  26.937  1.00  0.00     0.030 C 
ATOM     18  C   UNL A   1      33.668  27.603  24.751  1.00  0.00    -0.008 C 
ATOM     19  C   UNL A   1      31.291  27.984  23.989  1.00  0.00    -0.030 C 
ATOM     20  C   UNL A   1      32.144  29.125  26.083  1.00  0.00    -0.030 C 
ATOM     21  C   UNL A   1      32.742  27.734  23.530  1.00  0.00     0.010 C 
ATOM     22  C   UNL A   1      33.589  28.893  25.580  1.00  0.00     0.010 C 
ATOM     23  C   UNL A   1      31.219  29.256  24.847  1.00  0.00     0.013 C 
ATOM     24  C   UNL A   1      30.341  28.054  22.789  1.00  0.00     0.011 C 
ATOM     25  C   UNL A   1      32.076  30.418  26.902  1.00  0.00     0.011 C 
ENDBRANCH  12  14
ENDBRANCH   9  12
ENDBRANCH   7   9
ENDBRANCH   4   7
ENDBRANCH   2   3
ENDBRANCH   1   2
BRANCH   1  26
ATOM     26  C   UNL A   1      36.912  23.713  25.238  1.00  0.00     0.118 C 
BRANCH  26  27
ATOM     27  N   UNL A   1      38.007  22.790  25.504  1.00  0.00    -0.352 N 
ATOM     28  C   UNL A   1      39.231  23.014  26.078  1.00  0.00     0.251 C 
ATOM     29  H   UNL A   1      37.841  21.859  25.227  1.00  0.00     0.163 HD
ATOM     30  O   UNL A   1      40.114  22.168  25.955  1.00  0.00    -0.269 OA
BRANCH  28  31
ATOM     31  C   UNL A   1      39.493  24.255  26.834  1.00  0.00     0.039 A 
ATOM     32  C   UNL A   1      38.973  24.380  28.125  1.00  0.00     0.014 A 
ATOM     33  C   UNL A   1      40.210  25.311  26.262  1.00  0.00     0.014 A 
ATOM     34  C   UNL A   1      39.232  25.534  28.867  1.00  0.00     0.010 A 
ATOM     35  C   UNL A   1      40.520  26.435  27.026  1.00  0.00     0.010 A 
ATOM     36  C   UNL A   1      40.044  26.552  28.340  1.00  0.00    -0.014 A 
BRANCH  36  37
ATOM     37  C   UNL A   1      40.456  27.710  29.173  1.00  0.00     0.031 A 
ATOM     38  C   UNL A   1      39.551  28.899  29.338  1.00  0.00     0.074 A 
ATOM     39  C   UNL A   1      41.691  27.711  29.717  1.00  0.00     0.049 A 
ATOM     40  N   UNL A   1      39.781  30.024  29.964  1.00  0.00    -0.248 NA
ATOM     41  C   UNL A   1      38.224  28.825  28.705  1.00  0.00     0.031 C 
ATOM     42  C   UNL A   1      42.674  26.632  29.581  1.00  0.00     0.029 A 
ATOM     43  N   UNL A   1      42.339  28.651  30.478  1.00  0.00    -0.354 N 
ATOM     44  C   UNL A   1      38.637  30.797  29.793  1.00  0.00     0.074 A 
ATOM     45  C   UNL A   1      37.727  30.027  28.974  1.00  0.00     0.031 C 
ATOM     46  C   UNL A   1      43.792  26.966  30.244  1.00  0.00     0.029 A 
ATOM     47  C   UNL A   1      43.627  28.299  30.812  1.00  0.00     0.049 A 
ATOM     48  H   UNL A   1      41.922  29.498  30.759  1.00  0.00     0.167 HD
ATOM     49  C   UNL A   1      38.372  32.029  30.286  1.00  0.00     0.037 A 
ATOM     50  C   UNL A   1      44.578  28.983  31.478  1.00  0.00     0.037 A 
ATOM     51  C   UNL A   1      39.278  32.775  31.123  1.00  0.00     0.049 A 
ATOM     52  C   UNL A   1      44.257  30.358  31.996  1.00  0.00     0.074 A 
ATOM     53  C   UNL A   1      39.064  33.995  31.742  1.00  0.00     0.029 A 
ATOM     54  N   UNL A   1      40.568  32.383  31.448  1.00  0.00    -0.354 N 
ATOM     55  N   UNL A   1      43.135  31.032  31.905  1.00  0.00    -0.248 NA
ATOM     56  C   UNL A   1      45.328  31.069  32.708  1.00  0.00     0.031 C 
ATOM     57  C   UNL A   1      40.245  34.369  32.389  1.00  0.00     0.029 A 
ATOM     58  C   UNL A   1      41.176  33.357  32.223  1.00  0.00     0.049 A 
ATOM     59  H   UNL A   1      40.988  31.537  31.170  1.00  0.00     0.167 HD
ATOM     60  C   UNL A   1      43.361  32.236  32.562  1.00  0.00     0.074 A 
ATOM     61  C   UNL A   1      44.715  32.187  33.072  1.00  0.00     0.031 C 
ATOM     62  C   UNL A   1      42.526  33.292  32.724  1.00  0.00     0.037 A 
BRANCH  49  63
ATOM     63  C   UNL A   1      37.053  32.668  29.950  1.00  0.00     0.058 A 
ATOM     64  C   UNL A   1      35.898  32.419  30.708  1.00  0.00     0.135 A 
ATOM     65  C   UNL A   1      36.969  33.625  28.925  1.00  0.00     0.135 A 
ATOM     66  F   UNL A   1      35.918  31.501  31.688  1.00  0.00    -0.206 F 
ATOM     67  C   UNL A   1      34.709  33.097  30.464  1.00  0.00     0.059 A 
ATOM     68  C   UNL A   1      35.797  34.335  28.681  1.00  0.00     0.059 A 
ATOM     69  F   UNL A   1      38.042  33.898  28.167  1.00  0.00    -0.206 F 
ATOM     70  C   UNL A   1      34.671  34.062  29.456  1.00  0.00     0.060 A 
BRANCH  70  71
ATOM     71  S   UNL A   1      33.135  34.977  29.197  1.00  0.00     0.124 S 
ATOM     72  O   UNL A   1      32.482  34.166  28.174  1.00  0.00    -0.237 OA
ATOM     73  O   UNL A   1      32.525  34.938  30.522  1.00  0.00    -0.237 OA
ATOM     74  O   UNL A   1      33.591  36.291  28.758  1.00  0.00    -0.744 OA
ENDBRANCH  70  71
ENDBRANCH  49  63
BRANCH  50  75
ATOM     75  C   UNL A   1      45.931  28.394  31.674  1.00  0.00     0.058 A 
ATOM     76  C   UNL A   1      46.952  28.591  30.734  1.00  0.00     0.135 A 
ATOM     77  C   UNL A   1      46.219  27.594  32.792  1.00  0.00     0.135 A 
ATOM     78  F   UNL A   1      46.725  29.343  29.645  1.00  0.00    -0.206 F 
ATOM     79  C   UNL A   1      48.197  27.986  30.870  1.00  0.00     0.059 A 
ATOM     80  C   UNL A   1      47.468  27.006  32.968  1.00  0.00     0.059 A 
ATOM     81  F   UNL A   1      45.286  27.390  33.734  1.00  0.00    -0.206 F 
ATOM     82  C   UNL A   1      48.443  27.190  31.991  1.00  0.00     0.060 A 
BRANCH  82  83
ATOM     83  S   UNL A   1      50.062  26.409  32.163  1.00  0.00     0.124 S 
ATOM     84  O   UNL A   1      50.696  26.771  30.901  1.00  0.00    -0.237 OA
ATOM     85  O   UNL A   1      50.592  27.063  33.356  1.00  0.00    -0.237 OA
ATOM     86  O   UNL A   1      49.735  24.996  32.324  1.00  0.00    -0.744 OA
ENDBRANCH  82  83
ENDBRANCH  50  75
BRANCH  62  87
ATOM     87  C   UNL A   1      43.046  34.473  33.495  1.00  0.00     0.058 A 
ATOM     88  C   UNL A   1      43.532  35.618  32.843  1.00  0.00     0.135 A 
ATOM     89  C   UNL A   1      43.010  34.485  34.898  1.00  0.00     0.135 A 
ATOM     90  F   UNL A   1      43.597  35.656  31.502  1.00  0.00    -0.206 F 
ATOM     91  C   UNL A   1      43.985  36.722  33.556  1.00  0.00     0.059 A 
ATOM     92  C   UNL A   1      43.428  35.590  35.631  1.00  0.00     0.059 A 
ATOM     93  F   UNL A   1      42.547  33.419  35.572  1.00  0.00    -0.206 F 
ATOM     94  C   UNL A   1      43.924  36.701  34.950  1.00  0.00     0.060 A 
BRANCH  94  95
ATOM     95  S   UNL A   1      44.477  38.159  35.859  1.00  0.00     0.124 S 
ATOM     96  O   UNL A   1      45.913  37.919  35.955  1.00  0.00    -0.237 OA
ATOM     97  O   UNL A   1      44.074  39.248  34.975  1.00  0.00    -0.237 OA
ATOM     98  O   UNL A   1      43.741  38.076  37.117  1.00  0.00    -0.744 OA
ENDBRANCH  94  95
ENDBRANCH  62  87
ENDBRANCH  36  37
ENDBRANCH  28  31
ENDBRANCH  26  27
ENDBRANCH   1  26
TORSDOF 16
ENDMDL
