MODEL 1
REMARK VINA RESULT:      -9.9      0.000      0.000
REMARK SMILES CCC[C@](C)(Nc1cccc(Br)c1)C(=O)NCCCNC(=O)c1ccc(-c2c3nc(c(-c4c(F)cc(S(=O)(=O)[O-])cc4F)c4ccc([nH]4)c(-c4c(F)cc(S(=O)(=O)[O-])cc4F)c4nc(c(-c5c(F)cc(S(=O)(=O)[O-])cc5F)c5ccc2[nH]5)C=C4)C=C3)cc1
REMARK SMILES IDX 18 1 17 2 16 3 14 4 15 5 4 7 5 8 3 9 2 10 1 11 6 12 7 14
REMARK SMILES IDX 8 15 13 16 9 17 11 18 10 19 12 20 19 21 20 22 21 23 22 25
REMARK SMILES IDX 23 26 24 27 88 28 25 29 87 30 26 31 27 32 28 33 81 34 29 35
REMARK SMILES IDX 86 36 80 37 82 38 30 39 85 40 79 41 78 42 31 44 65 45 44 46
REMARK SMILES IDX 64 47 45 48 48 49 63 50 83 51 46 52 47 53 62 55 84 56 49 57
REMARK SMILES IDX 32 58 33 59 42 60 34 61 35 62 41 63 43 64 36 65 37 66 38 67
REMARK SMILES IDX 39 68 40 69 66 70 67 71 76 72 68 73 69 74 75 75 77 76 70 77
REMARK SMILES IDX 71 78 72 79 73 80 74 81 50 82 51 83 60 84 52 85 53 86 59 87
REMARK SMILES IDX 61 88 54 89 55 90 56 91 57 92 58 93
REMARK H PARENT 16 6 6 13 20 24 82 43 48 54
REMARK Flexibility Score: inf
ROOT
ATOM      1  C   UNL A   1      33.425  33.901  28.369  1.00  0.00     0.042 C 
ENDROOT
BRANCH   1   2
ATOM      2  C   UNL A   1      33.864  34.981  29.351  1.00  0.00     0.117 C 
BRANCH   2   3
ATOM      3  N   UNL A   1      33.110  35.041  30.593  1.00  0.00    -0.354 N 
ATOM      4  C   UNL A   1      33.422  34.670  31.871  1.00  0.00     0.245 C 
ATOM      5  O   UNL A   1      32.563  34.919  32.728  1.00  0.00    -0.272 OA
ATOM      6  H   UNL A   1      32.207  35.421  30.496  1.00  0.00     0.163 HD
BRANCH   4   7
ATOM      7  C   UNL A   1      34.776  33.995  32.249  1.00  0.00     0.114 C 
ATOM      8  C   UNL A   1      34.834  32.573  31.640  1.00  0.00     0.045 C 
BRANCH   7   9
ATOM      9  C   UNL A   1      34.794  33.838  33.808  1.00  0.00     0.038 C 
BRANCH   9  10
ATOM     10  C   UNL A   1      36.069  34.190  34.590  1.00  0.00    -0.000 C 
ATOM     11  C   UNL A   1      37.026  33.026  34.825  1.00  0.00     0.004 C 
ENDBRANCH   9  10
ENDBRANCH   7   9
BRANCH   7  12
ATOM     12  N   UNL A   1      35.974  34.705  31.750  1.00  0.00    -0.371 N 
ATOM     13  H   UNL A   1      35.954  35.682  31.877  1.00  0.00     0.161 HD
BRANCH  12  14
ATOM     14  C   UNL A   1      37.121  34.226  31.135  1.00  0.00     0.036 A 
ATOM     15  C   UNL A   1      37.175  33.591  29.891  1.00  0.00     0.026 A 
ATOM     16  C   UNL A   1      38.356  34.514  31.748  1.00  0.00     0.041 A 
ATOM     17  C   UNL A   1      38.395  33.317  29.252  1.00  0.00     0.003 A 
ATOM     18  C   UNL A   1      39.573  34.203  31.134  1.00  0.00     0.020 A 
ATOM     19  C   UNL A   1      39.599  33.628  29.873  1.00  0.00     0.016 A 
ATOM     20  Br  UNL A   1      41.197  34.578  32.029  1.00  0.00    -0.051 Br
ENDBRANCH  12  14
ENDBRANCH   7  12
ENDBRANCH   4   7
ENDBRANCH   2   3
ENDBRANCH   1   2
BRANCH   1  21
ATOM     21  C   UNL A   1      34.484  32.873  27.999  1.00  0.00     0.118 C 
BRANCH  21  22
ATOM     22  N   UNL A   1      33.912  31.653  27.455  1.00  0.00    -0.352 N 
ATOM     23  C   UNL A   1      34.449  30.392  27.348  1.00  0.00     0.251 C 
ATOM     24  H   UNL A   1      32.995  31.743  27.108  1.00  0.00     0.163 HD
ATOM     25  O   UNL A   1      33.851  29.548  26.685  1.00  0.00    -0.269 OA
BRANCH  23  26
ATOM     26  C   UNL A   1      35.736  30.042  27.997  1.00  0.00     0.039 A 
ATOM     27  C   UNL A   1      35.719  29.657  29.342  1.00  0.00     0.014 A 
ATOM     28  C   UNL A   1      36.959  30.141  27.325  1.00  0.00     0.014 A 
ATOM     29  C   UNL A   1      36.910  29.328  29.993  1.00  0.00     0.010 A 
ATOM     30  C   UNL A   1      38.142  29.746  27.957  1.00  0.00     0.010 A 
ATOM     31  C   UNL A   1      38.133  29.346  29.300  1.00  0.00    -0.014 A 
BRANCH  31  32
ATOM     32  C   UNL A   1      39.395  28.952  29.984  1.00  0.00     0.031 A 
ATOM     33  C   UNL A   1      39.813  29.616  31.269  1.00  0.00     0.074 A 
ATOM     34  C   UNL A   1      40.183  28.007  29.433  1.00  0.00     0.049 A 
ATOM     35  N   UNL A   1      40.865  29.385  32.013  1.00  0.00    -0.248 NA
ATOM     36  C   UNL A   1      38.949  30.694  31.776  1.00  0.00     0.031 C 
ATOM     37  C   UNL A   1      39.924  27.327  28.162  1.00  0.00     0.029 A 
ATOM     38  N   UNL A   1      41.361  27.453  29.871  1.00  0.00    -0.354 N 
ATOM     39  C   UNL A   1      40.795  30.289  33.067  1.00  0.00     0.074 A 
ATOM     40  C   UNL A   1      39.623  31.107  32.839  1.00  0.00     0.031 C 
ATOM     41  C   UNL A   1      40.898  26.432  27.936  1.00  0.00     0.029 A 
ATOM     42  C   UNL A   1      41.863  26.489  29.030  1.00  0.00     0.049 A 
ATOM     43  H   UNL A   1      41.802  27.721  30.708  1.00  0.00     0.167 HD
ATOM     44  C   UNL A   1      41.616  30.412  34.138  1.00  0.00     0.037 A 
ATOM     45  C   UNL A   1      42.974  25.732  29.129  1.00  0.00     0.037 A 
ATOM     46  C   UNL A   1      42.770  29.584  34.376  1.00  0.00     0.049 A 
ATOM     47  C   UNL A   1      43.857  25.870  30.338  1.00  0.00     0.074 A 
ATOM     48  C   UNL A   1      43.624  29.589  35.467  1.00  0.00     0.029 A 
ATOM     49  N   UNL A   1      43.236  28.604  33.511  1.00  0.00    -0.354 N 
ATOM     50  N   UNL A   1      43.729  26.677  31.364  1.00  0.00    -0.248 NA
ATOM     51  C   UNL A   1      45.028  24.985  30.409  1.00  0.00     0.031 C 
ATOM     52  C   UNL A   1      44.629  28.639  35.243  1.00  0.00     0.029 A 
ATOM     53  C   UNL A   1      44.375  28.013  34.033  1.00  0.00     0.049 A 
ATOM     54  H   UNL A   1      42.817  28.364  32.653  1.00  0.00     0.167 HD
ATOM     55  C   UNL A   1      44.792  26.383  32.212  1.00  0.00     0.074 A 
ATOM     56  C   UNL A   1      45.542  25.313  31.587  1.00  0.00     0.031 C 
ATOM     57  C   UNL A   1      45.117  26.951  33.400  1.00  0.00     0.037 A 
BRANCH  44  58
ATOM     58  C   UNL A   1      41.293  31.486  35.141  1.00  0.00     0.058 A 
ATOM     59  C   UNL A   1      42.007  32.695  35.182  1.00  0.00     0.135 A 
ATOM     60  C   UNL A   1      40.235  31.321  36.051  1.00  0.00     0.135 A 
ATOM     61  F   UNL A   1      43.036  32.901  34.345  1.00  0.00    -0.206 F 
ATOM     62  C   UNL A   1      41.705  33.688  36.108  1.00  0.00     0.059 A 
ATOM     63  C   UNL A   1      39.899  32.312  36.969  1.00  0.00     0.059 A 
ATOM     64  F   UNL A   1      39.518  30.186  36.054  1.00  0.00    -0.206 F 
ATOM     65  C   UNL A   1      40.650  33.486  37.000  1.00  0.00     0.060 A 
BRANCH  65  66
ATOM     66  S   UNL A   1      40.271  34.784  38.197  1.00  0.00     0.124 S 
ATOM     67  O   UNL A   1      40.435  35.984  37.383  1.00  0.00    -0.237 OA
ATOM     68  O   UNL A   1      38.901  34.464  38.584  1.00  0.00    -0.237 OA
ATOM     69  O   UNL A   1      41.275  34.589  39.239  1.00  0.00    -0.744 OA
ENDBRANCH  65  66
ENDBRANCH  44  58
BRANCH  45  70
ATOM     70  C   UNL A   1      43.294  24.750  28.059  1.00  0.00     0.058 A 
ATOM     71  C   UNL A   1      44.092  25.109  26.962  1.00  0.00     0.135 A 
ATOM     72  C   UNL A   1      42.825  23.428  28.122  1.00  0.00     0.135 A 
ATOM     73  F   UNL A   1      44.558  26.363  26.855  1.00  0.00    -0.206 F 
ATOM     74  C   UNL A   1      44.403  24.198  25.959  1.00  0.00     0.059 A 
ATOM     75  C   UNL A   1      43.142  22.493  27.143  1.00  0.00     0.059 A 
ATOM     76  F   UNL A   1      42.071  23.032  29.159  1.00  0.00    -0.206 F 
ATOM     77  C   UNL A   1      43.926  22.890  26.059  1.00  0.00     0.060 A 
BRANCH  77  78
ATOM     78  S   UNL A   1      44.383  21.698  24.782  1.00  0.00     0.124 S 
ATOM     79  O   UNL A   1      44.168  22.472  23.566  1.00  0.00    -0.237 OA
ATOM     80  O   UNL A   1      45.775  21.408  25.117  1.00  0.00    -0.237 OA
ATOM     81  O   UNL A   1      43.452  20.596  25.005  1.00  0.00    -0.744 OA
ENDBRANCH  77  78
ENDBRANCH  45  70
BRANCH  57  82
ATOM     82  C   UNL A   1      46.327  26.410  34.111  1.00  0.00     0.058 A 
ATOM     83  C   UNL A   1      47.603  26.964  33.921  1.00  0.00     0.135 A 
ATOM     84  C   UNL A   1      46.206  25.337  35.009  1.00  0.00     0.135 A 
ATOM     85  F   UNL A   1      47.774  27.988  33.070  1.00  0.00    -0.206 F 
ATOM     86  C   UNL A   1      48.721  26.452  34.570  1.00  0.00     0.059 A 
ATOM     87  C   UNL A   1      47.307  24.825  35.689  1.00  0.00     0.059 A 
ATOM     88  F   UNL A   1      45.007  24.777  35.237  1.00  0.00    -0.206 F 
ATOM     89  C   UNL A   1      48.565  25.379  35.449  1.00  0.00     0.060 A 
BRANCH  89  90
ATOM     90  S   UNL A   1      50.021  24.725  36.292  1.00  0.00     0.124 S 
ATOM     91  O   UNL A   1      50.767  24.144  35.181  1.00  0.00    -0.237 OA
ATOM     92  O   UNL A   1      50.604  25.923  36.889  1.00  0.00    -0.237 OA
ATOM     93  O   UNL A   1      49.462  23.768  37.242  1.00  0.00    -0.744 OA
ENDBRANCH  89  90
ENDBRANCH  57  82
ENDBRANCH  31  32
ENDBRANCH  23  26
ENDBRANCH  21  22
ENDBRANCH   1  21
TORSDOF 17
ENDMDL
MODEL 2
REMARK VINA RESULT:      -9.4      4.510     11.136
REMARK SMILES CCC[C@](C)(Nc1cccc(Br)c1)C(=O)NCCCNC(=O)c1ccc(-c2c3nc(c(-c4c(F)cc(S(=O)(=O)[O-])cc4F)c4ccc([nH]4)c(-c4c(F)cc(S(=O)(=O)[O-])cc4F)c4nc(c(-c5c(F)cc(S(=O)(=O)[O-])cc5F)c5ccc2[nH]5)C=C4)C=C3)cc1
REMARK SMILES IDX 18 1 17 2 16 3 14 4 15 5 4 7 5 8 3 9 2 10 1 11 6 12 7 14
REMARK SMILES IDX 8 15 13 16 9 17 11 18 10 19 12 20 19 21 20 22 21 23 22 25
REMARK SMILES IDX 23 26 24 27 88 28 25 29 87 30 26 31 27 32 28 33 81 34 29 35
REMARK SMILES IDX 86 36 80 37 82 38 30 39 85 40 79 41 78 42 31 44 65 45 44 46
REMARK SMILES IDX 64 47 45 48 48 49 63 50 83 51 46 52 47 53 62 55 84 56 49 57
REMARK SMILES IDX 32 58 33 59 42 60 34 61 35 62 41 63 43 64 36 65 37 66 38 67
REMARK SMILES IDX 39 68 40 69 66 70 67 71 76 72 68 73 69 74 75 75 77 76 70 77
REMARK SMILES IDX 71 78 72 79 73 80 74 81 50 82 51 83 60 84 52 85 53 86 59 87
REMARK SMILES IDX 61 88 54 89 55 90 56 91 57 92 58 93
REMARK H PARENT 16 6 6 13 20 24 82 43 48 54
REMARK Flexibility Score: inf
ROOT
ATOM      1  C   UNL A   1      38.857  22.641  26.446  1.00  0.00     0.042 C 
ENDROOT
BRANCH   1   2
ATOM      2  C   UNL A   1      37.853  23.629  25.866  1.00  0.00     0.117 C 
BRANCH   2   3
ATOM      3  N   UNL A   1      37.421  23.356  24.504  1.00  0.00    -0.354 N 
ATOM      4  C   UNL A   1      36.180  23.285  23.936  1.00  0.00     0.245 C 
ATOM      5  O   UNL A   1      36.159  23.093  22.713  1.00  0.00    -0.272 OA
ATOM      6  H   UNL A   1      38.160  23.192  23.875  1.00  0.00     0.163 HD
BRANCH   4   7
ATOM      7  C   UNL A   1      34.863  23.456  24.755  1.00  0.00     0.114 C 
ATOM      8  C   UNL A   1      34.944  24.750  25.599  1.00  0.00     0.045 C 
BRANCH   7   9
ATOM      9  C   UNL A   1      34.780  22.250  25.752  1.00  0.00     0.038 C 
BRANCH   9  10
ATOM     10  C   UNL A   1      34.590  22.520  27.252  1.00  0.00    -0.000 C 
ATOM     11  C   UNL A   1      33.153  22.414  27.753  1.00  0.00     0.004 C 
ENDBRANCH   9  10
ENDBRANCH   7   9
BRANCH   7  12
ATOM     12  N   UNL A   1      33.641  23.578  23.930  1.00  0.00    -0.371 N 
ATOM     13  H   UNL A   1      33.197  22.722  23.727  1.00  0.00     0.161 HD
BRANCH  12  14
ATOM     14  C   UNL A   1      33.016  24.694  23.395  1.00  0.00     0.036 A 
ATOM     15  C   UNL A   1      33.514  25.491  22.360  1.00  0.00     0.026 A 
ATOM     16  C   UNL A   1      31.711  24.982  23.838  1.00  0.00     0.041 A 
ATOM     17  C   UNL A   1      32.730  26.480  21.744  1.00  0.00     0.003 A 
ATOM     18  C   UNL A   1      30.943  25.996  23.257  1.00  0.00     0.020 A 
ATOM     19  C   UNL A   1      31.438  26.731  22.191  1.00  0.00     0.016 A 
ATOM     20  Br  UNL A   1      29.211  26.360  23.925  1.00  0.00    -0.051 Br
ENDBRANCH  12  14
ENDBRANCH   7  12
ENDBRANCH   4   7
ENDBRANCH   2   3
ENDBRANCH   1   2
BRANCH   1  21
ATOM     21  C   UNL A   1      40.106  23.252  27.065  1.00  0.00     0.118 C 
BRANCH  21  22
ATOM     22  N   UNL A   1      40.901  23.996  26.103  1.00  0.00    -0.352 N 
ATOM     23  C   UNL A   1      41.296  25.312  26.106  1.00  0.00     0.251 C 
ATOM     24  H   UNL A   1      41.205  23.475  25.324  1.00  0.00     0.163 HD
ATOM     25  O   UNL A   1      41.813  25.778  25.094  1.00  0.00    -0.269 OA
BRANCH  23  26
ATOM     26  C   UNL A   1      41.090  26.179  27.292  1.00  0.00     0.039 A 
ATOM     27  C   UNL A   1      42.018  27.196  27.540  1.00  0.00     0.014 A 
ATOM     28  C   UNL A   1      40.040  25.971  28.193  1.00  0.00     0.014 A 
ATOM     29  C   UNL A   1      41.867  28.028  28.652  1.00  0.00     0.010 A 
ATOM     30  C   UNL A   1      39.851  26.848  29.265  1.00  0.00     0.010 A 
ATOM     31  C   UNL A   1      40.768  27.878  29.515  1.00  0.00    -0.014 A 
BRANCH  31  32
ATOM     32  C   UNL A   1      40.585  28.794  30.672  1.00  0.00     0.031 A 
ATOM     33  C   UNL A   1      41.433  28.651  31.908  1.00  0.00     0.074 A 
ATOM     34  C   UNL A   1      39.633  29.749  30.622  1.00  0.00     0.049 A 
ATOM     35  N   UNL A   1      41.428  29.372  33.001  1.00  0.00    -0.248 NA
ATOM     36  C   UNL A   1      42.398  27.541  31.930  1.00  0.00     0.031 C 
ATOM     37  C   UNL A   1      38.705  29.958  29.509  1.00  0.00     0.029 A 
ATOM     38  N   UNL A   1      39.289  30.722  31.528  1.00  0.00    -0.354 N 
ATOM     39  C   UNL A   1      42.378  28.802  33.840  1.00  0.00     0.074 A 
ATOM     40  C   UNL A   1      42.905  27.645  33.150  1.00  0.00     0.031 C 
ATOM     41  C   UNL A   1      37.915  31.007  29.786  1.00  0.00     0.029 A 
ATOM     42  C   UNL A   1      38.262  31.531  31.104  1.00  0.00     0.049 A 
ATOM     43  H   UNL A   1      39.735  30.829  32.398  1.00  0.00     0.167 HD
ATOM     44  C   UNL A   1      42.791  29.216  35.063  1.00  0.00     0.037 A 
ATOM     45  C   UNL A   1      37.667  32.580  31.706  1.00  0.00     0.037 A 
ATOM     46  C   UNL A   1      42.283  30.381  35.740  1.00  0.00     0.049 A 
ATOM     47  C   UNL A   1      38.159  33.037  33.052  1.00  0.00     0.074 A 
ATOM     48  C   UNL A   1      42.687  30.919  36.951  1.00  0.00     0.029 A 
ATOM     49  N   UNL A   1      41.257  31.188  35.270  1.00  0.00    -0.354 N 
ATOM     50  N   UNL A   1      39.115  32.531  33.794  1.00  0.00    -0.248 NA
ATOM     51  C   UNL A   1      37.501  34.214  33.634  1.00  0.00     0.031 C 
ATOM     52  C   UNL A   1      41.879  32.028  37.231  1.00  0.00     0.029 A 
ATOM     53  C   UNL A   1      41.001  32.206  36.174  1.00  0.00     0.049 A 
ATOM     54  H   UNL A   1      40.781  31.056  34.418  1.00  0.00     0.167 HD
ATOM     55  C   UNL A   1      39.185  33.340  34.923  1.00  0.00     0.074 A 
ATOM     56  C   UNL A   1      38.188  34.378  34.757  1.00  0.00     0.031 C 
ATOM     57  C   UNL A   1      40.002  33.231  36.001  1.00  0.00     0.037 A 
BRANCH  44  58
ATOM     58  C   UNL A   1      43.854  28.402  35.750  1.00  0.00     0.058 A 
ATOM     59  C   UNL A   1      43.529  27.326  36.591  1.00  0.00     0.135 A 
ATOM     60  C   UNL A   1      45.215  28.678  35.538  1.00  0.00     0.135 A 
ATOM     61  F   UNL A   1      42.244  27.027  36.840  1.00  0.00    -0.206 F 
ATOM     62  C   UNL A   1      44.513  26.573  37.224  1.00  0.00     0.059 A 
ATOM     63  C   UNL A   1      46.217  27.920  36.139  1.00  0.00     0.059 A 
ATOM     64  F   UNL A   1      45.583  29.693  34.740  1.00  0.00    -0.206 F 
ATOM     65  C   UNL A   1      45.855  26.880  36.993  1.00  0.00     0.060 A 
BRANCH  65  66
ATOM     66  S   UNL A   1      47.121  25.893  37.821  1.00  0.00     0.124 S 
ATOM     67  O   UNL A   1      46.961  26.322  39.207  1.00  0.00    -0.237 OA
ATOM     68  O   UNL A   1      46.697  24.528  37.527  1.00  0.00    -0.237 OA
ATOM     69  O   UNL A   1      48.358  26.315  37.171  1.00  0.00    -0.744 OA
ENDBRANCH  65  66
ENDBRANCH  44  58
BRANCH  45  70
ATOM     70  C   UNL A   1      36.556  33.292  31.019  1.00  0.00     0.058 A 
ATOM     71  C   UNL A   1      36.802  34.123  29.916  1.00  0.00     0.135 A 
ATOM     72  C   UNL A   1      35.226  33.139  31.440  1.00  0.00     0.135 A 
ATOM     73  F   UNL A   1      38.058  34.306  29.481  1.00  0.00    -0.206 F 
ATOM     74  C   UNL A   1      35.772  34.790  29.263  1.00  0.00     0.059 A 
ATOM     75  C   UNL A   1      34.176  33.776  30.788  1.00  0.00     0.059 A 
ATOM     76  F   UNL A   1      34.938  32.342  32.481  1.00  0.00    -0.206 F 
ATOM     77  C   UNL A   1      34.459  34.607  29.704  1.00  0.00     0.060 A 
BRANCH  77  78
ATOM     78  S   UNL A   1      33.121  35.429  28.813  1.00  0.00     0.124 S 
ATOM     79  O   UNL A   1      32.534  34.318  28.074  1.00  0.00    -0.237 OA
ATOM     80  O   UNL A   1      32.313  35.969  29.903  1.00  0.00    -0.237 OA
ATOM     81  O   UNL A   1      33.818  36.427  28.009  1.00  0.00    -0.744 OA
ENDBRANCH  77  78
ENDBRANCH  45  70
BRANCH  57  82
ATOM     82  C   UNL A   1      39.863  34.275  37.076  1.00  0.00     0.058 A 
ATOM     83  C   UNL A   1      39.087  34.052  38.223  1.00  0.00     0.135 A 
ATOM     84  C   UNL A   1      40.532  35.505  36.966  1.00  0.00     0.135 A 
ATOM     85  F   UNL A   1      38.422  32.896  38.375  1.00  0.00    -0.206 F 
ATOM     86  C   UNL A   1      38.950  35.025  39.208  1.00  0.00     0.059 A 
ATOM     87  C   UNL A   1      40.431  36.482  37.950  1.00  0.00     0.059 A 
ATOM     88  F   UNL A   1      41.298  35.765  35.894  1.00  0.00    -0.206 F 
ATOM     89  C   UNL A   1      39.622  36.240  39.061  1.00  0.00     0.060 A 
BRANCH  89  90
ATOM     90  S   UNL A   1      39.444  37.494  40.348  1.00  0.00     0.124 S 
ATOM     91  O   UNL A   1      38.617  38.489  39.674  1.00  0.00    -0.237 OA
ATOM     92  O   UNL A   1      38.794  36.751  41.423  1.00  0.00    -0.237 OA
ATOM     93  O   UNL A   1      40.820  37.899  40.618  1.00  0.00    -0.744 OA
ENDBRANCH  89  90
ENDBRANCH  57  82
ENDBRANCH  31  32
ENDBRANCH  23  26
ENDBRANCH  21  22
ENDBRANCH   1  21
TORSDOF 17
ENDMDL
MODEL 3
REMARK VINA RESULT:      -9.4      5.766      8.336
REMARK SMILES CCC[C@](C)(Nc1cccc(Br)c1)C(=O)NCCCNC(=O)c1ccc(-c2c3nc(c(-c4c(F)cc(S(=O)(=O)[O-])cc4F)c4ccc([nH]4)c(-c4c(F)cc(S(=O)(=O)[O-])cc4F)c4nc(c(-c5c(F)cc(S(=O)(=O)[O-])cc5F)c5ccc2[nH]5)C=C4)C=C3)cc1
REMARK SMILES IDX 18 1 17 2 16 3 14 4 15 5 4 7 5 8 3 9 2 10 1 11 6 12 7 14
REMARK SMILES IDX 8 15 13 16 9 17 11 18 10 19 12 20 19 21 20 22 21 23 22 25
REMARK SMILES IDX 23 26 24 27 88 28 25 29 87 30 26 31 27 32 28 33 81 34 29 35
REMARK SMILES IDX 86 36 80 37 82 38 30 39 85 40 79 41 78 42 31 44 65 45 44 46
REMARK SMILES IDX 64 47 45 48 48 49 63 50 83 51 46 52 47 53 62 55 84 56 49 57
REMARK SMILES IDX 32 58 33 59 42 60 34 61 35 62 41 63 43 64 36 65 37 66 38 67
REMARK SMILES IDX 39 68 40 69 66 70 67 71 76 72 68 73 69 74 75 75 77 76 70 77
REMARK SMILES IDX 71 78 72 79 73 80 74 81 50 82 51 83 60 84 52 85 53 86 59 87
REMARK SMILES IDX 61 88 54 89 55 90 56 91 57 92 58 93
REMARK H PARENT 16 6 6 13 20 24 82 43 48 54
REMARK Flexibility Score: inf
ROOT
ATOM      1  C   UNL A   1      34.561  29.262  27.485  1.00  0.00     0.042 C 
ENDROOT
BRANCH   1   2
ATOM      2  C   UNL A   1      33.507  29.377  26.391  1.00  0.00     0.117 C 
BRANCH   2   3
ATOM      3  N   UNL A   1      34.006  29.289  25.028  1.00  0.00    -0.354 N 
ATOM      4  C   UNL A   1      33.912  28.308  24.081  1.00  0.00     0.245 C 
ATOM      5  O   UNL A   1      34.402  28.578  22.976  1.00  0.00    -0.272 OA
ATOM      6  H   UNL A   1      34.504  30.085  24.731  1.00  0.00     0.163 HD
BRANCH   4   7
ATOM      7  C   UNL A   1      33.216  26.938  24.348  1.00  0.00     0.114 C 
ATOM      8  C   UNL A   1      34.038  26.134  25.383  1.00  0.00     0.045 C 
BRANCH   7   9
ATOM      9  C   UNL A   1      33.242  26.136  23.002  1.00  0.00     0.038 C 
BRANCH   9  10
ATOM     10  C   UNL A   1      33.356  24.605  23.035  1.00  0.00    -0.000 C 
ATOM     11  C   UNL A   1      32.027  23.858  23.093  1.00  0.00     0.004 C 
ENDBRANCH   9  10
ENDBRANCH   7   9
BRANCH   7  12
ATOM     12  N   UNL A   1      31.848  27.044  24.903  1.00  0.00    -0.371 N 
ATOM     13  H   UNL A   1      31.799  26.987  25.885  1.00  0.00     0.161 HD
BRANCH  12  14
ATOM     14  C   UNL A   1      30.625  27.211  24.271  1.00  0.00     0.036 A 
ATOM     15  C   UNL A   1      29.524  26.357  24.387  1.00  0.00     0.026 A 
ATOM     16  C   UNL A   1      30.422  28.404  23.552  1.00  0.00     0.041 A 
ATOM     17  C   UNL A   1      28.262  26.703  23.876  1.00  0.00     0.003 A 
ATOM     18  C   UNL A   1      29.178  28.732  23.003  1.00  0.00     0.020 A 
ATOM     19  C   UNL A   1      28.087  27.896  23.185  1.00  0.00     0.016 A 
ATOM     20  Br  UNL A   1      28.982  30.331  22.014  1.00  0.00    -0.051 Br
ENDBRANCH  12  14
ENDBRANCH   7  12
ENDBRANCH   4   7
ENDBRANCH   2   3
ENDBRANCH   1   2
BRANCH   1  21
ATOM     21  C   UNL A   1      35.312  30.544  27.818  1.00  0.00     0.118 C 
BRANCH  21  22
ATOM     22  N   UNL A   1      35.309  30.840  29.240  1.00  0.00    -0.352 N 
ATOM     23  C   UNL A   1      36.275  30.627  30.193  1.00  0.00     0.251 C 
ATOM     24  H   UNL A   1      34.483  31.261  29.574  1.00  0.00     0.163 HD
ATOM     25  O   UNL A   1      35.987  30.790  31.376  1.00  0.00    -0.269 OA
BRANCH  23  26
ATOM     26  C   UNL A   1      37.643  30.187  29.823  1.00  0.00     0.039 A 
ATOM     27  C   UNL A   1      37.986  30.156  28.467  1.00  0.00     0.014 A 
ATOM     28  C   UNL A   1      38.568  29.750  30.777  1.00  0.00     0.014 A 
ATOM     29  C   UNL A   1      39.261  29.738  28.076  1.00  0.00     0.010 A 
ATOM     30  C   UNL A   1      39.864  29.398  30.390  1.00  0.00     0.010 A 
ATOM     31  C   UNL A   1      40.222  29.377  29.035  1.00  0.00    -0.014 A 
BRANCH  31  32
ATOM     32  C   UNL A   1      41.592  28.975  28.618  1.00  0.00     0.031 A 
ATOM     33  C   UNL A   1      42.711  29.983  28.580  1.00  0.00     0.074 A 
ATOM     34  C   UNL A   1      41.829  27.700  28.248  1.00  0.00     0.049 A 
ATOM     35  N   UNL A   1      43.970  29.807  28.264  1.00  0.00    -0.248 NA
ATOM     36  C   UNL A   1      42.369  31.372  28.919  1.00  0.00     0.031 C 
ATOM     37  C   UNL A   1      40.822  26.639  28.184  1.00  0.00     0.029 A 
ATOM     38  N   UNL A   1      42.990  27.079  27.858  1.00  0.00    -0.354 N 
ATOM     39  C   UNL A   1      44.566  31.059  28.359  1.00  0.00     0.074 A 
ATOM     40  C   UNL A   1      43.521  31.995  28.713  1.00  0.00     0.031 C 
ATOM     41  C   UNL A   1      41.412  25.495  27.803  1.00  0.00     0.029 A 
ATOM     42  C   UNL A   1      42.832  25.744  27.572  1.00  0.00     0.049 A 
ATOM     43  H   UNL A   1      43.853  27.546  27.789  1.00  0.00     0.167 HD
ATOM     44  C   UNL A   1      45.868  31.396  28.190  1.00  0.00     0.037 A 
ATOM     45  C   UNL A   1      43.729  24.820  27.174  1.00  0.00     0.037 A 
ATOM     46  C   UNL A   1      46.913  30.460  27.860  1.00  0.00     0.049 A 
ATOM     47  C   UNL A   1      45.173  25.212  27.017  1.00  0.00     0.074 A 
ATOM     48  C   UNL A   1      48.272  30.695  27.735  1.00  0.00     0.029 A 
ATOM     49  N   UNL A   1      46.717  29.112  27.599  1.00  0.00    -0.354 N 
ATOM     50  N   UNL A   1      45.731  26.386  27.190  1.00  0.00    -0.248 NA
ATOM     51  C   UNL A   1      46.109  24.150  26.624  1.00  0.00     0.031 C 
ATOM     52  C   UNL A   1      48.893  29.498  27.360  1.00  0.00     0.029 A 
ATOM     53  C   UNL A   1      47.926  28.507  27.294  1.00  0.00     0.049 A 
ATOM     54  H   UNL A   1      45.847  28.653  27.627  1.00  0.00     0.167 HD
ATOM     55  C   UNL A   1      47.088  26.200  26.945  1.00  0.00     0.074 A 
ATOM     56  C   UNL A   1      47.267  24.798  26.631  1.00  0.00     0.031 C 
ATOM     57  C   UNL A   1      48.093  27.111  26.977  1.00  0.00     0.037 A 
BRANCH  44  58
ATOM     58  C   UNL A   1      46.240  32.843  28.365  1.00  0.00     0.058 A 
ATOM     59  C   UNL A   1      46.658  33.352  29.605  1.00  0.00     0.135 A 
ATOM     60  C   UNL A   1      46.212  33.726  27.272  1.00  0.00     0.135 A 
ATOM     61  F   UNL A   1      46.691  32.556  30.686  1.00  0.00    -0.206 F 
ATOM     62  C   UNL A   1      47.004  34.690  29.764  1.00  0.00     0.059 A 
ATOM     63  C   UNL A   1      46.580  35.063  27.403  1.00  0.00     0.059 A 
ATOM     64  F   UNL A   1      45.823  33.292  26.063  1.00  0.00    -0.206 F 
ATOM     65  C   UNL A   1      46.959  35.539  28.656  1.00  0.00     0.060 A 
BRANCH  65  66
ATOM     66  S   UNL A   1      47.411  37.273  28.879  1.00  0.00     0.124 S 
ATOM     67  O   UNL A   1      48.860  37.217  28.715  1.00  0.00    -0.237 OA
ATOM     68  O   UNL A   1      46.676  37.930  27.803  1.00  0.00    -0.237 OA
ATOM     69  O   UNL A   1      46.943  37.575  30.229  1.00  0.00    -0.744 OA
ENDBRANCH  65  66
ENDBRANCH  44  58
BRANCH  45  70
ATOM     70  C   UNL A   1      43.288  23.422  26.926  1.00  0.00     0.058 A 
ATOM     71  C   UNL A   1      43.104  22.943  25.621  1.00  0.00     0.135 A 
ATOM     72  C   UNL A   1      43.060  22.533  27.988  1.00  0.00     0.135 A 
ATOM     73  F   UNL A   1      43.303  23.757  24.573  1.00  0.00    -0.206 F 
ATOM     74  C   UNL A   1      42.697  21.636  25.375  1.00  0.00     0.059 A 
ATOM     75  C   UNL A   1      42.675  21.215  27.767  1.00  0.00     0.059 A 
ATOM     76  F   UNL A   1      43.237  22.940  29.254  1.00  0.00    -0.206 F 
ATOM     77  C   UNL A   1      42.488  20.777  26.456  1.00  0.00     0.060 A 
BRANCH  77  78
ATOM     78  S   UNL A   1      42.016  19.065  26.128  1.00  0.00     0.124 S 
ATOM     79  O   UNL A   1      42.934  18.709  25.053  1.00  0.00    -0.237 OA
ATOM     80  O   UNL A   1      42.263  18.425  27.417  1.00  0.00    -0.237 OA
ATOM     81  O   UNL A   1      40.610  19.172  25.751  1.00  0.00    -0.744 OA
ENDBRANCH  77  78
ENDBRANCH  45  70
BRANCH  57  82
ATOM     82  C   UNL A   1      49.481  26.611  26.683  1.00  0.00     0.058 A 
ATOM     83  C   UNL A   1      50.328  26.147  27.702  1.00  0.00     0.135 A 
ATOM     84  C   UNL A   1      49.962  26.577  25.365  1.00  0.00     0.135 A 
ATOM     85  F   UNL A   1      49.918  26.164  28.981  1.00  0.00    -0.206 F 
ATOM     86  C   UNL A   1      51.616  25.699  27.428  1.00  0.00     0.059 A 
ATOM     87  C   UNL A   1      51.237  26.107  25.065  1.00  0.00     0.059 A 
ATOM     88  F   UNL A   1      49.189  26.997  24.351  1.00  0.00    -0.206 F 
ATOM     89  C   UNL A   1      52.064  25.686  26.106  1.00  0.00     0.060 A 
BRANCH  89  90
ATOM     90  S   UNL A   1      53.735  25.096  25.760  1.00  0.00     0.124 S 
ATOM     91  O   UNL A   1      54.144  25.991  24.683  1.00  0.00    -0.237 OA
ATOM     92  O   UNL A   1      54.410  25.293  27.039  1.00  0.00    -0.237 OA
ATOM     93  O   UNL A   1      53.529  23.703  25.376  1.00  0.00    -0.744 OA
ENDBRANCH  89  90
ENDBRANCH  57  82
ENDBRANCH  31  32
ENDBRANCH  23  26
ENDBRANCH  21  22
ENDBRANCH   1  21
TORSDOF 17
ENDMDL
