MODEL 1
REMARK VINA RESULT:     -11.8      0.000      0.000
REMARK SMILES Cc1cc(NC[C@H](C)[NH+](C)C)cc(C(=O)NCCCNC(=O)c2ccc(-c3c4nc(c(-c5c(F)cc(S(=O)(=O)[O-])cc5F)c5ccc([nH]5)c(-c5c(F)cc(S(=O)(=O)[O-])cc5F)c5nc(c(-c6c(F)cc(S(=O)(=O)[O-])cc6F)c6ccc3[nH]6)C=C5)C=C4)cc2)c1N
REMARK SMILES IDX 17 1 16 2 14 3 15 4 13 6 1 7 2 8 3 9 89 10 4 11 12 12 90 13
REMARK SMILES IDX 5 16 6 18 7 19 8 20 9 21 10 22 11 23 18 25 19 26 20 27 21 28
REMARK SMILES IDX 22 30 23 31 24 32 88 33 25 34 87 35 26 36 27 37 28 38 81 39
REMARK SMILES IDX 29 40 86 41 80 42 82 43 30 44 85 45 79 46 78 47 31 49 65 50
REMARK SMILES IDX 44 51 64 52 45 53 48 54 63 55 83 56 46 57 47 58 62 60 84 61
REMARK SMILES IDX 49 62 32 63 33 64 42 65 34 66 35 67 41 68 43 69 36 70 37 71
REMARK SMILES IDX 38 72 39 73 40 74 66 75 67 76 76 77 68 78 69 79 75 80 77 81
REMARK SMILES IDX 70 82 71 83 72 84 73 85 74 86 50 87 51 88 60 89 52 90 53 91
REMARK SMILES IDX 59 92 61 93 54 94 55 95 56 96 57 97 58 98
REMARK H PARENT 16 5 90 14 90 15 5 17 9 24 20 29 82 48 48 59
REMARK Flexibility Score: inf
ROOT
ATOM      1  C   UNL A   1      34.285  29.541  27.249  1.00  0.00     0.118 C 
ENDROOT
BRANCH   1   2
ATOM      2  N   UNL A   1      33.034  28.913  27.642  1.00  0.00    -0.352 N 
ATOM      3  C   UNL A   1      32.065  28.216  26.955  1.00  0.00     0.253 C 
ATOM      4  O   UNL A   1      31.126  27.784  27.630  1.00  0.00    -0.269 OA
ATOM      5  H   UNL A   1      32.838  29.004  28.603  1.00  0.00     0.163 HD
BRANCH   3   6
ATOM      6  C   UNL A   1      32.118  27.933  25.482  1.00  0.00     0.065 A 
ATOM      7  C   UNL A   1      33.434  25.296  23.039  1.00  0.00     0.046 C 
ATOM      8  C   UNL A   1      32.811  26.543  23.607  1.00  0.00    -0.025 A 
ATOM      9  C   UNL A   1      32.303  27.514  22.720  1.00  0.00     0.031 A 
ATOM     10  C   UNL A   1      32.728  26.750  25.002  1.00  0.00     0.047 A 
ATOM     11  C   UNL A   1      31.678  28.670  23.183  1.00  0.00     0.035 A 
ATOM     12  C   UNL A   1      31.522  28.800  24.562  1.00  0.00     0.041 A 
BRANCH  10  13
ATOM     13  N   UNL A   1      33.376  25.863  25.872  1.00  0.00    -0.398 N 
ATOM     14  H   UNL A   1      33.008  25.696  26.769  1.00  0.00     0.156 HD
ATOM     15  H   UNL A   1      34.200  25.406  25.585  1.00  0.00     0.156 HD
ENDBRANCH  10  13
BRANCH  11  16
ATOM     16  N   UNL A   1      31.238  29.641  22.296  1.00  0.00    -0.379 N 
ATOM     17  H   UNL A   1      31.896  30.234  21.868  1.00  0.00     0.160 HD
BRANCH  16  18
ATOM     18  C   UNL A   1      29.816  29.803  21.984  1.00  0.00     0.177 C 
BRANCH  18  19
ATOM     19  C   UNL A   1      29.133  30.957  22.772  1.00  0.00     0.199 C 
ATOM     20  C   UNL A   1      27.699  30.522  23.132  1.00  0.00     0.077 C 
BRANCH  19  21
ATOM     21  N   UNL A   1      29.119  32.298  22.143  1.00  0.00    -0.336 N 
ATOM     22  C   UNL A   1      28.091  32.434  21.114  1.00  0.00     0.332 C 
ATOM     23  C   UNL A   1      29.024  33.418  23.084  1.00  0.00     0.332 C 
ATOM     24  H   UNL A   1      30.038  32.357  21.704  1.00  0.00     0.347 HD
ENDBRANCH  19  21
ENDBRANCH  18  19
ENDBRANCH  16  18
ENDBRANCH  11  16
ENDBRANCH   3   6
ENDBRANCH   1   2
BRANCH   1  25
ATOM     25  C   UNL A   1      34.303  31.026  27.626  1.00  0.00     0.042 C 
BRANCH  25  26
ATOM     26  C   UNL A   1      35.583  31.450  28.339  1.00  0.00     0.118 C 
BRANCH  26  27
ATOM     27  N   UNL A   1      35.472  31.296  29.781  1.00  0.00    -0.352 N 
ATOM     28  C   UNL A   1      36.297  30.643  30.664  1.00  0.00     0.251 C 
ATOM     29  H   UNL A   1      34.685  31.726  30.187  1.00  0.00     0.163 HD
ATOM     30  O   UNL A   1      35.899  30.422  31.805  1.00  0.00    -0.269 OA
BRANCH  28  31
ATOM     31  C   UNL A   1      37.644  30.197  30.248  1.00  0.00     0.039 A 
ATOM     32  C   UNL A   1      37.938  30.121  28.884  1.00  0.00     0.014 A 
ATOM     33  C   UNL A   1      38.602  29.811  31.190  1.00  0.00     0.014 A 
ATOM     34  C   UNL A   1      39.207  29.709  28.466  1.00  0.00     0.010 A 
ATOM     35  C   UNL A   1      39.887  29.467  30.777  1.00  0.00     0.010 A 
ATOM     36  C   UNL A   1      40.201  29.408  29.410  1.00  0.00    -0.014 A 
BRANCH  36  37
ATOM     37  C   UNL A   1      41.576  29.031  28.993  1.00  0.00     0.031 A 
ATOM     38  C   UNL A   1      42.659  30.075  28.925  1.00  0.00     0.074 A 
ATOM     39  C   UNL A   1      41.828  27.765  28.603  1.00  0.00     0.049 A 
ATOM     40  N   UNL A   1      43.887  29.963  28.491  1.00  0.00    -0.248 NA
ATOM     41  C   UNL A   1      42.305  31.430  29.380  1.00  0.00     0.031 C 
ATOM     42  C   UNL A   1      40.849  26.677  28.584  1.00  0.00     0.029 A 
ATOM     43  N   UNL A   1      42.979  27.184  28.133  1.00  0.00    -0.354 N 
ATOM     44  C   UNL A   1      44.446  31.231  28.601  1.00  0.00     0.074 A 
ATOM     45  C   UNL A   1      43.408  32.107  29.101  1.00  0.00     0.031 C 
ATOM     46  C   UNL A   1      41.442  25.559  28.136  1.00  0.00     0.029 A 
ATOM     47  C   UNL A   1      42.831  25.859  27.798  1.00  0.00     0.049 A 
ATOM     48  H   UNL A   1      43.830  27.670  28.042  1.00  0.00     0.167 HD
ATOM     49  C   UNL A   1      45.713  31.625  28.329  1.00  0.00     0.037 A 
ATOM     50  C   UNL A   1      43.708  24.986  27.265  1.00  0.00     0.037 A 
ATOM     51  C   UNL A   1      46.746  30.739  27.858  1.00  0.00     0.049 A 
ATOM     52  C   UNL A   1      45.111  25.445  26.975  1.00  0.00     0.074 A 
ATOM     53  C   UNL A   1      48.078  31.024  27.612  1.00  0.00     0.029 A 
ATOM     54  N   UNL A   1      46.565  29.396  27.561  1.00  0.00    -0.354 N 
ATOM     55  N   UNL A   1      45.639  26.634  27.143  1.00  0.00    -0.248 NA
ATOM     56  C   UNL A   1      46.039  24.445  26.429  1.00  0.00     0.031 C 
ATOM     57  C   UNL A   1      48.690  29.866  27.124  1.00  0.00     0.029 A 
ATOM     58  C   UNL A   1      47.754  28.844  27.115  1.00  0.00     0.049 A 
ATOM     59  H   UNL A   1      45.715  28.907  27.654  1.00  0.00     0.167 HD
ATOM     60  C   UNL A   1      46.967  26.519  26.748  1.00  0.00     0.074 A 
ATOM     61  C   UNL A   1      47.164  25.142  26.344  1.00  0.00     0.031 C 
ATOM     62  C   UNL A   1      47.936  27.467  26.725  1.00  0.00     0.037 A 
BRANCH  49  63
ATOM     63  C   UNL A   1      46.057  33.075  28.535  1.00  0.00     0.058 A 
ATOM     64  C   UNL A   1      45.923  34.019  27.505  1.00  0.00     0.135 A 
ATOM     65  C   UNL A   1      46.485  33.535  29.791  1.00  0.00     0.135 A 
ATOM     66  F   UNL A   1      45.530  33.634  26.281  1.00  0.00    -0.206 F 
ATOM     67  C   UNL A   1      46.228  35.362  27.703  1.00  0.00     0.059 A 
ATOM     68  C   UNL A   1      46.769  34.879  30.021  1.00  0.00     0.059 A 
ATOM     69  F   UNL A   1      46.631  32.677  30.813  1.00  0.00    -0.206 F 
ATOM     70  C   UNL A   1      46.650  35.783  28.966  1.00  0.00     0.060 A 
BRANCH  70  71
ATOM     71  S   UNL A   1      47.033  37.531  29.209  1.00  0.00     0.124 S 
ATOM     72  O   UNL A   1      48.174  37.455  30.116  1.00  0.00    -0.237 OA
ATOM     73  O   UNL A   1      47.331  37.975  27.851  1.00  0.00    -0.237 OA
ATOM     74  O   UNL A   1      45.806  38.070  29.787  1.00  0.00    -0.744 OA
ENDBRANCH  70  71
ENDBRANCH  49  63
BRANCH  50  75
ATOM     75  C   UNL A   1      43.285  23.587  26.987  1.00  0.00     0.058 A 
ATOM     76  C   UNL A   1      43.105  22.668  28.029  1.00  0.00     0.135 A 
ATOM     77  C   UNL A   1      43.031  23.149  25.677  1.00  0.00     0.135 A 
ATOM     78  F   UNL A   1      43.339  23.037  29.298  1.00  0.00    -0.206 F 
ATOM     79  C   UNL A   1      42.701  21.358  27.785  1.00  0.00     0.059 A 
ATOM     80  C   UNL A   1      42.603  21.853  25.410  1.00  0.00     0.059 A 
ATOM     81  F   UNL A   1      43.171  23.996  24.646  1.00  0.00    -0.206 F 
ATOM     82  C   UNL A   1      42.450  20.962  26.471  1.00  0.00     0.060 A 
BRANCH  82  83
ATOM     83  S   UNL A   1      41.874  19.277  26.169  1.00  0.00     0.124 S 
ATOM     84  O   UNL A   1      42.662  18.902  25.001  1.00  0.00    -0.237 OA
ATOM     85  O   UNL A   1      42.224  18.606  27.419  1.00  0.00    -0.237 OA
ATOM     86  O   UNL A   1      40.443  19.447  25.938  1.00  0.00    -0.744 OA
ENDBRANCH  82  83
ENDBRANCH  50  75
BRANCH  62  87
ATOM     87  C   UNL A   1      49.309  27.047  26.280  1.00  0.00     0.058 A 
ATOM     88  C   UNL A   1      50.235  26.485  27.172  1.00  0.00     0.135 A 
ATOM     89  C   UNL A   1      49.678  27.149  24.928  1.00  0.00     0.135 A 
ATOM     90  F   UNL A   1      49.935  26.372  28.475  1.00  0.00    -0.206 F 
ATOM     91  C   UNL A   1      51.485  26.052  26.742  1.00  0.00     0.059 A 
ATOM     92  C   UNL A   1      50.912  26.697  24.472  1.00  0.00     0.059 A 
ATOM     93  F   UNL A   1      48.825  27.671  24.033  1.00  0.00    -0.206 F 
ATOM     94  C   UNL A   1      51.813  26.159  25.389  1.00  0.00     0.060 A 
BRANCH  94  95
ATOM     95  S   UNL A   1      53.420  25.550  24.837  1.00  0.00     0.124 S 
ATOM     96  O   UNL A   1      54.329  26.302  25.695  1.00  0.00    -0.237 OA
ATOM     97  O   UNL A   1      53.324  24.120  25.114  1.00  0.00    -0.237 OA
ATOM     98  O   UNL A   1      53.452  25.907  23.422  1.00  0.00    -0.744 OA
ENDBRANCH  94  95
ENDBRANCH  62  87
ENDBRANCH  36  37
ENDBRANCH  28  31
ENDBRANCH  26  27
ENDBRANCH  25  26
ENDBRANCH   1  25
TORSDOF 18
ENDMDL
MODEL 2
REMARK VINA RESULT:     -11.6      6.983     12.672
REMARK SMILES Cc1cc(NC[C@H](C)[NH+](C)C)cc(C(=O)NCCCNC(=O)c2ccc(-c3c4nc(c(-c5c(F)cc(S(=O)(=O)[O-])cc5F)c5ccc([nH]5)c(-c5c(F)cc(S(=O)(=O)[O-])cc5F)c5nc(c(-c6c(F)cc(S(=O)(=O)[O-])cc6F)c6ccc3[nH]6)C=C5)C=C4)cc2)c1N
REMARK SMILES IDX 17 1 16 2 14 3 15 4 13 6 1 7 2 8 3 9 89 10 4 11 12 12 90 13
REMARK SMILES IDX 5 16 6 18 7 19 8 20 9 21 10 22 11 23 18 25 19 26 20 27 21 28
REMARK SMILES IDX 22 30 23 31 24 32 88 33 25 34 87 35 26 36 27 37 28 38 81 39
REMARK SMILES IDX 29 40 86 41 80 42 82 43 30 44 85 45 79 46 78 47 31 49 65 50
REMARK SMILES IDX 44 51 64 52 45 53 48 54 63 55 83 56 46 57 47 58 62 60 84 61
REMARK SMILES IDX 49 62 32 63 33 64 42 65 34 66 35 67 41 68 43 69 36 70 37 71
REMARK SMILES IDX 38 72 39 73 40 74 66 75 67 76 76 77 68 78 69 79 75 80 77 81
REMARK SMILES IDX 70 82 71 83 72 84 73 85 74 86 50 87 51 88 60 89 52 90 53 91
REMARK SMILES IDX 59 92 61 93 54 94 55 95 56 96 57 97 58 98
REMARK H PARENT 16 5 90 14 90 15 5 17 9 24 20 29 82 48 48 59
REMARK Flexibility Score: inf
ROOT
ATOM      1  C   UNL A   1      37.365  22.787  25.893  1.00  0.00     0.118 C 
ENDROOT
BRANCH   1   2
ATOM      2  N   UNL A   1      37.242  22.914  24.449  1.00  0.00    -0.352 N 
ATOM      3  C   UNL A   1      36.209  22.706  23.563  1.00  0.00     0.253 C 
ATOM      4  O   UNL A   1      36.453  22.950  22.377  1.00  0.00    -0.269 OA
ATOM      5  H   UNL A   1      38.074  23.213  24.013  1.00  0.00     0.163 HD
BRANCH   3   6
ATOM      6  C   UNL A   1      34.836  22.250  23.963  1.00  0.00     0.065 A 
ATOM      7  C   UNL A   1      31.172  23.305  23.621  1.00  0.00     0.046 C 
ATOM      8  C   UNL A   1      32.422  22.566  24.017  1.00  0.00    -0.025 A 
ATOM      9  C   UNL A   1      32.308  21.430  24.843  1.00  0.00     0.031 A 
ATOM     10  C   UNL A   1      33.695  22.991  23.574  1.00  0.00     0.047 A 
ATOM     11  C   UNL A   1      33.423  20.679  25.210  1.00  0.00     0.035 A 
ATOM     12  C   UNL A   1      34.652  21.064  24.678  1.00  0.00     0.041 A 
BRANCH  10  13
ATOM     13  N   UNL A   1      33.817  24.209  22.891  1.00  0.00    -0.398 N 
ATOM     14  H   UNL A   1      34.697  24.502  22.562  1.00  0.00     0.156 HD
ATOM     15  H   UNL A   1      33.022  24.770  22.739  1.00  0.00     0.156 HD
ENDBRANCH  10  13
BRANCH  11  16
ATOM     16  N   UNL A   1      33.297  19.600  26.072  1.00  0.00    -0.379 N 
ATOM     17  H   UNL A   1      33.599  19.691  27.004  1.00  0.00     0.160 HD
BRANCH  16  18
ATOM     18  C   UNL A   1      32.727  18.327  25.625  1.00  0.00     0.177 C 
BRANCH  18  19
ATOM     19  C   UNL A   1      33.502  17.677  24.443  1.00  0.00     0.199 C 
ATOM     20  C   UNL A   1      32.671  17.853  23.157  1.00  0.00     0.077 C 
BRANCH  19  21
ATOM     21  N   UNL A   1      33.918  16.264  24.596  1.00  0.00    -0.336 N 
ATOM     22  C   UNL A   1      35.163  16.114  25.348  1.00  0.00     0.332 C 
ATOM     23  C   UNL A   1      32.895  15.379  25.160  1.00  0.00     0.332 C 
ATOM     24  H   UNL A   1      34.074  15.962  23.634  1.00  0.00     0.347 HD
ENDBRANCH  19  21
ENDBRANCH  18  19
ENDBRANCH  16  18
ENDBRANCH  11  16
ENDBRANCH   3   6
ENDBRANCH   1   2
BRANCH   1  25
ATOM     25  C   UNL A   1      38.153  23.959  26.487  1.00  0.00     0.042 C 
BRANCH  25  26
ATOM     26  C   UNL A   1      39.530  23.556  27.005  1.00  0.00     0.118 C 
BRANCH  26  27
ATOM     27  N   UNL A   1      40.591  24.010  26.120  1.00  0.00    -0.352 N 
ATOM     28  C   UNL A   1      41.286  25.195  26.113  1.00  0.00     0.251 C 
ATOM     29  H   UNL A   1      40.851  23.370  25.418  1.00  0.00     0.163 HD
ATOM     30  O   UNL A   1      41.972  25.481  25.135  1.00  0.00    -0.269 OA
BRANCH  28  31
ATOM     31  C   UNL A   1      41.205  26.123  27.261  1.00  0.00     0.039 A 
ATOM     32  C   UNL A   1      42.049  27.237  27.288  1.00  0.00     0.014 A 
ATOM     33  C   UNL A   1      40.337  25.879  28.329  1.00  0.00     0.014 A 
ATOM     34  C   UNL A   1      41.987  28.133  28.360  1.00  0.00     0.010 A 
ATOM     35  C   UNL A   1      40.227  26.807  29.362  1.00  0.00     0.010 A 
ATOM     36  C   UNL A   1      41.053  27.941  29.391  1.00  0.00    -0.014 A 
BRANCH  36  37
ATOM     37  C   UNL A   1      40.922  28.912  30.506  1.00  0.00     0.031 A 
ATOM     38  C   UNL A   1      41.791  28.783  31.729  1.00  0.00     0.074 A 
ATOM     39  C   UNL A   1      39.968  29.863  30.450  1.00  0.00     0.049 A 
ATOM     40  N   UNL A   1      41.756  29.467  32.842  1.00  0.00    -0.248 NA
ATOM     41  C   UNL A   1      42.816  27.727  31.706  1.00  0.00     0.031 C 
ATOM     42  C   UNL A   1      39.036  30.059  29.337  1.00  0.00     0.029 A 
ATOM     43  N   UNL A   1      39.611  30.831  31.355  1.00  0.00    -0.354 N 
ATOM     44  C   UNL A   1      42.737  28.915  33.659  1.00  0.00     0.074 A 
ATOM     45  C   UNL A   1      43.319  27.809  32.929  1.00  0.00     0.031 C 
ATOM     46  C   UNL A   1      38.223  31.089  29.619  1.00  0.00     0.029 A 
ATOM     47  C   UNL A   1      38.547  31.601  30.948  1.00  0.00     0.049 A 
ATOM     48  H   UNL A   1      40.073  30.962  32.214  1.00  0.00     0.167 HD
ATOM     49  C   UNL A   1      43.129  29.306  34.895  1.00  0.00     0.037 A 
ATOM     50  C   UNL A   1      37.894  32.597  31.579  1.00  0.00     0.037 A 
ATOM     51  C   UNL A   1      42.562  30.426  35.601  1.00  0.00     0.049 A 
ATOM     52  C   UNL A   1      38.350  33.017  32.950  1.00  0.00     0.074 A 
ATOM     53  C   UNL A   1      42.930  30.943  36.831  1.00  0.00     0.029 A 
ATOM     54  N   UNL A   1      41.507  31.201  35.143  1.00  0.00    -0.354 N 
ATOM     55  N   UNL A   1      39.320  32.522  33.682  1.00  0.00    -0.248 NA
ATOM     56  C   UNL A   1      37.629  34.132  33.579  1.00  0.00     0.031 C 
ATOM     57  C   UNL A   1      42.069  32.002  37.135  1.00  0.00     0.029 A 
ATOM     58  C   UNL A   1      41.197  32.179  36.073  1.00  0.00     0.049 A 
ATOM     59  H   UNL A   1      41.045  31.074  34.282  1.00  0.00     0.167 HD
ATOM     60  C   UNL A   1      39.343  33.282  34.846  1.00  0.00     0.074 A 
ATOM     61  C   UNL A   1      38.297  34.276  34.716  1.00  0.00     0.031 C 
ATOM     62  C   UNL A   1      40.158  33.168  35.923  1.00  0.00     0.037 A 
BRANCH  49  63
ATOM     63  C   UNL A   1      44.225  28.522  35.564  1.00  0.00     0.058 A 
ATOM     64  C   UNL A   1      43.945  27.450  36.426  1.00  0.00     0.135 A 
ATOM     65  C   UNL A   1      45.574  28.819  35.307  1.00  0.00     0.135 A 
ATOM     66  F   UNL A   1      42.675  27.130  36.717  1.00  0.00    -0.206 F 
ATOM     67  C   UNL A   1      44.962  26.718  37.031  1.00  0.00     0.059 A 
ATOM     68  C   UNL A   1      46.607  28.082  35.879  1.00  0.00     0.059 A 
ATOM     69  F   UNL A   1      45.901  29.834  34.491  1.00  0.00    -0.206 F 
ATOM     70  C   UNL A   1      46.291  27.042  36.752  1.00  0.00     0.060 A 
BRANCH  70  71
ATOM     71  S   UNL A   1      47.597  26.075  37.539  1.00  0.00     0.124 S 
ATOM     72  O   UNL A   1      48.188  27.063  38.437  1.00  0.00    -0.237 OA
ATOM     73  O   UNL A   1      46.846  25.002  38.183  1.00  0.00    -0.237 OA
ATOM     74  O   UNL A   1      48.437  25.663  36.419  1.00  0.00    -0.744 OA
ENDBRANCH  70  71
ENDBRANCH  49  63
BRANCH  50  75
ATOM     75  C   UNL A   1      36.750  33.273  30.911  1.00  0.00     0.058 A 
ATOM     76  C   UNL A   1      36.954  34.117  29.811  1.00  0.00     0.135 A 
ATOM     77  C   UNL A   1      35.430  33.070  31.343  1.00  0.00     0.135 A 
ATOM     78  F   UNL A   1      38.198  34.347  29.363  1.00  0.00    -0.206 F 
ATOM     79  C   UNL A   1      35.892  34.750  29.170  1.00  0.00     0.059 A 
ATOM     80  C   UNL A   1      34.350  33.670  30.704  1.00  0.00     0.059 A 
ATOM     81  F   UNL A   1      35.179  32.255  32.380  1.00  0.00    -0.206 F 
ATOM     82  C   UNL A   1      34.593  34.516  29.623  1.00  0.00     0.060 A 
BRANCH  82  83
ATOM     83  S   UNL A   1      33.218  35.299  28.751  1.00  0.00     0.124 S 
ATOM     84  O   UNL A   1      33.913  36.283  27.930  1.00  0.00    -0.237 OA
ATOM     85  O   UNL A   1      32.628  34.170  28.036  1.00  0.00    -0.237 OA
ATOM     86  O   UNL A   1      32.401  35.841  29.833  1.00  0.00    -0.744 OA
ENDBRANCH  82  83
ENDBRANCH  50  75
BRANCH  62  87
ATOM     87  C   UNL A   1      39.979  34.161  37.038  1.00  0.00     0.058 A 
ATOM     88  C   UNL A   1      40.598  35.420  37.011  1.00  0.00     0.135 A 
ATOM     89  C   UNL A   1      39.124  33.872  38.114  1.00  0.00     0.135 A 
ATOM     90  F   UNL A   1      41.430  35.744  36.009  1.00  0.00    -0.206 F 
ATOM     91  C   UNL A   1      40.388  36.354  38.021  1.00  0.00     0.059 A 
ATOM     92  C   UNL A   1      38.878  34.800  39.121  1.00  0.00     0.059 A 
ATOM     93  F   UNL A   1      38.501  32.685  38.182  1.00  0.00    -0.206 F 
ATOM     94  C   UNL A   1      39.522  36.035  39.070  1.00  0.00     0.060 A 
BRANCH  94  95
ATOM     95  S   UNL A   1      39.221  37.273  40.349  1.00  0.00     0.124 S 
ATOM     96  O   UNL A   1      40.581  37.672  40.697  1.00  0.00    -0.237 OA
ATOM     97  O   UNL A   1      38.429  38.272  39.638  1.00  0.00    -0.237 OA
ATOM     98  O   UNL A   1      38.502  36.530  41.379  1.00  0.00    -0.744 OA
ENDBRANCH  94  95
ENDBRANCH  62  87
ENDBRANCH  36  37
ENDBRANCH  28  31
ENDBRANCH  26  27
ENDBRANCH  25  26
ENDBRANCH   1  25
TORSDOF 18
ENDMDL
MODEL 3
REMARK VINA RESULT:     -11.4      7.145     12.342
REMARK SMILES Cc1cc(NC[C@H](C)[NH+](C)C)cc(C(=O)NCCCNC(=O)c2ccc(-c3c4nc(c(-c5c(F)cc(S(=O)(=O)[O-])cc5F)c5ccc([nH]5)c(-c5c(F)cc(S(=O)(=O)[O-])cc5F)c5nc(c(-c6c(F)cc(S(=O)(=O)[O-])cc6F)c6ccc3[nH]6)C=C5)C=C4)cc2)c1N
REMARK SMILES IDX 17 1 16 2 14 3 15 4 13 6 1 7 2 8 3 9 89 10 4 11 12 12 90 13
REMARK SMILES IDX 5 16 6 18 7 19 8 20 9 21 10 22 11 23 18 25 19 26 20 27 21 28
REMARK SMILES IDX 22 30 23 31 24 32 88 33 25 34 87 35 26 36 27 37 28 38 81 39
REMARK SMILES IDX 29 40 86 41 80 42 82 43 30 44 85 45 79 46 78 47 31 49 65 50
REMARK SMILES IDX 44 51 64 52 45 53 48 54 63 55 83 56 46 57 47 58 62 60 84 61
REMARK SMILES IDX 49 62 32 63 33 64 42 65 34 66 35 67 41 68 43 69 36 70 37 71
REMARK SMILES IDX 38 72 39 73 40 74 66 75 67 76 76 77 68 78 69 79 75 80 77 81
REMARK SMILES IDX 70 82 71 83 72 84 73 85 74 86 50 87 51 88 60 89 52 90 53 91
REMARK SMILES IDX 59 92 61 93 54 94 55 95 56 96 57 97 58 98
REMARK H PARENT 16 5 90 14 90 15 5 17 9 24 20 29 82 48 48 59
REMARK Flexibility Score: inf
ROOT
ATOM      1  C   UNL A   1      37.795  22.167  25.615  1.00  0.00     0.118 C 
ENDROOT
BRANCH   1   2
ATOM      2  N   UNL A   1      37.460  22.516  24.244  1.00  0.00    -0.352 N 
ATOM      3  C   UNL A   1      36.270  22.699  23.575  1.00  0.00     0.253 C 
ATOM      4  O   UNL A   1      36.359  23.032  22.390  1.00  0.00    -0.269 OA
ATOM      5  H   UNL A   1      38.251  22.652  23.673  1.00  0.00     0.163 HD
BRANCH   3   6
ATOM      6  C   UNL A   1      34.917  22.555  24.210  1.00  0.00     0.065 A 
ATOM      7  C   UNL A   1      32.394  24.589  26.247  1.00  0.00     0.046 C 
ATOM      8  C   UNL A   1      33.078  23.460  25.524  1.00  0.00    -0.025 A 
ATOM      9  C   UNL A   1      32.451  22.198  25.487  1.00  0.00     0.031 A 
ATOM     10  C   UNL A   1      34.326  23.647  24.889  1.00  0.00     0.047 A 
ATOM     11  C   UNL A   1      33.013  21.125  24.800  1.00  0.00     0.035 A 
ATOM     12  C   UNL A   1      34.194  21.365  24.100  1.00  0.00     0.041 A 
BRANCH  10  13
ATOM     13  N   UNL A   1      35.018  24.853  25.067  1.00  0.00    -0.398 N 
ATOM     14  H   UNL A   1      35.559  25.223  24.332  1.00  0.00     0.156 HD
ATOM     15  H   UNL A   1      34.963  25.330  25.927  1.00  0.00     0.156 HD
ENDBRANCH  10  13
BRANCH  11  16
ATOM     16  N   UNL A   1      32.411  19.876  24.824  1.00  0.00    -0.379 N 
ATOM     17  H   UNL A   1      31.618  19.713  24.264  1.00  0.00     0.160 HD
BRANCH  16  18
ATOM     18  C   UNL A   1      32.929  18.793  25.664  1.00  0.00     0.177 C 
BRANCH  18  19
ATOM     19  C   UNL A   1      33.758  17.737  24.879  1.00  0.00     0.199 C 
ATOM     20  C   UNL A   1      33.089  17.509  23.509  1.00  0.00     0.077 C 
BRANCH  19  21
ATOM     21  N   UNL A   1      34.016  16.439  25.546  1.00  0.00    -0.336 N 
ATOM     22  C   UNL A   1      33.008  15.428  25.235  1.00  0.00     0.332 C 
ATOM     23  C   UNL A   1      35.354  15.886  25.319  1.00  0.00     0.332 C 
ATOM     24  H   UNL A   1      33.956  16.673  26.538  1.00  0.00     0.347 HD
ENDBRANCH  19  21
ENDBRANCH  18  19
ENDBRANCH  16  18
ENDBRANCH  11  16
ENDBRANCH   3   6
ENDBRANCH   1   2
BRANCH   1  25
ATOM     25  C   UNL A   1      37.999  23.420  26.473  1.00  0.00     0.042 C 
BRANCH  25  26
ATOM     26  C   UNL A   1      39.413  23.543  27.030  1.00  0.00     0.118 C 
BRANCH  26  27
ATOM     27  N   UNL A   1      40.302  24.217  26.096  1.00  0.00    -0.352 N 
ATOM     28  C   UNL A   1      40.823  25.487  26.134  1.00  0.00     0.251 C 
ATOM     29  H   UNL A   1      40.573  23.679  25.317  1.00  0.00     0.163 HD
ATOM     30  O   UNL A   1      41.356  25.946  25.128  1.00  0.00    -0.269 OA
BRANCH  28  31
ATOM     31  C   UNL A   1      40.735  26.301  27.366  1.00  0.00     0.039 A 
ATOM     32  C   UNL A   1      41.615  27.375  27.528  1.00  0.00     0.014 A 
ATOM     33  C   UNL A   1      39.826  25.985  28.379  1.00  0.00     0.014 A 
ATOM     34  C   UNL A   1      41.547  28.163  28.681  1.00  0.00     0.010 A 
ATOM     35  C   UNL A   1      39.712  26.810  29.495  1.00  0.00     0.010 A 
ATOM     36  C   UNL A   1      40.575  27.905  29.660  1.00  0.00    -0.014 A 
BRANCH  36  37
ATOM     37  C   UNL A   1      40.440  28.767  30.862  1.00  0.00     0.031 A 
ATOM     38  C   UNL A   1      39.411  29.866  30.893  1.00  0.00     0.074 A 
ATOM     39  C   UNL A   1      41.293  28.607  31.893  1.00  0.00     0.049 A 
ATOM     40  N   UNL A   1      39.209  30.781  31.804  1.00  0.00    -0.248 NA
ATOM     41  C   UNL A   1      38.509  29.965  29.733  1.00  0.00     0.031 C 
ATOM     42  C   UNL A   1      42.360  27.606  31.959  1.00  0.00     0.029 A 
ATOM     43  N   UNL A   1      41.411  29.295  33.075  1.00  0.00    -0.354 N 
ATOM     44  C   UNL A   1      38.174  31.575  31.322  1.00  0.00     0.074 A 
ATOM     45  C   UNL A   1      37.821  31.060  30.017  1.00  0.00     0.031 C 
ATOM     46  C   UNL A   1      43.015  27.736  33.123  1.00  0.00     0.029 A 
ATOM     47  C   UNL A   1      42.445  28.855  33.868  1.00  0.00     0.049 A 
ATOM     48  H   UNL A   1      40.814  30.034  33.330  1.00  0.00     0.167 HD
ATOM     49  C   UNL A   1      37.562  32.624  31.921  1.00  0.00     0.037 A 
ATOM     50  C   UNL A   1      42.893  29.310  35.055  1.00  0.00     0.037 A 
ATOM     51  C   UNL A   1      37.903  33.111  33.233  1.00  0.00     0.049 A 
ATOM     52  C   UNL A   1      42.195  30.474  35.703  1.00  0.00     0.074 A 
ATOM     53  C   UNL A   1      37.302  34.128  33.956  1.00  0.00     0.029 A 
ATOM     54  N   UNL A   1      38.935  32.619  34.019  1.00  0.00    -0.354 N 
ATOM     55  N   UNL A   1      41.178  31.174  35.260  1.00  0.00    -0.248 NA
ATOM     56  C   UNL A   1      42.699  30.907  37.013  1.00  0.00     0.031 C 
ATOM     57  C   UNL A   1      37.999  34.279  35.159  1.00  0.00     0.029 A 
ATOM     58  C   UNL A   1      39.001  33.323  35.210  1.00  0.00     0.049 A 
ATOM     59  H   UNL A   1      39.532  31.878  33.767  1.00  0.00     0.167 HD
ATOM     60  C   UNL A   1      40.904  32.113  36.248  1.00  0.00     0.074 A 
ATOM     61  C   UNL A   1      41.855  31.884  37.316  1.00  0.00     0.031 C 
ATOM     62  C   UNL A   1      39.949  33.076  36.268  1.00  0.00     0.037 A 
BRANCH  49  63
ATOM     63  C   UNL A   1      36.459  33.317  31.168  1.00  0.00     0.058 A 
ATOM     64  C   UNL A   1      35.114  33.194  31.551  1.00  0.00     0.135 A 
ATOM     65  C   UNL A   1      36.753  34.150  30.076  1.00  0.00     0.135 A 
ATOM     66  F   UNL A   1      34.773  32.401  32.579  1.00  0.00    -0.206 F 
ATOM     67  C   UNL A   1      34.097  33.847  30.862  1.00  0.00     0.059 A 
ATOM     68  C   UNL A   1      35.756  34.836  29.389  1.00  0.00     0.059 A 
ATOM     69  F   UNL A   1      38.022  34.305  29.666  1.00  0.00    -0.206 F 
ATOM     70  C   UNL A   1      34.429  34.667  29.781  1.00  0.00     0.060 A 
BRANCH  70  71
ATOM     71  S   UNL A   1      33.098  35.515  28.903  1.00  0.00     0.124 S 
ATOM     72  O   UNL A   1      33.846  36.482  28.104  1.00  0.00    -0.237 OA
ATOM     73  O   UNL A   1      32.473  34.427  28.159  1.00  0.00    -0.237 OA
ATOM     74  O   UNL A   1      32.289  36.082  29.978  1.00  0.00    -0.744 OA
ENDBRANCH  70  71
ENDBRANCH  49  63
BRANCH  50  75
ATOM     75  C   UNL A   1      44.054  28.649  35.710  1.00  0.00     0.058 A 
ATOM     76  C   UNL A   1      45.366  29.053  35.430  1.00  0.00     0.135 A 
ATOM     77  C   UNL A   1      43.872  27.618  36.646  1.00  0.00     0.135 A 
ATOM     78  F   UNL A   1      45.591  30.031  34.539  1.00  0.00    -0.206 F 
ATOM     79  C   UNL A   1      46.461  28.450  36.042  1.00  0.00     0.059 A 
ATOM     80  C   UNL A   1      44.949  27.017  37.289  1.00  0.00     0.059 A 
ATOM     81  F   UNL A   1      42.635  27.208  36.963  1.00  0.00    -0.206 F 
ATOM     82  C   UNL A   1      46.241  27.434  36.973  1.00  0.00     0.060 A 
BRANCH  82  83
ATOM     83  S   UNL A   1      47.666  26.695  37.802  1.00  0.00     0.124 S 
ATOM     84  O   UNL A   1      48.611  27.805  37.808  1.00  0.00    -0.237 OA
ATOM     85  O   UNL A   1      47.106  26.324  39.099  1.00  0.00    -0.237 OA
ATOM     86  O   UNL A   1      48.013  25.573  36.935  1.00  0.00    -0.744 OA
ENDBRANCH  82  83
ENDBRANCH  50  75
BRANCH  62  87
ATOM     87  C   UNL A   1      39.858  33.937  37.497  1.00  0.00     0.058 A 
ATOM     88  C   UNL A   1      40.506  35.179  37.579  1.00  0.00     0.135 A 
ATOM     89  C   UNL A   1      39.057  33.541  38.582  1.00  0.00     0.135 A 
ATOM     90  F   UNL A   1      41.289  35.600  36.574  1.00  0.00    -0.206 F 
ATOM     91  C   UNL A   1      40.376  35.993  38.700  1.00  0.00     0.059 A 
ATOM     92  C   UNL A   1      38.891  34.351  39.700  1.00  0.00     0.059 A 
ATOM     93  F   UNL A   1      38.410  32.366  38.550  1.00  0.00    -0.206 F 
ATOM     94  C   UNL A   1      39.562  35.571  39.754  1.00  0.00     0.060 A 
BRANCH  94  95
ATOM     95  S   UNL A   1      39.364  36.658  41.182  1.00  0.00     0.124 S 
ATOM     96  O   UNL A   1      38.842  37.870  40.558  1.00  0.00    -0.237 OA
ATOM     97  O   UNL A   1      38.422  35.916  42.012  1.00  0.00    -0.237 OA
ATOM     98  O   UNL A   1      40.717  36.762  41.720  1.00  0.00    -0.744 OA
ENDBRANCH  94  95
ENDBRANCH  62  87
ENDBRANCH  36  37
ENDBRANCH  28  31
ENDBRANCH  26  27
ENDBRANCH  25  26
ENDBRANCH   1  25
TORSDOF 18
ENDMDL
