MODEL 1
REMARK VINA RESULT:     -12.9      0.000      0.000
REMARK SMILES Cc1oc2cc3c(cc2c1C)[C@H](C)[C@@H](CC(=O)N[C@H](CC1=c2ccccc2=NC1)C(=O)NCCCNC(=O)c1ccc(-c2c4nc(c(-c5c(F)cc(S(=O)(=O)[O-])cc5F)c5ccc([nH]5)c(-c5c(F)cc(S(=O)(=O)[O-])cc5F)c5nc(c(-c6c(F)cc(S(=O)(=O)[O-])cc6F)c6ccc2[nH]6)C=C5)C=C4)cc1)C(=O)O3
REMARK SMILES IDX 34 1 33 2 32 3 30 4 31 5 19 7 18 8 16 9 17 10 15 12 14 13
REMARK SMILES IDX 1 14 2 15 3 16 10 17 4 18 9 19 11 20 5 21 8 22 6 23 7 24
REMARK SMILES IDX 107 25 12 26 105 27 13 28 106 29 20 30 21 31 22 32 29 33
REMARK SMILES IDX 23 34 27 35 28 36 24 37 26 38 25 39 35 40 36 41 37 42 38 44
REMARK SMILES IDX 39 45 40 46 104 47 41 48 103 49 42 50 43 51 44 52 97 53
REMARK SMILES IDX 45 54 102 55 96 56 98 57 46 58 101 59 95 60 94 61 47 63
REMARK SMILES IDX 81 64 60 65 80 66 61 67 64 68 79 69 99 70 62 71 63 72 78 74
REMARK SMILES IDX 100 75 65 76 48 77 49 78 58 79 50 80 51 81 57 82 59 83 52 84
REMARK SMILES IDX 53 85 54 86 55 87 56 88 82 89 83 90 92 91 84 92 85 93 91 94
REMARK SMILES IDX 93 95 86 96 87 97 88 98 89 99 90 100 66 101 67 102 76 103
REMARK SMILES IDX 68 104 69 105 75 106 77 107 70 108 71 109 72 110 73 111
REMARK SMILES IDX 74 112
REMARK H PARENT 32 6 18 11 36 43 98 62 64 73
REMARK Flexibility Score: inf
ROOT
ATOM      1  C   UNL A   1      42.843  39.253  28.224  1.00  0.00     0.042 C 
ENDROOT
BRANCH   1   2
ATOM      2  C   UNL A   1      43.636  40.401  27.625  1.00  0.00     0.117 C 
BRANCH   2   3
ATOM      3  N   UNL A   1      45.061  40.298  27.903  1.00  0.00    -0.354 N 
ATOM      4  C   UNL A   1      45.970  41.302  28.086  1.00  0.00     0.242 C 
ATOM      5  O   UNL A   1      47.165  41.005  28.135  1.00  0.00    -0.273 OA
ATOM      6  H   UNL A   1      45.418  39.382  27.969  1.00  0.00     0.163 HD
BRANCH   4   7
ATOM      7  C   UNL A   1      45.535  42.764  28.043  1.00  0.00     0.175 C 
BRANCH   7   8
ATOM      8  N   UNL A   1      46.337  43.589  27.100  1.00  0.00    -0.344 N 
ATOM      9  C   UNL A   1      46.619  43.543  25.764  1.00  0.00     0.221 C 
ATOM     10  O   UNL A   1      47.282  44.486  25.313  1.00  0.00    -0.275 OA
ATOM     11  H   UNL A   1      46.768  44.354  27.546  1.00  0.00     0.164 HD
BRANCH   9  12
ATOM     12  C   UNL A   1      46.212  42.423  24.794  1.00  0.00     0.116 C 
BRANCH  12  13
ATOM     13  C   UNL A   1      45.688  42.892  23.423  1.00  0.00     0.116 C 
ATOM     14  C   UNL A   1      42.161  45.259  16.127  1.00  0.00     0.088 C 
ATOM     15  C   UNL A   1      42.533  44.808  17.486  1.00  0.00     0.105 A 
ATOM     16  O   UNL A   1      43.866  44.787  17.735  1.00  0.00    -0.461 OA
ATOM     17  C   UNL A   1      41.830  44.319  18.579  1.00  0.00    -0.002 A 
ATOM     18  C   UNL A   1      44.034  44.279  18.978  1.00  0.00     0.138 A 
ATOM     19  C   UNL A   1      42.810  44.054  19.596  1.00  0.00     0.024 A 
ATOM     20  C   UNL A   1      40.374  44.044  18.641  1.00  0.00     0.049 C 
ATOM     21  C   UNL A   1      45.259  43.950  19.526  1.00  0.00     0.095 A 
ATOM     22  C   UNL A   1      42.813  43.589  20.942  1.00  0.00     0.020 A 
ATOM     23  C   UNL A   1      45.204  43.360  20.786  1.00  0.00     0.138 A 
ATOM     24  C   UNL A   1      44.040  43.277  21.572  1.00  0.00    -0.001 A 
ATOM     25  O   UNL A   1      46.392  42.712  21.152  1.00  0.00    -0.426 OA
ATOM     26  C   UNL A   1      44.176  42.805  23.038  1.00  0.00     0.035 C 
ATOM     27  C   UNL A   1      46.347  42.052  22.358  1.00  0.00     0.315 C 
ATOM     28  C   UNL A   1      43.287  43.629  23.979  1.00  0.00     0.014 C 
ATOM     29  O   UNL A   1      46.796  40.926  22.522  1.00  0.00    -0.251 OA
ENDBRANCH  12  13
ENDBRANCH   9  12
ENDBRANCH   7   8
BRANCH   7  30
ATOM     30  C   UNL A   1      45.610  43.188  29.579  1.00  0.00     0.068 C 
BRANCH  30  31
ATOM     31  C   UNL A   1      44.317  43.680  30.134  1.00  0.00    -0.037 C 
ATOM     32  C   UNL A   1      43.393  43.035  30.845  1.00  0.00     0.001 A 
ATOM     33  C   UNL A   1      44.042  45.141  30.234  1.00  0.00     0.174 C 
ATOM     34  C   UNL A   1      42.840  41.730  31.012  1.00  0.00     0.010 A 
ATOM     35  C   UNL A   1      43.210  44.072  31.894  1.00  0.00     0.065 A 
ATOM     36  N   UNL A   1      43.578  45.292  31.621  1.00  0.00    -0.280 NA
ATOM     37  C   UNL A   1      42.192  41.453  32.158  1.00  0.00     0.001 A 
ATOM     38  C   UNL A   1      42.799  43.574  33.222  1.00  0.00     0.028 A 
ATOM     39  C   UNL A   1      42.323  42.322  33.315  1.00  0.00     0.002 A 
ENDBRANCH  30  31
ENDBRANCH   7  30
ENDBRANCH   4   7
ENDBRANCH   2   3
ENDBRANCH   1   2
BRANCH   1  40
ATOM     40  C   UNL A   1      42.347  38.298  27.135  1.00  0.00     0.118 C 
BRANCH  40  41
ATOM     41  N   UNL A   1      43.382  37.479  26.534  1.00  0.00    -0.352 N 
ATOM     42  C   UNL A   1      43.856  36.247  26.933  1.00  0.00     0.251 C 
ATOM     43  H   UNL A   1      43.805  37.855  25.728  1.00  0.00     0.163 HD
ATOM     44  O   UNL A   1      44.723  35.674  26.322  1.00  0.00    -0.269 OA
BRANCH  42  45
ATOM     45  C   UNL A   1      43.311  35.703  28.190  1.00  0.00     0.039 A 
ATOM     46  C   UNL A   1      44.135  35.557  29.308  1.00  0.00     0.014 A 
ATOM     47  C   UNL A   1      42.008  35.203  28.168  1.00  0.00     0.014 A 
ATOM     48  C   UNL A   1      43.680  34.808  30.385  1.00  0.00     0.010 A 
ATOM     49  C   UNL A   1      41.546  34.477  29.258  1.00  0.00     0.010 A 
ATOM     50  C   UNL A   1      42.393  34.255  30.352  1.00  0.00    -0.014 A 
BRANCH  50  51
ATOM     51  C   UNL A   1      41.970  33.476  31.523  1.00  0.00     0.031 A 
ATOM     52  C   UNL A   1      40.509  33.561  31.811  1.00  0.00     0.074 A 
ATOM     53  C   UNL A   1      42.597  32.329  31.854  1.00  0.00     0.049 A 
ATOM     54  N   UNL A   1      39.623  32.892  31.131  1.00  0.00    -0.248 NA
ATOM     55  C   UNL A   1      39.940  34.592  32.676  1.00  0.00     0.031 C 
ATOM     56  C   UNL A   1      43.206  31.405  30.886  1.00  0.00     0.029 A 
ATOM     57  N   UNL A   1      42.598  31.633  33.037  1.00  0.00    -0.354 N 
ATOM     58  C   UNL A   1      38.389  33.437  31.426  1.00  0.00     0.074 A 
ATOM     59  C   UNL A   1      38.633  34.481  32.397  1.00  0.00     0.031 C 
ATOM     60  C   UNL A   1      43.336  30.197  31.471  1.00  0.00     0.029 A 
ATOM     61  C   UNL A   1      42.978  30.304  32.879  1.00  0.00     0.049 A 
ATOM     62  H   UNL A   1      42.354  32.032  33.904  1.00  0.00     0.167 HD
ATOM     63  C   UNL A   1      37.240  33.008  30.846  1.00  0.00     0.037 A 
ATOM     64  C   UNL A   1      42.564  29.287  33.684  1.00  0.00     0.037 A 
ATOM     65  C   UNL A   1      37.376  31.906  29.938  1.00  0.00     0.049 A 
ATOM     66  C   UNL A   1      41.164  29.086  33.150  1.00  0.00     0.074 A 
ATOM     67  C   UNL A   1      37.558  31.730  28.584  1.00  0.00     0.029 A 
ATOM     68  N   UNL A   1      37.412  30.637  30.468  1.00  0.00    -0.354 N 
ATOM     69  N   UNL A   1      40.841  28.436  32.061  1.00  0.00    -0.248 NA
ATOM     70  C   UNL A   1      40.109  29.968  33.660  1.00  0.00     0.031 C 
ATOM     71  C   UNL A   1      38.132  30.428  28.440  1.00  0.00     0.029 A 
ATOM     72  C   UNL A   1      38.316  29.920  29.725  1.00  0.00     0.049 A 
ATOM     73  H   UNL A   1      36.888  30.307  31.234  1.00  0.00     0.167 HD
ATOM     74  C   UNL A   1      39.673  29.048  31.596  1.00  0.00     0.074 A 
ATOM     75  C   UNL A   1      39.254  29.949  32.649  1.00  0.00     0.031 C 
ATOM     76  C   UNL A   1      39.219  28.953  30.313  1.00  0.00     0.037 A 
BRANCH  63  77
ATOM     77  C   UNL A   1      35.891  33.490  31.195  1.00  0.00     0.058 A 
ATOM     78  C   UNL A   1      35.197  34.254  30.246  1.00  0.00     0.135 A 
ATOM     79  C   UNL A   1      35.380  33.415  32.494  1.00  0.00     0.135 A 
ATOM     80  F   UNL A   1      35.661  34.344  28.988  1.00  0.00    -0.206 F 
ATOM     81  C   UNL A   1      34.069  34.984  30.589  1.00  0.00     0.059 A 
ATOM     82  C   UNL A   1      34.244  34.134  32.861  1.00  0.00     0.059 A 
ATOM     83  F   UNL A   1      36.014  32.694  33.432  1.00  0.00    -0.206 F 
ATOM     84  C   UNL A   1      33.618  34.942  31.908  1.00  0.00     0.060 A 
BRANCH  84  85
ATOM     85  S   UNL A   1      32.239  36.014  32.360  1.00  0.00     0.124 S 
ATOM     86  O   UNL A   1      32.017  36.752  31.121  1.00  0.00    -0.237 OA
ATOM     87  O   UNL A   1      31.207  35.045  32.718  1.00  0.00    -0.237 OA
ATOM     88  O   UNL A   1      32.769  36.799  33.472  1.00  0.00    -0.744 OA
ENDBRANCH  84  85
ENDBRANCH  63  77
BRANCH  64  89
ATOM     89  C   UNL A   1      42.915  29.517  35.126  1.00  0.00     0.058 A 
ATOM     90  C   UNL A   1      43.826  28.615  35.723  1.00  0.00     0.135 A 
ATOM     91  C   UNL A   1      42.503  30.593  35.922  1.00  0.00     0.135 A 
ATOM     92  F   UNL A   1      44.164  27.478  35.093  1.00  0.00    -0.206 F 
ATOM     93  C   UNL A   1      44.449  28.880  36.937  1.00  0.00     0.059 A 
ATOM     94  C   UNL A   1      43.129  30.893  37.134  1.00  0.00     0.059 A 
ATOM     95  F   UNL A   1      41.515  31.408  35.530  1.00  0.00    -0.206 F 
ATOM     96  C   UNL A   1      44.139  30.059  37.604  1.00  0.00     0.060 A 
BRANCH  96  97
ATOM     97  S   UNL A   1      45.137  30.517  39.035  1.00  0.00     0.124 S 
ATOM     98  O   UNL A   1      46.410  30.870  38.418  1.00  0.00    -0.237 OA
ATOM     99  O   UNL A   1      44.366  31.626  39.587  1.00  0.00    -0.237 OA
ATOM    100  O   UNL A   1      45.143  29.302  39.844  1.00  0.00    -0.744 OA
ENDBRANCH  96  97
ENDBRANCH  64  89
BRANCH  76 101
ATOM    101  C   UNL A   1      39.901  27.951  29.445  1.00  0.00     0.058 A 
ATOM    102  C   UNL A   1      39.471  26.617  29.438  1.00  0.00     0.135 A 
ATOM    103  C   UNL A   1      40.931  28.313  28.562  1.00  0.00     0.135 A 
ATOM    104  F   UNL A   1      38.481  26.221  30.256  1.00  0.00    -0.206 F 
ATOM    105  C   UNL A   1      40.016  25.683  28.564  1.00  0.00     0.059 A 
ATOM    106  C   UNL A   1      41.474  27.401  27.662  1.00  0.00     0.059 A 
ATOM    107  F   UNL A   1      41.406  29.569  28.536  1.00  0.00    -0.206 F 
ATOM    108  C   UNL A   1      41.007  26.088  27.669  1.00  0.00     0.060 A 
BRANCH 108 109
ATOM    109  S   UNL A   1      41.636  24.896  26.469  1.00  0.00     0.124 S 
ATOM    110  O   UNL A   1      42.915  24.519  27.061  1.00  0.00    -0.237 OA
ATOM    111  O   UNL A   1      40.602  23.867  26.478  1.00  0.00    -0.237 OA
ATOM    112  O   UNL A   1      41.728  25.673  25.234  1.00  0.00    -0.744 OA
ENDBRANCH 108 109
ENDBRANCH  76 101
ENDBRANCH  50  51
ENDBRANCH  42  45
ENDBRANCH  40  41
ENDBRANCH   1  40
TORSDOF 18
ENDMDL
MODEL 2
REMARK VINA RESULT:     -12.7      7.143     15.377
REMARK SMILES Cc1oc2cc3c(cc2c1C)[C@H](C)[C@@H](CC(=O)N[C@H](CC1=c2ccccc2=NC1)C(=O)NCCCNC(=O)c1ccc(-c2c4nc(c(-c5c(F)cc(S(=O)(=O)[O-])cc5F)c5ccc([nH]5)c(-c5c(F)cc(S(=O)(=O)[O-])cc5F)c5nc(c(-c6c(F)cc(S(=O)(=O)[O-])cc6F)c6ccc2[nH]6)C=C5)C=C4)cc1)C(=O)O3
REMARK SMILES IDX 34 1 33 2 32 3 30 4 31 5 19 7 18 8 16 9 17 10 15 12 14 13
REMARK SMILES IDX 1 14 2 15 3 16 10 17 4 18 9 19 11 20 5 21 8 22 6 23 7 24
REMARK SMILES IDX 107 25 12 26 105 27 13 28 106 29 20 30 21 31 22 32 29 33
REMARK SMILES IDX 23 34 27 35 28 36 24 37 26 38 25 39 35 40 36 41 37 42 38 44
REMARK SMILES IDX 39 45 40 46 104 47 41 48 103 49 42 50 43 51 44 52 97 53
REMARK SMILES IDX 45 54 102 55 96 56 98 57 46 58 101 59 95 60 94 61 47 63
REMARK SMILES IDX 81 64 60 65 80 66 61 67 64 68 79 69 99 70 62 71 63 72 78 74
REMARK SMILES IDX 100 75 65 76 48 77 49 78 58 79 50 80 51 81 57 82 59 83 52 84
REMARK SMILES IDX 53 85 54 86 55 87 56 88 82 89 83 90 92 91 84 92 85 93 91 94
REMARK SMILES IDX 93 95 86 96 87 97 88 98 89 99 90 100 66 101 67 102 76 103
REMARK SMILES IDX 68 104 69 105 75 106 77 107 70 108 71 109 72 110 73 111
REMARK SMILES IDX 74 112
REMARK H PARENT 32 6 18 11 36 43 98 62 64 73
REMARK Flexibility Score: inf
ROOT
ATOM      1  C   UNL A   1      33.858  29.494  27.372  1.00  0.00     0.042 C 
ENDROOT
BRANCH   1   2
ATOM      2  C   UNL A   1      33.788  28.367  26.358  1.00  0.00     0.117 C 
BRANCH   2   3
ATOM      3  N   UNL A   1      34.296  28.762  25.051  1.00  0.00    -0.354 N 
ATOM      4  C   UNL A   1      33.645  28.770  23.849  1.00  0.00     0.242 C 
ATOM      5  O   UNL A   1      34.307  28.972  22.830  1.00  0.00    -0.273 OA
ATOM      6  H   UNL A   1      35.233  29.063  25.031  1.00  0.00     0.163 HD
BRANCH   4   7
ATOM      7  C   UNL A   1      32.179  28.359  23.754  1.00  0.00     0.175 C 
BRANCH   7   8
ATOM      8  N   UNL A   1      31.832  27.713  22.460  1.00  0.00    -0.344 N 
ATOM      9  C   UNL A   1      31.453  26.460  22.068  1.00  0.00     0.221 C 
ATOM     10  O   UNL A   1      31.163  26.326  20.872  1.00  0.00    -0.275 OA
ATOM     11  H   UNL A   1      31.888  28.340  21.703  1.00  0.00     0.164 HD
BRANCH   9  12
ATOM     12  C   UNL A   1      31.384  25.216  22.967  1.00  0.00     0.116 C 
BRANCH  12  13
ATOM     13  C   UNL A   1      32.731  24.736  23.540  1.00  0.00     0.116 C 
ATOM     14  C   UNL A   1      39.943  21.450  26.448  1.00  0.00     0.088 C 
ATOM     15  C   UNL A   1      38.644  21.791  25.828  1.00  0.00     0.105 A 
ATOM     16  O   UNL A   1      38.222  23.061  26.052  1.00  0.00    -0.461 OA
ATOM     17  C   UNL A   1      37.689  21.084  25.110  1.00  0.00    -0.002 A 
ATOM     18  C   UNL A   1      36.996  23.180  25.491  1.00  0.00     0.138 A 
ATOM     19  C   UNL A   1      36.642  22.022  24.810  1.00  0.00     0.024 A 
ATOM     20  C   UNL A   1      37.712  19.634  24.800  1.00  0.00     0.049 C 
ATOM     21  C   UNL A   1      36.171  24.277  25.648  1.00  0.00     0.095 A 
ATOM     22  C   UNL A   1      35.409  22.011  24.099  1.00  0.00     0.020 A 
ATOM     23  C   UNL A   1      34.915  24.162  25.060  1.00  0.00     0.138 A 
ATOM     24  C   UNL A   1      34.541  23.125  24.185  1.00  0.00    -0.001 A 
ATOM     25  O   UNL A   1      33.987  25.101  25.534  1.00  0.00    -0.426 OA
ATOM     26  C   UNL A   1      33.198  23.249  23.429  1.00  0.00     0.035 C 
ATOM     27  C   UNL A   1      32.715  24.966  25.031  1.00  0.00     0.315 C 
ATOM     28  C   UNL A   1      33.328  22.786  21.972  1.00  0.00     0.014 C 
ATOM     29  O   UNL A   1      31.709  25.032  25.725  1.00  0.00    -0.251 OA
ENDBRANCH  12  13
ENDBRANCH   9  12
ENDBRANCH   7   8
BRANCH   7  30
ATOM     30  C   UNL A   1      31.419  29.723  24.079  1.00  0.00     0.068 C 
BRANCH  30  31
ATOM     31  C   UNL A   1      29.969  29.704  23.735  1.00  0.00    -0.037 C 
ATOM     32  C   UNL A   1      29.183  30.685  23.295  1.00  0.00     0.001 A 
ATOM     33  C   UNL A   1      29.257  28.411  23.526  1.00  0.00     0.174 C 
ATOM     34  C   UNL A   1      29.028  32.102  23.388  1.00  0.00     0.010 A 
ATOM     35  C   UNL A   1      28.539  29.927  22.192  1.00  0.00     0.065 A 
ATOM     36  N   UNL A   1      28.562  28.625  22.248  1.00  0.00    -0.280 NA
ATOM     37  C   UNL A   1      28.325  32.731  22.429  1.00  0.00     0.001 A 
ATOM     38  C   UNL A   1      28.097  30.730  21.034  1.00  0.00     0.028 A 
ATOM     39  C   UNL A   1      28.010  32.062  21.179  1.00  0.00     0.002 A 
ENDBRANCH  30  31
ENDBRANCH   7  30
ENDBRANCH   4   7
ENDBRANCH   2   3
ENDBRANCH   1   2
BRANCH   1  40
ATOM     40  C   UNL A   1      35.280  29.659  27.916  1.00  0.00     0.118 C 
BRANCH  40  41
ATOM     41  N   UNL A   1      35.418  30.671  28.946  1.00  0.00    -0.352 N 
ATOM     42  C   UNL A   1      36.564  31.258  29.438  1.00  0.00     0.251 C 
ATOM     43  H   UNL A   1      34.575  30.982  29.349  1.00  0.00     0.163 HD
ATOM     44  O   UNL A   1      36.524  32.102  30.298  1.00  0.00    -0.269 OA
BRANCH  42  45
ATOM     45  C   UNL A   1      37.847  30.744  28.923  1.00  0.00     0.039 A 
ATOM     46  C   UNL A   1      37.882  30.004  27.739  1.00  0.00     0.014 A 
ATOM     47  C   UNL A   1      38.974  30.889  29.733  1.00  0.00     0.014 A 
ATOM     48  C   UNL A   1      39.041  29.314  27.413  1.00  0.00     0.010 A 
ATOM     49  C   UNL A   1      40.141  30.218  29.389  1.00  0.00     0.010 A 
ATOM     50  C   UNL A   1      40.164  29.407  28.246  1.00  0.00    -0.014 A 
BRANCH  50  51
ATOM     51  C   UNL A   1      41.359  28.656  27.845  1.00  0.00     0.031 A 
ATOM     52  C   UNL A   1      42.572  29.503  27.656  1.00  0.00     0.074 A 
ATOM     53  C   UNL A   1      41.553  27.388  28.264  1.00  0.00     0.049 A 
ATOM     54  N   UNL A   1      43.273  29.951  28.657  1.00  0.00    -0.248 NA
ATOM     55  C   UNL A   1      42.905  30.119  26.373  1.00  0.00     0.031 C 
ATOM     56  C   UNL A   1      41.094  26.862  29.558  1.00  0.00     0.029 A 
ATOM     57  N   UNL A   1      42.388  26.415  27.776  1.00  0.00    -0.354 N 
ATOM     58  C   UNL A   1      44.100  30.941  28.162  1.00  0.00     0.074 A 
ATOM     59  C   UNL A   1      43.845  31.003  26.740  1.00  0.00     0.031 C 
ATOM     60  C   UNL A   1      41.810  25.756  29.847  1.00  0.00     0.029 A 
ATOM     61  C   UNL A   1      42.646  25.412  28.704  1.00  0.00     0.049 A 
ATOM     62  H   UNL A   1      42.765  26.427  26.866  1.00  0.00     0.167 HD
ATOM     63  C   UNL A   1      44.936  31.661  28.952  1.00  0.00     0.037 A 
ATOM     64  C   UNL A   1      43.786  24.670  28.736  1.00  0.00     0.037 A 
ATOM     65  C   UNL A   1      44.951  31.295  30.338  1.00  0.00     0.049 A 
ATOM     66  C   UNL A   1      44.730  25.672  29.362  1.00  0.00     0.074 A 
ATOM     67  C   UNL A   1      44.308  31.683  31.492  1.00  0.00     0.029 A 
ATOM     68  N   UNL A   1      45.744  30.235  30.714  1.00  0.00    -0.354 N 
ATOM     69  N   UNL A   1      44.811  25.961  30.637  1.00  0.00    -0.248 NA
ATOM     70  C   UNL A   1      45.354  26.662  28.479  1.00  0.00     0.031 C 
ATOM     71  C   UNL A   1      44.409  30.567  32.381  1.00  0.00     0.029 A 
ATOM     72  C   UNL A   1      45.059  29.549  31.685  1.00  0.00     0.049 A 
ATOM     73  H   UNL A   1      46.633  30.012  30.354  1.00  0.00     0.167 HD
ATOM     74  C   UNL A   1      45.227  27.296  30.688  1.00  0.00     0.074 A 
ATOM     75  C   UNL A   1      45.586  27.649  29.331  1.00  0.00     0.031 C 
ATOM     76  C   UNL A   1      45.066  28.104  31.775  1.00  0.00     0.037 A 
BRANCH  63  77
ATOM     77  C   UNL A   1      45.904  32.660  28.461  1.00  0.00     0.058 A 
ATOM     78  C   UNL A   1      45.438  33.955  28.193  1.00  0.00     0.135 A 
ATOM     79  C   UNL A   1      47.191  32.313  28.038  1.00  0.00     0.135 A 
ATOM     80  F   UNL A   1      44.207  34.320  28.588  1.00  0.00    -0.206 F 
ATOM     81  C   UNL A   1      46.194  34.859  27.464  1.00  0.00     0.059 A 
ATOM     82  C   UNL A   1      47.973  33.207  27.310  1.00  0.00     0.059 A 
ATOM     83  F   UNL A   1      47.674  31.083  28.275  1.00  0.00    -0.206 F 
ATOM     84  C   UNL A   1      47.448  34.465  26.999  1.00  0.00     0.060 A 
BRANCH  84  85
ATOM     85  S   UNL A   1      48.348  35.607  25.930  1.00  0.00     0.124 S 
ATOM     86  O   UNL A   1      47.459  36.765  25.918  1.00  0.00    -0.237 OA
ATOM     87  O   UNL A   1      49.603  35.776  26.655  1.00  0.00    -0.237 OA
ATOM     88  O   UNL A   1      48.450  34.882  24.667  1.00  0.00    -0.744 OA
ENDBRANCH  84  85
ENDBRANCH  63  77
BRANCH  64  89
ATOM     89  C   UNL A   1      44.032  23.940  27.448  1.00  0.00     0.058 A 
ATOM     90  C   UNL A   1      45.336  23.437  27.226  1.00  0.00     0.135 A 
ATOM     91  C   UNL A   1      43.077  23.621  26.475  1.00  0.00     0.135 A 
ATOM     92  F   UNL A   1      46.350  23.810  28.025  1.00  0.00    -0.206 F 
ATOM     93  C   UNL A   1      45.618  22.507  26.232  1.00  0.00     0.059 A 
ATOM     94  C   UNL A   1      43.328  22.673  25.480  1.00  0.00     0.059 A 
ATOM     95  F   UNL A   1      41.862  24.184  26.486  1.00  0.00    -0.206 F 
ATOM     96  C   UNL A   1      44.586  22.083  25.403  1.00  0.00     0.060 A 
BRANCH  96  97
ATOM     97  S   UNL A   1      44.899  20.693  24.297  1.00  0.00     0.124 S 
ATOM     98  O   UNL A   1      43.927  19.709  24.760  1.00  0.00    -0.237 OA
ATOM     99  O   UNL A   1      44.630  21.290  22.992  1.00  0.00    -0.237 OA
ATOM    100  O   UNL A   1      46.299  20.366  24.553  1.00  0.00    -0.744 OA
ENDBRANCH  96  97
ENDBRANCH  64  89
BRANCH  76 101
ATOM    101  C   UNL A   1      44.631  27.437  33.035  1.00  0.00     0.058 A 
ATOM    102  C   UNL A   1      43.266  27.258  33.301  1.00  0.00     0.135 A 
ATOM    103  C   UNL A   1      45.553  26.906  33.951  1.00  0.00     0.135 A 
ATOM    104  F   UNL A   1      42.342  27.737  32.452  1.00  0.00    -0.206 F 
ATOM    105  C   UNL A   1      42.831  26.547  34.414  1.00  0.00     0.059 A 
ATOM    106  C   UNL A   1      45.141  26.170  35.058  1.00  0.00     0.059 A 
ATOM    107  F   UNL A   1      46.874  27.065  33.767  1.00  0.00    -0.206 F 
ATOM    108  C   UNL A   1      43.777  25.994  35.279  1.00  0.00     0.060 A 
BRANCH 108 109
ATOM    109  S   UNL A   1      43.206  24.987  36.664  1.00  0.00     0.124 S 
ATOM    110  O   UNL A   1      43.293  25.927  37.776  1.00  0.00    -0.237 OA
ATOM    111  O   UNL A   1      41.857  24.617  36.247  1.00  0.00    -0.237 OA
ATOM    112  O   UNL A   1      44.167  23.887  36.703  1.00  0.00    -0.744 OA
ENDBRANCH 108 109
ENDBRANCH  76 101
ENDBRANCH  50  51
ENDBRANCH  42  45
ENDBRANCH  40  41
ENDBRANCH   1  40
TORSDOF 18
ENDMDL
MODEL 3
REMARK VINA RESULT:     -12.4      6.250     14.812
REMARK SMILES Cc1oc2cc3c(cc2c1C)[C@H](C)[C@@H](CC(=O)N[C@H](CC1=c2ccccc2=NC1)C(=O)NCCCNC(=O)c1ccc(-c2c4nc(c(-c5c(F)cc(S(=O)(=O)[O-])cc5F)c5ccc([nH]5)c(-c5c(F)cc(S(=O)(=O)[O-])cc5F)c5nc(c(-c6c(F)cc(S(=O)(=O)[O-])cc6F)c6ccc2[nH]6)C=C5)C=C4)cc1)C(=O)O3
REMARK SMILES IDX 34 1 33 2 32 3 30 4 31 5 19 7 18 8 16 9 17 10 15 12 14 13
REMARK SMILES IDX 1 14 2 15 3 16 10 17 4 18 9 19 11 20 5 21 8 22 6 23 7 24
REMARK SMILES IDX 107 25 12 26 105 27 13 28 106 29 20 30 21 31 22 32 29 33
REMARK SMILES IDX 23 34 27 35 28 36 24 37 26 38 25 39 35 40 36 41 37 42 38 44
REMARK SMILES IDX 39 45 40 46 104 47 41 48 103 49 42 50 43 51 44 52 97 53
REMARK SMILES IDX 45 54 102 55 96 56 98 57 46 58 101 59 95 60 94 61 47 63
REMARK SMILES IDX 81 64 60 65 80 66 61 67 64 68 79 69 99 70 62 71 63 72 78 74
REMARK SMILES IDX 100 75 65 76 48 77 49 78 58 79 50 80 51 81 57 82 59 83 52 84
REMARK SMILES IDX 53 85 54 86 55 87 56 88 82 89 83 90 92 91 84 92 85 93 91 94
REMARK SMILES IDX 93 95 86 96 87 97 88 98 89 99 90 100 66 101 67 102 76 103
REMARK SMILES IDX 68 104 69 105 75 106 77 107 70 108 71 109 72 110 73 111
REMARK SMILES IDX 74 112
REMARK H PARENT 32 6 18 11 36 43 98 62 64 73
REMARK Flexibility Score: inf
ROOT
ATOM      1  C   UNL A   1      33.080  29.584  27.619  1.00  0.00     0.042 C 
ENDROOT
BRANCH   1   2
ATOM      2  C   UNL A   1      32.875  28.442  26.641  1.00  0.00     0.117 C 
BRANCH   2   3
ATOM      3  N   UNL A   1      33.689  28.583  25.442  1.00  0.00    -0.354 N 
ATOM      4  C   UNL A   1      33.298  28.529  24.134  1.00  0.00     0.242 C 
ATOM      5  O   UNL A   1      34.171  28.495  23.265  1.00  0.00    -0.273 OA
ATOM      6  H   UNL A   1      34.650  28.737  25.594  1.00  0.00     0.163 HD
BRANCH   4   7
ATOM      7  C   UNL A   1      31.830  28.329  23.767  1.00  0.00     0.175 C 
BRANCH   7   8
ATOM      8  N   UNL A   1      31.639  27.670  22.446  1.00  0.00    -0.344 N 
ATOM      9  C   UNL A   1      31.386  26.396  22.022  1.00  0.00     0.221 C 
ATOM     10  O   UNL A   1      31.205  26.251  20.806  1.00  0.00    -0.275 OA
ATOM     11  H   UNL A   1      31.709  28.306  21.698  1.00  0.00     0.164 HD
BRANCH   9  12
ATOM     12  C   UNL A   1      31.336  25.143  22.910  1.00  0.00     0.116 C 
BRANCH  12  13
ATOM     13  C   UNL A   1      32.690  24.676  23.475  1.00  0.00     0.116 C 
ATOM     14  C   UNL A   1      39.931  21.452  26.382  1.00  0.00     0.088 C 
ATOM     15  C   UNL A   1      38.622  21.777  25.776  1.00  0.00     0.105 A 
ATOM     16  O   UNL A   1      38.221  23.063  25.941  1.00  0.00    -0.461 OA
ATOM     17  C   UNL A   1      37.640  21.046  25.119  1.00  0.00    -0.002 A 
ATOM     18  C   UNL A   1      36.983  23.169  25.405  1.00  0.00     0.138 A 
ATOM     19  C   UNL A   1      36.598  21.981  24.795  1.00  0.00     0.024 A 
ATOM     20  C   UNL A   1      37.638  19.581  24.887  1.00  0.00     0.049 C 
ATOM     21  C   UNL A   1      36.176  24.284  25.522  1.00  0.00     0.095 A 
ATOM     22  C   UNL A   1      35.348  21.949  24.115  1.00  0.00     0.020 A 
ATOM     23  C   UNL A   1      34.904  24.155  24.971  1.00  0.00     0.138 A 
ATOM     24  C   UNL A   1      34.496  23.078  24.163  1.00  0.00    -0.001 A 
ATOM     25  O   UNL A   1      34.000  25.130  25.416  1.00  0.00    -0.426 OA
ATOM     26  C   UNL A   1      33.136  23.180  23.434  1.00  0.00     0.035 C 
ATOM     27  C   UNL A   1      32.714  24.986  24.951  1.00  0.00     0.315 C 
ATOM     28  C   UNL A   1      33.225  22.638  22.001  1.00  0.00     0.014 C 
ATOM     29  O   UNL A   1      31.727  25.102  25.665  1.00  0.00    -0.251 OA
ENDBRANCH  12  13
ENDBRANCH   9  12
ENDBRANCH   7   8
BRANCH   7  30
ATOM     30  C   UNL A   1      31.241  29.805  23.902  1.00  0.00     0.068 C 
BRANCH  30  31
ATOM     31  C   UNL A   1      29.793  29.911  23.562  1.00  0.00    -0.037 C 
ATOM     32  C   UNL A   1      29.082  30.969  23.176  1.00  0.00     0.001 A 
ATOM     33  C   UNL A   1      28.987  28.687  23.288  1.00  0.00     0.174 C 
ATOM     34  C   UNL A   1      29.032  32.386  23.343  1.00  0.00     0.010 A 
ATOM     35  C   UNL A   1      28.385  30.318  22.037  1.00  0.00     0.065 A 
ATOM     36  N   UNL A   1      28.311  29.017  22.025  1.00  0.00    -0.280 NA
ATOM     37  C   UNL A   1      28.378  33.114  22.420  1.00  0.00     0.001 A 
ATOM     38  C   UNL A   1      28.004  31.211  20.923  1.00  0.00     0.028 A 
ATOM     39  C   UNL A   1      28.015  32.537  21.137  1.00  0.00     0.002 A 
ENDBRANCH  30  31
ENDBRANCH   7  30
ENDBRANCH   4   7
ENDBRANCH   2   3
ENDBRANCH   1   2
BRANCH   1  40
ATOM     40  C   UNL A   1      34.463  30.218  27.445  1.00  0.00     0.118 C 
BRANCH  40  41
ATOM     41  N   UNL A   1      34.468  31.668  27.459  1.00  0.00    -0.352 N 
ATOM     42  C   UNL A   1      35.362  32.528  28.059  1.00  0.00     0.251 C 
ATOM     43  H   UNL A   1      33.729  32.099  26.971  1.00  0.00     0.163 HD
ATOM     44  O   UNL A   1      35.243  33.725  27.977  1.00  0.00    -0.269 OA
BRANCH  42  45
ATOM     45  C   UNL A   1      36.425  31.915  28.878  1.00  0.00     0.039 A 
ATOM     46  C   UNL A   1      36.466  32.137  30.256  1.00  0.00     0.014 A 
ATOM     47  C   UNL A   1      37.454  31.249  28.209  1.00  0.00     0.014 A 
ATOM     48  C   UNL A   1      37.606  31.775  30.961  1.00  0.00     0.010 A 
ATOM     49  C   UNL A   1      38.581  30.864  28.923  1.00  0.00     0.010 A 
ATOM     50  C   UNL A   1      38.669  31.155  30.291  1.00  0.00    -0.014 A 
BRANCH  50  51
ATOM     51  C   UNL A   1      39.845  30.794  31.093  1.00  0.00     0.031 A 
ATOM     52  C   UNL A   1      40.508  29.529  30.661  1.00  0.00     0.074 A 
ATOM     53  C   UNL A   1      40.631  31.746  31.636  1.00  0.00     0.049 A 
ATOM     54  N   UNL A   1      41.285  29.468  29.619  1.00  0.00    -0.248 NA
ATOM     55  C   UNL A   1      40.126  28.223  31.195  1.00  0.00     0.031 C 
ATOM     56  C   UNL A   1      40.875  33.065  31.034  1.00  0.00     0.029 A 
ATOM     57  N   UNL A   1      41.550  31.659  32.651  1.00  0.00    -0.354 N 
ATOM     58  C   UNL A   1      41.456  28.131  29.318  1.00  0.00     0.074 A 
ATOM     59  C   UNL A   1      40.729  27.396  30.328  1.00  0.00     0.031 C 
ATOM     60  C   UNL A   1      42.005  33.574  31.564  1.00  0.00     0.029 A 
ATOM     61  C   UNL A   1      42.465  32.706  32.640  1.00  0.00     0.049 A 
ATOM     62  H   UNL A   1      41.560  30.932  33.316  1.00  0.00     0.167 HD
ATOM     63  C   UNL A   1      42.175  27.707  28.248  1.00  0.00     0.037 A 
ATOM     64  C   UNL A   1      43.738  32.618  33.115  1.00  0.00     0.037 A 
ATOM     65  C   UNL A   1      42.799  28.737  27.470  1.00  0.00     0.049 A 
ATOM     66  C   UNL A   1      44.388  31.865  31.977  1.00  0.00     0.074 A 
ATOM     67  C   UNL A   1      42.492  29.487  26.355  1.00  0.00     0.029 A 
ATOM     68  N   UNL A   1      44.009  29.228  27.905  1.00  0.00    -0.354 N 
ATOM     69  N   UNL A   1      44.784  32.379  30.839  1.00  0.00    -0.248 NA
ATOM     70  C   UNL A   1      44.252  30.405  31.962  1.00  0.00     0.031 C 
ATOM     71  C   UNL A   1      43.301  30.662  26.450  1.00  0.00     0.029 A 
ATOM     72  C   UNL A   1      44.007  30.576  27.649  1.00  0.00     0.049 A 
ATOM     73  H   UNL A   1      44.736  28.710  28.320  1.00  0.00     0.167 HD
ATOM     74  C   UNL A   1      44.658  31.348  29.903  1.00  0.00     0.074 A 
ATOM     75  C   UNL A   1      44.373  30.153  30.668  1.00  0.00     0.031 C 
ATOM     76  C   UNL A   1      44.587  31.545  28.554  1.00  0.00     0.037 A 
BRANCH  63  77
ATOM     77  C   UNL A   1      42.468  26.295  27.938  1.00  0.00     0.058 A 
ATOM     78  C   UNL A   1      43.748  25.806  28.232  1.00  0.00     0.135 A 
ATOM     79  C   UNL A   1      41.613  25.503  27.165  1.00  0.00     0.135 A 
ATOM     80  F   UNL A   1      44.594  26.541  28.975  1.00  0.00    -0.206 F 
ATOM     81  C   UNL A   1      44.199  24.601  27.716  1.00  0.00     0.059 A 
ATOM     82  C   UNL A   1      42.040  24.285  26.641  1.00  0.00     0.059 A 
ATOM     83  F   UNL A   1      40.379  25.935  26.862  1.00  0.00    -0.206 F 
ATOM     84  C   UNL A   1      43.348  23.862  26.895  1.00  0.00     0.060 A 
BRANCH  84  85
ATOM     85  S   UNL A   1      44.010  22.374  26.119  1.00  0.00     0.124 S 
ATOM     86  O   UNL A   1      45.433  22.491  26.416  1.00  0.00    -0.237 OA
ATOM     87  O   UNL A   1      43.295  21.318  26.831  1.00  0.00    -0.237 OA
ATOM     88  O   UNL A   1      43.647  22.533  24.713  1.00  0.00    -0.744 OA
ENDBRANCH  84  85
ENDBRANCH  63  77
BRANCH  64  89
ATOM     89  C   UNL A   1      43.785  32.211  34.559  1.00  0.00     0.058 A 
ATOM     90  C   UNL A   1      44.461  33.072  35.454  1.00  0.00     0.135 A 
ATOM     91  C   UNL A   1      43.146  31.106  35.135  1.00  0.00     0.135 A 
ATOM     92  F   UNL A   1      45.223  34.074  34.983  1.00  0.00    -0.206 F 
ATOM     93  C   UNL A   1      44.329  32.967  36.834  1.00  0.00     0.059 A 
ATOM     94  C   UNL A   1      42.980  30.989  36.516  1.00  0.00     0.059 A 
ATOM     95  F   UNL A   1      42.626  30.132  34.375  1.00  0.00    -0.206 F 
ATOM     96  C   UNL A   1      43.530  31.956  37.353  1.00  0.00     0.060 A 
BRANCH  96  97
ATOM     97  S   UNL A   1      43.155  31.987  39.117  1.00  0.00     0.124 S 
ATOM     98  O   UNL A   1      41.704  31.846  39.123  1.00  0.00    -0.237 OA
ATOM     99  O   UNL A   1      43.911  30.834  39.597  1.00  0.00    -0.237 OA
ATOM    100  O   UNL A   1      43.665  33.285  39.547  1.00  0.00    -0.744 OA
ENDBRANCH  96  97
ENDBRANCH  64  89
BRANCH  76 101
ATOM    101  C   UNL A   1      44.892  32.922  28.072  1.00  0.00     0.058 A 
ATOM    102  C   UNL A   1      43.880  33.892  28.026  1.00  0.00     0.135 A 
ATOM    103  C   UNL A   1      46.194  33.316  27.724  1.00  0.00     0.135 A 
ATOM    104  F   UNL A   1      42.619  33.571  28.360  1.00  0.00    -0.206 F 
ATOM    105  C   UNL A   1      44.155  35.211  27.682  1.00  0.00     0.059 A 
ATOM    106  C   UNL A   1      46.495  34.635  27.401  1.00  0.00     0.059 A 
ATOM    107  F   UNL A   1      47.203  32.429  27.724  1.00  0.00    -0.206 F 
ATOM    108  C   UNL A   1      45.469  35.576  27.385  1.00  0.00     0.060 A 
BRANCH 108 109
ATOM    109  S   UNL A   1      45.833  37.310  27.040  1.00  0.00     0.124 S 
ATOM    110  O   UNL A   1      44.498  37.897  27.002  1.00  0.00    -0.237 OA
ATOM    111  O   UNL A   1      46.663  37.688  28.179  1.00  0.00    -0.237 OA
ATOM    112  O   UNL A   1      46.528  37.262  25.755  1.00  0.00    -0.744 OA
ENDBRANCH 108 109
ENDBRANCH  76 101
ENDBRANCH  50  51
ENDBRANCH  42  45
ENDBRANCH  40  41
ENDBRANCH   1  40
TORSDOF 18
ENDMDL
