MODEL 1
REMARK VINA RESULT:     -12.2      0.000      0.000
REMARK SMILES CC1=C2C(=O)N(C[C@H]3CCCO3)C(=O)N=C2S[C@@H]1C(=O)NCCCNC(=O)c1ccc(-c2c3nc(c(-c4c(F)cc(S(=O)(=O)[O-])cc4F)c4ccc([nH]4)c(-c4c(F)cc(S(=O)(=O)[O-])cc4F)c4nc(c(-c5c(F)cc(S(=O)(=O)[O-])cc5F)c5ccc2[nH]5)C=C4)C=C3)cc1
REMARK SMILES IDX 23 1 22 2 21 3 19 4 20 5 18 7 1 8 2 9 3 10 4 11 16 12 17 13
REMARK SMILES IDX 5 14 6 15 15 16 13 17 14 18 7 19 8 20 9 21 12 22 10 23 11 24
REMARK SMILES IDX 24 25 25 26 26 27 27 29 28 30 29 31 93 32 30 33 92 34 31 35
REMARK SMILES IDX 32 36 33 37 86 38 34 39 91 40 85 41 87 42 35 43 90 44 84 45
REMARK SMILES IDX 83 46 36 48 70 49 49 50 69 51 50 52 53 53 68 54 88 55 51 56
REMARK SMILES IDX 52 57 67 59 89 60 54 61 37 62 38 63 47 64 39 65 40 66 46 67
REMARK SMILES IDX 48 68 41 69 42 70 43 71 44 72 45 73 71 74 72 75 81 76 73 77
REMARK SMILES IDX 74 78 80 79 82 80 75 81 76 82 77 83 78 84 79 85 55 86 56 87
REMARK SMILES IDX 65 88 57 89 58 90 64 91 66 92 59 93 60 94 61 95 62 96 63 97
REMARK H PARENT 21 6 25 28 87 47 53 58
REMARK Flexibility Score: inf
ROOT
ATOM      1  C   UNL A   1      33.432  28.010  25.444  1.00  0.00     0.042 C 
ENDROOT
BRANCH   1   2
ATOM      2  C   UNL A   1      32.100  27.313  25.216  1.00  0.00     0.117 C 
BRANCH   2   3
ATOM      3  N   UNL A   1      31.367  27.872  24.093  1.00  0.00    -0.355 N 
ATOM      4  C   UNL A   1      31.166  27.411  22.826  1.00  0.00     0.237 C 
ATOM      5  O   UNL A   1      30.458  28.100  22.083  1.00  0.00    -0.273 OA
ATOM      6  H   UNL A   1      30.939  28.738  24.281  1.00  0.00     0.163 HD
BRANCH   4   7
ATOM      7  C   UNL A   1      31.727  26.073  22.323  1.00  0.00     0.169 C 
ATOM      8  C   UNL A   1      29.995  24.606  23.541  1.00  0.00     0.042 C 
ATOM      9  C   UNL A   1      31.425  24.891  23.204  1.00  0.00    -0.035 C 
ATOM     10  C   UNL A   1      32.496  24.193  23.608  1.00  0.00     0.073 C 
ATOM     11  C   UNL A   1      32.593  23.067  24.531  1.00  0.00     0.264 C 
ATOM     12  C   UNL A   1      33.751  24.657  23.049  1.00  0.00     0.116 C 
ATOM     13  S   UNL A   1      33.544  26.135  22.161  1.00  0.00    -0.087 SA
ATOM     14  O   UNL A   1      31.808  22.943  25.459  1.00  0.00    -0.268 OA
ATOM     15  N   UNL A   1      33.684  22.276  24.267  1.00  0.00    -0.256 N 
ATOM     16  N   UNL A   1      34.874  24.059  23.178  1.00  0.00    -0.186 NA
ATOM     17  C   UNL A   1      34.886  22.825  23.788  1.00  0.00     0.351 C 
ATOM     18  O   UNL A   1      35.940  22.202  23.883  1.00  0.00    -0.246 OA
BRANCH  15  19
ATOM     19  C   UNL A   1      33.629  20.825  24.451  1.00  0.00     0.163 C 
BRANCH  19  20
ATOM     20  C   UNL A   1      32.350  20.031  24.121  1.00  0.00     0.138 C 
ATOM     21  C   UNL A   1      32.391  19.111  22.905  1.00  0.00     0.036 C 
ATOM     22  O   UNL A   1      32.136  19.119  25.233  1.00  0.00    -0.376 OA
ATOM     23  C   UNL A   1      33.020  17.850  23.429  1.00  0.00     0.031 C 
ATOM     24  C   UNL A   1      32.473  17.781  24.833  1.00  0.00     0.160 C 
ENDBRANCH  19  20
ENDBRANCH  15  19
ENDBRANCH   4   7
ENDBRANCH   2   3
ENDBRANCH   1   2
BRANCH   1  25
ATOM     25  C   UNL A   1      33.749  28.207  26.918  1.00  0.00     0.118 C 
BRANCH  25  26
ATOM     26  N   UNL A   1      33.616  29.600  27.329  1.00  0.00    -0.352 N 
ATOM     27  C   UNL A   1      34.507  30.392  28.012  1.00  0.00     0.251 C 
ATOM     28  H   UNL A   1      32.768  30.035  27.083  1.00  0.00     0.163 HD
ATOM     29  O   UNL A   1      34.150  31.485  28.442  1.00  0.00    -0.269 OA
BRANCH  27  30
ATOM     30  C   UNL A   1      35.883  29.910  28.238  1.00  0.00     0.039 A 
ATOM     31  C   UNL A   1      36.836  30.061  27.227  1.00  0.00     0.014 A 
ATOM     32  C   UNL A   1      36.233  29.327  29.457  1.00  0.00     0.014 A 
ATOM     33  C   UNL A   1      38.160  29.687  27.466  1.00  0.00     0.010 A 
ATOM     34  C   UNL A   1      37.564  29.028  29.721  1.00  0.00     0.010 A 
ATOM     35  C   UNL A   1      38.538  29.202  28.727  1.00  0.00    -0.014 A 
BRANCH  35  36
ATOM     36  C   UNL A   1      39.941  28.840  29.044  1.00  0.00     0.031 A 
ATOM     37  C   UNL A   1      40.859  29.885  29.617  1.00  0.00     0.074 A 
ATOM     38  C   UNL A   1      40.414  27.622  28.717  1.00  0.00     0.049 A 
ATOM     39  N   UNL A   1      42.155  29.848  29.780  1.00  0.00    -0.248 NA
ATOM     40  C   UNL A   1      40.236  31.156  30.023  1.00  0.00     0.031 C 
ATOM     41  C   UNL A   1      39.630  26.538  28.120  1.00  0.00     0.029 A 
ATOM     42  N   UNL A   1      41.678  27.099  28.816  1.00  0.00    -0.354 N 
ATOM     43  C   UNL A   1      42.509  31.101  30.266  1.00  0.00     0.074 A 
ATOM     44  C   UNL A   1      41.295  31.886  30.341  1.00  0.00     0.031 C 
ATOM     45  C   UNL A   1      40.428  25.479  27.914  1.00  0.00     0.029 A 
ATOM     46  C   UNL A   1      41.787  25.820  28.325  1.00  0.00     0.049 A 
ATOM     47  H   UNL A   1      42.436  27.594  29.203  1.00  0.00     0.167 HD
ATOM     48  C   UNL A   1      43.732  31.551  30.629  1.00  0.00     0.037 A 
ATOM     49  C   UNL A   1      42.864  25.021  28.204  1.00  0.00     0.037 A 
ATOM     50  C   UNL A   1      44.924  30.748  30.600  1.00  0.00     0.049 A 
ATOM     51  C   UNL A   1      44.206  25.527  28.657  1.00  0.00     0.074 A 
ATOM     52  C   UNL A   1      46.205  31.090  30.996  1.00  0.00     0.029 A 
ATOM     53  N   UNL A   1      44.978  29.432  30.162  1.00  0.00    -0.354 N 
ATOM     54  N   UNL A   1      44.521  26.706  29.139  1.00  0.00    -0.248 NA
ATOM     55  C   UNL A   1      45.338  24.596  28.555  1.00  0.00     0.031 C 
ATOM     56  C   UNL A   1      47.037  29.985  30.781  1.00  0.00     0.029 A 
ATOM     57  C   UNL A   1      46.268  28.947  30.281  1.00  0.00     0.049 A 
ATOM     58  H   UNL A   1      44.211  28.920  29.818  1.00  0.00     0.167 HD
ATOM     59  C   UNL A   1      45.879  26.649  29.424  1.00  0.00     0.074 A 
ATOM     60  C   UNL A   1      46.328  25.319  29.063  1.00  0.00     0.031 C 
ATOM     61  C   UNL A   1      46.684  27.610  29.938  1.00  0.00     0.037 A 
BRANCH  48  62
ATOM     62  C   UNL A   1      43.836  32.976  31.093  1.00  0.00     0.058 A 
ATOM     63  C   UNL A   1      43.945  34.040  30.185  1.00  0.00     0.135 A 
ATOM     64  C   UNL A   1      43.814  33.284  32.463  1.00  0.00     0.135 A 
ATOM     65  F   UNL A   1      43.990  33.799  28.864  1.00  0.00    -0.206 F 
ATOM     66  C   UNL A   1      44.065  35.356  30.617  1.00  0.00     0.059 A 
ATOM     67  C   UNL A   1      43.907  34.596  32.917  1.00  0.00     0.059 A 
ATOM     68  F   UNL A   1      43.713  32.304  33.375  1.00  0.00    -0.206 F 
ATOM     69  C   UNL A   1      44.051  35.624  31.986  1.00  0.00     0.060 A 
BRANCH  69  70
ATOM     70  S   UNL A   1      44.216  37.335  32.537  1.00  0.00     0.124 S 
ATOM     71  O   UNL A   1      43.091  37.451  33.460  1.00  0.00    -0.237 OA
ATOM     72  O   UNL A   1      45.540  37.343  33.152  1.00  0.00    -0.237 OA
ATOM     73  O   UNL A   1      44.097  38.102  31.302  1.00  0.00    -0.744 OA
ENDBRANCH  69  70
ENDBRANCH  48  62
BRANCH  49  74
ATOM     74  C   UNL A   1      42.712  23.650  27.652  1.00  0.00     0.058 A 
ATOM     75  C   UNL A   1      42.463  22.561  28.500  1.00  0.00     0.135 A 
ATOM     76  C   UNL A   1      42.790  23.402  26.273  1.00  0.00     0.135 A 
ATOM     77  F   UNL A   1      42.384  22.751  29.827  1.00  0.00    -0.206 F 
ATOM     78  C   UNL A   1      42.313  21.271  28.006  1.00  0.00     0.059 A 
ATOM     79  C   UNL A   1      42.622  22.123  25.752  1.00  0.00     0.059 A 
ATOM     80  F   UNL A   1      43.008  24.414  25.419  1.00  0.00    -0.206 F 
ATOM     81  C   UNL A   1      42.394  21.062  26.628  1.00  0.00     0.060 A 
BRANCH  81  82
ATOM     82  S   UNL A   1      42.149  19.389  25.990  1.00  0.00     0.124 S 
ATOM     83  O   UNL A   1      40.714  19.381  25.732  1.00  0.00    -0.237 OA
ATOM     84  O   UNL A   1      43.009  19.380  24.810  1.00  0.00    -0.237 OA
ATOM     85  O   UNL A   1      42.600  18.544  27.090  1.00  0.00    -0.744 OA
ENDBRANCH  81  82
ENDBRANCH  49  74
BRANCH  61  86
ATOM     86  C   UNL A   1      48.118  27.249  30.194  1.00  0.00     0.058 A 
ATOM     87  C   UNL A   1      49.122  27.514  29.252  1.00  0.00     0.135 A 
ATOM     88  C   UNL A   1      48.498  26.698  31.428  1.00  0.00     0.135 A 
ATOM     89  F   UNL A   1      48.806  28.035  28.055  1.00  0.00    -0.206 F 
ATOM     90  C   UNL A   1      50.458  27.237  29.521  1.00  0.00     0.059 A 
ATOM     91  C   UNL A   1      49.829  26.431  31.727  1.00  0.00     0.059 A 
ATOM     92  F   UNL A   1      47.572  26.434  32.364  1.00  0.00    -0.206 F 
ATOM     93  C   UNL A   1      50.802  26.698  30.763  1.00  0.00     0.060 A 
BRANCH  93  94
ATOM     94  S   UNL A   1      52.545  26.394  31.127  1.00  0.00     0.124 S 
ATOM     95  O   UNL A   1      52.474  25.152  31.888  1.00  0.00    -0.237 OA
ATOM     96  O   UNL A   1      53.131  26.289  29.793  1.00  0.00    -0.237 OA
ATOM     97  O   UNL A   1      52.942  27.576  31.886  1.00  0.00    -0.744 OA
ENDBRANCH  93  94
ENDBRANCH  61  86
ENDBRANCH  35  36
ENDBRANCH  27  30
ENDBRANCH  25  26
ENDBRANCH   1  25
TORSDOF 15
ENDMDL
MODEL 2
REMARK VINA RESULT:     -12.1      4.177      7.225
REMARK SMILES CC1=C2C(=O)N(C[C@H]3CCCO3)C(=O)N=C2S[C@@H]1C(=O)NCCCNC(=O)c1ccc(-c2c3nc(c(-c4c(F)cc(S(=O)(=O)[O-])cc4F)c4ccc([nH]4)c(-c4c(F)cc(S(=O)(=O)[O-])cc4F)c4nc(c(-c5c(F)cc(S(=O)(=O)[O-])cc5F)c5ccc2[nH]5)C=C4)C=C3)cc1
REMARK SMILES IDX 23 1 22 2 21 3 19 4 20 5 18 7 1 8 2 9 3 10 4 11 16 12 17 13
REMARK SMILES IDX 5 14 6 15 15 16 13 17 14 18 7 19 8 20 9 21 12 22 10 23 11 24
REMARK SMILES IDX 24 25 25 26 26 27 27 29 28 30 29 31 93 32 30 33 92 34 31 35
REMARK SMILES IDX 32 36 33 37 86 38 34 39 91 40 85 41 87 42 35 43 90 44 84 45
REMARK SMILES IDX 83 46 36 48 70 49 49 50 69 51 50 52 53 53 68 54 88 55 51 56
REMARK SMILES IDX 52 57 67 59 89 60 54 61 37 62 38 63 47 64 39 65 40 66 46 67
REMARK SMILES IDX 48 68 41 69 42 70 43 71 44 72 45 73 71 74 72 75 81 76 73 77
REMARK SMILES IDX 74 78 80 79 82 80 75 81 76 82 77 83 78 84 79 85 55 86 56 87
REMARK SMILES IDX 65 88 57 89 58 90 64 91 66 92 59 93 60 94 61 95 62 96 63 97
REMARK H PARENT 21 6 25 28 87 47 53 58
REMARK Flexibility Score: inf
ROOT
ATOM      1  C   UNL A   1      34.400  34.215  28.515  1.00  0.00     0.042 C 
ENDROOT
BRANCH   1   2
ATOM      2  C   UNL A   1      34.680  34.725  29.919  1.00  0.00     0.117 C 
BRANCH   2   3
ATOM      3  N   UNL A   1      33.970  33.969  30.936  1.00  0.00    -0.355 N 
ATOM      4  C   UNL A   1      34.349  33.540  32.173  1.00  0.00     0.237 C 
ATOM      5  O   UNL A   1      33.504  32.933  32.840  1.00  0.00    -0.273 OA
ATOM      6  H   UNL A   1      33.049  33.722  30.687  1.00  0.00     0.163 HD
BRANCH   4   7
ATOM      7  C   UNL A   1      35.733  33.829  32.771  1.00  0.00     0.169 C 
ATOM      8  C   UNL A   1      37.040  32.407  31.066  1.00  0.00     0.042 C 
ATOM      9  C   UNL A   1      36.773  32.777  32.491  1.00  0.00    -0.035 C 
ATOM     10  C   UNL A   1      37.372  32.266  33.576  1.00  0.00     0.073 C 
ATOM     11  C   UNL A   1      38.340  31.180  33.694  1.00  0.00     0.264 C 
ATOM     12  C   UNL A   1      36.967  32.883  34.824  1.00  0.00     0.116 C 
ATOM     13  S   UNL A   1      35.649  33.989  34.588  1.00  0.00    -0.087 SA
ATOM     14  O   UNL A   1      38.341  30.247  32.903  1.00  0.00    -0.268 OA
ATOM     15  N   UNL A   1      39.133  31.314  34.806  1.00  0.00    -0.256 N 
ATOM     16  N   UNL A   1      37.508  32.658  35.960  1.00  0.00    -0.186 NA
ATOM     17  C   UNL A   1      38.632  31.865  35.998  1.00  0.00     0.351 C 
ATOM     18  O   UNL A   1      39.206  31.670  37.067  1.00  0.00    -0.246 OA
BRANCH  15  19
ATOM     19  C   UNL A   1      40.539  30.908  34.787  1.00  0.00     0.163 C 
BRANCH  19  20
ATOM     20  C   UNL A   1      40.941  29.430  34.955  1.00  0.00     0.138 C 
ATOM     21  C   UNL A   1      41.269  28.644  33.690  1.00  0.00     0.036 C 
ATOM     22  O   UNL A   1      42.194  29.428  35.694  1.00  0.00    -0.376 OA
ATOM     23  C   UNL A   1      42.706  28.987  33.416  1.00  0.00     0.031 C 
ATOM     24  C   UNL A   1      43.277  29.105  34.807  1.00  0.00     0.160 C 
ENDBRANCH  19  20
ENDBRANCH  15  19
ENDBRANCH   4   7
ENDBRANCH   2   3
ENDBRANCH   1   2
BRANCH   1  25
ATOM     25  C   UNL A   1      35.127  32.915  28.204  1.00  0.00     0.118 C 
BRANCH  25  26
ATOM     26  N   UNL A   1      34.205  31.802  28.010  1.00  0.00    -0.352 N 
ATOM     27  C   UNL A   1      34.479  30.462  27.877  1.00  0.00     0.251 C 
ATOM     28  H   UNL A   1      33.252  32.044  27.966  1.00  0.00     0.163 HD
ATOM     29  O   UNL A   1      33.593  29.688  27.526  1.00  0.00    -0.269 OA
BRANCH  27  30
ATOM     30  C   UNL A   1      35.845  29.969  28.141  1.00  0.00     0.039 A 
ATOM     31  C   UNL A   1      36.824  30.102  27.153  1.00  0.00     0.014 A 
ATOM     32  C   UNL A   1      36.158  29.392  29.373  1.00  0.00     0.014 A 
ATOM     33  C   UNL A   1      38.138  29.718  27.428  1.00  0.00     0.010 A 
ATOM     34  C   UNL A   1      37.479  29.083  29.672  1.00  0.00     0.010 A 
ATOM     35  C   UNL A   1      38.480  29.240  28.702  1.00  0.00    -0.014 A 
BRANCH  35  36
ATOM     36  C   UNL A   1      39.871  28.867  29.058  1.00  0.00     0.031 A 
ATOM     37  C   UNL A   1      40.776  29.900  29.670  1.00  0.00     0.074 A 
ATOM     38  C   UNL A   1      40.347  27.650  28.731  1.00  0.00     0.049 A 
ATOM     39  N   UNL A   1      42.066  29.855  29.872  1.00  0.00    -0.248 NA
ATOM     40  C   UNL A   1      40.147  31.170  30.071  1.00  0.00     0.031 C 
ATOM     41  C   UNL A   1      39.576  26.577  28.098  1.00  0.00     0.029 A 
ATOM     42  N   UNL A   1      41.605  27.120  28.863  1.00  0.00    -0.354 N 
ATOM     43  C   UNL A   1      42.411  31.101  30.382  1.00  0.00     0.074 A 
ATOM     44  C   UNL A   1      41.199  31.891  30.429  1.00  0.00     0.031 C 
ATOM     45  C   UNL A   1      40.375  25.516  27.905  1.00  0.00     0.029 A 
ATOM     46  C   UNL A   1      41.723  25.845  28.361  1.00  0.00     0.049 A 
ATOM     47  H   UNL A   1      42.354  27.606  29.278  1.00  0.00     0.167 HD
ATOM     48  C   UNL A   1      43.625  31.540  30.787  1.00  0.00     0.037 A 
ATOM     49  C   UNL A   1      42.799  25.042  28.263  1.00  0.00     0.037 A 
ATOM     50  C   UNL A   1      44.814  30.731  30.785  1.00  0.00     0.049 A 
ATOM     51  C   UNL A   1      44.129  25.536  28.763  1.00  0.00     0.074 A 
ATOM     52  C   UNL A   1      46.083  31.062  31.223  1.00  0.00     0.029 A 
ATOM     53  N   UNL A   1      44.874  29.420  30.334  1.00  0.00    -0.354 N 
ATOM     54  N   UNL A   1      44.435  26.707  29.267  1.00  0.00    -0.248 NA
ATOM     55  C   UNL A   1      45.259  24.600  28.684  1.00  0.00     0.031 C 
ATOM     56  C   UNL A   1      46.916  29.955  31.021  1.00  0.00     0.029 A 
ATOM     57  C   UNL A   1      46.158  28.927  30.487  1.00  0.00     0.049 A 
ATOM     58  H   UNL A   1      44.115  28.916  29.961  1.00  0.00     0.167 HD
ATOM     59  C   UNL A   1      45.784  26.640  29.592  1.00  0.00     0.074 A 
ATOM     60  C   UNL A   1      46.236  25.312  29.230  1.00  0.00     0.031 C 
ATOM     61  C   UNL A   1      46.577  27.591  30.142  1.00  0.00     0.037 A 
BRANCH  48  62
ATOM     62  C   UNL A   1      43.721  32.959  31.270  1.00  0.00     0.058 A 
ATOM     63  C   UNL A   1      43.934  34.026  30.383  1.00  0.00     0.135 A 
ATOM     64  C   UNL A   1      43.590  33.259  32.635  1.00  0.00     0.135 A 
ATOM     65  F   UNL A   1      44.086  33.792  29.069  1.00  0.00    -0.206 F 
ATOM     66  C   UNL A   1      44.047  35.336  30.835  1.00  0.00     0.059 A 
ATOM     67  C   UNL A   1      43.674  34.566  33.107  1.00  0.00     0.059 A 
ATOM     68  F   UNL A   1      43.387  32.276  33.527  1.00  0.00    -0.206 F 
ATOM     69  C   UNL A   1      43.921  35.595  32.200  1.00  0.00     0.060 A 
BRANCH  69  70
ATOM     70  S   UNL A   1      44.078  37.299  32.777  1.00  0.00     0.124 S 
ATOM     71  O   UNL A   1      42.945  37.399  33.693  1.00  0.00    -0.237 OA
ATOM     72  O   UNL A   1      45.397  37.300  33.402  1.00  0.00    -0.237 OA
ATOM     73  O   UNL A   1      43.967  38.084  31.553  1.00  0.00    -0.744 OA
ENDBRANCH  69  70
ENDBRANCH  48  62
BRANCH  49  74
ATOM     74  C   UNL A   1      42.657  23.678  27.692  1.00  0.00     0.058 A 
ATOM     75  C   UNL A   1      42.459  22.569  28.528  1.00  0.00     0.135 A 
ATOM     76  C   UNL A   1      42.694  23.456  26.307  1.00  0.00     0.135 A 
ATOM     77  F   UNL A   1      42.419  22.734  29.859  1.00  0.00    -0.206 F 
ATOM     78  C   UNL A   1      42.318  21.285  28.015  1.00  0.00     0.059 A 
ATOM     79  C   UNL A   1      42.536  22.183  25.768  1.00  0.00     0.059 A 
ATOM     80  F   UNL A   1      42.863  24.488  25.465  1.00  0.00    -0.206 F 
ATOM     81  C   UNL A   1      42.358  21.102  26.631  1.00  0.00     0.060 A 
BRANCH  81  82
ATOM     82  S   UNL A   1      42.127  19.436  25.971  1.00  0.00     0.124 S 
ATOM     83  O   UNL A   1      42.608  18.615  27.076  1.00  0.00    -0.237 OA
ATOM     84  O   UNL A   1      40.689  19.398  25.726  1.00  0.00    -0.237 OA
ATOM     85  O   UNL A   1      42.959  19.435  24.772  1.00  0.00    -0.744 OA
ENDBRANCH  81  82
ENDBRANCH  49  74
BRANCH  61  86
ATOM     86  C   UNL A   1      48.001  27.220  30.437  1.00  0.00     0.058 A 
ATOM     87  C   UNL A   1      49.030  27.464  29.517  1.00  0.00     0.135 A 
ATOM     88  C   UNL A   1      48.345  26.680  31.686  1.00  0.00     0.135 A 
ATOM     89  F   UNL A   1      48.749  27.973  28.306  1.00  0.00    -0.206 F 
ATOM     90  C   UNL A   1      50.356  27.178  29.822  1.00  0.00     0.059 A 
ATOM     91  C   UNL A   1      49.666  26.404  32.020  1.00  0.00     0.059 A 
ATOM     92  F   UNL A   1      47.394  26.436  32.602  1.00  0.00    -0.206 F 
ATOM     93  C   UNL A   1      50.665  26.651  31.078  1.00  0.00     0.060 A 
BRANCH  93  94
ATOM     94  S   UNL A   1      52.395  26.335  31.487  1.00  0.00     0.124 S 
ATOM     95  O   UNL A   1      52.636  27.326  32.531  1.00  0.00    -0.237 OA
ATOM     96  O   UNL A   1      52.365  24.943  31.929  1.00  0.00    -0.237 OA
ATOM     97  O   UNL A   1      53.089  26.569  30.225  1.00  0.00    -0.744 OA
ENDBRANCH  93  94
ENDBRANCH  61  86
ENDBRANCH  35  36
ENDBRANCH  27  30
ENDBRANCH  25  26
ENDBRANCH   1  25
TORSDOF 15
ENDMDL
MODEL 3
REMARK VINA RESULT:     -12.0      4.581     11.733
REMARK SMILES CC1=C2C(=O)N(C[C@H]3CCCO3)C(=O)N=C2S[C@@H]1C(=O)NCCCNC(=O)c1ccc(-c2c3nc(c(-c4c(F)cc(S(=O)(=O)[O-])cc4F)c4ccc([nH]4)c(-c4c(F)cc(S(=O)(=O)[O-])cc4F)c4nc(c(-c5c(F)cc(S(=O)(=O)[O-])cc5F)c5ccc2[nH]5)C=C4)C=C3)cc1
REMARK SMILES IDX 23 1 22 2 21 3 19 4 20 5 18 7 1 8 2 9 3 10 4 11 16 12 17 13
REMARK SMILES IDX 5 14 6 15 15 16 13 17 14 18 7 19 8 20 9 21 12 22 10 23 11 24
REMARK SMILES IDX 24 25 25 26 26 27 27 29 28 30 29 31 93 32 30 33 92 34 31 35
REMARK SMILES IDX 32 36 33 37 86 38 34 39 91 40 85 41 87 42 35 43 90 44 84 45
REMARK SMILES IDX 83 46 36 48 70 49 49 50 69 51 50 52 53 53 68 54 88 55 51 56
REMARK SMILES IDX 52 57 67 59 89 60 54 61 37 62 38 63 47 64 39 65 40 66 46 67
REMARK SMILES IDX 48 68 41 69 42 70 43 71 44 72 45 73 71 74 72 75 81 76 73 77
REMARK SMILES IDX 74 78 80 79 82 80 75 81 76 82 77 83 78 84 79 85 55 86 56 87
REMARK SMILES IDX 65 88 57 89 58 90 64 91 66 92 59 93 60 94 61 95 62 96 63 97
REMARK H PARENT 21 6 25 28 87 47 53 58
REMARK Flexibility Score: inf
ROOT
ATOM      1  C   UNL A   1      41.827  22.123  26.148  1.00  0.00     0.042 C 
ENDROOT
BRANCH   1   2
ATOM      2  C   UNL A   1      42.921  22.205  27.201  1.00  0.00     0.117 C 
BRANCH   2   3
ATOM      3  N   UNL A   1      44.253  22.180  26.620  1.00  0.00    -0.355 N 
ATOM      4  C   UNL A   1      45.243  23.116  26.591  1.00  0.00     0.237 C 
ATOM      5  O   UNL A   1      46.303  22.796  26.040  1.00  0.00    -0.273 OA
ATOM      6  H   UNL A   1      44.480  21.336  26.165  1.00  0.00     0.163 HD
BRANCH   4   7
ATOM      7  C   UNL A   1      45.112  24.495  27.252  1.00  0.00     0.169 C 
ATOM      8  C   UNL A   1      43.806  25.575  25.312  1.00  0.00     0.042 C 
ATOM      9  C   UNL A   1      44.935  25.640  26.292  1.00  0.00    -0.035 C 
ATOM     10  C   UNL A   1      45.830  26.631  26.416  1.00  0.00     0.073 C 
ATOM     11  C   UNL A   1      46.024  27.831  25.609  1.00  0.00     0.264 C 
ATOM     12  C   UNL A   1      46.759  26.457  27.515  1.00  0.00     0.116 C 
ATOM     13  S   UNL A   1      46.586  24.894  28.252  1.00  0.00    -0.087 SA
ATOM     14  O   UNL A   1      45.754  27.840  24.416  1.00  0.00    -0.268 OA
ATOM     15  N   UNL A   1      46.602  28.848  26.327  1.00  0.00    -0.256 N 
ATOM     16  N   UNL A   1      47.599  27.337  27.909  1.00  0.00    -0.186 NA
ATOM     17  C   UNL A   1      47.547  28.586  27.333  1.00  0.00     0.351 C 
ATOM     18  O   UNL A   1      48.306  29.470  27.724  1.00  0.00    -0.246 OA
BRANCH  15  19
ATOM     19  C   UNL A   1      46.237  30.246  26.088  1.00  0.00     0.163 C 
BRANCH  19  20
ATOM     20  C   UNL A   1      45.300  30.997  27.054  1.00  0.00     0.138 C 
ATOM     21  C   UNL A   1      45.933  32.021  27.990  1.00  0.00     0.036 C 
ATOM     22  O   UNL A   1      44.412  31.795  26.224  1.00  0.00    -0.376 OA
ATOM     23  C   UNL A   1      46.036  33.263  27.149  1.00  0.00     0.031 C 
ATOM     24  C   UNL A   1      44.789  33.179  26.305  1.00  0.00     0.160 C 
ENDBRANCH  19  20
ENDBRANCH  15  19
ENDBRANCH   4   7
ENDBRANCH   2   3
ENDBRANCH   1   2
BRANCH   1  25
ATOM     25  C   UNL A   1      40.496  21.657  26.716  1.00  0.00     0.118 C 
BRANCH  25  26
ATOM     26  N   UNL A   1      39.366  22.104  25.910  1.00  0.00    -0.352 N 
ATOM     27  C   UNL A   1      38.702  23.306  25.938  1.00  0.00     0.251 C 
ATOM     28  H   UNL A   1      39.031  21.452  25.253  1.00  0.00     0.163 HD
ATOM     29  O   UNL A   1      37.650  23.439  25.320  1.00  0.00    -0.269 OA
BRANCH  27  30
ATOM     30  C   UNL A   1      39.255  24.424  26.728  1.00  0.00     0.039 A 
ATOM     31  C   UNL A   1      40.087  25.357  26.104  1.00  0.00     0.014 A 
ATOM     32  C   UNL A   1      38.933  24.556  28.080  1.00  0.00     0.014 A 
ATOM     33  C   UNL A   1      40.542  26.464  26.823  1.00  0.00     0.010 A 
ATOM     34  C   UNL A   1      39.322  25.697  28.771  1.00  0.00     0.010 A 
ATOM     35  C   UNL A   1      40.132  26.659  28.151  1.00  0.00    -0.014 A 
BRANCH  35  36
ATOM     36  C   UNL A   1      40.548  27.845  28.939  1.00  0.00     0.031 A 
ATOM     37  C   UNL A   1      41.854  27.813  29.683  1.00  0.00     0.074 A 
ATOM     38  C   UNL A   1      39.710  28.891  29.074  1.00  0.00     0.049 A 
ATOM     39  N   UNL A   1      42.315  28.642  30.582  1.00  0.00    -0.248 NA
ATOM     40  C   UNL A   1      42.741  26.670  29.407  1.00  0.00     0.031 C 
ATOM     41  C   UNL A   1      38.400  29.019  28.433  1.00  0.00     0.029 A 
ATOM     42  N   UNL A   1      39.827  30.036  29.821  1.00  0.00    -0.354 N 
ATOM     43  C   UNL A   1      43.522  28.102  31.008  1.00  0.00     0.074 A 
ATOM     44  C   UNL A   1      43.707  26.857  30.293  1.00  0.00     0.031 C 
ATOM     45  C   UNL A   1      37.838  30.180  28.807  1.00  0.00     0.029 A 
ATOM     46  C   UNL A   1      38.728  30.859  29.744  1.00  0.00     0.049 A 
ATOM     47  H   UNL A   1      40.623  30.248  30.360  1.00  0.00     0.167 HD
ATOM     48  C   UNL A   1      44.403  28.605  31.904  1.00  0.00     0.037 A 
ATOM     49  C   UNL A   1      38.462  32.019  30.374  1.00  0.00     0.037 A 
ATOM     50  C   UNL A   1      44.236  29.868  32.571  1.00  0.00     0.049 A 
ATOM     51  C   UNL A   1      39.477  32.583  31.331  1.00  0.00     0.074 A 
ATOM     52  C   UNL A   1      45.093  30.496  33.457  1.00  0.00     0.029 A 
ATOM     53  N   UNL A   1      43.140  30.706  32.411  1.00  0.00    -0.354 N 
ATOM     54  N   UNL A   1      40.626  32.073  31.705  1.00  0.00    -0.248 NA
ATOM     55  C   UNL A   1      39.163  33.878  31.948  1.00  0.00     0.031 C 
ATOM     56  C   UNL A   1      44.508  31.706  33.846  1.00  0.00     0.029 A 
ATOM     57  C   UNL A   1      43.302  31.846  33.179  1.00  0.00     0.049 A 
ATOM     58  H   UNL A   1      42.364  30.516  31.836  1.00  0.00     0.167 HD
ATOM     59  C   UNL A   1      41.185  32.998  32.578  1.00  0.00     0.074 A 
ATOM     60  C   UNL A   1      40.250  34.099  32.676  1.00  0.00     0.031 C 
ATOM     61  C   UNL A   1      42.367  32.941  33.240  1.00  0.00     0.037 A 
BRANCH  48  62
ATOM     62  C   UNL A   1      45.626  27.788  32.207  1.00  0.00     0.058 A 
ATOM     63  C   UNL A   1      45.618  26.790  33.194  1.00  0.00     0.135 A 
ATOM     64  C   UNL A   1      46.818  27.996  31.495  1.00  0.00     0.135 A 
ATOM     65  F   UNL A   1      44.509  26.563  33.917  1.00  0.00    -0.206 F 
ATOM     66  C   UNL A   1      46.758  26.051  33.490  1.00  0.00     0.059 A 
ATOM     67  C   UNL A   1      47.963  27.250  31.757  1.00  0.00     0.059 A 
ATOM     68  F   UNL A   1      46.881  28.939  30.542  1.00  0.00    -0.206 F 
ATOM     69  C   UNL A   1      47.928  26.292  32.769  1.00  0.00     0.060 A 
BRANCH  69  70
ATOM     70  S   UNL A   1      49.405  25.332  33.166  1.00  0.00     0.124 S 
ATOM     71  O   UNL A   1      50.271  26.359  33.739  1.00  0.00    -0.237 OA
ATOM     72  O   UNL A   1      48.893  24.341  34.108  1.00  0.00    -0.237 OA
ATOM     73  O   UNL A   1      49.826  24.806  31.873  1.00  0.00    -0.744 OA
ENDBRANCH  69  70
ENDBRANCH  48  62
BRANCH  49  74
ATOM     74  C   UNL A   1      37.192  32.738  30.099  1.00  0.00     0.058 A 
ATOM     75  C   UNL A   1      37.121  33.703  29.084  1.00  0.00     0.135 A 
ATOM     76  C   UNL A   1      36.022  32.463  30.824  1.00  0.00     0.135 A 
ATOM     77  F   UNL A   1      38.216  34.000  28.366  1.00  0.00    -0.206 F 
ATOM     78  C   UNL A   1      35.941  34.383  28.806  1.00  0.00     0.059 A 
ATOM     79  C   UNL A   1      34.825  33.116  30.552  1.00  0.00     0.059 A 
ATOM     80  F   UNL A   1      36.035  31.534  31.793  1.00  0.00    -0.206 F 
ATOM     81  C   UNL A   1      34.796  34.083  29.546  1.00  0.00     0.060 A 
BRANCH  81  82
ATOM     82  S   UNL A   1      33.256  34.938  29.147  1.00  0.00     0.124 S 
ATOM     83  O   UNL A   1      32.671  34.039  28.159  1.00  0.00    -0.237 OA
ATOM     84  O   UNL A   1      32.585  34.987  30.442  1.00  0.00    -0.237 OA
ATOM     85  O   UNL A   1      33.714  36.227  28.638  1.00  0.00    -0.744 OA
ENDBRANCH  81  82
ENDBRANCH  49  74
BRANCH  61  86
ATOM     86  C   UNL A   1      42.744  34.121  34.085  1.00  0.00     0.058 A 
ATOM     87  C   UNL A   1      42.350  34.221  35.427  1.00  0.00     0.135 A 
ATOM     88  C   UNL A   1      43.572  35.128  33.563  1.00  0.00     0.135 A 
ATOM     89  F   UNL A   1      41.553  33.286  35.969  1.00  0.00    -0.206 F 
ATOM     90  C   UNL A   1      42.758  35.285  36.224  1.00  0.00     0.059 A 
ATOM     91  C   UNL A   1      44.008  36.190  34.346  1.00  0.00     0.059 A 
ATOM     92  F   UNL A   1      43.981  35.071  32.285  1.00  0.00    -0.206 F 
ATOM     93  C   UNL A   1      43.590  36.264  35.675  1.00  0.00     0.060 A 
BRANCH  93  94
ATOM     94  S   UNL A   1      44.161  37.612  36.732  1.00  0.00     0.124 S 
ATOM     95  O   UNL A   1      44.049  38.757  35.834  1.00  0.00    -0.237 OA
ATOM     96  O   UNL A   1      43.204  37.575  37.835  1.00  0.00    -0.237 OA
ATOM     97  O   UNL A   1      45.522  37.215  37.080  1.00  0.00    -0.744 OA
ENDBRANCH  93  94
ENDBRANCH  61  86
ENDBRANCH  35  36
ENDBRANCH  27  30
ENDBRANCH  25  26
ENDBRANCH   1  25
TORSDOF 15
ENDMDL
