MODEL 1
REMARK VINA RESULT:     -10.2      0.000      0.000
REMARK SMILES Cc1cc(C(=O)NCCCNC(=O)c2ccc(-c3c4nc(c(-c5c(F)cc(S(=O)(=O)[O-])cc5F)c5ccc([nH]5)c(-c5c(F)cc(S(=O)(=O)[O-])cc5F)c5nc(c(-c6c(F)cc(S(=O)(=O)[O-])cc6F)c6ccc3[nH]6)C=C5)C=C4)cc2)nc(N2CCN(c3ccccc3Cl)CC2)n1
REMARK SMILES IDX 9 1 8 2 7 3 5 4 6 5 4 7 1 8 2 9 3 10 95 11 81 12 80 13 82 14
REMARK SMILES IDX 83 15 94 16 84 17 93 18 85 19 86 20 87 21 91 22 88 23 90 24
REMARK SMILES IDX 92 25 89 26 10 27 11 28 12 29 13 31 14 32 15 33 79 34 16 35
REMARK SMILES IDX 78 36 17 37 18 38 19 39 72 40 20 41 77 42 71 43 73 44 21 45
REMARK SMILES IDX 76 46 70 47 69 48 22 50 56 51 35 52 55 53 36 54 39 55 54 56
REMARK SMILES IDX 74 57 37 58 38 59 53 61 75 62 40 63 23 64 24 65 33 66 25 67
REMARK SMILES IDX 26 68 32 69 34 70 27 71 28 72 29 73 30 74 31 75 57 76 58 77
REMARK SMILES IDX 67 78 59 79 60 80 66 81 68 82 61 83 62 84 63 85 64 86 65 87
REMARK SMILES IDX 41 88 42 89 51 90 43 91 44 92 50 93 52 94 45 95 46 96 47 97
REMARK SMILES IDX 48 98 49 99
REMARK H PARENT 7 6 11 30 73 49 39 60
REMARK Flexibility Score: inf
ROOT
ATOM      1  C   UNL A   1      34.893  32.592  30.862  1.00  0.00     0.042 C 
ENDROOT
BRANCH   1   2
ATOM      2  C   UNL A   1      35.245  33.919  31.526  1.00  0.00     0.118 C 
BRANCH   2   3
ATOM      3  N   UNL A   1      36.557  34.355  31.100  1.00  0.00    -0.351 N 
ATOM      4  C   UNL A   1      37.798  34.270  31.677  1.00  0.00     0.270 C 
ATOM      5  O   UNL A   1      38.718  34.810  31.056  1.00  0.00    -0.268 OA
ATOM      6  H   UNL A   1      36.559  34.802  30.223  1.00  0.00     0.163 HD
BRANCH   4   7
ATOM      7  C   UNL A   1      38.088  33.519  32.945  1.00  0.00     0.133 A 
ATOM      8  C   UNL A   1      37.452  33.191  36.603  1.00  0.00     0.067 C 
ATOM      9  C   UNL A   1      37.924  32.942  35.201  1.00  0.00     0.044 A 
ATOM     10  C   UNL A   1      37.688  33.873  34.208  1.00  0.00     0.058 A 
ATOM     11  N   UNL A   1      38.602  31.796  34.976  1.00  0.00    -0.218 NA
ATOM     12  C   UNL A   1      39.087  31.606  33.744  1.00  0.00     0.226 A 
ATOM     13  N   UNL A   1      38.811  32.410  32.721  1.00  0.00    -0.208 NA
BRANCH  12  14
ATOM     14  N   UNL A   1      39.948  30.580  33.469  1.00  0.00    -0.337 N 
ATOM     15  C   UNL A   1      39.476  29.207  33.352  1.00  0.00     0.141 C 
ATOM     16  C   UNL A   1      41.279  30.754  34.073  1.00  0.00     0.141 C 
ATOM     17  C   UNL A   1      40.518  28.382  32.549  1.00  0.00     0.138 C 
ATOM     18  C   UNL A   1      42.327  29.918  33.320  1.00  0.00     0.138 C 
ATOM     19  N   UNL A   1      41.850  28.539  33.147  1.00  0.00    -0.367 N 
BRANCH  19  20
ATOM     20  C   UNL A   1      42.683  27.465  33.369  1.00  0.00     0.056 A 
ATOM     21  C   UNL A   1      43.614  27.092  32.386  1.00  0.00     0.027 A 
ATOM     22  C   UNL A   1      42.644  26.695  34.551  1.00  0.00     0.064 A 
ATOM     23  C   UNL A   1      44.472  26.004  32.569  1.00  0.00     0.002 A 
ATOM     24  C   UNL A   1      43.498  25.602  34.733  1.00  0.00     0.023 A 
ATOM     25  Cl  UNL A   1      41.491  27.001  35.808  1.00  0.00    -0.082 Cl
ATOM     26  C   UNL A   1      44.412  25.257  33.741  1.00  0.00     0.002 A 
ENDBRANCH  19  20
ENDBRANCH  12  14
ENDBRANCH   4   7
ENDBRANCH   2   3
ENDBRANCH   1   2
BRANCH   1  27
ATOM     27  C   UNL A   1      34.875  32.697  29.339  1.00  0.00     0.118 C 
BRANCH  27  28
ATOM     28  N   UNL A   1      34.077  31.633  28.740  1.00  0.00    -0.352 N 
ATOM     29  C   UNL A   1      34.483  30.465  28.146  1.00  0.00     0.251 C 
ATOM     30  H   UNL A   1      33.103  31.774  28.768  1.00  0.00     0.163 HD
ATOM     31  O   UNL A   1      33.696  29.824  27.460  1.00  0.00    -0.269 OA
BRANCH  29  32
ATOM     32  C   UNL A   1      35.871  29.995  28.333  1.00  0.00     0.039 A 
ATOM     33  C   UNL A   1      36.775  30.098  27.273  1.00  0.00     0.014 A 
ATOM     34  C   UNL A   1      36.271  29.446  29.553  1.00  0.00     0.014 A 
ATOM     35  C   UNL A   1      38.104  29.711  27.461  1.00  0.00     0.010 A 
ATOM     36  C   UNL A   1      37.609  29.136  29.763  1.00  0.00     0.010 A 
ATOM     37  C   UNL A   1      38.538  29.264  28.720  1.00  0.00    -0.014 A 
BRANCH  37  38
ATOM     38  C   UNL A   1      39.960  28.929  28.983  1.00  0.00     0.031 A 
ATOM     39  C   UNL A   1      40.901  29.994  29.474  1.00  0.00     0.074 A 
ATOM     40  C   UNL A   1      40.419  27.697  28.684  1.00  0.00     0.049 A 
ATOM     41  N   UNL A   1      42.198  29.943  29.629  1.00  0.00    -0.248 NA
ATOM     42  C   UNL A   1      40.307  31.300  29.808  1.00  0.00     0.031 C 
ATOM     43  C   UNL A   1      39.608  26.594  28.164  1.00  0.00     0.029 A 
ATOM     44  N   UNL A   1      41.685  27.172  28.752  1.00  0.00    -0.354 N 
ATOM     45  C   UNL A   1      42.578  31.210  30.055  1.00  0.00     0.074 A 
ATOM     46  C   UNL A   1      41.382  32.022  30.088  1.00  0.00     0.031 C 
ATOM     47  C   UNL A   1      40.392  25.523  27.972  1.00  0.00     0.029 A 
ATOM     48  C   UNL A   1      41.769  25.874  28.305  1.00  0.00     0.049 A 
ATOM     49  H   UNL A   1      42.460  27.677  29.089  1.00  0.00     0.167 HD
ATOM     50  C   UNL A   1      43.811  31.649  30.405  1.00  0.00     0.037 A 
ATOM     51  C   UNL A   1      42.838  25.066  28.158  1.00  0.00     0.037 A 
ATOM     52  C   UNL A   1      44.990  30.822  30.389  1.00  0.00     0.049 A 
ATOM     53  C   UNL A   1      44.199  25.582  28.536  1.00  0.00     0.074 A 
ATOM     54  C   UNL A   1      46.275  31.153  30.780  1.00  0.00     0.029 A 
ATOM     55  N   UNL A   1      45.029  29.505  29.955  1.00  0.00    -0.354 N 
ATOM     56  N   UNL A   1      44.534  26.764  28.996  1.00  0.00    -0.248 NA
ATOM     57  C   UNL A   1      45.330  24.656  28.381  1.00  0.00     0.031 C 
ATOM     58  C   UNL A   1      47.102  30.053  30.531  1.00  0.00     0.029 A 
ATOM     59  C   UNL A   1      46.320  29.016  30.045  1.00  0.00     0.049 A 
ATOM     60  H   UNL A   1      44.252  28.994  29.631  1.00  0.00     0.167 HD
ATOM     61  C   UNL A   1      45.906  26.713  29.215  1.00  0.00     0.074 A 
ATOM     62  C   UNL A   1      46.338  25.382  28.843  1.00  0.00     0.031 C 
ATOM     63  C   UNL A   1      46.731  27.681  29.686  1.00  0.00     0.037 A 
BRANCH  50  64
ATOM     64  C   UNL A   1      43.949  33.085  30.835  1.00  0.00     0.058 A 
ATOM     65  C   UNL A   1      44.040  33.446  32.189  1.00  0.00     0.135 A 
ATOM     66  C   UNL A   1      44.032  34.109  29.879  1.00  0.00     0.135 A 
ATOM     67  F   UNL A   1      43.951  32.510  33.147  1.00  0.00    -0.206 F 
ATOM     68  C   UNL A   1      44.178  34.774  32.580  1.00  0.00     0.059 A 
ATOM     69  C   UNL A   1      44.202  35.442  30.246  1.00  0.00     0.059 A 
ATOM     70  F   UNL A   1      43.951  33.823  28.570  1.00  0.00    -0.206 F 
ATOM     71  C   UNL A   1      44.260  35.765  31.601  1.00  0.00     0.060 A 
BRANCH  71  72
ATOM     72  S   UNL A   1      44.447  37.481  32.128  1.00  0.00     0.124 S 
ATOM     73  O   UNL A   1      45.817  37.483  32.631  1.00  0.00    -0.237 OA
ATOM     74  O   UNL A   1      44.229  38.213  30.885  1.00  0.00    -0.237 OA
ATOM     75  O   UNL A   1      43.408  37.643  33.140  1.00  0.00    -0.744 OA
ENDBRANCH  71  72
ENDBRANCH  50  64
BRANCH  51  76
ATOM     76  C   UNL A   1      42.657  23.684  27.638  1.00  0.00     0.058 A 
ATOM     77  C   UNL A   1      42.676  23.424  26.259  1.00  0.00     0.135 A 
ATOM     78  C   UNL A   1      42.480  22.593  28.504  1.00  0.00     0.135 A 
ATOM     79  F   UNL A   1      42.837  24.433  25.390  1.00  0.00    -0.206 F 
ATOM     80  C   UNL A   1      42.509  22.138  25.757  1.00  0.00     0.059 A 
ATOM     81  C   UNL A   1      42.339  21.294  28.027  1.00  0.00     0.059 A 
ATOM     82  F   UNL A   1      42.474  22.784  29.833  1.00  0.00    -0.206 F 
ATOM     83  C   UNL A   1      42.345  21.078  26.649  1.00  0.00     0.060 A 
BRANCH  83  84
ATOM     84  S   UNL A   1      42.179  19.406  25.986  1.00  0.00     0.124 S 
ATOM     85  O   UNL A   1      42.650  18.598  27.106  1.00  0.00    -0.237 OA
ATOM     86  O   UNL A   1      40.750  19.332  25.702  1.00  0.00    -0.237 OA
ATOM     87  O   UNL A   1      43.044  19.424  24.811  1.00  0.00    -0.744 OA
ENDBRANCH  83  84
ENDBRANCH  51  76
BRANCH  63  88
ATOM     88  C   UNL A   1      48.182  27.332  29.874  1.00  0.00     0.058 A 
ATOM     89  C   UNL A   1      49.146  27.612  28.895  1.00  0.00     0.135 A 
ATOM     90  C   UNL A   1      48.623  26.787  31.093  1.00  0.00     0.135 A 
ATOM     91  F   UNL A   1      48.777  28.124  27.711  1.00  0.00    -0.206 F 
ATOM     92  C   UNL A   1      50.496  27.358  29.113  1.00  0.00     0.059 A 
ATOM     93  C   UNL A   1      49.970  26.552  31.343  1.00  0.00     0.059 A 
ATOM     94  F   UNL A   1      47.742  26.507  32.066  1.00  0.00    -0.206 F 
ATOM     95  C   UNL A   1      50.900  26.837  30.344  1.00  0.00     0.060 A 
BRANCH  95  96
ATOM     96  S   UNL A   1      52.662  26.576  30.636  1.00  0.00     0.124 S 
ATOM     97  O   UNL A   1      53.068  27.873  31.166  1.00  0.00    -0.237 OA
ATOM     98  O   UNL A   1      52.659  25.471  31.589  1.00  0.00    -0.237 OA
ATOM     99  O   UNL A   1      53.182  26.250  29.310  1.00  0.00    -0.744 OA
ENDBRANCH  95  96
ENDBRANCH  63  88
ENDBRANCH  37  38
ENDBRANCH  29  32
ENDBRANCH  27  28
ENDBRANCH   1  27
TORSDOF 15
ENDMDL
MODEL 2
REMARK VINA RESULT:     -10.1      5.652     12.695
REMARK SMILES Cc1cc(C(=O)NCCCNC(=O)c2ccc(-c3c4nc(c(-c5c(F)cc(S(=O)(=O)[O-])cc5F)c5ccc([nH]5)c(-c5c(F)cc(S(=O)(=O)[O-])cc5F)c5nc(c(-c6c(F)cc(S(=O)(=O)[O-])cc6F)c6ccc3[nH]6)C=C5)C=C4)cc2)nc(N2CCN(c3ccccc3Cl)CC2)n1
REMARK SMILES IDX 9 1 8 2 7 3 5 4 6 5 4 7 1 8 2 9 3 10 95 11 81 12 80 13 82 14
REMARK SMILES IDX 83 15 94 16 84 17 93 18 85 19 86 20 87 21 91 22 88 23 90 24
REMARK SMILES IDX 92 25 89 26 10 27 11 28 12 29 13 31 14 32 15 33 79 34 16 35
REMARK SMILES IDX 78 36 17 37 18 38 19 39 72 40 20 41 77 42 71 43 73 44 21 45
REMARK SMILES IDX 76 46 70 47 69 48 22 50 56 51 35 52 55 53 36 54 39 55 54 56
REMARK SMILES IDX 74 57 37 58 38 59 53 61 75 62 40 63 23 64 24 65 33 66 25 67
REMARK SMILES IDX 26 68 32 69 34 70 27 71 28 72 29 73 30 74 31 75 57 76 58 77
REMARK SMILES IDX 67 78 59 79 60 80 66 81 68 82 61 83 62 84 63 85 64 86 65 87
REMARK SMILES IDX 41 88 42 89 51 90 43 91 44 92 50 93 52 94 45 95 46 96 47 97
REMARK SMILES IDX 48 98 49 99
REMARK H PARENT 7 6 11 30 73 49 39 60
REMARK Flexibility Score: inf
ROOT
ATOM      1  C   UNL A   1      39.031  22.035  26.196  1.00  0.00     0.042 C 
ENDROOT
BRANCH   1   2
ATOM      2  C   UNL A   1      37.593  22.366  25.807  1.00  0.00     0.118 C 
BRANCH   2   3
ATOM      3  N   UNL A   1      37.526  22.720  24.407  1.00  0.00    -0.351 N 
ATOM      4  C   UNL A   1      36.481  22.830  23.525  1.00  0.00     0.270 C 
ATOM      5  O   UNL A   1      36.787  23.101  22.360  1.00  0.00    -0.268 OA
ATOM      6  H   UNL A   1      38.403  22.922  24.007  1.00  0.00     0.163 HD
BRANCH   4   7
ATOM      7  C   UNL A   1      35.035  22.709  23.912  1.00  0.00     0.133 A 
ATOM      8  C   UNL A   1      32.349  20.558  25.343  1.00  0.00     0.067 C 
ATOM      9  C   UNL A   1      33.108  21.728  24.791  1.00  0.00     0.044 A 
ATOM     10  C   UNL A   1      34.397  21.567  24.322  1.00  0.00     0.058 A 
ATOM     11  N   UNL A   1      32.464  22.914  24.752  1.00  0.00    -0.218 NA
ATOM     12  C   UNL A   1      33.113  23.943  24.193  1.00  0.00     0.226 A 
ATOM     13  N   UNL A   1      34.387  23.881  23.816  1.00  0.00    -0.208 NA
BRANCH  12  14
ATOM     14  N   UNL A   1      32.479  25.125  23.930  1.00  0.00    -0.337 N 
ATOM     15  C   UNL A   1      31.690  25.804  24.950  1.00  0.00     0.141 C 
ATOM     16  C   UNL A   1      31.973  25.224  22.551  1.00  0.00     0.141 C 
ATOM     17  C   UNL A   1      31.545  27.301  24.561  1.00  0.00     0.138 C 
ATOM     18  C   UNL A   1      31.783  26.697  22.151  1.00  0.00     0.138 C 
ATOM     19  N   UNL A   1      31.030  27.415  23.189  1.00  0.00    -0.367 N 
BRANCH  19  20
ATOM     20  C   UNL A   1      30.014  28.283  22.860  1.00  0.00     0.056 A 
ATOM     21  C   UNL A   1      30.317  29.505  22.240  1.00  0.00     0.027 A 
ATOM     22  C   UNL A   1      28.655  28.011  23.127  1.00  0.00     0.064 A 
ATOM     23  C   UNL A   1      29.315  30.417  21.896  1.00  0.00     0.002 A 
ATOM     24  C   UNL A   1      27.652  28.925  22.790  1.00  0.00     0.023 A 
ATOM     25  Cl  UNL A   1      28.153  26.575  23.958  1.00  0.00    -0.082 Cl
ATOM     26  C   UNL A   1      27.983  30.129  22.174  1.00  0.00     0.002 A 
ENDBRANCH  19  20
ENDBRANCH  12  14
ENDBRANCH   4   7
ENDBRANCH   2   3
ENDBRANCH   1   2
BRANCH   1  27
ATOM     27  C   UNL A   1      39.750  23.232  26.814  1.00  0.00     0.118 C 
BRANCH  27  28
ATOM     28  N   UNL A   1      41.011  23.505  26.132  1.00  0.00    -0.352 N 
ATOM     29  C   UNL A   1      41.782  24.641  26.143  1.00  0.00     0.251 C 
ATOM     30  H   UNL A   1      41.359  22.766  25.584  1.00  0.00     0.163 HD
ATOM     31  O   UNL A   1      42.660  24.789  25.302  1.00  0.00    -0.269 OA
BRANCH  29  32
ATOM     32  C   UNL A   1      41.539  25.677  27.167  1.00  0.00     0.039 A 
ATOM     33  C   UNL A   1      40.653  25.410  28.213  1.00  0.00     0.014 A 
ATOM     34  C   UNL A   1      42.181  26.915  27.083  1.00  0.00     0.014 A 
ATOM     35  C   UNL A   1      40.464  26.363  29.216  1.00  0.00     0.010 A 
ATOM     36  C   UNL A   1      42.053  27.829  28.121  1.00  0.00     0.010 A 
ATOM     37  C   UNL A   1      41.193  27.563  29.197  1.00  0.00    -0.014 A 
BRANCH  37  38
ATOM     38  C   UNL A   1      41.087  28.560  30.292  1.00  0.00     0.031 A 
ATOM     39  C   UNL A   1      41.973  28.443  31.500  1.00  0.00     0.074 A 
ATOM     40  C   UNL A   1      40.127  29.505  30.238  1.00  0.00     0.049 A 
ATOM     41  N   UNL A   1      41.941  29.121  32.617  1.00  0.00    -0.248 NA
ATOM     42  C   UNL A   1      43.016  27.404  31.457  1.00  0.00     0.031 C 
ATOM     43  C   UNL A   1      39.182  29.692  29.134  1.00  0.00     0.029 A 
ATOM     44  N   UNL A   1      39.770  30.472  31.144  1.00  0.00    -0.354 N 
ATOM     45  C   UNL A   1      42.941  28.579  33.417  1.00  0.00     0.074 A 
ATOM     46  C   UNL A   1      43.528  27.485  32.677  1.00  0.00     0.031 C 
ATOM     47  C   UNL A   1      38.363  30.715  29.422  1.00  0.00     0.029 A 
ATOM     48  C   UNL A   1      38.689  31.227  30.750  1.00  0.00     0.049 A 
ATOM     49  H   UNL A   1      40.244  30.614  31.995  1.00  0.00     0.167 HD
ATOM     50  C   UNL A   1      43.342  28.974  34.649  1.00  0.00     0.037 A 
ATOM     51  C   UNL A   1      38.021  32.203  31.395  1.00  0.00     0.037 A 
ATOM     52  C   UNL A   1      42.762  30.080  35.364  1.00  0.00     0.049 A 
ATOM     53  C   UNL A   1      38.475  32.611  32.770  1.00  0.00     0.074 A 
ATOM     54  C   UNL A   1      43.134  30.597  36.593  1.00  0.00     0.029 A 
ATOM     55  N   UNL A   1      41.686  30.836  34.921  1.00  0.00    -0.354 N 
ATOM     56  N   UNL A   1      39.461  32.129  33.489  1.00  0.00    -0.248 NA
ATOM     57  C   UNL A   1      37.730  33.697  33.424  1.00  0.00     0.031 C 
ATOM     58  C   UNL A   1      42.249  31.630  36.916  1.00  0.00     0.029 A 
ATOM     59  C   UNL A   1      41.366  31.799  35.861  1.00  0.00     0.049 A 
ATOM     60  H   UNL A   1      41.220  30.705  34.063  1.00  0.00     0.167 HD
ATOM     61  C   UNL A   1      39.475  32.874  34.664  1.00  0.00     0.074 A 
ATOM     62  C   UNL A   1      38.403  33.842  34.557  1.00  0.00     0.031 C 
ATOM     63  C   UNL A   1      40.304  32.767  35.731  1.00  0.00     0.037 A 
BRANCH  50  64
ATOM     64  C   UNL A   1      44.460  28.205  35.302  1.00  0.00     0.058 A 
ATOM     65  C   UNL A   1      44.213  27.075  36.098  1.00  0.00     0.135 A 
ATOM     66  C   UNL A   1      45.797  28.579  35.096  1.00  0.00     0.135 A 
ATOM     67  F   UNL A   1      42.953  26.681  36.343  1.00  0.00    -0.206 F 
ATOM     68  C   UNL A   1      45.250  26.362  36.691  1.00  0.00     0.059 A 
ATOM     69  C   UNL A   1      46.852  27.862  35.653  1.00  0.00     0.059 A 
ATOM     70  F   UNL A   1      46.092  29.650  34.343  1.00  0.00    -0.206 F 
ATOM     71  C   UNL A   1      46.567  26.762  36.461  1.00  0.00     0.060 A 
BRANCH  71  72
ATOM     72  S   UNL A   1      47.900  25.819  37.233  1.00  0.00     0.124 S 
ATOM     73  O   UNL A   1      49.078  26.515  36.726  1.00  0.00    -0.237 OA
ATOM     74  O   UNL A   1      47.622  25.997  38.654  1.00  0.00    -0.237 OA
ATOM     75  O   UNL A   1      47.701  24.467  36.720  1.00  0.00    -0.744 OA
ENDBRANCH  71  72
ENDBRANCH  50  64
BRANCH  51  76
ATOM     76  C   UNL A   1      36.861  32.867  30.741  1.00  0.00     0.058 A 
ATOM     77  C   UNL A   1      35.553  32.645  31.197  1.00  0.00     0.135 A 
ATOM     78  C   UNL A   1      37.034  33.746  29.660  1.00  0.00     0.135 A 
ATOM     79  F   UNL A   1      35.334  31.809  32.224  1.00  0.00    -0.206 F 
ATOM     80  C   UNL A   1      34.458  33.257  30.597  1.00  0.00     0.059 A 
ATOM     81  C   UNL A   1      35.957  34.392  29.061  1.00  0.00     0.059 A 
ATOM     82  F   UNL A   1      38.267  34.007  29.197  1.00  0.00    -0.206 F 
ATOM     83  C   UNL A   1      34.670  34.133  29.531  1.00  0.00     0.060 A 
BRANCH  83  84
ATOM     84  S   UNL A   1      33.245  34.960  28.792  1.00  0.00     0.124 S 
ATOM     85  O   UNL A   1      33.835  36.214  28.339  1.00  0.00    -0.237 OA
ATOM     86  O   UNL A   1      32.857  34.020  27.746  1.00  0.00    -0.237 OA
ATOM     87  O   UNL A   1      32.307  35.069  29.906  1.00  0.00    -0.744 OA
ENDBRANCH  83  84
ENDBRANCH  51  76
BRANCH  63  88
ATOM     88  C   UNL A   1      40.125  33.748  36.857  1.00  0.00     0.058 A 
ATOM     89  C   UNL A   1      40.874  34.931  36.936  1.00  0.00     0.135 A 
ATOM     90  C   UNL A   1      39.124  33.538  37.822  1.00  0.00     0.135 A 
ATOM     91  F   UNL A   1      41.847  35.176  36.045  1.00  0.00    -0.206 F 
ATOM     92  C   UNL A   1      40.644  35.870  37.937  1.00  0.00     0.059 A 
ATOM     93  C   UNL A   1      38.858  34.476  38.813  1.00  0.00     0.059 A 
ATOM     94  F   UNL A   1      38.375  32.426  37.787  1.00  0.00    -0.206 F 
ATOM     95  C   UNL A   1      39.627  35.638  38.866  1.00  0.00     0.060 A 
BRANCH  95  96
ATOM     96  S   UNL A   1      39.297  36.896  40.117  1.00  0.00     0.124 S 
ATOM     97  O   UNL A   1      40.647  37.257  40.536  1.00  0.00    -0.237 OA
ATOM     98  O   UNL A   1      38.575  37.910  39.356  1.00  0.00    -0.237 OA
ATOM     99  O   UNL A   1      38.501  36.184  41.114  1.00  0.00    -0.744 OA
ENDBRANCH  95  96
ENDBRANCH  63  88
ENDBRANCH  37  38
ENDBRANCH  29  32
ENDBRANCH  27  28
ENDBRANCH   1  27
TORSDOF 15
ENDMDL
MODEL 3
REMARK VINA RESULT:     -10.0      5.472     12.044
REMARK SMILES Cc1cc(C(=O)NCCCNC(=O)c2ccc(-c3c4nc(c(-c5c(F)cc(S(=O)(=O)[O-])cc5F)c5ccc([nH]5)c(-c5c(F)cc(S(=O)(=O)[O-])cc5F)c5nc(c(-c6c(F)cc(S(=O)(=O)[O-])cc6F)c6ccc3[nH]6)C=C5)C=C4)cc2)nc(N2CCN(c3ccccc3Cl)CC2)n1
REMARK SMILES IDX 9 1 8 2 7 3 5 4 6 5 4 7 1 8 2 9 3 10 95 11 81 12 80 13 82 14
REMARK SMILES IDX 83 15 94 16 84 17 93 18 85 19 86 20 87 21 91 22 88 23 90 24
REMARK SMILES IDX 92 25 89 26 10 27 11 28 12 29 13 31 14 32 15 33 79 34 16 35
REMARK SMILES IDX 78 36 17 37 18 38 19 39 72 40 20 41 77 42 71 43 73 44 21 45
REMARK SMILES IDX 76 46 70 47 69 48 22 50 56 51 35 52 55 53 36 54 39 55 54 56
REMARK SMILES IDX 74 57 37 58 38 59 53 61 75 62 40 63 23 64 24 65 33 66 25 67
REMARK SMILES IDX 26 68 32 69 34 70 27 71 28 72 29 73 30 74 31 75 57 76 58 77
REMARK SMILES IDX 67 78 59 79 60 80 66 81 68 82 61 83 62 84 63 85 64 86 65 87
REMARK SMILES IDX 41 88 42 89 51 90 43 91 44 92 50 93 52 94 45 95 46 96 47 97
REMARK SMILES IDX 48 98 49 99
REMARK H PARENT 7 6 11 30 73 49 39 60
REMARK Flexibility Score: inf
ROOT
ATOM      1  C   UNL A   1      39.172  22.726  26.487  1.00  0.00     0.042 C 
ENDROOT
BRANCH   1   2
ATOM      2  C   UNL A   1      38.134  23.776  26.106  1.00  0.00     0.118 C 
BRANCH   2   3
ATOM      3  N   UNL A   1      37.672  23.551  24.754  1.00  0.00    -0.351 N 
ATOM      4  C   UNL A   1      36.430  23.319  24.222  1.00  0.00     0.270 C 
ATOM      5  O   UNL A   1      36.396  23.106  23.007  1.00  0.00    -0.268 OA
ATOM      6  H   UNL A   1      38.392  23.567  24.083  1.00  0.00     0.163 HD
BRANCH   4   7
ATOM      7  C   UNL A   1      35.152  23.380  25.008  1.00  0.00     0.133 A 
ATOM      8  C   UNL A   1      33.236  22.161  27.963  1.00  0.00     0.067 C 
ATOM      9  C   UNL A   1      33.657  22.924  26.743  1.00  0.00     0.044 A 
ATOM     10  C   UNL A   1      34.808  22.574  26.063  1.00  0.00     0.058 A 
ATOM     11  N   UNL A   1      32.852  23.929  26.338  1.00  0.00    -0.218 NA
ATOM     12  C   UNL A   1      33.188  24.563  25.209  1.00  0.00     0.226 A 
ATOM     13  N   UNL A   1      34.331  24.345  24.564  1.00  0.00    -0.208 NA
BRANCH  12  14
ATOM     14  N   UNL A   1      32.340  25.457  24.616  1.00  0.00    -0.337 N 
ATOM     15  C   UNL A   1      32.839  26.509  23.741  1.00  0.00     0.141 C 
ATOM     16  C   UNL A   1      31.182  25.810  25.454  1.00  0.00     0.141 C 
ATOM     17  C   UNL A   1      31.679  27.005  22.836  1.00  0.00     0.138 C 
ATOM     18  C   UNL A   1      30.029  26.341  24.586  1.00  0.00     0.138 C 
ATOM     19  N   UNL A   1      30.520  27.372  23.661  1.00  0.00    -0.367 N 
BRANCH  19  20
ATOM     20  C   UNL A   1      29.819  28.539  23.459  1.00  0.00     0.056 A 
ATOM     21  C   UNL A   1      28.685  28.535  22.632  1.00  0.00     0.027 A 
ATOM     22  C   UNL A   1      30.192  29.769  24.042  1.00  0.00     0.064 A 
ATOM     23  C   UNL A   1      27.950  29.699  22.395  1.00  0.00     0.002 A 
ATOM     24  C   UNL A   1      29.461  30.937  23.801  1.00  0.00     0.023 A 
ATOM     25  Cl  UNL A   1      31.614  29.927  25.020  1.00  0.00    -0.082 Cl
ATOM     26  C   UNL A   1      28.340  30.901  22.977  1.00  0.00     0.002 A 
ENDBRANCH  19  20
ENDBRANCH  12  14
ENDBRANCH   4   7
ENDBRANCH   2   3
ENDBRANCH   1   2
BRANCH   1  27
ATOM     27  C   UNL A   1      40.456  23.354  27.024  1.00  0.00     0.118 C 
BRANCH  27  28
ATOM     28  N   UNL A   1      41.089  24.210  26.026  1.00  0.00    -0.352 N 
ATOM     29  C   UNL A   1      41.325  25.561  26.056  1.00  0.00     0.251 C 
ATOM     30  H   UNL A   1      41.390  23.748  25.210  1.00  0.00     0.163 HD
ATOM     31  O   UNL A   1      41.616  26.152  25.023  1.00  0.00    -0.269 OA
BRANCH  29  32
ATOM     32  C   UNL A   1      41.219  26.291  27.335  1.00  0.00     0.039 A 
ATOM     33  C   UNL A   1      42.243  27.166  27.710  1.00  0.00     0.014 A 
ATOM     34  C   UNL A   1      40.112  26.102  28.166  1.00  0.00     0.014 A 
ATOM     35  C   UNL A   1      42.121  27.903  28.889  1.00  0.00     0.010 A 
ATOM     36  C   UNL A   1      39.955  26.894  29.296  1.00  0.00     0.010 A 
ATOM     37  C   UNL A   1      40.958  27.802  29.669  1.00  0.00    -0.014 A 
BRANCH  37  38
ATOM     38  C   UNL A   1      40.753  28.636  30.881  1.00  0.00     0.031 A 
ATOM     39  C   UNL A   1      39.701  29.709  30.880  1.00  0.00     0.074 A 
ATOM     40  C   UNL A   1      41.580  28.489  31.936  1.00  0.00     0.049 A 
ATOM     41  N   UNL A   1      39.461  30.630  31.777  1.00  0.00    -0.248 NA
ATOM     42  C   UNL A   1      38.821  29.774  29.701  1.00  0.00     0.031 C 
ATOM     43  C   UNL A   1      42.662  27.508  32.034  1.00  0.00     0.029 A 
ATOM     44  N   UNL A   1      41.654  29.182  33.118  1.00  0.00    -0.354 N 
ATOM     45  C   UNL A   1      38.420  31.396  31.262  1.00  0.00     0.074 A 
ATOM     46  C   UNL A   1      38.108  30.862  29.955  1.00  0.00     0.031 C 
ATOM     47  C   UNL A   1      43.284  27.654  33.214  1.00  0.00     0.029 A 
ATOM     48  C   UNL A   1      42.680  28.769  33.936  1.00  0.00     0.049 A 
ATOM     49  H   UNL A   1      41.032  29.906  33.358  1.00  0.00     0.167 HD
ATOM     50  C   UNL A   1      37.773  32.436  31.839  1.00  0.00     0.037 A 
ATOM     51  C   UNL A   1      43.101  29.250  35.123  1.00  0.00     0.037 A 
ATOM     52  C   UNL A   1      38.080  32.943  33.151  1.00  0.00     0.049 A 
ATOM     53  C   UNL A   1      42.378  30.419  35.734  1.00  0.00     0.074 A 
ATOM     54  C   UNL A   1      37.446  33.955  33.850  1.00  0.00     0.029 A 
ATOM     55  N   UNL A   1      39.109  32.481  33.959  1.00  0.00    -0.354 N 
ATOM     56  N   UNL A   1      41.356  31.093  35.263  1.00  0.00    -0.248 NA
ATOM     57  C   UNL A   1      42.859  30.892  37.040  1.00  0.00     0.031 C 
ATOM     58  C   UNL A   1      38.126  34.141  35.057  1.00  0.00     0.029 A 
ATOM     59  C   UNL A   1      39.143  33.203  35.139  1.00  0.00     0.049 A 
ATOM     60  H   UNL A   1      39.723  31.747  33.727  1.00  0.00     0.167 HD
ATOM     61  C   UNL A   1      41.052  32.048  36.227  1.00  0.00     0.074 A 
ATOM     62  C   UNL A   1      41.994  31.859  37.311  1.00  0.00     0.031 C 
ATOM     63  C   UNL A   1      40.078  32.991  36.217  1.00  0.00     0.037 A 
BRANCH  50  64
ATOM     64  C   UNL A   1      36.670  33.097  31.055  1.00  0.00     0.058 A 
ATOM     65  C   UNL A   1      35.316  32.876  31.354  1.00  0.00     0.135 A 
ATOM     66  C   UNL A   1      36.972  33.995  30.019  1.00  0.00     0.135 A 
ATOM     67  F   UNL A   1      34.968  32.016  32.324  1.00  0.00    -0.206 F 
ATOM     68  C   UNL A   1      34.301  33.498  30.634  1.00  0.00     0.059 A 
ATOM     69  C   UNL A   1      35.973  34.653  29.306  1.00  0.00     0.059 A 
ATOM     70  F   UNL A   1      38.249  34.245  29.690  1.00  0.00    -0.206 F 
ATOM     71  C   UNL A   1      34.640  34.386  29.612  1.00  0.00     0.060 A 
BRANCH  71  72
ATOM     72  S   UNL A   1      33.309  35.189  28.694  1.00  0.00     0.124 S 
ATOM     73  O   UNL A   1      32.521  35.772  29.775  1.00  0.00    -0.237 OA
ATOM     74  O   UNL A   1      34.037  36.138  27.859  1.00  0.00    -0.237 OA
ATOM     75  O   UNL A   1      32.673  34.086  27.980  1.00  0.00    -0.744 OA
ENDBRANCH  71  72
ENDBRANCH  50  64
BRANCH  51  76
ATOM     76  C   UNL A   1      44.259  28.618  35.811  1.00  0.00     0.058 A 
ATOM     77  C   UNL A   1      45.570  29.049  35.559  1.00  0.00     0.135 A 
ATOM     78  C   UNL A   1      44.080  27.585  36.745  1.00  0.00     0.135 A 
ATOM     79  F   UNL A   1      45.794  30.030  34.672  1.00  0.00    -0.206 F 
ATOM     80  C   UNL A   1      46.663  28.469  36.195  1.00  0.00     0.059 A 
ATOM     81  C   UNL A   1      45.156  27.008  37.414  1.00  0.00     0.059 A 
ATOM     82  F   UNL A   1      42.844  27.148  37.037  1.00  0.00    -0.206 F 
ATOM     83  C   UNL A   1      46.445  27.451  37.124  1.00  0.00     0.060 A 
BRANCH  83  84
ATOM     84  S   UNL A   1      47.869  26.740  37.979  1.00  0.00     0.124 S 
ATOM     85  O   UNL A   1      47.585  27.093  39.365  1.00  0.00    -0.237 OA
ATOM     86  O   UNL A   1      47.750  25.325  37.642  1.00  0.00    -0.237 OA
ATOM     87  O   UNL A   1      49.003  27.429  37.371  1.00  0.00    -0.744 OA
ENDBRANCH  83  84
ENDBRANCH  51  76
BRANCH  63  88
ATOM     88  C   UNL A   1      39.941  33.869  37.430  1.00  0.00     0.058 A 
ATOM     89  C   UNL A   1      40.681  35.051  37.578  1.00  0.00     0.135 A 
ATOM     90  C   UNL A   1      38.990  33.562  38.418  1.00  0.00     0.135 A 
ATOM     91  F   UNL A   1      41.609  35.386  36.668  1.00  0.00    -0.206 F 
ATOM     92  C   UNL A   1      40.488  35.896  38.666  1.00  0.00     0.059 A 
ATOM     93  C   UNL A   1      38.760  34.406  39.499  1.00  0.00     0.059 A 
ATOM     94  F   UNL A   1      38.250  32.446  38.321  1.00  0.00    -0.206 F 
ATOM     95  C   UNL A   1      39.519  35.570  39.617  1.00  0.00     0.060 A 
BRANCH  95  96
ATOM     96  S   UNL A   1      39.234  36.710  40.987  1.00  0.00     0.124 S 
ATOM     97  O   UNL A   1      38.357  37.700  40.370  1.00  0.00    -0.237 OA
ATOM     98  O   UNL A   1      38.614  35.847  41.986  1.00  0.00    -0.237 OA
ATOM     99  O   UNL A   1      40.575  37.183  41.321  1.00  0.00    -0.744 OA
ENDBRANCH  95  96
ENDBRANCH  63  88
ENDBRANCH  37  38
ENDBRANCH  29  32
ENDBRANCH  27  28
ENDBRANCH   1  27
TORSDOF 15
ENDMDL
