MODEL 1
REMARK VINA RESULT:     -11.1      0.000      0.000
REMARK SMILES Cc1nc(CN(CC(=O)NCCCNC(=O)c2ccc(-c3c4nc(c(-c5c(F)cc(S(=O)(=O)[O-])cc5F)c5ccc([nH]5)c(-c5c(F)cc(S(=O)(=O)[O-])cc5F)c5nc(c(-c6c(F)cc(S(=O)(=O)[O-])cc6F)c6ccc3[nH]6)C=C5)C=C4)cc2)c2cccc(Cl)c2)sc1C
REMARK SMILES IDX 12 1 11 2 10 3 8 4 9 5 7 7 6 8 5 9 4 10 1 11 2 12 3 13 91 14
REMARK SMILES IDX 90 15 92 16 83 17 84 18 89 19 85 20 87 21 86 22 88 23 13 24
REMARK SMILES IDX 14 25 15 26 16 28 17 29 18 30 82 31 19 32 81 33 20 34 21 35
REMARK SMILES IDX 22 36 75 37 23 38 80 39 74 40 76 41 24 42 79 43 73 44 72 45
REMARK SMILES IDX 25 47 59 48 38 49 58 50 39 51 42 52 57 53 77 54 40 55 41 56
REMARK SMILES IDX 56 58 78 59 43 60 26 61 27 62 36 63 28 64 29 65 35 66 37 67
REMARK SMILES IDX 30 68 31 69 32 70 33 71 34 72 60 73 61 74 70 75 62 76 63 77
REMARK SMILES IDX 69 78 71 79 64 80 65 81 66 82 67 83 68 84 44 85 45 86 54 87
REMARK SMILES IDX 46 88 47 89 53 90 55 91 48 92 49 93 50 94 51 95 52 96
REMARK H PARENT 10 6 14 27 76 46 42 57
REMARK Flexibility Score: inf
ROOT
ATOM      1  C   UNL A   1      33.637  27.908  25.217  1.00  0.00     0.042 C 
ENDROOT
BRANCH   1   2
ATOM      2  C   UNL A   1      32.617  26.834  24.852  1.00  0.00     0.117 C 
BRANCH   2   3
ATOM      3  N   UNL A   1      32.092  26.132  26.003  1.00  0.00    -0.354 N 
ATOM      4  C   UNL A   1      31.825  24.800  26.157  1.00  0.00     0.239 C 
ATOM      5  O   UNL A   1      31.464  24.423  27.277  1.00  0.00    -0.273 OA
ATOM      6  H   UNL A   1      31.900  26.693  26.788  1.00  0.00     0.163 HD
BRANCH   4   7
ATOM      7  C   UNL A   1      32.007  23.804  25.000  1.00  0.00     0.217 C 
BRANCH   7   8
ATOM      8  N   UNL A   1      32.972  22.715  25.258  1.00  0.00    -0.355 N 
BRANCH   8   9
ATOM      9  C   UNL A   1      32.426  21.422  25.739  1.00  0.00     0.184 C 
BRANCH   9  10
ATOM     10  C   UNL A   1      32.477  20.204  24.849  1.00  0.00     0.112 A 
ATOM     11  C   UNL A   1      32.235  18.747  21.574  1.00  0.00     0.068 C 
ATOM     12  C   UNL A   1      32.486  18.945  23.024  1.00  0.00     0.051 A 
ATOM     13  N   UNL A   1      32.087  20.149  23.591  1.00  0.00    -0.244 NA
ATOM     14  C   UNL A   1      33.128  18.076  23.892  1.00  0.00     0.025 A 
ATOM     15  S   UNL A   1      33.156  18.746  25.466  1.00  0.00    -0.122 S 
ATOM     16  C   UNL A   1      33.758  16.756  23.625  1.00  0.00     0.058 C 
ENDBRANCH   9  10
ENDBRANCH   8   9
BRANCH   8  17
ATOM     17  C   UNL A   1      34.270  22.828  24.765  1.00  0.00     0.039 A 
ATOM     18  C   UNL A   1      34.529  22.921  23.387  1.00  0.00     0.026 A 
ATOM     19  C   UNL A   1      35.400  22.842  25.598  1.00  0.00     0.046 A 
ATOM     20  C   UNL A   1      35.828  23.034  22.872  1.00  0.00     0.004 A 
ATOM     21  C   UNL A   1      36.699  22.960  25.094  1.00  0.00     0.043 A 
ATOM     22  C   UNL A   1      36.920  23.060  23.729  1.00  0.00     0.020 A 
ATOM     23  Cl  UNL A   1      38.035  22.964  26.182  1.00  0.00    -0.084 Cl
ENDBRANCH   8  17
ENDBRANCH   7   8
ENDBRANCH   4   7
ENDBRANCH   2   3
ENDBRANCH   1   2
BRANCH   1  24
ATOM     24  C   UNL A   1      33.838  28.113  26.715  1.00  0.00     0.118 C 
BRANCH  24  25
ATOM     25  N   UNL A   1      33.641  29.496  27.124  1.00  0.00    -0.352 N 
ATOM     26  C   UNL A   1      34.451  30.341  27.838  1.00  0.00     0.251 C 
ATOM     27  H   UNL A   1      32.783  29.889  26.842  1.00  0.00     0.163 HD
ATOM     28  O   UNL A   1      33.983  31.415  28.229  1.00  0.00    -0.269 OA
BRANCH  26  29
ATOM     29  C   UNL A   1      35.855  29.995  28.151  1.00  0.00     0.039 A 
ATOM     30  C   UNL A   1      36.821  30.132  27.148  1.00  0.00     0.014 A 
ATOM     31  C   UNL A   1      36.222  29.473  29.395  1.00  0.00     0.014 A 
ATOM     32  C   UNL A   1      38.150  29.783  27.402  1.00  0.00     0.010 A 
ATOM     33  C   UNL A   1      37.560  29.200  29.672  1.00  0.00     0.010 A 
ATOM     34  C   UNL A   1      38.536  29.332  28.673  1.00  0.00    -0.014 A 
BRANCH  34  35
ATOM     35  C   UNL A   1      39.942  28.947  28.964  1.00  0.00     0.031 A 
ATOM     36  C   UNL A   1      40.869  29.931  29.627  1.00  0.00     0.074 A 
ATOM     37  C   UNL A   1      40.398  27.735  28.594  1.00  0.00     0.049 A 
ATOM     38  N   UNL A   1      42.140  29.808  29.917  1.00  0.00    -0.248 NA
ATOM     39  C   UNL A   1      40.298  31.238  29.986  1.00  0.00     0.031 C 
ATOM     40  C   UNL A   1      39.609  26.703  27.920  1.00  0.00     0.029 A 
ATOM     41  N   UNL A   1      41.638  27.166  28.733  1.00  0.00    -0.354 N 
ATOM     42  C   UNL A   1      42.522  31.022  30.475  1.00  0.00     0.074 A 
ATOM     43  C   UNL A   1      41.364  31.888  30.426  1.00  0.00     0.031 C 
ATOM     44  C   UNL A   1      40.373  25.615  27.737  1.00  0.00     0.029 A 
ATOM     45  C   UNL A   1      41.715  25.883  28.246  1.00  0.00     0.049 A 
ATOM     46  H   UNL A   1      42.403  27.632  29.143  1.00  0.00     0.167 HD
ATOM     47  C   UNL A   1      43.719  31.379  31.003  1.00  0.00     0.037 A 
ATOM     48  C   UNL A   1      42.748  25.018  28.220  1.00  0.00     0.037 A 
ATOM     49  C   UNL A   1      44.862  30.506  31.066  1.00  0.00     0.049 A 
ATOM     50  C   UNL A   1      44.070  25.435  28.802  1.00  0.00     0.074 A 
ATOM     51  C   UNL A   1      46.109  30.755  31.612  1.00  0.00     0.029 A 
ATOM     52  N   UNL A   1      44.897  29.212  30.566  1.00  0.00    -0.354 N 
ATOM     53  N   UNL A   1      44.404  26.574  29.362  1.00  0.00    -0.248 NA
ATOM     54  C   UNL A   1      45.156  24.446  28.755  1.00  0.00     0.031 C 
ATOM     55  C   UNL A   1      46.909  29.623  31.411  1.00  0.00     0.029 A 
ATOM     56  C   UNL A   1      46.146  28.653  30.781  1.00  0.00     0.049 A 
ATOM     57  H   UNL A   1      44.144  28.758  30.123  1.00  0.00     0.167 HD
ATOM     58  C   UNL A   1      45.725  26.424  29.768  1.00  0.00     0.074 A 
ATOM     59  C   UNL A   1      46.129  25.086  29.388  1.00  0.00     0.031 C 
ATOM     60  C   UNL A   1      46.528  27.313  30.406  1.00  0.00     0.037 A 
BRANCH  47  61
ATOM     61  C   UNL A   1      43.838  32.778  31.545  1.00  0.00     0.058 A 
ATOM     62  C   UNL A   1      43.422  33.102  32.847  1.00  0.00     0.135 A 
ATOM     63  C   UNL A   1      44.347  33.815  30.747  1.00  0.00     0.135 A 
ATOM     64  F   UNL A   1      42.915  32.154  33.650  1.00  0.00    -0.206 F 
ATOM     65  C   UNL A   1      43.448  34.412  33.316  1.00  0.00     0.059 A 
ATOM     66  C   UNL A   1      44.413  35.128  31.207  1.00  0.00     0.059 A 
ATOM     67  F   UNL A   1      44.767  33.563  29.496  1.00  0.00    -0.206 F 
ATOM     68  C   UNL A   1      43.934  35.420  32.483  1.00  0.00     0.060 A 
BRANCH  68  69
ATOM     69  S   UNL A   1      43.913  37.123  33.081  1.00  0.00     0.124 S 
ATOM     70  O   UNL A   1      45.216  37.216  33.733  1.00  0.00    -0.237 OA
ATOM     71  O   UNL A   1      43.769  37.890  31.846  1.00  0.00    -0.237 OA
ATOM     72  O   UNL A   1      42.760  37.155  33.973  1.00  0.00    -0.744 OA
ENDBRANCH  68  69
ENDBRANCH  47  61
BRANCH  48  73
ATOM     73  C   UNL A   1      42.548  23.648  27.679  1.00  0.00     0.058 A 
ATOM     74  C   UNL A   1      42.623  23.411  26.299  1.00  0.00     0.135 A 
ATOM     75  C   UNL A   1      42.317  22.550  28.520  1.00  0.00     0.135 A 
ATOM     76  F   UNL A   1      42.836  24.431  25.454  1.00  0.00    -0.206 F 
ATOM     77  C   UNL A   1      42.472  22.134  25.769  1.00  0.00     0.059 A 
ATOM     78  C   UNL A   1      42.183  21.259  28.016  1.00  0.00     0.059 A 
ATOM     79  F   UNL A   1      42.252  22.723  29.849  1.00  0.00    -0.206 F 
ATOM     80  C   UNL A   1      42.257  21.063  26.637  1.00  0.00     0.060 A 
BRANCH  80  81
ATOM     81  S   UNL A   1      42.133  19.401  25.943  1.00  0.00     0.124 S 
ATOM     82  O   UNL A   1      42.665  18.587  27.031  1.00  0.00    -0.237 OA
ATOM     83  O   UNL A   1      40.699  19.277  25.695  1.00  0.00    -0.237 OA
ATOM     84  O   UNL A   1      42.964  19.475  24.745  1.00  0.00    -0.744 OA
ENDBRANCH  80  81
ENDBRANCH  48  73
BRANCH  60  85
ATOM     85  C   UNL A   1      47.908  26.849  30.782  1.00  0.00     0.058 A 
ATOM     86  C   UNL A   1      49.022  27.097  29.966  1.00  0.00     0.135 A 
ATOM     87  C   UNL A   1      48.122  26.181  31.999  1.00  0.00     0.135 A 
ATOM     88  F   UNL A   1      48.872  27.727  28.789  1.00  0.00    -0.206 F 
ATOM     89  C   UNL A   1      50.298  26.677  30.330  1.00  0.00     0.059 A 
ATOM     90  C   UNL A   1      49.392  25.774  32.395  1.00  0.00     0.059 A 
ATOM     91  F   UNL A   1      47.091  25.928  32.822  1.00  0.00    -0.206 F 
ATOM     92  C   UNL A   1      50.472  26.015  31.548  1.00  0.00     0.060 A 
BRANCH  92  93
ATOM     93  S   UNL A   1      52.135  25.496  32.025  1.00  0.00     0.124 S 
ATOM     94  O   UNL A   1      52.898  25.817  30.822  1.00  0.00    -0.237 OA
ATOM     95  O   UNL A   1      52.403  26.335  33.188  1.00  0.00    -0.237 OA
ATOM     96  O   UNL A   1      51.978  24.072  32.308  1.00  0.00    -0.744 OA
ENDBRANCH  92  93
ENDBRANCH  60  85
ENDBRANCH  34  35
ENDBRANCH  26  29
ENDBRANCH  24  25
ENDBRANCH   1  24
TORSDOF 17
ENDMDL
MODEL 2
REMARK VINA RESULT:     -11.0      3.275      4.518
REMARK SMILES Cc1nc(CN(CC(=O)NCCCNC(=O)c2ccc(-c3c4nc(c(-c5c(F)cc(S(=O)(=O)[O-])cc5F)c5ccc([nH]5)c(-c5c(F)cc(S(=O)(=O)[O-])cc5F)c5nc(c(-c6c(F)cc(S(=O)(=O)[O-])cc6F)c6ccc3[nH]6)C=C5)C=C4)cc2)c2cccc(Cl)c2)sc1C
REMARK SMILES IDX 12 1 11 2 10 3 8 4 9 5 7 7 6 8 5 9 4 10 1 11 2 12 3 13 91 14
REMARK SMILES IDX 90 15 92 16 83 17 84 18 89 19 85 20 87 21 86 22 88 23 13 24
REMARK SMILES IDX 14 25 15 26 16 28 17 29 18 30 82 31 19 32 81 33 20 34 21 35
REMARK SMILES IDX 22 36 75 37 23 38 80 39 74 40 76 41 24 42 79 43 73 44 72 45
REMARK SMILES IDX 25 47 59 48 38 49 58 50 39 51 42 52 57 53 77 54 40 55 41 56
REMARK SMILES IDX 56 58 78 59 43 60 26 61 27 62 36 63 28 64 29 65 35 66 37 67
REMARK SMILES IDX 30 68 31 69 32 70 33 71 34 72 60 73 61 74 70 75 62 76 63 77
REMARK SMILES IDX 69 78 71 79 64 80 65 81 66 82 67 83 68 84 44 85 45 86 54 87
REMARK SMILES IDX 46 88 47 89 53 90 55 91 48 92 49 93 50 94 51 95 52 96
REMARK H PARENT 10 6 14 27 76 46 42 57
REMARK Flexibility Score: inf
ROOT
ATOM      1  C   UNL A   1      34.393  31.055  27.382  1.00  0.00     0.042 C 
ENDROOT
BRANCH   1   2
ATOM      2  C   UNL A   1      34.156  29.552  27.279  1.00  0.00     0.117 C 
BRANCH   2   3
ATOM      3  N   UNL A   1      32.803  29.163  27.613  1.00  0.00    -0.354 N 
ATOM      4  C   UNL A   1      32.146  27.996  27.344  1.00  0.00     0.239 C 
ATOM      5  O   UNL A   1      31.012  27.864  27.819  1.00  0.00    -0.273 OA
ATOM      6  H   UNL A   1      32.281  29.837  28.106  1.00  0.00     0.163 HD
BRANCH   4   7
ATOM      7  C   UNL A   1      32.803  26.874  26.523  1.00  0.00     0.217 C 
BRANCH   7   8
ATOM      8  N   UNL A   1      32.818  27.095  25.061  1.00  0.00    -0.355 N 
BRANCH   8   9
ATOM      9  C   UNL A   1      33.931  26.486  24.292  1.00  0.00     0.184 C 
BRANCH   9  10
ATOM     10  C   UNL A   1      34.087  24.985  24.252  1.00  0.00     0.112 A 
ATOM     11  C   UNL A   1      35.686  22.003  25.462  1.00  0.00     0.068 C 
ATOM     12  C   UNL A   1      34.761  22.938  24.771  1.00  0.00     0.051 A 
ATOM     13  N   UNL A   1      35.057  24.294  24.818  1.00  0.00    -0.244 NA
ATOM     14  C   UNL A   1      33.585  22.620  24.111  1.00  0.00     0.025 A 
ATOM     15  S   UNL A   1      32.882  24.040  23.465  1.00  0.00    -0.122 S 
ATOM     16  C   UNL A   1      32.915  21.304  23.938  1.00  0.00     0.058 C 
ENDBRANCH   9  10
ENDBRANCH   8   9
BRANCH   8  17
ATOM     17  C   UNL A   1      31.670  27.580  24.437  1.00  0.00     0.039 A 
ATOM     18  C   UNL A   1      31.668  28.805  23.751  1.00  0.00     0.026 A 
ATOM     19  C   UNL A   1      30.447  26.894  24.461  1.00  0.00     0.046 A 
ATOM     20  C   UNL A   1      30.523  29.310  23.118  1.00  0.00     0.004 A 
ATOM     21  C   UNL A   1      29.301  27.386  23.828  1.00  0.00     0.043 A 
ATOM     22  C   UNL A   1      29.333  28.595  23.151  1.00  0.00     0.020 A 
ATOM     23  Cl  UNL A   1      27.833  26.487  23.909  1.00  0.00    -0.084 Cl
ENDBRANCH   8  17
ENDBRANCH   7   8
ENDBRANCH   4   7
ENDBRANCH   2   3
ENDBRANCH   1   2
BRANCH   1  24
ATOM     24  C   UNL A   1      35.625  31.452  28.188  1.00  0.00     0.118 C 
BRANCH  24  25
ATOM     25  N   UNL A   1      35.511  31.104  29.597  1.00  0.00    -0.352 N 
ATOM     26  C   UNL A   1      36.353  30.394  30.412  1.00  0.00     0.251 C 
ATOM     27  H   UNL A   1      34.693  31.432  30.036  1.00  0.00     0.163 HD
ATOM     28  O   UNL A   1      35.949  30.062  31.531  1.00  0.00    -0.269 OA
BRANCH  26  29
ATOM     29  C   UNL A   1      37.718  30.016  29.985  1.00  0.00     0.039 A 
ATOM     30  C   UNL A   1      37.993  29.927  28.615  1.00  0.00     0.014 A 
ATOM     31  C   UNL A   1      38.711  29.681  30.910  1.00  0.00     0.014 A 
ATOM     32  C   UNL A   1      39.264  29.542  28.179  1.00  0.00     0.010 A 
ATOM     33  C   UNL A   1      39.999  29.373  30.475  1.00  0.00     0.010 A 
ATOM     34  C   UNL A   1      40.284  29.279  29.105  1.00  0.00    -0.014 A 
BRANCH  34  35
ATOM     35  C   UNL A   1      41.640  28.858  28.664  1.00  0.00     0.031 A 
ATOM     36  C   UNL A   1      42.761  29.863  28.618  1.00  0.00     0.074 A 
ATOM     37  C   UNL A   1      41.854  27.591  28.263  1.00  0.00     0.049 A 
ATOM     38  N   UNL A   1      43.997  29.708  28.215  1.00  0.00    -0.248 NA
ATOM     39  C   UNL A   1      42.442  31.230  29.060  1.00  0.00     0.031 C 
ATOM     40  C   UNL A   1      40.845  26.531  28.233  1.00  0.00     0.029 A 
ATOM     41  N   UNL A   1      42.992  26.979  27.803  1.00  0.00    -0.354 N 
ATOM     42  C   UNL A   1      44.595  30.958  28.338  1.00  0.00     0.074 A 
ATOM     43  C   UNL A   1      43.570  31.870  28.795  1.00  0.00     0.031 C 
ATOM     44  C   UNL A   1      41.417  25.391  27.814  1.00  0.00     0.029 A 
ATOM     45  C   UNL A   1      42.823  25.646  27.510  1.00  0.00     0.049 A 
ATOM     46  H   UNL A   1      43.851  27.449  27.693  1.00  0.00     0.167 HD
ATOM     47  C   UNL A   1      45.885  31.310  28.115  1.00  0.00     0.037 A 
ATOM     48  C   UNL A   1      43.703  24.733  27.056  1.00  0.00     0.037 A 
ATOM     49  C   UNL A   1      46.906  30.393  27.679  1.00  0.00     0.049 A 
ATOM     50  C   UNL A   1      45.127  25.145  26.805  1.00  0.00     0.074 A 
ATOM     51  C   UNL A   1      48.250  30.639  27.459  1.00  0.00     0.029 A 
ATOM     52  N   UNL A   1      46.695  29.051  27.398  1.00  0.00    -0.354 N 
ATOM     53  N   UNL A   1      45.686  26.322  26.963  1.00  0.00    -0.248 NA
ATOM     54  C   UNL A   1      46.043  24.103  26.320  1.00  0.00     0.031 C 
ATOM     55  C   UNL A   1      48.844  29.452  27.011  1.00  0.00     0.029 A 
ATOM     56  C   UNL A   1      47.880  28.456  26.996  1.00  0.00     0.049 A 
ATOM     57  H   UNL A   1      45.829  28.588  27.473  1.00  0.00     0.167 HD
ATOM     58  C   UNL A   1      47.027  26.152  26.636  1.00  0.00     0.074 A 
ATOM     59  C   UNL A   1      47.193  24.761  26.269  1.00  0.00     0.031 C 
ATOM     60  C   UNL A   1      48.030  27.065  26.646  1.00  0.00     0.037 A 
BRANCH  47  61
ATOM     61  C   UNL A   1      46.249  32.754  28.338  1.00  0.00     0.058 A 
ATOM     62  C   UNL A   1      46.175  33.701  27.303  1.00  0.00     0.135 A 
ATOM     63  C   UNL A   1      46.703  33.193  29.592  1.00  0.00     0.135 A 
ATOM     64  F   UNL A   1      45.760  33.336  26.080  1.00  0.00    -0.206 F 
ATOM     65  C   UNL A   1      46.597  35.015  27.485  1.00  0.00     0.059 A 
ATOM     66  C   UNL A   1      47.100  34.510  29.806  1.00  0.00     0.059 A 
ATOM     67  F   UNL A   1      46.788  32.334  30.620  1.00  0.00    -0.206 F 
ATOM     68  C   UNL A   1      47.070  35.406  28.738  1.00  0.00     0.060 A 
BRANCH  68  69
ATOM     69  S   UNL A   1      47.665  37.097  28.949  1.00  0.00     0.124 S 
ATOM     70  O   UNL A   1      48.951  37.038  28.261  1.00  0.00    -0.237 OA
ATOM     71  O   UNL A   1      46.628  37.882  28.284  1.00  0.00    -0.237 OA
ATOM     72  O   UNL A   1      47.734  37.255  30.397  1.00  0.00    -0.744 OA
ENDBRANCH  68  69
ENDBRANCH  47  61
BRANCH  48  73
ATOM     73  C   UNL A   1      43.271  23.322  26.872  1.00  0.00     0.058 A 
ATOM     74  C   UNL A   1      43.095  22.795  25.584  1.00  0.00     0.135 A 
ATOM     75  C   UNL A   1      43.063  22.468  27.964  1.00  0.00     0.135 A 
ATOM     76  F   UNL A   1      43.277  23.577  24.509  1.00  0.00    -0.206 F 
ATOM     77  C   UNL A   1      42.723  21.471  25.383  1.00  0.00     0.059 A 
ATOM     78  C   UNL A   1      42.710  21.132  27.788  1.00  0.00     0.059 A 
ATOM     79  F   UNL A   1      43.233  22.920  29.215  1.00  0.00    -0.206 F 
ATOM     80  C   UNL A   1      42.538  20.645  26.493  1.00  0.00     0.060 A 
BRANCH  80  81
ATOM     81  S   UNL A   1      42.124  18.908  26.217  1.00  0.00     0.124 S 
ATOM     82  O   UNL A   1      43.107  18.529  25.209  1.00  0.00    -0.237 OA
ATOM     83  O   UNL A   1      42.317  18.332  27.545  1.00  0.00    -0.237 OA
ATOM     84  O   UNL A   1      40.739  18.962  25.761  1.00  0.00    -0.744 OA
ENDBRANCH  80  81
ENDBRANCH  48  73
BRANCH  60  85
ATOM     85  C   UNL A   1      49.410  26.577  26.299  1.00  0.00     0.058 A 
ATOM     86  C   UNL A   1      49.958  26.747  25.019  1.00  0.00     0.135 A 
ATOM     87  C   UNL A   1      50.210  25.967  27.280  1.00  0.00     0.135 A 
ATOM     88  F   UNL A   1      49.233  27.319  24.044  1.00  0.00    -0.206 F 
ATOM     89  C   UNL A   1      51.241  26.305  24.714  1.00  0.00     0.059 A 
ATOM     90  C   UNL A   1      51.505  25.539  27.004  1.00  0.00     0.059 A 
ATOM     91  F   UNL A   1      49.737  25.789  28.524  1.00  0.00    -0.206 F 
ATOM     92  C   UNL A   1      52.007  25.701  25.714  1.00  0.00     0.060 A 
BRANCH  92  93
ATOM     93  S   UNL A   1      53.682  25.154  25.315  1.00  0.00     0.124 S 
ATOM     94  O   UNL A   1      53.841  25.664  23.957  1.00  0.00    -0.237 OA
ATOM     95  O   UNL A   1      54.481  25.821  26.339  1.00  0.00    -0.237 OA
ATOM     96  O   UNL A   1      53.603  23.702  25.437  1.00  0.00    -0.744 OA
ENDBRANCH  92  93
ENDBRANCH  60  85
ENDBRANCH  34  35
ENDBRANCH  26  29
ENDBRANCH  24  25
ENDBRANCH   1  24
TORSDOF 17
ENDMDL
MODEL 3
REMARK VINA RESULT:     -11.0      3.642      9.356
REMARK SMILES Cc1nc(CN(CC(=O)NCCCNC(=O)c2ccc(-c3c4nc(c(-c5c(F)cc(S(=O)(=O)[O-])cc5F)c5ccc([nH]5)c(-c5c(F)cc(S(=O)(=O)[O-])cc5F)c5nc(c(-c6c(F)cc(S(=O)(=O)[O-])cc6F)c6ccc3[nH]6)C=C5)C=C4)cc2)c2cccc(Cl)c2)sc1C
REMARK SMILES IDX 12 1 11 2 10 3 8 4 9 5 7 7 6 8 5 9 4 10 1 11 2 12 3 13 91 14
REMARK SMILES IDX 90 15 92 16 83 17 84 18 89 19 85 20 87 21 86 22 88 23 13 24
REMARK SMILES IDX 14 25 15 26 16 28 17 29 18 30 82 31 19 32 81 33 20 34 21 35
REMARK SMILES IDX 22 36 75 37 23 38 80 39 74 40 76 41 24 42 79 43 73 44 72 45
REMARK SMILES IDX 25 47 59 48 38 49 58 50 39 51 42 52 57 53 77 54 40 55 41 56
REMARK SMILES IDX 56 58 78 59 43 60 26 61 27 62 36 63 28 64 29 65 35 66 37 67
REMARK SMILES IDX 30 68 31 69 32 70 33 71 34 72 60 73 61 74 70 75 62 76 63 77
REMARK SMILES IDX 69 78 71 79 64 80 65 81 66 82 67 83 68 84 44 85 45 86 54 87
REMARK SMILES IDX 46 88 47 89 53 90 55 91 48 92 49 93 50 94 51 95 52 96
REMARK H PARENT 10 6 14 27 76 46 42 57
REMARK Flexibility Score: inf
ROOT
ATOM      1  C   UNL A   1      34.384  30.694  27.401  1.00  0.00     0.042 C 
ENDROOT
BRANCH   1   2
ATOM      2  C   UNL A   1      34.223  29.189  27.207  1.00  0.00     0.117 C 
BRANCH   2   3
ATOM      3  N   UNL A   1      32.957  28.684  27.693  1.00  0.00    -0.354 N 
ATOM      4  C   UNL A   1      32.030  27.911  27.052  1.00  0.00     0.239 C 
ATOM      5  O   UNL A   1      31.060  27.527  27.715  1.00  0.00    -0.273 OA
ATOM      6  H   UNL A   1      32.731  28.933  28.618  1.00  0.00     0.163 HD
BRANCH   4   7
ATOM      7  C   UNL A   1      32.206  27.497  25.582  1.00  0.00     0.217 C 
BRANCH   7   8
ATOM      8  N   UNL A   1      31.995  26.060  25.307  1.00  0.00    -0.355 N 
BRANCH   8   9
ATOM      9  C   UNL A   1      30.868  25.697  24.412  1.00  0.00     0.184 C 
BRANCH   9  10
ATOM     10  C   UNL A   1      30.126  26.774  23.659  1.00  0.00     0.112 A 
ATOM     11  C   UNL A   1      27.175  28.777  23.219  1.00  0.00     0.068 C 
ATOM     12  C   UNL A   1      28.555  28.238  23.108  1.00  0.00     0.051 A 
ATOM     13  N   UNL A   1      28.843  27.053  23.774  1.00  0.00    -0.244 NA
ATOM     14  C   UNL A   1      29.628  28.809  22.445  1.00  0.00     0.025 A 
ATOM     15  S   UNL A   1      31.003  27.799  22.589  1.00  0.00    -0.122 S 
ATOM     16  C   UNL A   1      29.717  30.098  21.708  1.00  0.00     0.058 C 
ENDBRANCH   9  10
ENDBRANCH   8   9
BRANCH   8  17
ATOM     17  C   UNL A   1      33.003  25.153  25.626  1.00  0.00     0.039 A 
ATOM     18  C   UNL A   1      34.304  25.290  25.116  1.00  0.00     0.026 A 
ATOM     19  C   UNL A   1      32.790  24.044  26.458  1.00  0.00     0.046 A 
ATOM     20  C   UNL A   1      35.332  24.387  25.425  1.00  0.00     0.004 A 
ATOM     21  C   UNL A   1      33.809  23.141  26.777  1.00  0.00     0.043 A 
ATOM     22  C   UNL A   1      35.086  23.309  26.265  1.00  0.00     0.020 A 
ATOM     23  Cl  UNL A   1      33.466  21.798  27.801  1.00  0.00    -0.084 Cl
ENDBRANCH   8  17
ENDBRANCH   7   8
ENDBRANCH   4   7
ENDBRANCH   2   3
ENDBRANCH   1   2
BRANCH   1  24
ATOM     24  C   UNL A   1      35.643  31.108  28.157  1.00  0.00     0.118 C 
BRANCH  24  25
ATOM     25  N   UNL A   1      35.594  30.751  29.567  1.00  0.00    -0.352 N 
ATOM     26  C   UNL A   1      36.487  30.063  30.346  1.00  0.00     0.251 C 
ATOM     27  H   UNL A   1      34.785  31.054  30.039  1.00  0.00     0.163 HD
ATOM     28  O   UNL A   1      36.136  29.716  31.478  1.00  0.00    -0.269 OA
BRANCH  26  29
ATOM     29  C   UNL A   1      37.845  29.727  29.864  1.00  0.00     0.039 A 
ATOM     30  C   UNL A   1      38.845  29.460  30.805  1.00  0.00     0.014 A 
ATOM     31  C   UNL A   1      38.164  29.738  28.503  1.00  0.00     0.014 A 
ATOM     32  C   UNL A   1      40.146  29.170  30.383  1.00  0.00     0.010 A 
ATOM     33  C   UNL A   1      39.441  29.372  28.080  1.00  0.00     0.010 A 
ATOM     34  C   UNL A   1      40.451  29.105  29.015  1.00  0.00    -0.014 A 
BRANCH  34  35
ATOM     35  C   UNL A   1      41.829  28.808  28.544  1.00  0.00     0.031 A 
ATOM     36  C   UNL A   1      42.186  27.415  28.093  1.00  0.00     0.074 A 
ATOM     37  C   UNL A   1      42.769  29.772  28.561  1.00  0.00     0.049 A 
ATOM     38  N   UNL A   1      43.341  26.942  27.698  1.00  0.00    -0.248 NA
ATOM     39  C   UNL A   1      41.106  26.416  28.117  1.00  0.00     0.031 C 
ATOM     40  C   UNL A   1      42.559  31.151  29.001  1.00  0.00     0.029 A 
ATOM     41  N   UNL A   1      44.092  29.737  28.200  1.00  0.00    -0.354 N 
ATOM     42  C   UNL A   1      43.130  25.591  27.444  1.00  0.00     0.074 A 
ATOM     43  C   UNL A   1      41.754  25.310  27.788  1.00  0.00     0.031 C 
ATOM     44  C   UNL A   1      43.700  31.841  28.849  1.00  0.00     0.029 A 
ATOM     45  C   UNL A   1      44.734  30.945  28.337  1.00  0.00     0.049 A 
ATOM     46  H   UNL A   1      44.541  28.924  27.872  1.00  0.00     0.167 HD
ATOM     47  C   UNL A   1      43.995  24.673  26.946  1.00  0.00     0.037 A 
ATOM     48  C   UNL A   1      46.008  31.292  28.073  1.00  0.00     0.037 A 
ATOM     49  C   UNL A   1      45.359  24.964  26.587  1.00  0.00     0.049 A 
ATOM     50  C   UNL A   1      46.955  30.258  27.531  1.00  0.00     0.074 A 
ATOM     51  C   UNL A   1      46.307  24.116  26.040  1.00  0.00     0.029 A 
ATOM     52  N   UNL A   1      45.969  26.201  26.737  1.00  0.00    -0.354 N 
ATOM     53  N   UNL A   1      46.730  28.994  27.259  1.00  0.00    -0.248 NA
ATOM     54  C   UNL A   1      48.329  30.698  27.253  1.00  0.00     0.031 C 
ATOM     55  C   UNL A   1      47.501  24.833  25.893  1.00  0.00     0.029 A 
ATOM     56  C   UNL A   1      47.283  26.139  26.304  1.00  0.00     0.049 A 
ATOM     57  H   UNL A   1      45.531  27.006  27.098  1.00  0.00     0.167 HD
ATOM     58  C   UNL A   1      47.922  28.499  26.741  1.00  0.00     0.074 A 
ATOM     59  C   UNL A   1      48.864  29.599  26.740  1.00  0.00     0.031 C 
ATOM     60  C   UNL A   1      48.206  27.248  26.299  1.00  0.00     0.037 A 
BRANCH  47  61
ATOM     61  C   UNL A   1      43.478  23.270  26.772  1.00  0.00     0.058 A 
ATOM     62  C   UNL A   1      43.236  22.431  27.872  1.00  0.00     0.135 A 
ATOM     63  C   UNL A   1      43.248  22.745  25.490  1.00  0.00     0.135 A 
ATOM     64  F   UNL A   1      43.451  22.875  29.121  1.00  0.00    -0.206 F 
ATOM     65  C   UNL A   1      42.845  21.106  27.707  1.00  0.00     0.059 A 
ATOM     66  C   UNL A   1      42.825  21.432  25.302  1.00  0.00     0.059 A 
ATOM     67  F   UNL A   1      43.454  23.503  24.401  1.00  0.00    -0.206 F 
ATOM     68  C   UNL A   1      42.654  20.612  26.416  1.00  0.00     0.060 A 
BRANCH  68  69
ATOM     69  S   UNL A   1      42.200  18.877  26.212  1.00  0.00     0.124 S 
ATOM     70  O   UNL A   1      40.802  18.991  25.806  1.00  0.00    -0.237 OA
ATOM     71  O   UNL A   1      43.125  18.429  25.173  1.00  0.00    -0.237 OA
ATOM     72  O   UNL A   1      42.426  18.309  27.535  1.00  0.00    -0.744 OA
ENDBRANCH  68  69
ENDBRANCH  47  61
BRANCH  48  73
ATOM     73  C   UNL A   1      46.442  32.703  28.260  1.00  0.00     0.058 A 
ATOM     74  C   UNL A   1      46.287  33.636  27.224  1.00  0.00     0.135 A 
ATOM     75  C   UNL A   1      46.979  33.154  29.474  1.00  0.00     0.135 A 
ATOM     76  F   UNL A   1      45.783  33.249  26.043  1.00  0.00    -0.206 F 
ATOM     77  C   UNL A   1      46.655  34.968  27.383  1.00  0.00     0.059 A 
ATOM     78  C   UNL A   1      47.335  34.487  29.664  1.00  0.00     0.059 A 
ATOM     79  F   UNL A   1      47.132  32.303  30.500  1.00  0.00    -0.206 F 
ATOM     80  C   UNL A   1      47.173  35.385  28.610  1.00  0.00     0.060 A 
BRANCH  80  81
ATOM     81  S   UNL A   1      47.580  37.131  28.826  1.00  0.00     0.124 S 
ATOM     82  O   UNL A   1      47.713  37.575  27.443  1.00  0.00    -0.237 OA
ATOM     83  O   UNL A   1      46.413  37.631  29.548  1.00  0.00    -0.237 OA
ATOM     84  O   UNL A   1      48.817  37.094  29.599  1.00  0.00    -0.744 OA
ENDBRANCH  80  81
ENDBRANCH  48  73
BRANCH  60  85
ATOM     85  C   UNL A   1      49.577  27.014  25.727  1.00  0.00     0.058 A 
ATOM     86  C   UNL A   1      49.872  27.268  24.379  1.00  0.00     0.135 A 
ATOM     87  C   UNL A   1      50.620  26.567  26.555  1.00  0.00     0.135 A 
ATOM     88  F   UNL A   1      48.909  27.691  23.544  1.00  0.00    -0.206 F 
ATOM     89  C   UNL A   1      51.148  27.062  23.864  1.00  0.00     0.059 A 
ATOM     90  C   UNL A   1      51.909  26.378  26.067  1.00  0.00     0.059 A 
ATOM     91  F   UNL A   1      50.393  26.319  27.855  1.00  0.00    -0.206 F 
ATOM     92  C   UNL A   1      52.161  26.616  24.717  1.00  0.00     0.060 A 
BRANCH  92  93
ATOM     93  S   UNL A   1      53.820  26.377  24.045  1.00  0.00     0.124 S 
ATOM     94  O   UNL A   1      53.526  25.972  22.674  1.00  0.00    -0.237 OA
ATOM     95  O   UNL A   1      54.415  27.701  24.201  1.00  0.00    -0.237 OA
ATOM     96  O   UNL A   1      54.386  25.338  24.900  1.00  0.00    -0.744 OA
ENDBRANCH  92  93
ENDBRANCH  60  85
ENDBRANCH  34  35
ENDBRANCH  26  29
ENDBRANCH  24  25
ENDBRANCH   1  24
TORSDOF 17
ENDMDL
