MODEL 1
REMARK VINA RESULT:     -12.5      0.000      0.000
REMARK SMILES C#Cc1cccc(NS(=O)(=O)c2ccc(F)c(C(=O)NCCCNC(=O)c3ccc(-c4c5nc(c(-c6c(F)cc(S(=O)(=O)[O-])cc6F)c6ccc([nH]6)c(-c6c(F)cc(S(=O)(=O)[O-])cc6F)c6nc(c(-c7c(F)cc(S(=O)(=O)[O-])cc7F)c7ccc4[nH]7)C=C6)C=C5)cc3)c2)c1
REMARK SMILES IDX 21 1 20 2 18 3 19 4 17 6 12 7 13 8 93 9 14 10 15 11 16 12
REMARK SMILES IDX 9 13 10 14 11 15 8 16 7 18 3 19 4 20 94 21 5 22 6 23 2 24
REMARK SMILES IDX 1 25 22 26 23 27 24 28 25 29 26 31 27 32 28 33 92 34 29 35
REMARK SMILES IDX 91 36 30 37 31 38 32 39 85 40 33 41 90 42 84 43 86 44 34 45
REMARK SMILES IDX 89 46 83 47 82 48 35 50 69 51 48 52 68 53 49 54 52 55 67 56
REMARK SMILES IDX 87 57 50 58 51 59 66 61 88 62 53 63 36 64 37 65 46 66 38 67
REMARK SMILES IDX 39 68 45 69 47 70 40 71 41 72 42 73 43 74 44 75 70 76 71 77
REMARK SMILES IDX 80 78 72 79 73 80 79 81 81 82 74 83 75 84 76 85 77 86 78 87
REMARK SMILES IDX 54 88 55 89 64 90 56 91 57 92 63 93 65 94 58 95 59 96 60 97
REMARK SMILES IDX 61 98 62 99
REMARK H PARENT 20 5 8 17 24 30 86 49 52 60
REMARK Flexibility Score: inf
ROOT
ATOM      1  C   UNL A   1      37.076  22.109  25.525  1.00  0.00     0.118 C 
ENDROOT
BRANCH   1   2
ATOM      2  N   UNL A   1      35.993  21.979  26.482  1.00  0.00    -0.352 N 
ATOM      3  C   UNL A   1      34.644  22.195  26.397  1.00  0.00     0.254 C 
ATOM      4  O   UNL A   1      33.998  22.065  27.439  1.00  0.00    -0.269 OA
ATOM      5  H   UNL A   1      36.288  21.674  27.370  1.00  0.00     0.163 HD
BRANCH   3   6
ATOM      6  C   UNL A   1      33.909  22.434  25.126  1.00  0.00     0.076 A 
ATOM      7  C   UNL A   1      32.817  24.078  23.694  1.00  0.00     0.088 A 
ATOM      8  C   UNL A   1      32.081  23.072  23.076  1.00  0.00     0.025 A 
ATOM      9  C   UNL A   1      33.653  23.769  24.779  1.00  0.00     0.039 A 
ATOM     10  C   UNL A   1      32.461  21.753  23.304  1.00  0.00     0.041 A 
ATOM     11  C   UNL A   1      33.440  21.460  24.252  1.00  0.00     0.136 A 
ATOM     12  F   UNL A   1      33.980  20.237  24.197  1.00  0.00    -0.206 F 
BRANCH   7  13
ATOM     13  S   UNL A   1      33.002  25.690  22.957  1.00  0.00     0.261 S 
ATOM     14  O   UNL A   1      31.670  26.178  22.670  1.00  0.00    -0.201 OA
ATOM     15  O   UNL A   1      33.986  25.543  21.905  1.00  0.00    -0.201 OA
BRANCH  13  16
ATOM     16  N   UNL A   1      33.693  26.756  24.055  1.00  0.00    -0.280 N 
ATOM     17  H   UNL A   1      34.659  26.909  23.950  1.00  0.00     0.180 HD
BRANCH  16  18
ATOM     18  C   UNL A   1      33.067  27.471  25.122  1.00  0.00     0.050 A 
ATOM     19  C   UNL A   1      33.369  29.166  26.835  1.00  0.00     0.026 A 
ATOM     20  C   UNL A   1      32.290  28.642  27.542  1.00  0.00     0.017 A 
ATOM     21  C   UNL A   1      33.775  28.563  25.641  1.00  0.00     0.044 A 
ATOM     22  C   UNL A   1      31.510  27.646  26.961  1.00  0.00     0.003 A 
ATOM     23  C   UNL A   1      31.849  27.127  25.705  1.00  0.00     0.027 A 
BRANCH  19  24
ATOM     24  C   UNL A   1      33.998  30.354  27.314  1.00  0.00    -0.070 C 
ATOM     25  C   UNL A   1      34.649  31.283  27.720  1.00  0.00     0.010 C 
ENDBRANCH  19  24
ENDBRANCH  16  18
ENDBRANCH  13  16
ENDBRANCH   7  13
ENDBRANCH   3   6
ENDBRANCH   1   2
BRANCH   1  26
ATOM     26  C   UNL A   1      37.460  23.579  25.362  1.00  0.00     0.042 C 
BRANCH  26  27
ATOM     27  C   UNL A   1      38.329  24.066  26.517  1.00  0.00     0.118 C 
BRANCH  27  28
ATOM     28  N   UNL A   1      39.748  23.932  26.200  1.00  0.00    -0.352 N 
ATOM     29  C   UNL A   1      40.800  24.749  26.512  1.00  0.00     0.251 C 
ATOM     30  H   UNL A   1      39.984  23.129  25.680  1.00  0.00     0.163 HD
ATOM     31  O   UNL A   1      41.867  24.613  25.920  1.00  0.00    -0.269 OA
BRANCH  29  32
ATOM     32  C   UNL A   1      40.646  25.785  27.551  1.00  0.00     0.039 A 
ATOM     33  C   UNL A   1      39.698  25.599  28.558  1.00  0.00     0.014 A 
ATOM     34  C   UNL A   1      41.419  26.949  27.514  1.00  0.00     0.014 A 
ATOM     35  C   UNL A   1      39.561  26.560  29.558  1.00  0.00     0.010 A 
ATOM     36  C   UNL A   1      41.348  27.859  28.562  1.00  0.00     0.010 A 
ATOM     37  C   UNL A   1      40.410  27.680  29.588  1.00  0.00    -0.014 A 
BRANCH  37  38
ATOM     38  C   UNL A   1      40.332  28.674  30.685  1.00  0.00     0.031 A 
ATOM     39  C   UNL A   1      41.248  28.562  31.872  1.00  0.00     0.074 A 
ATOM     40  C   UNL A   1      39.400  29.646  30.629  1.00  0.00     0.049 A 
ATOM     41  N   UNL A   1      41.293  29.302  32.949  1.00  0.00    -0.248 NA
ATOM     42  C   UNL A   1      42.227  27.461  31.862  1.00  0.00     0.031 C 
ATOM     43  C   UNL A   1      38.433  29.825  29.543  1.00  0.00     0.029 A 
ATOM     44  N   UNL A   1      39.110  30.665  31.500  1.00  0.00    -0.354 N 
ATOM     45  C   UNL A   1      42.297  28.757  33.740  1.00  0.00     0.074 A 
ATOM     46  C   UNL A   1      42.791  27.586  33.055  1.00  0.00     0.031 C 
ATOM     47  C   UNL A   1      37.685  30.912  29.793  1.00  0.00     0.029 A 
ATOM     48  C   UNL A   1      38.080  31.474  31.080  1.00  0.00     0.049 A 
ATOM     49  H   UNL A   1      39.593  30.803  32.346  1.00  0.00     0.167 HD
ATOM     50  C   UNL A   1      42.782  29.215  34.918  1.00  0.00     0.037 A 
ATOM     51  C   UNL A   1      37.510  32.543  31.671  1.00  0.00     0.037 A 
ATOM     52  C   UNL A   1      42.289  30.393  35.582  1.00  0.00     0.049 A 
ATOM     53  C   UNL A   1      38.041  33.007  32.999  1.00  0.00     0.074 A 
ATOM     54  C   UNL A   1      42.740  30.965  36.759  1.00  0.00     0.029 A 
ATOM     55  N   UNL A   1      41.236  31.177  35.133  1.00  0.00    -0.354 N 
ATOM     56  N   UNL A   1      39.028  32.514  33.708  1.00  0.00    -0.248 NA
ATOM     57  C   UNL A   1      37.386  34.172  33.610  1.00  0.00     0.031 C 
ATOM     58  C   UNL A   1      41.918  32.054  37.056  1.00  0.00     0.029 A 
ATOM     59  C   UNL A   1      41.002  32.209  36.028  1.00  0.00     0.049 A 
ATOM     60  H   UNL A   1      40.730  31.024  34.303  1.00  0.00     0.167 HD
ATOM     61  C   UNL A   1      39.131  33.324  34.835  1.00  0.00     0.074 A 
ATOM     62  C   UNL A   1      38.114  34.347  34.704  1.00  0.00     0.031 C 
ATOM     63  C   UNL A   1      39.989  33.226  35.881  1.00  0.00     0.037 A 
BRANCH  50  64
ATOM     64  C   UNL A   1      43.909  28.454  35.564  1.00  0.00     0.058 A 
ATOM     65  C   UNL A   1      45.241  28.698  35.195  1.00  0.00     0.135 A 
ATOM     66  C   UNL A   1      43.668  27.427  36.492  1.00  0.00     0.135 A 
ATOM     67  F   UNL A   1      45.533  29.672  34.318  1.00  0.00    -0.206 F 
ATOM     68  C   UNL A   1      46.290  27.940  35.705  1.00  0.00     0.059 A 
ATOM     69  C   UNL A   1      44.705  26.677  37.040  1.00  0.00     0.059 A 
ATOM     70  F   UNL A   1      42.415  27.162  36.897  1.00  0.00    -0.206 F 
ATOM     71  C   UNL A   1      46.011  26.930  36.627  1.00  0.00     0.060 A 
BRANCH  71  72
ATOM     72  S   UNL A   1      47.387  25.968  37.289  1.00  0.00     0.124 S 
ATOM     73  O   UNL A   1      46.696  24.875  37.963  1.00  0.00    -0.237 OA
ATOM     74  O   UNL A   1      48.119  25.611  36.077  1.00  0.00    -0.237 OA
ATOM     75  O   UNL A   1      48.070  26.915  38.168  1.00  0.00    -0.744 OA
ENDBRANCH  71  72
ENDBRANCH  50  64
BRANCH  51  76
ATOM     76  C   UNL A   1      36.396  33.255  30.988  1.00  0.00     0.058 A 
ATOM     77  C   UNL A   1      36.620  34.033  29.840  1.00  0.00     0.135 A 
ATOM     78  C   UNL A   1      35.088  33.208  31.496  1.00  0.00     0.135 A 
ATOM     79  F   UNL A   1      37.853  34.126  29.319  1.00  0.00    -0.206 F 
ATOM     80  C   UNL A   1      35.598  34.760  29.240  1.00  0.00     0.059 A 
ATOM     81  C   UNL A   1      34.042  33.900  30.894  1.00  0.00     0.059 A 
ATOM     82  F   UNL A   1      34.821  32.470  32.585  1.00  0.00    -0.206 F 
ATOM     83  C   UNL A   1      34.312  34.689  29.776  1.00  0.00     0.060 A 
BRANCH  83  84
ATOM     84  S   UNL A   1      33.005  35.654  28.990  1.00  0.00     0.124 S 
ATOM     85  O   UNL A   1      32.411  34.666  28.093  1.00  0.00    -0.237 OA
ATOM     86  O   UNL A   1      32.187  36.045  30.133  1.00  0.00    -0.237 OA
ATOM     87  O   UNL A   1      33.728  36.739  28.336  1.00  0.00    -0.744 OA
ENDBRANCH  83  84
ENDBRANCH  51  76
BRANCH  63  88
ATOM     88  C   UNL A   1      39.894  34.264  36.968  1.00  0.00     0.058 A 
ATOM     89  C   UNL A   1      39.117  34.020  38.113  1.00  0.00     0.135 A 
ATOM     90  C   UNL A   1      40.487  35.529  36.836  1.00  0.00     0.135 A 
ATOM     91  F   UNL A   1      38.521  32.830  38.288  1.00  0.00    -0.206 F 
ATOM     92  C   UNL A   1      38.911  35.003  39.074  1.00  0.00     0.059 A 
ATOM     93  C   UNL A   1      40.323  36.516  37.803  1.00  0.00     0.059 A 
ATOM     94  F   UNL A   1      41.247  35.810  35.765  1.00  0.00    -0.206 F 
ATOM     95  C   UNL A   1      39.517  36.248  38.910  1.00  0.00     0.060 A 
BRANCH  95  96
ATOM     96  S   UNL A   1      39.240  37.509  40.172  1.00  0.00     0.124 S 
ATOM     97  O   UNL A   1      38.751  36.712  41.292  1.00  0.00    -0.237 OA
ATOM     98  O   UNL A   1      40.575  38.079  40.332  1.00  0.00    -0.237 OA
ATOM     99  O   UNL A   1      38.257  38.395  39.556  1.00  0.00    -0.744 OA
ENDBRANCH  95  96
ENDBRANCH  63  88
ENDBRANCH  37  38
ENDBRANCH  29  32
ENDBRANCH  27  28
ENDBRANCH  26  27
ENDBRANCH   1  26
TORSDOF 17
ENDMDL
MODEL 2
REMARK VINA RESULT:     -12.3      4.742     11.915
REMARK SMILES C#Cc1cccc(NS(=O)(=O)c2ccc(F)c(C(=O)NCCCNC(=O)c3ccc(-c4c5nc(c(-c6c(F)cc(S(=O)(=O)[O-])cc6F)c6ccc([nH]6)c(-c6c(F)cc(S(=O)(=O)[O-])cc6F)c6nc(c(-c7c(F)cc(S(=O)(=O)[O-])cc7F)c7ccc4[nH]7)C=C6)C=C5)cc3)c2)c1
REMARK SMILES IDX 21 1 20 2 18 3 19 4 17 6 12 7 13 8 93 9 14 10 15 11 16 12
REMARK SMILES IDX 9 13 10 14 11 15 8 16 7 18 3 19 4 20 94 21 5 22 6 23 2 24
REMARK SMILES IDX 1 25 22 26 23 27 24 28 25 29 26 31 27 32 28 33 92 34 29 35
REMARK SMILES IDX 91 36 30 37 31 38 32 39 85 40 33 41 90 42 84 43 86 44 34 45
REMARK SMILES IDX 89 46 83 47 82 48 35 50 69 51 48 52 68 53 49 54 52 55 67 56
REMARK SMILES IDX 87 57 50 58 51 59 66 61 88 62 53 63 36 64 37 65 46 66 38 67
REMARK SMILES IDX 39 68 45 69 47 70 40 71 41 72 42 73 43 74 44 75 70 76 71 77
REMARK SMILES IDX 80 78 72 79 73 80 79 81 81 82 74 83 75 84 76 85 77 86 78 87
REMARK SMILES IDX 54 88 55 89 64 90 56 91 57 92 63 93 65 94 58 95 59 96 60 97
REMARK SMILES IDX 61 98 62 99
REMARK H PARENT 20 5 8 17 24 30 86 49 52 60
REMARK Flexibility Score: inf
ROOT
ATOM      1  C   UNL A   1      34.413  34.833  29.564  1.00  0.00     0.118 C 
ENDROOT
BRANCH   1   2
ATOM      2  N   UNL A   1      34.038  33.892  30.603  1.00  0.00    -0.352 N 
ATOM      3  C   UNL A   1      34.758  33.211  31.548  1.00  0.00     0.254 C 
ATOM      4  O   UNL A   1      34.133  32.408  32.244  1.00  0.00    -0.269 OA
ATOM      5  H   UNL A   1      33.072  33.704  30.634  1.00  0.00     0.163 HD
BRANCH   3   6
ATOM      6  C   UNL A   1      36.185  33.478  31.871  1.00  0.00     0.076 A 
ATOM      7  C   UNL A   1      37.771  34.266  33.548  1.00  0.00     0.088 A 
ATOM      8  C   UNL A   1      38.704  34.545  32.555  1.00  0.00     0.025 A 
ATOM      9  C   UNL A   1      36.484  33.826  33.197  1.00  0.00     0.039 A 
ATOM     10  C   UNL A   1      38.467  34.043  31.279  1.00  0.00     0.041 A 
ATOM     11  C   UNL A   1      37.252  33.428  30.982  1.00  0.00     0.136 A 
ATOM     12  F   UNL A   1      37.210  32.696  29.863  1.00  0.00    -0.206 F 
BRANCH   7  13
ATOM     13  S   UNL A   1      38.242  34.120  35.260  1.00  0.00     0.261 S 
ATOM     14  O   UNL A   1      37.028  33.884  36.013  1.00  0.00    -0.201 OA
ATOM     15  O   UNL A   1      39.089  35.259  35.546  1.00  0.00    -0.201 OA
BRANCH  13  16
ATOM     16  N   UNL A   1      39.227  32.778  35.481  1.00  0.00    -0.280 N 
ATOM     17  H   UNL A   1      39.911  32.862  36.183  1.00  0.00     0.180 HD
BRANCH  16  18
ATOM     18  C   UNL A   1      39.206  31.530  34.786  1.00  0.00     0.050 A 
ATOM     19  C   UNL A   1      40.552  29.856  33.650  1.00  0.00     0.026 A 
ATOM     20  C   UNL A   1      39.420  29.404  32.979  1.00  0.00     0.017 A 
ATOM     21  C   UNL A   1      40.450  30.938  34.531  1.00  0.00     0.044 A 
ATOM     22  C   UNL A   1      38.169  29.904  33.331  1.00  0.00     0.003 A 
ATOM     23  C   UNL A   1      38.058  30.903  34.306  1.00  0.00     0.027 A 
BRANCH  19  24
ATOM     24  C   UNL A   1      41.785  29.160  33.474  1.00  0.00    -0.070 C 
ATOM     25  C   UNL A   1      42.771  28.523  33.205  1.00  0.00     0.010 C 
ENDBRANCH  19  24
ENDBRANCH  16  18
ENDBRANCH  13  16
ENDBRANCH   7  13
ENDBRANCH   3   6
ENDBRANCH   1   2
BRANCH   1  26
ATOM     26  C   UNL A   1      34.189  34.212  28.185  1.00  0.00     0.042 C 
BRANCH  26  27
ATOM     27  C   UNL A   1      34.995  32.930  28.008  1.00  0.00     0.118 C 
BRANCH  27  28
ATOM     28  N   UNL A   1      34.125  31.757  28.014  1.00  0.00    -0.352 N 
ATOM     29  C   UNL A   1      34.441  30.427  27.955  1.00  0.00     0.251 C 
ATOM     30  H   UNL A   1      33.162  31.954  28.070  1.00  0.00     0.163 HD
ATOM     31  O   UNL A   1      33.564  29.610  27.691  1.00  0.00    -0.269 OA
BRANCH  29  32
ATOM     32  C   UNL A   1      35.826  29.986  28.205  1.00  0.00     0.039 A 
ATOM     33  C   UNL A   1      36.744  30.006  27.154  1.00  0.00     0.014 A 
ATOM     34  C   UNL A   1      36.210  29.530  29.470  1.00  0.00     0.014 A 
ATOM     35  C   UNL A   1      38.061  29.614  27.386  1.00  0.00     0.010 A 
ATOM     36  C   UNL A   1      37.543  29.232  29.721  1.00  0.00     0.010 A 
ATOM     37  C   UNL A   1      38.479  29.259  28.679  1.00  0.00    -0.014 A 
BRANCH  37  38
ATOM     38  C   UNL A   1      39.893  28.912  28.961  1.00  0.00     0.031 A 
ATOM     39  C   UNL A   1      40.810  29.931  29.581  1.00  0.00     0.074 A 
ATOM     40  C   UNL A   1      40.357  27.697  28.611  1.00  0.00     0.049 A 
ATOM     41  N   UNL A   1      42.085  29.831  29.854  1.00  0.00    -0.248 NA
ATOM     42  C   UNL A   1      40.227  31.241  29.919  1.00  0.00     0.031 C 
ATOM     43  C   UNL A   1      39.565  26.646  27.967  1.00  0.00     0.029 A 
ATOM     44  N   UNL A   1      41.602  27.137  28.744  1.00  0.00    -0.354 N 
ATOM     45  C   UNL A   1      42.454  31.059  30.389  1.00  0.00     0.074 A 
ATOM     46  C   UNL A   1      41.289  31.912  30.342  1.00  0.00     0.031 C 
ATOM     47  C   UNL A   1      40.332  25.557  27.800  1.00  0.00     0.029 A 
ATOM     48  C   UNL A   1      41.682  25.848  28.271  1.00  0.00     0.049 A 
ATOM     49  H   UNL A   1      42.367  27.613  29.141  1.00  0.00     0.167 HD
ATOM     50  C   UNL A   1      43.651  31.428  30.901  1.00  0.00     0.037 A 
ATOM     51  C   UNL A   1      42.727  24.999  28.213  1.00  0.00     0.037 A 
ATOM     52  C   UNL A   1      44.800  30.563  30.955  1.00  0.00     0.049 A 
ATOM     53  C   UNL A   1      44.057  25.449  28.753  1.00  0.00     0.074 A 
ATOM     54  C   UNL A   1      46.047  30.827  31.492  1.00  0.00     0.029 A 
ATOM     55  N   UNL A   1      44.845  29.270  30.452  1.00  0.00    -0.354 N 
ATOM     56  N   UNL A   1      44.375  26.594  29.307  1.00  0.00    -0.248 NA
ATOM     57  C   UNL A   1      45.170  24.494  28.664  1.00  0.00     0.031 C 
ATOM     58  C   UNL A   1      46.865  29.720  31.255  1.00  0.00     0.029 A 
ATOM     59  C   UNL A   1      46.110  28.736  30.638  1.00  0.00     0.049 A 
ATOM     60  H   UNL A   1      44.091  28.801  30.028  1.00  0.00     0.167 HD
ATOM     61  C   UNL A   1      45.717  26.489  29.657  1.00  0.00     0.074 A 
ATOM     62  C   UNL A   1      46.146  25.162  29.265  1.00  0.00     0.031 C 
ATOM     63  C   UNL A   1      46.520  27.409  30.248  1.00  0.00     0.037 A 
BRANCH  50  64
ATOM     64  C   UNL A   1      43.784  32.821  31.458  1.00  0.00     0.058 A 
ATOM     65  C   UNL A   1      44.123  33.897  30.620  1.00  0.00     0.135 A 
ATOM     66  C   UNL A   1      43.655  33.081  32.832  1.00  0.00     0.135 A 
ATOM     67  F   UNL A   1      44.253  33.710  29.298  1.00  0.00    -0.206 F 
ATOM     68  C   UNL A   1      44.349  35.172  31.127  1.00  0.00     0.059 A 
ATOM     69  C   UNL A   1      43.845  34.356  33.357  1.00  0.00     0.059 A 
ATOM     70  F   UNL A   1      43.313  32.095  33.678  1.00  0.00    -0.206 F 
ATOM     71  C   UNL A   1      44.208  35.392  32.498  1.00  0.00     0.060 A 
BRANCH  71  72
ATOM     72  S   UNL A   1      44.490  37.057  33.135  1.00  0.00     0.124 S 
ATOM     73  O   UNL A   1      45.409  36.808  34.238  1.00  0.00    -0.237 OA
ATOM     74  O   UNL A   1      45.056  37.734  31.971  1.00  0.00    -0.237 OA
ATOM     75  O   UNL A   1      43.152  37.503  33.519  1.00  0.00    -0.744 OA
ENDBRANCH  71  72
ENDBRANCH  50  64
BRANCH  51  76
ATOM     76  C   UNL A   1      42.538  23.635  27.649  1.00  0.00     0.058 A 
ATOM     77  C   UNL A   1      42.341  22.521  28.481  1.00  0.00     0.135 A 
ATOM     78  C   UNL A   1      42.595  23.411  26.264  1.00  0.00     0.135 A 
ATOM     79  F   UNL A   1      42.292  22.675  29.813  1.00  0.00    -0.206 F 
ATOM     80  C   UNL A   1      42.237  21.234  27.964  1.00  0.00     0.059 A 
ATOM     81  C   UNL A   1      42.462  22.137  25.722  1.00  0.00     0.059 A 
ATOM     82  F   UNL A   1      42.772  24.445  25.427  1.00  0.00    -0.206 F 
ATOM     83  C   UNL A   1      42.302  21.052  26.583  1.00  0.00     0.060 A 
BRANCH  83  84
ATOM     84  S   UNL A   1      42.181  19.371  25.937  1.00  0.00     0.124 S 
ATOM     85  O   UNL A   1      42.683  18.588  27.063  1.00  0.00    -0.237 OA
ATOM     86  O   UNL A   1      40.752  19.251  25.669  1.00  0.00    -0.237 OA
ATOM     87  O   UNL A   1      43.040  19.396  24.759  1.00  0.00    -0.744 OA
ENDBRANCH  83  84
ENDBRANCH  51  76
BRANCH  63  88
ATOM     88  C   UNL A   1      47.945  27.017  30.537  1.00  0.00     0.058 A 
ATOM     89  C   UNL A   1      48.289  26.465  31.783  1.00  0.00     0.135 A 
ATOM     90  C   UNL A   1      48.982  27.274  29.626  1.00  0.00     0.135 A 
ATOM     91  F   UNL A   1      47.339  26.206  32.695  1.00  0.00    -0.206 F 
ATOM     92  C   UNL A   1      49.612  26.208  32.124  1.00  0.00     0.059 A 
ATOM     93  C   UNL A   1      50.309  26.990  29.933  1.00  0.00     0.059 A 
ATOM     94  F   UNL A   1      48.706  27.791  28.418  1.00  0.00    -0.206 F 
ATOM     95  C   UNL A   1      50.615  26.475  31.192  1.00  0.00     0.060 A 
BRANCH  95  96
ATOM     96  S   UNL A   1      52.326  26.129  31.653  1.00  0.00     0.124 S 
ATOM     97  O   UNL A   1      53.032  26.379  30.402  1.00  0.00    -0.237 OA
ATOM     98  O   UNL A   1      52.556  27.100  32.719  1.00  0.00    -0.237 OA
ATOM     99  O   UNL A   1      52.286  24.735  32.083  1.00  0.00    -0.744 OA
ENDBRANCH  95  96
ENDBRANCH  63  88
ENDBRANCH  37  38
ENDBRANCH  29  32
ENDBRANCH  27  28
ENDBRANCH  26  27
ENDBRANCH   1  26
TORSDOF 17
ENDMDL
MODEL 3
REMARK VINA RESULT:     -12.2      3.811      6.001
REMARK SMILES C#Cc1cccc(NS(=O)(=O)c2ccc(F)c(C(=O)NCCCNC(=O)c3ccc(-c4c5nc(c(-c6c(F)cc(S(=O)(=O)[O-])cc6F)c6ccc([nH]6)c(-c6c(F)cc(S(=O)(=O)[O-])cc6F)c6nc(c(-c7c(F)cc(S(=O)(=O)[O-])cc7F)c7ccc4[nH]7)C=C6)C=C5)cc3)c2)c1
REMARK SMILES IDX 21 1 20 2 18 3 19 4 17 6 12 7 13 8 93 9 14 10 15 11 16 12
REMARK SMILES IDX 9 13 10 14 11 15 8 16 7 18 3 19 4 20 94 21 5 22 6 23 2 24
REMARK SMILES IDX 1 25 22 26 23 27 24 28 25 29 26 31 27 32 28 33 92 34 29 35
REMARK SMILES IDX 91 36 30 37 31 38 32 39 85 40 33 41 90 42 84 43 86 44 34 45
REMARK SMILES IDX 89 46 83 47 82 48 35 50 69 51 48 52 68 53 49 54 52 55 67 56
REMARK SMILES IDX 87 57 50 58 51 59 66 61 88 62 53 63 36 64 37 65 46 66 38 67
REMARK SMILES IDX 39 68 45 69 47 70 40 71 41 72 42 73 43 74 44 75 70 76 71 77
REMARK SMILES IDX 80 78 72 79 73 80 79 81 81 82 74 83 75 84 76 85 77 86 78 87
REMARK SMILES IDX 54 88 55 89 64 90 56 91 57 92 63 93 65 94 58 95 59 96 60 97
REMARK SMILES IDX 61 98 62 99
REMARK H PARENT 20 5 8 17 24 30 86 49 52 60
REMARK Flexibility Score: inf
ROOT
ATOM      1  C   UNL A   1      41.345  21.396  26.063  1.00  0.00     0.118 C 
ENDROOT
BRANCH   1   2
ATOM      2  N   UNL A   1      41.556  19.961  26.051  1.00  0.00    -0.352 N 
ATOM      3  C   UNL A   1      42.635  19.180  25.733  1.00  0.00     0.254 C 
ATOM      4  O   UNL A   1      42.457  17.960  25.751  1.00  0.00    -0.269 OA
ATOM      5  H   UNL A   1      40.764  19.445  26.327  1.00  0.00     0.163 HD
BRANCH   3   6
ATOM      6  C   UNL A   1      44.011  19.698  25.509  1.00  0.00     0.076 A 
ATOM      7  C   UNL A   1      45.388  21.652  25.024  1.00  0.00     0.088 A 
ATOM      8  C   UNL A   1      46.407  20.833  24.551  1.00  0.00     0.025 A 
ATOM      9  C   UNL A   1      44.160  21.090  25.410  1.00  0.00     0.039 A 
ATOM     10  C   UNL A   1      46.321  19.469  24.810  1.00  0.00     0.041 A 
ATOM     11  C   UNL A   1      45.165  18.935  25.378  1.00  0.00     0.136 A 
ATOM     12  F   UNL A   1      45.263  17.703  25.888  1.00  0.00    -0.206 F 
BRANCH   7  13
ATOM     13  S   UNL A   1      45.684  23.349  25.480  1.00  0.00     0.261 S 
ATOM     14  O   UNL A   1      45.810  24.100  24.249  1.00  0.00    -0.201 OA
ATOM     15  O   UNL A   1      46.756  23.325  26.454  1.00  0.00    -0.201 OA
BRANCH  13  16
ATOM     16  N   UNL A   1      44.359  23.971  26.304  1.00  0.00    -0.280 N 
ATOM     17  H   UNL A   1      43.601  24.250  25.742  1.00  0.00     0.180 HD
BRANCH  16  18
ATOM     18  C   UNL A   1      44.185  24.150  27.710  1.00  0.00     0.050 A 
ATOM     19  C   UNL A   1      44.920  25.382  29.670  1.00  0.00     0.026 A 
ATOM     20  C   UNL A   1      44.433  24.368  30.489  1.00  0.00     0.017 A 
ATOM     21  C   UNL A   1      44.823  25.259  28.281  1.00  0.00     0.044 A 
ATOM     22  C   UNL A   1      43.685  23.336  29.929  1.00  0.00     0.003 A 
ATOM     23  C   UNL A   1      43.484  23.282  28.544  1.00  0.00     0.027 A 
BRANCH  19  24
ATOM     24  C   UNL A   1      45.453  26.562  30.272  1.00  0.00    -0.070 C 
ATOM     25  C   UNL A   1      46.017  27.481  30.808  1.00  0.00     0.010 C 
ENDBRANCH  19  24
ENDBRANCH  16  18
ENDBRANCH  13  16
ENDBRANCH   7  13
ENDBRANCH   3   6
ENDBRANCH   1   2
BRANCH   1  26
ATOM     26  C   UNL A   1      40.183  21.750  26.992  1.00  0.00     0.042 C 
BRANCH  26  27
ATOM     27  C   UNL A   1      40.063  23.256  27.195  1.00  0.00     0.118 C 
BRANCH  27  28
ATOM     28  N   UNL A   1      40.794  23.985  26.162  1.00  0.00    -0.352 N 
ATOM     29  C   UNL A   1      41.105  25.315  26.077  1.00  0.00     0.251 C 
ATOM     30  H   UNL A   1      41.113  23.435  25.410  1.00  0.00     0.163 HD
ATOM     31  O   UNL A   1      41.478  25.781  25.005  1.00  0.00    -0.269 OA
BRANCH  29  32
ATOM     32  C   UNL A   1      40.989  26.177  27.269  1.00  0.00     0.039 A 
ATOM     33  C   UNL A   1      41.928  27.191  27.466  1.00  0.00     0.014 A 
ATOM     34  C   UNL A   1      39.969  25.968  28.201  1.00  0.00     0.014 A 
ATOM     35  C   UNL A   1      41.814  28.026  28.575  1.00  0.00     0.010 A 
ATOM     36  C   UNL A   1      39.801  26.860  29.253  1.00  0.00     0.010 A 
ATOM     37  C   UNL A   1      40.728  27.890  29.458  1.00  0.00    -0.014 A 
BRANCH  37  38
ATOM     38  C   UNL A   1      40.547  28.817  30.600  1.00  0.00     0.031 A 
ATOM     39  C   UNL A   1      41.395  28.668  31.834  1.00  0.00     0.074 A 
ATOM     40  C   UNL A   1      39.585  29.758  30.541  1.00  0.00     0.049 A 
ATOM     41  N   UNL A   1      41.348  29.347  32.951  1.00  0.00    -0.248 NA
ATOM     42  C   UNL A   1      42.413  27.604  31.824  1.00  0.00     0.031 C 
ATOM     43  C   UNL A   1      38.678  29.966  29.409  1.00  0.00     0.029 A 
ATOM     44  N   UNL A   1      39.206  30.715  31.447  1.00  0.00    -0.354 N 
ATOM     45  C   UNL A   1      42.322  28.792  33.771  1.00  0.00     0.074 A 
ATOM     46  C   UNL A   1      42.899  27.679  33.054  1.00  0.00     0.031 C 
ATOM     47  C   UNL A   1      37.878  31.011  29.672  1.00  0.00     0.029 A 
ATOM     48  C   UNL A   1      38.174  31.512  31.010  1.00  0.00     0.049 A 
ATOM     49  H   UNL A   1      39.632  30.822  32.328  1.00  0.00     0.167 HD
ATOM     50  C   UNL A   1      42.719  29.197  35.000  1.00  0.00     0.037 A 
ATOM     51  C   UNL A   1      37.530  32.526  31.622  1.00  0.00     0.037 A 
ATOM     52  C   UNL A   1      42.144  30.318  35.696  1.00  0.00     0.049 A 
ATOM     53  C   UNL A   1      37.964  32.931  33.004  1.00  0.00     0.074 A 
ATOM     54  C   UNL A   1      42.503  30.837  36.928  1.00  0.00     0.029 A 
ATOM     55  N   UNL A   1      41.091  31.091  35.227  1.00  0.00    -0.354 N 
ATOM     56  N   UNL A   1      38.924  32.432  33.744  1.00  0.00    -0.248 NA
ATOM     57  C   UNL A   1      37.230  34.036  33.636  1.00  0.00     0.031 C 
ATOM     58  C   UNL A   1      41.625  31.879  37.233  1.00  0.00     0.029 A 
ATOM     59  C   UNL A   1      40.766  32.062  36.161  1.00  0.00     0.049 A 
ATOM     60  H   UNL A   1      40.642  30.969  34.360  1.00  0.00     0.167 HD
ATOM     61  C   UNL A   1      38.930  33.179  34.918  1.00  0.00     0.074 A 
ATOM     62  C   UNL A   1      37.885  34.173  34.781  1.00  0.00     0.031 C 
ATOM     63  C   UNL A   1      39.727  33.051  36.008  1.00  0.00     0.037 A 
BRANCH  50  64
ATOM     64  C   UNL A   1      43.833  28.439  35.672  1.00  0.00     0.058 A 
ATOM     65  C   UNL A   1      45.175  28.730  35.378  1.00  0.00     0.135 A 
ATOM     66  C   UNL A   1      43.574  27.372  36.547  1.00  0.00     0.135 A 
ATOM     67  F   UNL A   1      45.483  29.743  34.554  1.00  0.00    -0.206 F 
ATOM     68  C   UNL A   1      46.217  27.978  35.910  1.00  0.00     0.059 A 
ATOM     69  C   UNL A   1      44.603  26.626  37.117  1.00  0.00     0.059 A 
ATOM     70  F   UNL A   1      42.311  27.061  36.880  1.00  0.00    -0.206 F 
ATOM     71  C   UNL A   1      45.920  26.927  36.778  1.00  0.00     0.060 A 
BRANCH  71  72
ATOM     72  S   UNL A   1      47.288  25.973  37.471  1.00  0.00     0.124 S 
ATOM     73  O   UNL A   1      47.328  24.815  36.585  1.00  0.00    -0.237 OA
ATOM     74  O   UNL A   1      48.401  26.909  37.350  1.00  0.00    -0.237 OA
ATOM     75  O   UNL A   1      46.852  25.702  38.839  1.00  0.00    -0.744 OA
ENDBRANCH  71  72
ENDBRANCH  50  64
BRANCH  51  76
ATOM     76  C   UNL A   1      36.433  33.238  30.912  1.00  0.00     0.058 A 
ATOM     77  C   UNL A   1      36.700  34.121  29.852  1.00  0.00     0.135 A 
ATOM     78  C   UNL A   1      35.095  33.083  31.308  1.00  0.00     0.135 A 
ATOM     79  F   UNL A   1      37.962  34.317  29.441  1.00  0.00    -0.206 F 
ATOM     80  C   UNL A   1      35.687  34.845  29.233  1.00  0.00     0.059 A 
ATOM     81  C   UNL A   1      34.061  33.772  30.682  1.00  0.00     0.059 A 
ATOM     82  F   UNL A   1      34.788  32.244  32.309  1.00  0.00    -0.206 F 
ATOM     83  C   UNL A   1      34.370  34.665  29.657  1.00  0.00     0.060 A 
BRANCH  83  84
ATOM     84  S   UNL A   1      33.075  35.628  28.849  1.00  0.00     0.124 S 
ATOM     85  O   UNL A   1      32.448  34.620  27.999  1.00  0.00    -0.237 OA
ATOM     86  O   UNL A   1      32.280  36.081  29.986  1.00  0.00    -0.237 OA
ATOM     87  O   UNL A   1      33.813  36.670  28.146  1.00  0.00    -0.744 OA
ENDBRANCH  83  84
ENDBRANCH  51  76
BRANCH  63  88
ATOM     88  C   UNL A   1      39.528  34.021  37.142  1.00  0.00     0.058 A 
ATOM     89  C   UNL A   1      40.248  35.227  37.176  1.00  0.00     0.135 A 
ATOM     90  C   UNL A   1      38.705  33.718  38.238  1.00  0.00     0.135 A 
ATOM     91  F   UNL A   1      41.056  35.564  36.159  1.00  0.00    -0.206 F 
ATOM     92  C   UNL A   1      40.179  36.085  38.269  1.00  0.00     0.059 A 
ATOM     93  C   UNL A   1      38.593  34.579  39.326  1.00  0.00     0.059 A 
ATOM     94  F   UNL A   1      37.989  32.583  38.251  1.00  0.00    -0.206 F 
ATOM     95  C   UNL A   1      39.349  35.751  39.339  1.00  0.00     0.060 A 
BRANCH  95  96
ATOM     96  S   UNL A   1      39.270  36.881  40.745  1.00  0.00     0.124 S 
ATOM     97  O   UNL A   1      38.671  36.039  41.775  1.00  0.00    -0.237 OA
ATOM     98  O   UNL A   1      40.677  37.221  40.941  1.00  0.00    -0.237 OA
ATOM     99  O   UNL A   1      38.431  37.971  40.258  1.00  0.00    -0.744 OA
ENDBRANCH  95  96
ENDBRANCH  63  88
ENDBRANCH  37  38
ENDBRANCH  29  32
ENDBRANCH  27  28
ENDBRANCH  26  27
ENDBRANCH   1  26
TORSDOF 17
ENDMDL
