MODEL 1
REMARK VINA RESULT:     -13.4      0.000      0.000
REMARK SMILES Cc1ccc(N2CCC[C@@H](Cn3cc(C(=O)NCCCNC(=O)c4ccc(-c5c6nc(c(-c7c(F)cc(S(=O)(=O)[O-])cc7F)c7ccc([nH]7)c(-c7c(F)cc(S(=O)(=O)[O-])cc7F)c7nc(c(-c8c(F)cc(S(=O)(=O)[O-])cc8F)c8ccc5[nH]8)C=C7)C=C6)cc4)nn3)C2)nn1
REMARK SMILES IDX 19 1 18 2 17 3 15 4 16 5 14 7 12 8 13 9 91 10 90 11 11 12
REMARK SMILES IDX 10 13 6 14 7 15 92 16 8 17 9 18 5 19 1 20 2 21 3 22 94 23
REMARK SMILES IDX 4 24 93 25 20 26 21 27 22 28 23 30 24 31 25 32 89 33 26 34
REMARK SMILES IDX 88 35 27 36 28 37 29 38 82 39 30 40 87 41 81 42 83 43 31 44
REMARK SMILES IDX 86 45 80 46 79 47 32 49 66 50 45 51 65 52 46 53 49 54 64 55
REMARK SMILES IDX 84 56 47 57 48 58 63 60 85 61 50 62 33 63 34 64 43 65 35 66
REMARK SMILES IDX 36 67 42 68 44 69 37 70 38 71 39 72 40 73 41 74 67 75 68 76
REMARK SMILES IDX 77 77 69 78 70 79 76 80 78 81 71 82 72 83 73 84 74 85 75 86
REMARK SMILES IDX 51 87 52 88 61 89 53 90 54 91 60 92 62 93 55 94 56 95 57 96
REMARK SMILES IDX 58 97 59 98
REMARK H PARENT 17 6 21 29 83 48 49 59
REMARK Flexibility Score: inf
ROOT
ATOM      1  C   UNL A   1      37.605  21.538  25.013  1.00  0.00     0.042 C 
ENDROOT
BRANCH   1   2
ATOM      2  C   UNL A   1      36.114  21.685  25.323  1.00  0.00     0.118 C 
BRANCH   2   3
ATOM      3  N   UNL A   1      35.403  20.418  25.307  1.00  0.00    -0.351 N 
ATOM      4  C   UNL A   1      34.109  20.116  24.924  1.00  0.00     0.273 C 
ATOM      5  O   UNL A   1      33.822  18.933  24.791  1.00  0.00    -0.267 OA
ATOM      6  H   UNL A   1      35.929  19.648  25.621  1.00  0.00     0.163 HD
BRANCH   4   7
ATOM      7  C   UNL A   1      33.156  21.185  24.635  1.00  0.00     0.170 A 
ATOM      8  N   UNL A   1      31.795  22.856  24.730  1.00  0.00    -0.251 N 
ATOM      9  C   UNL A   1      32.160  21.738  25.416  1.00  0.00     0.145 A 
ATOM     10  N   UNL A   1      32.294  22.851  23.487  1.00  0.00    -0.067 NA
ATOM     11  N   UNL A   1      33.153  21.842  23.420  1.00  0.00    -0.125 NA
BRANCH   8  12
ATOM     12  C   UNL A   1      31.189  24.055  25.269  1.00  0.00     0.151 C 
BRANCH  12  13
ATOM     13  C   UNL A   1      31.755  25.366  24.681  1.00  0.00     0.030 C 
ATOM     14  N   UNL A   1      31.385  27.709  24.243  1.00  0.00    -0.355 N 
ATOM     15  C   UNL A   1      32.596  28.189  24.891  1.00  0.00     0.118 C 
ATOM     16  C   UNL A   1      30.770  26.538  24.834  1.00  0.00     0.123 C 
ATOM     17  C   UNL A   1      33.651  27.097  24.739  1.00  0.00     0.022 C 
ATOM     18  C   UNL A   1      33.141  25.745  25.256  1.00  0.00     0.009 C 
BRANCH  14  19
ATOM     19  C   UNL A   1      30.594  28.605  23.554  1.00  0.00     0.151 A 
ATOM     20  C   UNL A   1      28.379  31.507  21.404  1.00  0.00     0.069 C 
ATOM     21  C   UNL A   1      29.160  30.500  22.185  1.00  0.00     0.060 A 
ATOM     22  C   UNL A   1      29.511  30.753  23.499  1.00  0.00     0.029 A 
ATOM     23  N   UNL A   1      29.521  29.351  21.577  1.00  0.00    -0.154 NA
ATOM     24  C   UNL A   1      30.222  29.783  24.191  1.00  0.00     0.051 A 
ATOM     25  N   UNL A   1      30.260  28.410  22.263  1.00  0.00    -0.133 NA
ENDBRANCH  14  19
ENDBRANCH  12  13
ENDBRANCH   8  12
ENDBRANCH   4   7
ENDBRANCH   2   3
ENDBRANCH   1   2
BRANCH   1  26
ATOM     26  C   UNL A   1      38.468  22.122  26.120  1.00  0.00     0.118 C 
BRANCH  26  27
ATOM     27  N   UNL A   1      39.867  21.739  25.968  1.00  0.00    -0.352 N 
ATOM     28  C   UNL A   1      41.000  22.505  26.132  1.00  0.00     0.251 C 
ATOM     29  H   UNL A   1      40.025  20.801  25.714  1.00  0.00     0.163 HD
ATOM     30  O   UNL A   1      42.057  22.134  25.630  1.00  0.00    -0.269 OA
BRANCH  28  31
ATOM     31  C   UNL A   1      40.937  23.770  26.885  1.00  0.00     0.039 A 
ATOM     32  C   UNL A   1      41.740  23.937  28.017  1.00  0.00     0.014 A 
ATOM     33  C   UNL A   1      40.060  24.782  26.488  1.00  0.00     0.014 A 
ATOM     34  C   UNL A   1      41.703  25.146  28.699  1.00  0.00     0.010 A 
ATOM     35  C   UNL A   1      40.102  26.018  27.096  1.00  0.00     0.010 A 
ATOM     36  C   UNL A   1      40.898  26.193  28.220  1.00  0.00    -0.014 A 
BRANCH  36  37
ATOM     37  C   UNL A   1      40.987  27.506  28.841  1.00  0.00     0.031 A 
ATOM     38  C   UNL A   1      42.018  28.397  28.251  1.00  0.00     0.074 A 
ATOM     39  C   UNL A   1      40.132  27.972  29.772  1.00  0.00     0.049 A 
ATOM     40  N   UNL A   1      43.164  28.704  28.758  1.00  0.00    -0.248 NA
ATOM     41  C   UNL A   1      41.826  28.879  26.876  1.00  0.00     0.031 C 
ATOM     42  C   UNL A   1      38.888  27.375  30.259  1.00  0.00     0.029 A 
ATOM     43  N   UNL A   1      40.180  29.159  30.435  1.00  0.00    -0.354 N 
ATOM     44  C   UNL A   1      43.747  29.607  27.875  1.00  0.00     0.074 A 
ATOM     45  C   UNL A   1      42.977  29.523  26.662  1.00  0.00     0.031 C 
ATOM     46  C   UNL A   1      38.204  28.291  30.981  1.00  0.00     0.029 A 
ATOM     47  C   UNL A   1      39.027  29.477  31.138  1.00  0.00     0.049 A 
ATOM     48  H   UNL A   1      40.971  29.747  30.418  1.00  0.00     0.167 HD
ATOM     49  C   UNL A   1      44.674  30.508  28.307  1.00  0.00     0.037 A 
ATOM     50  C   UNL A   1      38.769  30.643  31.785  1.00  0.00     0.037 A 
ATOM     51  C   UNL A   1      45.176  30.146  29.613  1.00  0.00     0.049 A 
ATOM     52  C   UNL A   1      40.090  31.253  32.101  1.00  0.00     0.074 A 
ATOM     53  C   UNL A   1      45.794  29.023  30.133  1.00  0.00     0.029 A 
ATOM     54  N   UNL A   1      44.711  30.849  30.700  1.00  0.00    -0.354 N 
ATOM     55  N   UNL A   1      40.951  30.728  32.935  1.00  0.00    -0.248 NA
ATOM     56  C   UNL A   1      40.648  32.199  31.148  1.00  0.00     0.031 C 
ATOM     57  C   UNL A   1      45.223  28.859  31.429  1.00  0.00     0.029 A 
ATOM     58  C   UNL A   1      44.354  29.928  31.652  1.00  0.00     0.049 A 
ATOM     59  H   UNL A   1      44.646  31.828  30.780  1.00  0.00     0.167 HD
ATOM     60  C   UNL A   1      42.190  30.936  32.344  1.00  0.00     0.074 A 
ATOM     61  C   UNL A   1      41.948  31.925  31.295  1.00  0.00     0.031 C 
ATOM     62  C   UNL A   1      43.241  30.092  32.567  1.00  0.00     0.037 A 
BRANCH  49  63
ATOM     63  C   UNL A   1      44.866  31.894  27.734  1.00  0.00     0.058 A 
ATOM     64  C   UNL A   1      46.069  32.195  27.058  1.00  0.00     0.135 A 
ATOM     65  C   UNL A   1      44.061  33.007  28.059  1.00  0.00     0.135 A 
ATOM     66  F   UNL A   1      46.914  31.217  26.693  1.00  0.00    -0.206 F 
ATOM     67  C   UNL A   1      46.482  33.504  26.811  1.00  0.00     0.059 A 
ATOM     68  C   UNL A   1      44.428  34.317  27.771  1.00  0.00     0.059 A 
ATOM     69  F   UNL A   1      42.926  32.895  28.757  1.00  0.00    -0.206 F 
ATOM     70  C   UNL A   1      45.661  34.560  27.190  1.00  0.00     0.060 A 
BRANCH  70  71
ATOM     71  S   UNL A   1      46.242  36.250  26.976  1.00  0.00     0.124 S 
ATOM     72  O   UNL A   1      44.982  36.978  26.885  1.00  0.00    -0.237 OA
ATOM     73  O   UNL A   1      47.016  36.458  28.195  1.00  0.00    -0.237 OA
ATOM     74  O   UNL A   1      47.024  36.183  25.747  1.00  0.00    -0.744 OA
ENDBRANCH  70  71
ENDBRANCH  49  63
BRANCH  50  75
ATOM     75  C   UNL A   1      37.484  31.399  31.834  1.00  0.00     0.058 A 
ATOM     76  C   UNL A   1      36.897  31.751  33.065  1.00  0.00     0.135 A 
ATOM     77  C   UNL A   1      36.951  32.038  30.695  1.00  0.00     0.135 A 
ATOM     78  F   UNL A   1      37.342  31.203  34.206  1.00  0.00    -0.206 F 
ATOM     79  C   UNL A   1      35.894  32.724  33.167  1.00  0.00     0.059 A 
ATOM     80  C   UNL A   1      35.944  33.000  30.771  1.00  0.00     0.059 A 
ATOM     81  F   UNL A   1      37.455  31.817  29.473  1.00  0.00    -0.206 F 
ATOM     82  C   UNL A   1      35.442  33.363  32.014  1.00  0.00     0.060 A 
BRANCH  82  83
ATOM     83  S   UNL A   1      34.289  34.749  32.156  1.00  0.00     0.124 S 
ATOM     84  O   UNL A   1      35.079  35.724  32.901  1.00  0.00    -0.237 OA
ATOM     85  O   UNL A   1      34.027  35.075  30.759  1.00  0.00    -0.237 OA
ATOM     86  O   UNL A   1      33.159  34.178  32.883  1.00  0.00    -0.744 OA
ENDBRANCH  82  83
ENDBRANCH  50  75
BRANCH  62  87
ATOM     87  C   UNL A   1      43.154  29.080  33.684  1.00  0.00     0.058 A 
ATOM     88  C   UNL A   1      43.480  29.348  35.026  1.00  0.00     0.135 A 
ATOM     89  C   UNL A   1      42.504  27.864  33.417  1.00  0.00     0.135 A 
ATOM     90  F   UNL A   1      44.021  30.519  35.386  1.00  0.00    -0.206 F 
ATOM     91  C   UNL A   1      43.177  28.447  36.050  1.00  0.00     0.059 A 
ATOM     92  C   UNL A   1      42.165  26.966  34.425  1.00  0.00     0.059 A 
ATOM     93  F   UNL A   1      42.119  27.570  32.163  1.00  0.00    -0.206 F 
ATOM     94  C   UNL A   1      42.504  27.264  35.742  1.00  0.00     0.060 A 
BRANCH  94  95
ATOM     95  S   UNL A   1      41.997  26.166  37.084  1.00  0.00     0.124 S 
ATOM     96  O   UNL A   1      43.080  26.333  38.047  1.00  0.00    -0.237 OA
ATOM     97  O   UNL A   1      40.706  26.724  37.479  1.00  0.00    -0.237 OA
ATOM     98  O   UNL A   1      41.928  24.853  36.446  1.00  0.00    -0.744 OA
ENDBRANCH  94  95
ENDBRANCH  62  87
ENDBRANCH  36  37
ENDBRANCH  28  31
ENDBRANCH  26  27
ENDBRANCH   1  26
TORSDOF 16
ENDMDL
MODEL 2
REMARK VINA RESULT:     -13.4      1.461      2.163
REMARK SMILES Cc1ccc(N2CCC[C@@H](Cn3cc(C(=O)NCCCNC(=O)c4ccc(-c5c6nc(c(-c7c(F)cc(S(=O)(=O)[O-])cc7F)c7ccc([nH]7)c(-c7c(F)cc(S(=O)(=O)[O-])cc7F)c7nc(c(-c8c(F)cc(S(=O)(=O)[O-])cc8F)c8ccc5[nH]8)C=C7)C=C6)cc4)nn3)C2)nn1
REMARK SMILES IDX 19 1 18 2 17 3 15 4 16 5 14 7 12 8 13 9 91 10 90 11 11 12
REMARK SMILES IDX 10 13 6 14 7 15 92 16 8 17 9 18 5 19 1 20 2 21 3 22 94 23
REMARK SMILES IDX 4 24 93 25 20 26 21 27 22 28 23 30 24 31 25 32 89 33 26 34
REMARK SMILES IDX 88 35 27 36 28 37 29 38 82 39 30 40 87 41 81 42 83 43 31 44
REMARK SMILES IDX 86 45 80 46 79 47 32 49 66 50 45 51 65 52 46 53 49 54 64 55
REMARK SMILES IDX 84 56 47 57 48 58 63 60 85 61 50 62 33 63 34 64 43 65 35 66
REMARK SMILES IDX 36 67 42 68 44 69 37 70 38 71 39 72 40 73 41 74 67 75 68 76
REMARK SMILES IDX 77 77 69 78 70 79 76 80 78 81 71 82 72 83 73 84 74 85 75 86
REMARK SMILES IDX 51 87 52 88 61 89 53 90 54 91 60 92 62 93 55 94 56 95 57 96
REMARK SMILES IDX 58 97 59 98
REMARK H PARENT 17 6 21 29 83 48 49 59
REMARK Flexibility Score: inf
ROOT
ATOM      1  C   UNL A   1      38.639  21.577  25.719  1.00  0.00     0.042 C 
ENDROOT
BRANCH   1   2
ATOM      2  C   UNL A   1      37.254  22.219  25.616  1.00  0.00     0.118 C 
BRANCH   2   3
ATOM      3  N   UNL A   1      36.190  21.247  25.429  1.00  0.00    -0.351 N 
ATOM      4  C   UNL A   1      34.981  21.351  24.766  1.00  0.00     0.273 C 
ATOM      5  O   UNL A   1      34.360  20.317  24.560  1.00  0.00    -0.267 OA
ATOM      6  H   UNL A   1      36.357  20.370  25.844  1.00  0.00     0.163 HD
BRANCH   4   7
ATOM      7  C   UNL A   1      34.513  22.649  24.284  1.00  0.00     0.170 A 
ATOM      8  N   UNL A   1      33.865  24.697  24.086  1.00  0.00    -0.251 N 
ATOM      9  C   UNL A   1      33.745  23.615  24.904  1.00  0.00     0.145 A 
ATOM     10  N   UNL A   1      34.405  24.360  22.908  1.00  0.00    -0.067 NA
ATOM     11  N   UNL A   1      34.832  23.109  23.021  1.00  0.00    -0.125 NA
BRANCH   8  12
ATOM     12  C   UNL A   1      33.713  26.090  24.449  1.00  0.00     0.151 C 
BRANCH  12  13
ATOM     13  C   UNL A   1      32.247  26.531  24.651  1.00  0.00     0.030 C 
ATOM     14  N   UNL A   1      30.201  27.278  23.613  1.00  0.00    -0.355 N 
ATOM     15  C   UNL A   1      29.340  26.263  24.201  1.00  0.00     0.118 C 
ATOM     16  C   UNL A   1      31.558  26.865  23.317  1.00  0.00     0.123 C 
ATOM     17  C   UNL A   1      29.929  25.908  25.564  1.00  0.00     0.022 C 
ATOM     18  C   UNL A   1      31.406  25.508  25.453  1.00  0.00     0.009 C 
BRANCH  14  19
ATOM     19  C   UNL A   1      29.632  28.291  22.869  1.00  0.00     0.151 A 
ATOM     20  C   UNL A   1      27.905  31.558  20.797  1.00  0.00     0.069 C 
ATOM     21  C   UNL A   1      28.490  30.401  21.541  1.00  0.00     0.060 A 
ATOM     22  C   UNL A   1      27.728  29.705  22.462  1.00  0.00     0.029 A 
ATOM     23  N   UNL A   1      29.774  30.064  21.303  1.00  0.00    -0.154 NA
ATOM     24  C   UNL A   1      28.307  28.627  23.118  1.00  0.00     0.051 A 
ATOM     25  N   UNL A   1      30.351  29.016  21.988  1.00  0.00    -0.133 NA
ENDBRANCH  14  19
ENDBRANCH  12  13
ENDBRANCH   8  12
ENDBRANCH   4   7
ENDBRANCH   2   3
ENDBRANCH   1   2
BRANCH   1  26
ATOM     26  C   UNL A   1      39.618  22.471  26.464  1.00  0.00     0.118 C 
BRANCH  26  27
ATOM     27  N   UNL A   1      40.997  22.195  26.079  1.00  0.00    -0.352 N 
ATOM     28  C   UNL A   1      42.052  23.069  25.941  1.00  0.00     0.251 C 
ATOM     29  H   UNL A   1      41.204  21.250  25.893  1.00  0.00     0.163 HD
ATOM     30  O   UNL A   1      43.031  22.734  25.280  1.00  0.00    -0.269 OA
BRANCH  28  31
ATOM     31  C   UNL A   1      41.995  24.404  26.564  1.00  0.00     0.039 A 
ATOM     32  C   UNL A   1      41.458  25.475  25.847  1.00  0.00     0.014 A 
ATOM     33  C   UNL A   1      42.503  24.600  27.851  1.00  0.00     0.014 A 
ATOM     34  C   UNL A   1      41.374  26.721  26.455  1.00  0.00     0.010 A 
ATOM     35  C   UNL A   1      42.322  25.805  28.494  1.00  0.00     0.010 A 
ATOM     36  C   UNL A   1      41.786  26.875  27.789  1.00  0.00    -0.014 A 
BRANCH  36  37
ATOM     37  C   UNL A   1      41.545  28.138  28.472  1.00  0.00     0.031 A 
ATOM     38  C   UNL A   1      42.624  29.144  28.303  1.00  0.00     0.074 A 
ATOM     39  C   UNL A   1      40.394  28.467  29.089  1.00  0.00     0.049 A 
ATOM     40  N   UNL A   1      43.508  29.490  29.176  1.00  0.00    -0.248 NA
ATOM     41  C   UNL A   1      42.847  29.718  26.968  1.00  0.00     0.031 C 
ATOM     42  C   UNL A   1      39.120  27.746  29.105  1.00  0.00     0.029 A 
ATOM     43  N   UNL A   1      40.113  29.598  29.790  1.00  0.00    -0.354 N 
ATOM     44  C   UNL A   1      44.260  30.499  28.584  1.00  0.00     0.074 A 
ATOM     45  C   UNL A   1      43.939  30.457  27.181  1.00  0.00     0.031 C 
ATOM     46  C   UNL A   1      38.156  28.551  29.606  1.00  0.00     0.029 A 
ATOM     47  C   UNL A   1      38.768  29.777  30.087  1.00  0.00     0.049 A 
ATOM     48  H   UNL A   1      40.807  30.240  30.067  1.00  0.00     0.167 HD
ATOM     49  C   UNL A   1      44.908  31.428  29.343  1.00  0.00     0.037 A 
ATOM     50  C   UNL A   1      38.206  30.866  30.671  1.00  0.00     0.037 A 
ATOM     51  C   UNL A   1      44.989  30.999  30.721  1.00  0.00     0.049 A 
ATOM     52  C   UNL A   1      39.290  31.541  31.437  1.00  0.00     0.074 A 
ATOM     53  C   UNL A   1      45.505  29.886  31.358  1.00  0.00     0.029 A 
ATOM     54  N   UNL A   1      44.132  31.579  31.628  1.00  0.00    -0.354 N 
ATOM     55  N   UNL A   1      39.877  31.015  32.481  1.00  0.00    -0.248 NA
ATOM     56  C   UNL A   1      40.037  32.598  30.773  1.00  0.00     0.031 C 
ATOM     57  C   UNL A   1      44.561  29.579  32.382  1.00  0.00     0.029 A 
ATOM     58  C   UNL A   1      43.571  30.563  32.359  1.00  0.00     0.049 A 
ATOM     59  H   UNL A   1      43.953  32.542  31.732  1.00  0.00     0.167 HD
ATOM     60  C   UNL A   1      41.216  31.357  32.346  1.00  0.00     0.074 A 
ATOM     61  C   UNL A   1      41.237  32.406  31.328  1.00  0.00     0.031 C 
ATOM     62  C   UNL A   1      42.211  30.575  32.861  1.00  0.00     0.037 A 
BRANCH  49  63
ATOM     63  C   UNL A   1      45.146  32.864  28.938  1.00  0.00     0.058 A 
ATOM     64  C   UNL A   1      46.453  33.393  29.025  1.00  0.00     0.135 A 
ATOM     65  C   UNL A   1      44.121  33.815  28.744  1.00  0.00     0.135 A 
ATOM     66  F   UNL A   1      47.510  32.584  29.205  1.00  0.00    -0.206 F 
ATOM     67  C   UNL A   1      46.709  34.764  29.015  1.00  0.00     0.059 A 
ATOM     68  C   UNL A   1      44.361  35.184  28.675  1.00  0.00     0.059 A 
ATOM     69  F   UNL A   1      42.827  33.482  28.708  1.00  0.00    -0.206 F 
ATOM     70  C   UNL A   1      45.651  35.652  28.859  1.00  0.00     0.060 A 
BRANCH  70  71
ATOM     71  S   UNL A   1      45.963  37.422  28.960  1.00  0.00     0.124 S 
ATOM     72  O   UNL A   1      47.420  37.459  28.967  1.00  0.00    -0.237 OA
ATOM     73  O   UNL A   1      45.315  37.911  27.748  1.00  0.00    -0.237 OA
ATOM     74  O   UNL A   1      45.315  37.806  30.210  1.00  0.00    -0.744 OA
ENDBRANCH  70  71
ENDBRANCH  49  63
BRANCH  50  75
ATOM     75  C   UNL A   1      36.912  31.523  30.330  1.00  0.00     0.058 A 
ATOM     76  C   UNL A   1      36.040  31.974  31.340  1.00  0.00     0.135 A 
ATOM     77  C   UNL A   1      36.626  31.978  29.026  1.00  0.00     0.135 A 
ATOM     78  F   UNL A   1      36.235  31.604  32.615  1.00  0.00    -0.206 F 
ATOM     79  C   UNL A   1      34.997  32.873  31.084  1.00  0.00     0.059 A 
ATOM     80  C   UNL A   1      35.586  32.863  28.745  1.00  0.00     0.059 A 
ATOM     81  F   UNL A   1      37.408  31.650  27.987  1.00  0.00    -0.206 F 
ATOM     82  C   UNL A   1      34.794  33.333  29.784  1.00  0.00     0.060 A 
BRANCH  82  83
ATOM     83  S   UNL A   1      33.576  34.634  29.479  1.00  0.00     0.124 S 
ATOM     84  O   UNL A   1      32.508  33.899  28.809  1.00  0.00    -0.237 OA
ATOM     85  O   UNL A   1      33.279  35.100  30.829  1.00  0.00    -0.237 OA
ATOM     86  O   UNL A   1      34.299  35.586  28.639  1.00  0.00    -0.744 OA
ENDBRANCH  82  83
ENDBRANCH  50  75
BRANCH  62  87
ATOM     87  C   UNL A   1      41.859  29.474  33.833  1.00  0.00     0.058 A 
ATOM     88  C   UNL A   1      41.564  28.151  33.461  1.00  0.00     0.135 A 
ATOM     89  C   UNL A   1      42.050  29.724  35.202  1.00  0.00     0.135 A 
ATOM     90  F   UNL A   1      41.453  27.802  32.173  1.00  0.00    -0.206 F 
ATOM     91  C   UNL A   1      41.458  27.127  34.406  1.00  0.00     0.059 A 
ATOM     92  C   UNL A   1      41.980  28.714  36.158  1.00  0.00     0.059 A 
ATOM     93  F   UNL A   1      42.385  30.957  35.619  1.00  0.00    -0.206 F 
ATOM     94  C   UNL A   1      41.684  27.415  35.753  1.00  0.00     0.060 A 
BRANCH  94  95
ATOM     95  S   UNL A   1      41.679  26.066  36.954  1.00  0.00     0.124 S 
ATOM     96  O   UNL A   1      40.349  26.182  37.544  1.00  0.00    -0.237 OA
ATOM     97  O   UNL A   1      41.899  24.892  36.113  1.00  0.00    -0.237 OA
ATOM     98  O   UNL A   1      42.788  26.397  37.847  1.00  0.00    -0.744 OA
ENDBRANCH  94  95
ENDBRANCH  62  87
ENDBRANCH  36  37
ENDBRANCH  28  31
ENDBRANCH  26  27
ENDBRANCH   1  26
TORSDOF 16
ENDMDL
MODEL 3
REMARK VINA RESULT:     -13.2      2.945      9.929
REMARK SMILES Cc1ccc(N2CCC[C@@H](Cn3cc(C(=O)NCCCNC(=O)c4ccc(-c5c6nc(c(-c7c(F)cc(S(=O)(=O)[O-])cc7F)c7ccc([nH]7)c(-c7c(F)cc(S(=O)(=O)[O-])cc7F)c7nc(c(-c8c(F)cc(S(=O)(=O)[O-])cc8F)c8ccc5[nH]8)C=C7)C=C6)cc4)nn3)C2)nn1
REMARK SMILES IDX 19 1 18 2 17 3 15 4 16 5 14 7 12 8 13 9 91 10 90 11 11 12
REMARK SMILES IDX 10 13 6 14 7 15 92 16 8 17 9 18 5 19 1 20 2 21 3 22 94 23
REMARK SMILES IDX 4 24 93 25 20 26 21 27 22 28 23 30 24 31 25 32 89 33 26 34
REMARK SMILES IDX 88 35 27 36 28 37 29 38 82 39 30 40 87 41 81 42 83 43 31 44
REMARK SMILES IDX 86 45 80 46 79 47 32 49 66 50 45 51 65 52 46 53 49 54 64 55
REMARK SMILES IDX 84 56 47 57 48 58 63 60 85 61 50 62 33 63 34 64 43 65 35 66
REMARK SMILES IDX 36 67 42 68 44 69 37 70 38 71 39 72 40 73 41 74 67 75 68 76
REMARK SMILES IDX 77 77 69 78 70 79 76 80 78 81 71 82 72 83 73 84 74 85 75 86
REMARK SMILES IDX 51 87 52 88 61 89 53 90 54 91 60 92 62 93 55 94 56 95 57 96
REMARK SMILES IDX 58 97 59 98
REMARK H PARENT 17 6 21 29 83 48 49 59
REMARK Flexibility Score: inf
ROOT
ATOM      1  C   UNL A   1      32.518  30.264  26.914  1.00  0.00     0.042 C 
ENDROOT
BRANCH   1   2
ATOM      2  C   UNL A   1      32.416  29.432  25.634  1.00  0.00     0.118 C 
BRANCH   2   3
ATOM      3  N   UNL A   1      31.394  29.915  24.722  1.00  0.00    -0.351 N 
ATOM      4  C   UNL A   1      30.554  29.229  23.864  1.00  0.00     0.273 C 
ATOM      5  O   UNL A   1      29.624  29.851  23.368  1.00  0.00    -0.267 OA
ATOM      6  H   UNL A   1      31.281  30.893  24.712  1.00  0.00     0.163 HD
BRANCH   4   7
ATOM      7  C   UNL A   1      30.750  27.801  23.624  1.00  0.00     0.170 A 
ATOM      8  N   UNL A   1      31.533  25.849  23.140  1.00  0.00    -0.251 N 
ATOM      9  C   UNL A   1      31.561  27.144  22.719  1.00  0.00     0.145 A 
ATOM     10  N   UNL A   1      30.559  25.650  24.038  1.00  0.00    -0.067 NA
ATOM     11  N   UNL A   1      30.084  26.844  24.365  1.00  0.00    -0.125 NA
BRANCH   8  12
ATOM     12  C   UNL A   1      32.538  24.833  22.914  1.00  0.00     0.151 C 
BRANCH  12  13
ATOM     13  C   UNL A   1      32.787  23.913  24.129  1.00  0.00     0.030 C 
ATOM     14  N   UNL A   1      33.627  21.793  24.918  1.00  0.00    -0.355 N 
ATOM     15  C   UNL A   1      34.536  22.340  25.915  1.00  0.00     0.118 C 
ATOM     16  C   UNL A   1      33.450  22.586  23.719  1.00  0.00     0.123 C 
ATOM     17  C   UNL A   1      33.922  23.644  26.416  1.00  0.00     0.022 C 
ATOM     18  C   UNL A   1      33.596  24.596  25.257  1.00  0.00     0.009 C 
BRANCH  14  19
ATOM     19  C   UNL A   1      33.451  20.427  24.850  1.00  0.00     0.151 A 
ATOM     20  C   UNL A   1      33.023  16.211  24.880  1.00  0.00     0.069 C 
ATOM     21  C   UNL A   1      33.201  17.696  24.863  1.00  0.00     0.060 A 
ATOM     22  C   UNL A   1      34.440  18.249  24.593  1.00  0.00     0.029 A 
ATOM     23  N   UNL A   1      32.134  18.476  25.127  1.00  0.00    -0.154 NA
ATOM     24  C   UNL A   1      34.555  19.632  24.572  1.00  0.00     0.051 A 
ATOM     25  N   UNL A   1      32.268  19.849  25.141  1.00  0.00    -0.133 NA
ENDBRANCH  14  19
ENDBRANCH  12  13
ENDBRANCH   8  12
ENDBRANCH   4   7
ENDBRANCH   2   3
ENDBRANCH   1   2
BRANCH   1  26
ATOM     26  C   UNL A   1      33.962  30.605  27.247  1.00  0.00     0.118 C 
BRANCH  26  27
ATOM     27  N   UNL A   1      34.046  31.663  28.248  1.00  0.00    -0.352 N 
ATOM     28  C   UNL A   1      34.964  31.828  29.261  1.00  0.00     0.251 C 
ATOM     29  H   UNL A   1      33.349  32.356  28.192  1.00  0.00     0.163 HD
ATOM     30  O   UNL A   1      34.690  32.555  30.211  1.00  0.00    -0.269 OA
BRANCH  28  31
ATOM     31  C   UNL A   1      36.257  31.121  29.213  1.00  0.00     0.039 A 
ATOM     32  C   UNL A   1      37.444  31.856  29.225  1.00  0.00     0.014 A 
ATOM     33  C   UNL A   1      36.292  29.727  29.127  1.00  0.00     0.014 A 
ATOM     34  C   UNL A   1      38.658  31.181  29.219  1.00  0.00     0.010 A 
ATOM     35  C   UNL A   1      37.489  29.052  29.231  1.00  0.00     0.010 A 
ATOM     36  C   UNL A   1      38.674  29.776  29.245  1.00  0.00    -0.014 A 
BRANCH  36  37
ATOM     37  C   UNL A   1      39.942  29.078  29.403  1.00  0.00     0.031 A 
ATOM     38  C   UNL A   1      40.389  28.927  30.810  1.00  0.00     0.074 A 
ATOM     39  C   UNL A   1      40.612  28.473  28.403  1.00  0.00     0.049 A 
ATOM     40  N   UNL A   1      41.326  29.586  31.404  1.00  0.00    -0.248 NA
ATOM     41  C   UNL A   1      39.611  28.058  31.705  1.00  0.00     0.031 C 
ATOM     42  C   UNL A   1      40.194  28.250  27.019  1.00  0.00     0.029 A 
ATOM     43  N   UNL A   1      41.821  27.852  28.460  1.00  0.00    -0.354 N 
ATOM     44  C   UNL A   1      41.417  29.055  32.686  1.00  0.00     0.074 A 
ATOM     45  C   UNL A   1      40.225  28.269  32.873  1.00  0.00     0.031 C 
ATOM     46  C   UNL A   1      41.038  27.372  26.431  1.00  0.00     0.029 A 
ATOM     47  C   UNL A   1      42.137  27.096  27.339  1.00  0.00     0.049 A 
ATOM     48  H   UNL A   1      42.424  27.931  29.235  1.00  0.00     0.167 HD
ATOM     49  C   UNL A   1      42.580  29.128  33.394  1.00  0.00     0.037 A 
ATOM     50  C   UNL A   1      43.219  26.290  27.186  1.00  0.00     0.037 A 
ATOM     51  C   UNL A   1      43.483  30.089  32.801  1.00  0.00     0.049 A 
ATOM     52  C   UNL A   1      44.255  26.789  28.132  1.00  0.00     0.074 A 
ATOM     53  C   UNL A   1      43.397  31.435  32.497  1.00  0.00     0.029 A 
ATOM     54  N   UNL A   1      44.540  29.610  32.062  1.00  0.00    -0.354 N 
ATOM     55  N   UNL A   1      44.838  27.955  28.022  1.00  0.00    -0.248 NA
ATOM     56  C   UNL A   1      44.314  26.190  29.456  1.00  0.00     0.031 C 
ATOM     57  C   UNL A   1      44.053  31.568  31.237  1.00  0.00     0.029 A 
ATOM     58  C   UNL A   1      44.564  30.317  30.886  1.00  0.00     0.049 A 
ATOM     59  H   UNL A   1      45.161  28.893  32.325  1.00  0.00     0.167 HD
ATOM     60  C   UNL A   1      44.946  28.423  29.324  1.00  0.00     0.074 A 
ATOM     61  C   UNL A   1      44.692  27.256  30.167  1.00  0.00     0.031 C 
ATOM     62  C   UNL A   1      44.956  29.760  29.607  1.00  0.00     0.037 A 
BRANCH  49  63
ATOM     63  C   UNL A   1      43.055  28.094  34.389  1.00  0.00     0.058 A 
ATOM     64  C   UNL A   1      43.318  28.493  35.718  1.00  0.00     0.135 A 
ATOM     65  C   UNL A   1      43.532  26.813  34.037  1.00  0.00     0.135 A 
ATOM     66  F   UNL A   1      42.908  29.690  36.168  1.00  0.00    -0.206 F 
ATOM     67  C   UNL A   1      44.075  27.719  36.597  1.00  0.00     0.059 A 
ATOM     68  C   UNL A   1      44.241  26.001  34.916  1.00  0.00     0.059 A 
ATOM     69  F   UNL A   1      43.422  26.318  32.800  1.00  0.00    -0.206 F 
ATOM     70  C   UNL A   1      44.549  26.481  36.178  1.00  0.00     0.060 A 
BRANCH  70  71
ATOM     71  S   UNL A   1      45.621  25.532  37.268  1.00  0.00     0.124 S 
ATOM     72  O   UNL A   1      46.894  25.610  36.561  1.00  0.00    -0.237 OA
ATOM     73  O   UNL A   1      45.531  26.289  38.512  1.00  0.00    -0.237 OA
ATOM     74  O   UNL A   1      44.992  24.216  37.295  1.00  0.00    -0.744 OA
ENDBRANCH  70  71
ENDBRANCH  49  63
BRANCH  50  75
ATOM     75  C   UNL A   1      43.277  24.947  26.541  1.00  0.00     0.058 A 
ATOM     76  C   UNL A   1      43.928  24.764  25.305  1.00  0.00     0.135 A 
ATOM     77  C   UNL A   1      42.949  23.767  27.241  1.00  0.00     0.135 A 
ATOM     78  F   UNL A   1      44.289  25.826  24.569  1.00  0.00    -0.206 F 
ATOM     79  C   UNL A   1      44.293  23.498  24.830  1.00  0.00     0.059 A 
ATOM     80  C   UNL A   1      43.291  22.496  26.782  1.00  0.00     0.059 A 
ATOM     81  F   UNL A   1      42.366  23.813  28.448  1.00  0.00    -0.206 F 
ATOM     82  C   UNL A   1      43.992  22.370  25.590  1.00  0.00     0.060 A 
BRANCH  82  83
ATOM     83  S   UNL A   1      44.626  20.755  25.078  1.00  0.00     0.124 S 
ATOM     84  O   UNL A   1      44.540  20.843  23.624  1.00  0.00    -0.237 OA
ATOM     85  O   UNL A   1      45.972  20.762  25.638  1.00  0.00    -0.237 OA
ATOM     86  O   UNL A   1      43.699  19.813  25.700  1.00  0.00    -0.744 OA
ENDBRANCH  82  83
ENDBRANCH  50  75
BRANCH  62  87
ATOM     87  C   UNL A   1      45.136  30.753  28.485  1.00  0.00     0.058 A 
ATOM     88  C   UNL A   1      44.085  31.277  27.712  1.00  0.00     0.135 A 
ATOM     89  C   UNL A   1      46.395  31.358  28.342  1.00  0.00     0.135 A 
ATOM     90  F   UNL A   1      42.833  30.822  27.846  1.00  0.00    -0.206 F 
ATOM     91  C   UNL A   1      44.279  32.349  26.836  1.00  0.00     0.059 A 
ATOM     92  C   UNL A   1      46.605  32.446  27.499  1.00  0.00     0.059 A 
ATOM     93  F   UNL A   1      47.431  30.939  29.089  1.00  0.00    -0.206 F 
ATOM     94  C   UNL A   1      45.540  32.938  26.748  1.00  0.00     0.060 A 
BRANCH  94  95
ATOM     95  S   UNL A   1      45.755  34.406  25.716  1.00  0.00     0.124 S 
ATOM     96  O   UNL A   1      47.195  34.407  25.476  1.00  0.00    -0.237 OA
ATOM     97  O   UNL A   1      44.920  34.103  24.557  1.00  0.00    -0.237 OA
ATOM     98  O   UNL A   1      45.263  35.493  26.559  1.00  0.00    -0.744 OA
ENDBRANCH  94  95
ENDBRANCH  62  87
ENDBRANCH  36  37
ENDBRANCH  28  31
ENDBRANCH  26  27
ENDBRANCH   1  26
TORSDOF 16
ENDMDL
