MODEL 1
REMARK VINA RESULT:     -11.7      0.000      0.000
REMARK SMILES O=C(NCCCNC(=O)[C@@H]1C[N@@H+](CCOc2ccc(F)cc2)C[C@H]1C1CC1)c1ccc(-c2c3nc(c(-c4c(F)cc(S(=O)(=O)[O-])cc4F)c4ccc([nH]4)c(-c4c(F)cc(S(=O)(=O)[O-])cc4F)c4nc(c(-c5c(F)cc(S(=O)(=O)[O-])cc5F)c5ccc2[nH]5)C=C4)C=C3)cc1
REMARK SMILES IDX 5 1 4 2 3 3 1 4 2 5 28 7 29 8 93 9 30 10 92 11 31 12 32 13
REMARK SMILES IDX 33 14 86 15 34 16 91 17 85 18 87 19 35 20 90 21 84 22 83 23
REMARK SMILES IDX 36 25 70 26 49 27 69 28 50 29 53 30 68 31 88 32 51 33 52 34
REMARK SMILES IDX 67 36 89 37 54 38 37 39 38 40 47 41 39 42 40 43 46 44 48 45
REMARK SMILES IDX 41 46 42 47 43 48 44 49 45 50 71 51 72 52 81 53 73 54 74 55
REMARK SMILES IDX 80 56 82 57 75 58 76 59 77 60 78 61 79 62 55 63 56 64 65 65
REMARK SMILES IDX 57 66 58 67 64 68 66 69 59 70 60 71 61 72 62 73 63 74 6 75
REMARK SMILES IDX 7 76 8 77 9 79 10 80 11 81 24 82 12 83 23 84 25 86 26 87
REMARK SMILES IDX 27 88 13 89 14 90 15 91 16 92 17 93 22 94 18 95 21 96 19 97
REMARK SMILES IDX 20 98
REMARK H PARENT 3 6 87 24 53 35 7 78 12 85
REMARK Flexibility Score: inf
ROOT
ATOM      1  C   UNL A   1      35.884  24.023  25.808  1.00  0.00     0.042 C 
ENDROOT
BRANCH   1   2
ATOM      2  C   UNL A   1      36.931  23.668  24.764  1.00  0.00     0.118 C 
BRANCH   2   3
ATOM      3  N   UNL A   1      37.890  22.714  25.288  1.00  0.00    -0.352 N 
ATOM      4  O   UNL A   1      39.864  22.009  26.065  1.00  0.00    -0.269 OA
ATOM      5  C   UNL A   1      39.037  22.917  26.016  1.00  0.00     0.251 C 
ATOM      6  H   UNL A   1      37.687  21.771  25.089  1.00  0.00     0.163 HD
BRANCH   5   7
ATOM      7  C   UNL A   1      39.288  24.183  26.752  1.00  0.00     0.039 A 
ATOM      8  C   UNL A   1      38.859  24.368  28.068  1.00  0.00     0.014 A 
ATOM      9  C   UNL A   1      40.089  25.165  26.151  1.00  0.00     0.014 A 
ATOM     10  C   UNL A   1      39.154  25.551  28.746  1.00  0.00     0.010 A 
ATOM     11  C   UNL A   1      40.457  26.315  26.862  1.00  0.00     0.010 A 
ATOM     12  C   UNL A   1      39.990  26.521  28.168  1.00  0.00    -0.014 A 
BRANCH  12  13
ATOM     13  C   UNL A   1      40.445  27.677  28.987  1.00  0.00     0.031 A 
ATOM     14  C   UNL A   1      39.576  28.886  29.193  1.00  0.00     0.074 A 
ATOM     15  C   UNL A   1      41.659  27.615  29.575  1.00  0.00     0.049 A 
ATOM     16  N   UNL A   1      39.815  29.959  29.905  1.00  0.00    -0.248 NA
ATOM     17  C   UNL A   1      38.272  28.899  28.513  1.00  0.00     0.031 C 
ATOM     18  C   UNL A   1      42.603  26.502  29.434  1.00  0.00     0.029 A 
ATOM     19  N   UNL A   1      42.300  28.482  30.423  1.00  0.00    -0.354 N 
ATOM     20  C   UNL A   1      38.701  30.776  29.757  1.00  0.00     0.074 A 
ATOM     21  C   UNL A   1      37.796  30.088  28.859  1.00  0.00     0.031 C 
ATOM     22  C   UNL A   1      43.667  26.722  30.219  1.00  0.00     0.029 A 
ATOM     23  C   UNL A   1      43.518  28.020  30.867  1.00  0.00     0.049 A 
ATOM     24  H   UNL A   1      41.925  29.354  30.688  1.00  0.00     0.167 HD
ATOM     25  C   UNL A   1      38.451  31.979  30.328  1.00  0.00     0.037 A 
ATOM     26  C   UNL A   1      44.422  28.577  31.698  1.00  0.00     0.037 A 
ATOM     27  C   UNL A   1      39.357  32.655  31.225  1.00  0.00     0.049 A 
ATOM     28  C   UNL A   1      44.137  29.928  32.287  1.00  0.00     0.074 A 
ATOM     29  C   UNL A   1      39.185  33.872  31.864  1.00  0.00     0.029 A 
ATOM     30  N   UNL A   1      40.602  32.177  31.610  1.00  0.00    -0.354 N 
ATOM     31  N   UNL A   1      43.070  30.677  32.145  1.00  0.00    -0.248 NA
ATOM     32  C   UNL A   1      45.178  30.514  33.142  1.00  0.00     0.031 C 
ATOM     33  C   UNL A   1      40.342  34.148  32.599  1.00  0.00     0.029 A 
ATOM     34  C   UNL A   1      41.216  33.082  32.462  1.00  0.00     0.049 A 
ATOM     35  H   UNL A   1      40.992  31.320  31.321  1.00  0.00     0.167 HD
ATOM     36  C   UNL A   1      43.307  31.820  32.899  1.00  0.00     0.074 A 
ATOM     37  C   UNL A   1      44.609  31.654  33.511  1.00  0.00     0.031 C 
ATOM     38  C   UNL A   1      42.516  32.908  33.063  1.00  0.00     0.037 A 
BRANCH  25  39
ATOM     39  C   UNL A   1      37.146  32.654  30.007  1.00  0.00     0.058 A 
ATOM     40  C   UNL A   1      37.080  33.661  29.030  1.00  0.00     0.135 A 
ATOM     41  C   UNL A   1      35.969  32.354  30.714  1.00  0.00     0.135 A 
ATOM     42  F   UNL A   1      38.172  33.988  28.322  1.00  0.00    -0.206 F 
ATOM     43  C   UNL A   1      35.901  34.355  28.775  1.00  0.00     0.059 A 
ATOM     44  C   UNL A   1      34.773  33.019  30.459  1.00  0.00     0.059 A 
ATOM     45  F   UNL A   1      35.970  31.387  31.646  1.00  0.00    -0.206 F 
ATOM     46  C   UNL A   1      34.752  34.027  29.496  1.00  0.00     0.060 A 
BRANCH  46  47
ATOM     47  S   UNL A   1      33.221  34.913  29.129  1.00  0.00     0.124 S 
ATOM     48  O   UNL A   1      32.575  34.952  30.436  1.00  0.00    -0.237 OA
ATOM     49  O   UNL A   1      33.719  36.188  28.624  1.00  0.00    -0.237 OA
ATOM     50  O   UNL A   1      32.573  34.065  28.132  1.00  0.00    -0.744 OA
ENDBRANCH  46  47
ENDBRANCH  25  39
BRANCH  26  51
ATOM     51  C   UNL A   1      45.672  27.838  32.021  1.00  0.00     0.058 A 
ATOM     52  C   UNL A   1      46.820  27.964  31.224  1.00  0.00     0.135 A 
ATOM     53  C   UNL A   1      45.722  26.948  33.104  1.00  0.00     0.135 A 
ATOM     54  F   UNL A   1      46.820  28.796  30.171  1.00  0.00    -0.206 F 
ATOM     55  C   UNL A   1      47.959  27.205  31.463  1.00  0.00     0.059 A 
ATOM     56  C   UNL A   1      46.862  26.197  33.381  1.00  0.00     0.059 A 
ATOM     57  F   UNL A   1      44.654  26.803  33.903  1.00  0.00    -0.206 F 
ATOM     58  C   UNL A   1      47.968  26.318  32.540  1.00  0.00     0.060 A 
BRANCH  58  59
ATOM     59  S   UNL A   1      49.448  25.322  32.816  1.00  0.00     0.124 S 
ATOM     60  O   UNL A   1      48.923  24.251  33.658  1.00  0.00    -0.237 OA
ATOM     61  O   UNL A   1      49.818  24.939  31.458  1.00  0.00    -0.237 OA
ATOM     62  O   UNL A   1      50.361  26.249  33.476  1.00  0.00    -0.744 OA
ENDBRANCH  58  59
ENDBRANCH  26  51
BRANCH  38  63
ATOM     63  C   UNL A   1      43.026  34.008  33.952  1.00  0.00     0.058 A 
ATOM     64  C   UNL A   1      43.787  35.060  33.418  1.00  0.00     0.135 A 
ATOM     65  C   UNL A   1      42.818  33.985  35.340  1.00  0.00     0.135 A 
ATOM     66  F   UNL A   1      44.018  35.127  32.098  1.00  0.00    -0.206 F 
ATOM     67  C   UNL A   1      44.340  36.041  34.233  1.00  0.00     0.059 A 
ATOM     68  C   UNL A   1      43.340  34.972  36.171  1.00  0.00     0.059 A 
ATOM     69  F   UNL A   1      42.084  33.008  35.896  1.00  0.00    -0.206 F 
ATOM     70  C   UNL A   1      44.114  35.987  35.609  1.00  0.00     0.060 A 
BRANCH  70  71
ATOM     71  S   UNL A   1      44.831  37.276  36.650  1.00  0.00     0.124 S 
ATOM     72  O   UNL A   1      45.588  38.058  35.678  1.00  0.00    -0.237 OA
ATOM     73  O   UNL A   1      43.644  37.925  37.200  1.00  0.00    -0.237 OA
ATOM     74  O   UNL A   1      45.630  36.527  37.615  1.00  0.00    -0.744 OA
ENDBRANCH  70  71
ENDBRANCH  38  63
ENDBRANCH  12  13
ENDBRANCH   5   7
ENDBRANCH   2   3
ENDBRANCH   1   2
BRANCH   1  75
ATOM     75  C   UNL A   1      34.503  23.380  25.597  1.00  0.00     0.117 C 
BRANCH  75  76
ATOM     76  N   UNL A   1      33.522  23.550  26.682  1.00  0.00    -0.356 N 
ATOM     77  C   UNL A   1      32.165  23.775  26.652  1.00  0.00     0.229 C 
ATOM     78  H   UNL A   1      33.904  23.491  27.587  1.00  0.00     0.163 HD
ATOM     79  O   UNL A   1      31.493  23.161  27.490  1.00  0.00    -0.275 OA
BRANCH  77  80
ATOM     80  C   UNL A   1      31.498  24.889  25.837  1.00  0.00     0.142 C 
ATOM     81  C   UNL A   1      31.303  24.606  24.327  1.00  0.00     0.276 C 
ATOM     82  C   UNL A   1      32.167  26.235  25.883  1.00  0.00     0.065 C 
ATOM     83  N   UNL A   1      31.693  25.833  23.585  1.00  0.00    -0.331 N 
ATOM     84  C   UNL A   1      32.661  26.437  24.465  1.00  0.00     0.267 C 
ATOM     85  H   UNL A   1      32.061  25.596  22.664  1.00  0.00     0.348 HD
BRANCH  82  86
ATOM     86  C   UNL A   1      31.385  27.322  26.573  1.00  0.00    -0.001 C 
ATOM     87  C   UNL A   1      31.835  28.208  27.713  1.00  0.00     0.004 C 
ATOM     88  C   UNL A   1      31.748  28.774  26.329  1.00  0.00     0.004 C 
ENDBRANCH  82  86
BRANCH  83  89
ATOM     89  C   UNL A   1      30.620  26.734  23.106  1.00  0.00     0.304 C 
BRANCH  89  90
ATOM     90  C   UNL A   1      30.874  28.176  22.523  1.00  0.00     0.290 C 
BRANCH  90  91
ATOM     91  O   UNL A   1      29.786  28.761  21.774  1.00  0.00    -0.488 OA
BRANCH  91  92
ATOM     92  C   UNL A   1      29.268  29.934  22.279  1.00  0.00     0.119 A 
ATOM     93  C   UNL A   1      28.638  30.760  21.336  1.00  0.00     0.049 A 
ATOM     94  C   UNL A   1      29.449  30.398  23.584  1.00  0.00     0.049 A 
ATOM     95  C   UNL A   1      28.398  32.105  21.630  1.00  0.00     0.043 A 
ATOM     96  C   UNL A   1      29.166  31.738  23.891  1.00  0.00     0.043 A 
ATOM     97  C   UNL A   1      28.697  32.589  22.896  1.00  0.00     0.123 A 
ATOM     98  F   UNL A   1      28.575  33.900  23.145  1.00  0.00    -0.207 F 
ENDBRANCH  91  92
ENDBRANCH  90  91
ENDBRANCH  89  90
ENDBRANCH  83  89
ENDBRANCH  77  80
ENDBRANCH  75  76
ENDBRANCH   1  75
TORSDOF 18
ENDMDL
MODEL 2
REMARK VINA RESULT:     -11.6      5.056      9.983
REMARK SMILES O=C(NCCCNC(=O)[C@@H]1C[N@@H+](CCOc2ccc(F)cc2)C[C@H]1C1CC1)c1ccc(-c2c3nc(c(-c4c(F)cc(S(=O)(=O)[O-])cc4F)c4ccc([nH]4)c(-c4c(F)cc(S(=O)(=O)[O-])cc4F)c4nc(c(-c5c(F)cc(S(=O)(=O)[O-])cc5F)c5ccc2[nH]5)C=C4)C=C3)cc1
REMARK SMILES IDX 5 1 4 2 3 3 1 4 2 5 28 7 29 8 93 9 30 10 92 11 31 12 32 13
REMARK SMILES IDX 33 14 86 15 34 16 91 17 85 18 87 19 35 20 90 21 84 22 83 23
REMARK SMILES IDX 36 25 70 26 49 27 69 28 50 29 53 30 68 31 88 32 51 33 52 34
REMARK SMILES IDX 67 36 89 37 54 38 37 39 38 40 47 41 39 42 40 43 46 44 48 45
REMARK SMILES IDX 41 46 42 47 43 48 44 49 45 50 71 51 72 52 81 53 73 54 74 55
REMARK SMILES IDX 80 56 82 57 75 58 76 59 77 60 78 61 79 62 55 63 56 64 65 65
REMARK SMILES IDX 57 66 58 67 64 68 66 69 59 70 60 71 61 72 62 73 63 74 6 75
REMARK SMILES IDX 7 76 8 77 9 79 10 80 11 81 24 82 12 83 23 84 25 86 26 87
REMARK SMILES IDX 27 88 13 89 14 90 15 91 16 92 17 93 22 94 18 95 21 96 19 97
REMARK SMILES IDX 20 98
REMARK H PARENT 3 6 87 24 53 35 7 78 12 85
REMARK Flexibility Score: inf
ROOT
ATOM      1  C   UNL A   1      34.323  29.873  27.498  1.00  0.00     0.042 C 
ENDROOT
BRANCH   1   2
ATOM      2  C   UNL A   1      35.246  31.033  27.834  1.00  0.00     0.118 C 
BRANCH   2   3
ATOM      3  N   UNL A   1      35.378  31.200  29.269  1.00  0.00    -0.352 N 
ATOM      4  O   UNL A   1      36.004  30.660  31.346  1.00  0.00    -0.269 OA
ATOM      5  C   UNL A   1      36.278  30.647  30.147  1.00  0.00     0.251 C 
ATOM      6  H   UNL A   1      34.718  31.806  29.678  1.00  0.00     0.163 HD
BRANCH   5   7
ATOM      7  C   UNL A   1      37.565  30.062  29.691  1.00  0.00     0.039 A 
ATOM      8  C   UNL A   1      37.955  30.092  28.351  1.00  0.00     0.014 A 
ATOM      9  C   UNL A   1      38.467  29.583  30.653  1.00  0.00     0.014 A 
ATOM     10  C   UNL A   1      39.192  29.577  27.964  1.00  0.00     0.010 A 
ATOM     11  C   UNL A   1      39.743  29.144  30.275  1.00  0.00     0.010 A 
ATOM     12  C   UNL A   1      40.118  29.134  28.924  1.00  0.00    -0.014 A 
BRANCH  12  13
ATOM     13  C   UNL A   1      41.498  28.774  28.499  1.00  0.00     0.031 A 
ATOM     14  C   UNL A   1      42.616  29.778  28.526  1.00  0.00     0.074 A 
ATOM     15  C   UNL A   1      41.743  27.506  28.107  1.00  0.00     0.049 A 
ATOM     16  N   UNL A   1      43.878  29.611  28.219  1.00  0.00    -0.248 NA
ATOM     17  C   UNL A   1      42.280  31.146  28.947  1.00  0.00     0.031 C 
ATOM     18  C   UNL A   1      40.736  26.444  28.020  1.00  0.00     0.029 A 
ATOM     19  N   UNL A   1      42.908  26.882  27.734  1.00  0.00    -0.354 N 
ATOM     20  C   UNL A   1      44.486  30.847  28.403  1.00  0.00     0.074 A 
ATOM     21  C   UNL A   1      43.446  31.766  28.819  1.00  0.00     0.031 C 
ATOM     22  C   UNL A   1      41.334  25.292  27.685  1.00  0.00     0.029 A 
ATOM     23  C   UNL A   1      42.754  25.541  27.467  1.00  0.00     0.049 A 
ATOM     24  H   UNL A   1      43.771  27.351  27.662  1.00  0.00     0.167 HD
ATOM     25  C   UNL A   1      45.791  31.179  28.254  1.00  0.00     0.037 A 
ATOM     26  C   UNL A   1      43.651  24.611  27.083  1.00  0.00     0.037 A 
ATOM     27  C   UNL A   1      46.821  30.257  27.843  1.00  0.00     0.049 A 
ATOM     28  C   UNL A   1      45.084  25.015  26.888  1.00  0.00     0.074 A 
ATOM     29  C   UNL A   1      48.175  30.499  27.676  1.00  0.00     0.029 A 
ATOM     30  N   UNL A   1      46.616  28.920  27.534  1.00  0.00    -0.354 N 
ATOM     31  N   UNL A   1      45.640  26.187  27.081  1.00  0.00    -0.248 NA
ATOM     32  C   UNL A   1      46.009  23.977  26.416  1.00  0.00     0.031 C 
ATOM     33  C   UNL A   1      48.779  29.321  27.227  1.00  0.00     0.029 A 
ATOM     34  C   UNL A   1      47.814  28.329  27.161  1.00  0.00     0.049 A 
ATOM     35  H   UNL A   1      45.748  28.457  27.575  1.00  0.00     0.167 HD
ATOM     36  C   UNL A   1      46.982  26.025  26.764  1.00  0.00     0.074 A 
ATOM     37  C   UNL A   1      47.159  24.638  26.384  1.00  0.00     0.031 C 
ATOM     38  C   UNL A   1      47.976  26.947  26.781  1.00  0.00     0.037 A 
BRANCH  25  39
ATOM     39  C   UNL A   1      46.192  32.603  28.533  1.00  0.00     0.058 A 
ATOM     40  C   UNL A   1      46.256  33.547  27.496  1.00  0.00     0.135 A 
ATOM     41  C   UNL A   1      46.581  33.018  29.818  1.00  0.00     0.135 A 
ATOM     42  F   UNL A   1      45.894  33.207  26.249  1.00  0.00    -0.206 F 
ATOM     43  C   UNL A   1      46.703  34.846  27.718  1.00  0.00     0.059 A 
ATOM     44  C   UNL A   1      47.009  34.319  30.068  1.00  0.00     0.059 A 
ATOM     45  F   UNL A   1      46.521  32.161  30.851  1.00  0.00    -0.206 F 
ATOM     46  C   UNL A   1      47.079  35.223  29.008  1.00  0.00     0.060 A 
BRANCH  46  47
ATOM     47  S   UNL A   1      47.624  36.922  29.288  1.00  0.00     0.124 S 
ATOM     48  O   UNL A   1      46.642  37.683  28.524  1.00  0.00    -0.237 OA
ATOM     49  O   UNL A   1      47.532  37.038  30.740  1.00  0.00    -0.237 OA
ATOM     50  O   UNL A   1      48.984  36.931  28.753  1.00  0.00    -0.744 OA
ENDBRANCH  46  47
ENDBRANCH  25  39
BRANCH  26  51
ATOM     51  C   UNL A   1      43.206  23.207  26.873  1.00  0.00     0.058 A 
ATOM     52  C   UNL A   1      42.961  22.350  27.957  1.00  0.00     0.135 A 
ATOM     53  C   UNL A   1      43.073  22.680  25.579  1.00  0.00     0.135 A 
ATOM     54  F   UNL A   1      43.083  22.804  29.214  1.00  0.00    -0.206 F 
ATOM     55  C   UNL A   1      42.639  21.012  27.768  1.00  0.00     0.059 A 
ATOM     56  C   UNL A   1      42.724  21.350  25.365  1.00  0.00     0.059 A 
ATOM     57  F   UNL A   1      43.284  23.464  24.511  1.00  0.00    -0.206 F 
ATOM     58  C   UNL A   1      42.531  20.518  26.468  1.00  0.00     0.060 A 
BRANCH  58  59
ATOM     59  S   UNL A   1      42.139  18.770  26.245  1.00  0.00     0.124 S 
ATOM     60  O   UNL A   1      40.776  18.841  25.728  1.00  0.00    -0.237 OA
ATOM     61  O   UNL A   1      43.160  18.346  25.292  1.00  0.00    -0.237 OA
ATOM     62  O   UNL A   1      42.272  18.220  27.590  1.00  0.00    -0.744 OA
ENDBRANCH  58  59
ENDBRANCH  26  51
BRANCH  38  63
ATOM     63  C   UNL A   1      49.354  26.488  26.391  1.00  0.00     0.058 A 
ATOM     64  C   UNL A   1      50.206  25.905  27.343  1.00  0.00     0.135 A 
ATOM     65  C   UNL A   1      49.854  26.686  25.095  1.00  0.00     0.135 A 
ATOM     66  F   UNL A   1      49.778  25.697  28.598  1.00  0.00    -0.206 F 
ATOM     67  C   UNL A   1      51.512  25.551  27.027  1.00  0.00     0.059 A 
ATOM     68  C   UNL A   1      51.150  26.315  24.750  1.00  0.00     0.059 A 
ATOM     69  F   UNL A   1      49.073  27.225  24.145  1.00  0.00    -0.206 F 
ATOM     70  C   UNL A   1      51.977  25.763  25.728  1.00  0.00     0.060 A 
BRANCH  70  71
ATOM     71  S   UNL A   1      53.673  25.286  25.333  1.00  0.00     0.124 S 
ATOM     72  O   UNL A   1      53.599  23.831  25.406  1.00  0.00    -0.237 OA
ATOM     73  O   UNL A   1      53.848  25.846  23.996  1.00  0.00    -0.237 OA
ATOM     74  O   UNL A   1      54.459  25.930  26.382  1.00  0.00    -0.744 OA
ENDBRANCH  70  71
ENDBRANCH  38  63
ENDBRANCH  12  13
ENDBRANCH   5   7
ENDBRANCH   2   3
ENDBRANCH   1   2
BRANCH   1  75
ATOM     75  C   UNL A   1      33.045  30.252  26.730  1.00  0.00     0.117 C 
BRANCH  75  76
ATOM     76  N   UNL A   1      31.863  29.405  26.955  1.00  0.00    -0.356 N 
ATOM     77  C   UNL A   1      31.640  28.071  26.703  1.00  0.00     0.229 C 
ATOM     78  H   UNL A   1      31.098  29.875  27.358  1.00  0.00     0.163 HD
ATOM     79  O   UNL A   1      31.012  27.450  27.570  1.00  0.00    -0.275 OA
BRANCH  77  80
ATOM     80  C   UNL A   1      31.897  27.399  25.349  1.00  0.00     0.142 C 
ATOM     81  C   UNL A   1      33.372  27.051  25.029  1.00  0.00     0.276 C 
ATOM     82  C   UNL A   1      31.417  28.148  24.136  1.00  0.00     0.065 C 
ATOM     83  N   UNL A   1      33.631  27.444  23.620  1.00  0.00    -0.331 N 
ATOM     84  C   UNL A   1      32.697  28.522  23.417  1.00  0.00     0.267 C 
ATOM     85  H   UNL A   1      34.608  27.711  23.494  1.00  0.00     0.348 HD
BRANCH  82  86
ATOM     86  C   UNL A   1      30.288  27.496  23.381  1.00  0.00    -0.001 C 
ATOM     87  C   UNL A   1      28.967  27.005  23.930  1.00  0.00     0.004 C 
ATOM     88  C   UNL A   1      29.009  28.273  23.133  1.00  0.00     0.004 C 
ENDBRANCH  82  86
BRANCH  83  89
ATOM     89  C   UNL A   1      33.617  26.386  22.583  1.00  0.00     0.304 C 
BRANCH  89  90
ATOM     90  C   UNL A   1      33.598  24.843  22.898  1.00  0.00     0.290 C 
BRANCH  90  91
ATOM     91  O   UNL A   1      34.803  24.113  22.580  1.00  0.00    -0.488 OA
BRANCH  91  92
ATOM     92  C   UNL A   1      35.188  23.156  23.494  1.00  0.00     0.119 A 
ATOM     93  C   UNL A   1      36.573  22.960  23.603  1.00  0.00     0.049 A 
ATOM     94  C   UNL A   1      34.319  22.306  24.183  1.00  0.00     0.049 A 
ATOM     95  C   UNL A   1      37.073  21.803  24.204  1.00  0.00     0.043 A 
ATOM     96  C   UNL A   1      34.827  21.166  24.825  1.00  0.00     0.043 A 
ATOM     97  C   UNL A   1      36.191  20.899  24.781  1.00  0.00     0.123 A 
ATOM     98  F   UNL A   1      36.657  19.736  25.257  1.00  0.00    -0.207 F 
ENDBRANCH  91  92
ENDBRANCH  90  91
ENDBRANCH  89  90
ENDBRANCH  83  89
ENDBRANCH  77  80
ENDBRANCH  75  76
ENDBRANCH   1  75
TORSDOF 18
ENDMDL
MODEL 3
REMARK VINA RESULT:     -11.4      2.026      8.543
REMARK SMILES O=C(NCCCNC(=O)[C@@H]1C[N@@H+](CCOc2ccc(F)cc2)C[C@H]1C1CC1)c1ccc(-c2c3nc(c(-c4c(F)cc(S(=O)(=O)[O-])cc4F)c4ccc([nH]4)c(-c4c(F)cc(S(=O)(=O)[O-])cc4F)c4nc(c(-c5c(F)cc(S(=O)(=O)[O-])cc5F)c5ccc2[nH]5)C=C4)C=C3)cc1
REMARK SMILES IDX 5 1 4 2 3 3 1 4 2 5 28 7 29 8 93 9 30 10 92 11 31 12 32 13
REMARK SMILES IDX 33 14 86 15 34 16 91 17 85 18 87 19 35 20 90 21 84 22 83 23
REMARK SMILES IDX 36 25 70 26 49 27 69 28 50 29 53 30 68 31 88 32 51 33 52 34
REMARK SMILES IDX 67 36 89 37 54 38 37 39 38 40 47 41 39 42 40 43 46 44 48 45
REMARK SMILES IDX 41 46 42 47 43 48 44 49 45 50 71 51 72 52 81 53 73 54 74 55
REMARK SMILES IDX 80 56 82 57 75 58 76 59 77 60 78 61 79 62 55 63 56 64 65 65
REMARK SMILES IDX 57 66 58 67 64 68 66 69 59 70 60 71 61 72 62 73 63 74 6 75
REMARK SMILES IDX 7 76 8 77 9 79 10 80 11 81 24 82 12 83 23 84 25 86 26 87
REMARK SMILES IDX 27 88 13 89 14 90 15 91 16 92 17 93 22 94 18 95 21 96 19 97
REMARK SMILES IDX 20 98
REMARK H PARENT 3 6 87 24 53 35 7 78 12 85
REMARK Flexibility Score: inf
ROOT
ATOM      1  C   UNL A   1      35.554  23.288  24.978  1.00  0.00     0.042 C 
ENDROOT
BRANCH   1   2
ATOM      2  C   UNL A   1      37.000  23.635  24.658  1.00  0.00     0.118 C 
BRANCH   2   3
ATOM      3  N   UNL A   1      37.912  22.667  25.237  1.00  0.00    -0.352 N 
ATOM      4  O   UNL A   1      39.834  21.930  26.111  1.00  0.00    -0.269 OA
ATOM      5  C   UNL A   1      39.031  22.856  26.012  1.00  0.00     0.251 C 
ATOM      6  H   UNL A   1      37.695  21.726  25.045  1.00  0.00     0.163 HD
BRANCH   5   7
ATOM      7  C   UNL A   1      39.281  24.128  26.738  1.00  0.00     0.039 A 
ATOM      8  C   UNL A   1      38.883  24.310  28.064  1.00  0.00     0.014 A 
ATOM      9  C   UNL A   1      40.050  25.121  26.114  1.00  0.00     0.014 A 
ATOM     10  C   UNL A   1      39.176  25.499  28.731  1.00  0.00     0.010 A 
ATOM     11  C   UNL A   1      40.417  26.279  26.813  1.00  0.00     0.010 A 
ATOM     12  C   UNL A   1      39.981  26.481  28.130  1.00  0.00    -0.014 A 
BRANCH  12  13
ATOM     13  C   UNL A   1      40.438  27.647  28.934  1.00  0.00     0.031 A 
ATOM     14  C   UNL A   1      41.822  27.705  29.517  1.00  0.00     0.074 A 
ATOM     15  C   UNL A   1      39.588  28.680  29.116  1.00  0.00     0.049 A 
ATOM     16  N   UNL A   1      42.381  28.664  30.213  1.00  0.00    -0.248 NA
ATOM     17  C   UNL A   1      42.693  26.541  29.298  1.00  0.00     0.031 C 
ATOM     18  C   UNL A   1      38.211  28.732  28.614  1.00  0.00     0.029 A 
ATOM     19  N   UNL A   1      39.755  29.891  29.741  1.00  0.00    -0.354 N 
ATOM     20  C   UNL A   1      43.662  28.222  30.518  1.00  0.00     0.074 A 
ATOM     21  C   UNL A   1      43.788  26.891  29.960  1.00  0.00     0.031 C 
ATOM     22  C   UNL A   1      37.684  29.933  28.893  1.00  0.00     0.029 A 
ATOM     23  C   UNL A   1      38.656  30.714  29.650  1.00  0.00     0.049 A 
ATOM     24  H   UNL A   1      40.582  30.145  30.211  1.00  0.00     0.167 HD
ATOM     25  C   UNL A   1      44.645  28.871  31.189  1.00  0.00     0.037 A 
ATOM     26  C   UNL A   1      38.444  31.957  30.126  1.00  0.00     0.037 A 
ATOM     27  C   UNL A   1      44.511  30.198  31.738  1.00  0.00     0.049 A 
ATOM     28  C   UNL A   1      39.537  32.638  30.899  1.00  0.00     0.074 A 
ATOM     29  C   UNL A   1      45.457  30.943  32.424  1.00  0.00     0.029 A 
ATOM     30  N   UNL A   1      43.366  30.978  31.669  1.00  0.00    -0.354 N 
ATOM     31  N   UNL A   1      40.746  32.206  31.165  1.00  0.00    -0.248 NA
ATOM     32  C   UNL A   1      39.236  33.969  31.443  1.00  0.00     0.031 C 
ATOM     33  C   UNL A   1      44.870  32.154  32.803  1.00  0.00     0.029 A 
ATOM     34  C   UNL A   1      43.575  32.188  32.313  1.00  0.00     0.049 A 
ATOM     35  H   UNL A   1      42.528  30.712  31.225  1.00  0.00     0.167 HD
ATOM     36  C   UNL A   1      41.355  33.216  31.899  1.00  0.00     0.074 A 
ATOM     37  C   UNL A   1      40.388  34.288  32.019  1.00  0.00     0.031 C 
ATOM     38  C   UNL A   1      42.602  33.246  32.430  1.00  0.00     0.037 A 
BRANCH  25  39
ATOM     39  C   UNL A   1      45.959  28.161  31.373  1.00  0.00     0.058 A 
ATOM     40  C   UNL A   1      46.195  27.373  32.510  1.00  0.00     0.135 A 
ATOM     41  C   UNL A   1      47.013  28.318  30.458  1.00  0.00     0.135 A 
ATOM     42  F   UNL A   1      45.223  27.186  33.418  1.00  0.00    -0.206 F 
ATOM     43  C   UNL A   1      47.431  26.775  32.741  1.00  0.00     0.059 A 
ATOM     44  C   UNL A   1      48.250  27.710  30.656  1.00  0.00     0.059 A 
ATOM     45  F   UNL A   1      46.837  29.046  29.344  1.00  0.00    -0.206 F 
ATOM     46  C   UNL A   1      48.453  26.951  31.808  1.00  0.00     0.060 A 
BRANCH  46  47
ATOM     47  S   UNL A   1      50.041  26.141  32.103  1.00  0.00     0.124 S 
ATOM     48  O   UNL A   1      50.937  26.916  31.253  1.00  0.00    -0.237 OA
ATOM     49  O   UNL A   1      50.212  26.320  33.542  1.00  0.00    -0.237 OA
ATOM     50  O   UNL A   1      49.801  24.765  31.677  1.00  0.00    -0.744 OA
ENDBRANCH  46  47
ENDBRANCH  25  39
BRANCH  26  51
ATOM     51  C   UNL A   1      37.143  32.629  29.867  1.00  0.00     0.058 A 
ATOM     52  C   UNL A   1      37.019  33.623  28.884  1.00  0.00     0.135 A 
ATOM     53  C   UNL A   1      36.011  32.330  30.640  1.00  0.00     0.135 A 
ATOM     54  F   UNL A   1      38.075  33.952  28.123  1.00  0.00    -0.206 F 
ATOM     55  C   UNL A   1      35.833  34.323  28.701  1.00  0.00     0.059 A 
ATOM     56  C   UNL A   1      34.804  32.998  30.457  1.00  0.00     0.059 A 
ATOM     57  F   UNL A   1      36.077  31.378  31.583  1.00  0.00    -0.206 F 
ATOM     58  C   UNL A   1      34.732  34.008  29.499  1.00  0.00     0.060 A 
BRANCH  58  59
ATOM     59  S   UNL A   1      33.209  34.949  29.265  1.00  0.00     0.124 S 
ATOM     60  O   UNL A   1      32.495  34.111  28.306  1.00  0.00    -0.237 OA
ATOM     61  O   UNL A   1      32.658  34.981  30.615  1.00  0.00    -0.237 OA
ATOM     62  O   UNL A   1      33.679  36.230  28.750  1.00  0.00    -0.744 OA
ENDBRANCH  58  59
ENDBRANCH  26  51
BRANCH  38  63
ATOM     63  C   UNL A   1      43.006  34.485  33.181  1.00  0.00     0.058 A 
ATOM     64  C   UNL A   1      43.719  35.507  32.536  1.00  0.00     0.135 A 
ATOM     65  C   UNL A   1      42.745  34.630  34.552  1.00  0.00     0.135 A 
ATOM     66  F   UNL A   1      43.998  35.417  31.226  1.00  0.00    -0.206 F 
ATOM     67  C   UNL A   1      44.176  36.622  33.229  1.00  0.00     0.059 A 
ATOM     68  C   UNL A   1      43.170  35.749  35.260  1.00  0.00     0.059 A 
ATOM     69  F   UNL A   1      42.052  33.686  35.211  1.00  0.00    -0.206 F 
ATOM     70  C   UNL A   1      43.900  36.733  34.593  1.00  0.00     0.060 A 
BRANCH  70  71
ATOM     71  S   UNL A   1      44.491  38.193  35.475  1.00  0.00     0.124 S 
ATOM     72  O   UNL A   1      43.660  39.246  34.901  1.00  0.00    -0.237 OA
ATOM     73  O   UNL A   1      44.210  37.850  36.866  1.00  0.00    -0.237 OA
ATOM     74  O   UNL A   1      45.908  38.249  35.125  1.00  0.00    -0.744 OA
ENDBRANCH  70  71
ENDBRANCH  38  63
ENDBRANCH  12  13
ENDBRANCH   5   7
ENDBRANCH   2   3
ENDBRANCH   1   2
BRANCH   1  75
ATOM     75  C   UNL A   1      35.175  21.810  24.783  1.00  0.00     0.117 C 
BRANCH  75  76
ATOM     76  N   UNL A   1      33.902  21.540  24.097  1.00  0.00    -0.356 N 
ATOM     77  C   UNL A   1      33.006  22.383  23.480  1.00  0.00     0.229 C 
ATOM     78  H   UNL A   1      33.645  20.590  24.075  1.00  0.00     0.163 HD
ATOM     79  O   UNL A   1      32.513  21.974  22.421  1.00  0.00    -0.275 OA
BRANCH  77  80
ATOM     80  C   UNL A   1      32.419  23.639  24.134  1.00  0.00     0.142 C 
ATOM     81  C   UNL A   1      31.399  23.402  25.275  1.00  0.00     0.276 C 
ATOM     82  C   UNL A   1      31.729  24.606  23.210  1.00  0.00     0.065 C 
ATOM     83  N   UNL A   1      30.267  24.341  25.069  1.00  0.00    -0.331 N 
ATOM     84  C   UNL A   1      30.279  24.540  23.642  1.00  0.00     0.267 C 
ATOM     85  H   UNL A   1      29.398  23.942  25.425  1.00  0.00     0.348 HD
BRANCH  82  86
ATOM     86  C   UNL A   1      32.409  25.940  23.047  1.00  0.00    -0.001 C 
ATOM     87  C   UNL A   1      33.766  26.359  23.569  1.00  0.00     0.004 C 
ATOM     88  C   UNL A   1      33.596  26.063  22.111  1.00  0.00     0.004 C 
ENDBRANCH  82  86
BRANCH  83  89
ATOM     89  C   UNL A   1      30.224  25.578  25.883  1.00  0.00     0.304 C 
BRANCH  89  90
ATOM     90  C   UNL A   1      31.488  26.234  26.556  1.00  0.00     0.290 C 
BRANCH  90  91
ATOM     91  O   UNL A   1      31.252  27.446  27.306  1.00  0.00    -0.488 OA
BRANCH  91  92
ATOM     92  C   UNL A   1      32.121  28.488  27.060  1.00  0.00     0.119 A 
ATOM     93  C   UNL A   1      33.472  28.124  26.957  1.00  0.00     0.049 A 
ATOM     94  C   UNL A   1      31.772  29.840  27.048  1.00  0.00     0.049 A 
ATOM     95  C   UNL A   1      34.471  29.094  27.070  1.00  0.00     0.043 A 
ATOM     96  C   UNL A   1      32.778  30.817  27.116  1.00  0.00     0.043 A 
ATOM     97  C   UNL A   1      34.112  30.431  27.182  1.00  0.00     0.123 A 
ATOM     98  F   UNL A   1      35.061  31.351  27.404  1.00  0.00    -0.207 F 
ENDBRANCH  91  92
ENDBRANCH  90  91
ENDBRANCH  89  90
ENDBRANCH  83  89
ENDBRANCH  77  80
ENDBRANCH  75  76
ENDBRANCH   1  75
TORSDOF 18
ENDMDL
