MODEL 1
REMARK VINA RESULT:     -12.3      0.000      0.000
REMARK SMILES COc1ccc(CCc2nnc(NC(=O)[C@@H]3[C@@H](C(=O)NCCCNC(=O)c4ccc(-c5c6nc(c(-c7c(F)cc(S(=O)(=O)[O-])cc7F)c7ccc([nH]7)c(-c7c(F)cc(S(=O)(=O)[O-])cc7F)c7nc(c(-c8c(F)cc(S(=O)(=O)[O-])cc8F)c8ccc5[nH]8)C=C7)C=C6)cc4)C3(C)C)s2)cc1
REMARK SMILES IDX 18 1 19 2 20 3 17 5 16 6 93 7 94 8 95 9 14 10 13 11 15 13
REMARK SMILES IDX 12 14 9 15 10 16 96 17 11 18 8 19 7 20 6 21 3 22 4 23 98 24
REMARK SMILES IDX 5 25 97 26 2 27 1 28 21 29 22 30 23 31 24 32 25 33 26 35
REMARK SMILES IDX 27 36 28 37 92 38 29 39 91 40 30 41 31 42 32 43 85 44 33 45
REMARK SMILES IDX 90 46 84 47 86 48 34 49 89 50 83 51 82 52 35 54 69 55 48 56
REMARK SMILES IDX 68 57 49 58 52 59 67 60 87 61 50 62 51 63 66 65 88 66 53 67
REMARK SMILES IDX 36 68 37 69 46 70 38 71 39 72 45 73 47 74 40 75 41 76 42 77
REMARK SMILES IDX 43 78 44 79 70 80 71 81 80 82 72 83 73 84 79 85 81 86 74 87
REMARK SMILES IDX 75 88 76 89 77 90 78 91 54 92 55 93 64 94 56 95 57 96 63 97
REMARK SMILES IDX 65 98 58 99 59 100 60 101 61 102 62 103
REMARK H PARENT 20 4 13 12 24 34 86 53 52 64
REMARK Flexibility Score: inf
ROOT
ATOM      1  C   UNL A   1      36.485  22.618  23.873  1.00  0.00     0.224 C 
ATOM      2  O   UNL A   1      36.456  22.942  22.685  1.00  0.00    -0.275 OA
ATOM      3  N   UNL A   1      37.720  22.477  24.428  1.00  0.00    -0.356 N 
ATOM      4  H   UNL A   1      38.446  22.691  23.799  1.00  0.00     0.163 HD
ENDROOT
BRANCH   1   5
ATOM      5  C   UNL A   1      35.179  22.472  24.557  1.00  0.00     0.098 C 
ATOM      6  C   UNL A   1      33.849  23.099  24.223  1.00  0.00     0.098 C 
ATOM      7  C   UNL A   1      34.558  23.444  25.542  1.00  0.00    -0.011 C 
ATOM      8  C   UNL A   1      35.118  24.843  25.684  1.00  0.00     0.013 C 
ATOM      9  C   UNL A   1      34.040  22.887  26.846  1.00  0.00     0.013 C 
BRANCH   6  10
ATOM     10  C   UNL A   1      32.719  22.141  24.047  1.00  0.00     0.230 C 
ATOM     11  N   UNL A   1      31.426  22.606  24.060  1.00  0.00    -0.300 N 
ATOM     12  H   UNL A   1      30.714  21.971  23.817  1.00  0.00     0.172 HD
ATOM     13  O   UNL A   1      32.929  20.943  23.871  1.00  0.00    -0.274 OA
BRANCH  11  14
ATOM     14  C   UNL A   1      31.048  23.879  24.379  1.00  0.00     0.212 A 
ATOM     15  C   UNL A   1      30.228  26.093  24.182  1.00  0.00     0.119 A 
ATOM     16  N   UNL A   1      30.160  25.641  25.416  1.00  0.00    -0.142 NA
ATOM     17  S   UNL A   1      31.036  25.012  23.098  1.00  0.00    -0.080 S 
ATOM     18  N   UNL A   1      30.632  24.355  25.523  1.00  0.00    -0.120 NA
BRANCH  15  19
ATOM     19  C   UNL A   1      29.659  27.409  23.758  1.00  0.00     0.074 C 
BRANCH  19  20
ATOM     20  C   UNL A   1      30.686  28.461  23.319  1.00  0.00     0.043 C 
BRANCH  20  21
ATOM     21  C   UNL A   1      31.707  28.910  24.345  1.00  0.00    -0.047 A 
ATOM     22  C   UNL A   1      33.536  29.646  26.364  1.00  0.00     0.118 A 
ATOM     23  C   UNL A   1      33.886  28.697  25.413  1.00  0.00     0.046 A 
ATOM     24  C   UNL A   1      32.287  30.258  26.296  1.00  0.00     0.046 A 
ATOM     25  C   UNL A   1      32.973  28.316  24.429  1.00  0.00     0.007 A 
ATOM     26  C   UNL A   1      31.379  29.893  25.291  1.00  0.00     0.007 A 
BRANCH  22  27
ATOM     27  O   UNL A   1      34.500  29.951  27.284  1.00  0.00    -0.497 OA
ATOM     28  C   UNL A   1      34.440  31.289  27.767  1.00  0.00     0.278 C 
ENDBRANCH  22  27
ENDBRANCH  20  21
ENDBRANCH  19  20
ENDBRANCH  15  19
ENDBRANCH  11  14
ENDBRANCH   6  10
ENDBRANCH   1   5
BRANCH   3  29
ATOM     29  C   UNL A   1      38.209  22.082  25.735  1.00  0.00     0.117 C 
BRANCH  29  30
ATOM     30  C   UNL A   1      38.583  23.288  26.585  1.00  0.00     0.042 C 
BRANCH  30  31
ATOM     31  C   UNL A   1      40.028  23.269  27.059  1.00  0.00     0.118 C 
BRANCH  31  32
ATOM     32  N   UNL A   1      40.927  23.921  26.117  1.00  0.00    -0.352 N 
ATOM     33  C   UNL A   1      41.400  25.210  26.088  1.00  0.00     0.251 C 
ATOM     34  H   UNL A   1      41.246  23.346  25.384  1.00  0.00     0.163 HD
ATOM     35  O   UNL A   1      41.973  25.616  25.080  1.00  0.00    -0.269 OA
BRANCH  33  36
ATOM     36  C   UNL A   1      41.216  26.113  27.247  1.00  0.00     0.039 A 
ATOM     37  C   UNL A   1      42.051  27.227  27.371  1.00  0.00     0.014 A 
ATOM     38  C   UNL A   1      40.262  25.850  28.233  1.00  0.00     0.014 A 
ATOM     39  C   UNL A   1      41.895  28.095  28.455  1.00  0.00     0.010 A 
ATOM     40  C   UNL A   1      40.036  26.773  29.252  1.00  0.00     0.010 A 
ATOM     41  C   UNL A   1      40.867  27.893  29.391  1.00  0.00    -0.014 A 
BRANCH  41  42
ATOM     42  C   UNL A   1      40.672  28.824  30.534  1.00  0.00     0.031 A 
ATOM     43  C   UNL A   1      41.517  28.688  31.774  1.00  0.00     0.074 A 
ATOM     44  C   UNL A   1      39.710  29.766  30.471  1.00  0.00     0.049 A 
ATOM     45  N   UNL A   1      41.481  29.388  32.880  1.00  0.00    -0.248 NA
ATOM     46  C   UNL A   1      42.515  27.605  31.789  1.00  0.00     0.031 C 
ATOM     47  C   UNL A   1      38.789  29.960  29.349  1.00  0.00     0.029 A 
ATOM     48  N   UNL A   1      39.344  30.736  31.371  1.00  0.00    -0.354 N 
ATOM     49  C   UNL A   1      42.434  28.824  33.720  1.00  0.00     0.074 A 
ATOM     50  C   UNL A   1      42.989  27.685  33.023  1.00  0.00     0.031 C 
ATOM     51  C   UNL A   1      37.986  31.004  29.613  1.00  0.00     0.029 A 
ATOM     52  C   UNL A   1      38.306  31.527  30.937  1.00  0.00     0.049 A 
ATOM     53  H   UNL A   1      39.782  30.852  32.245  1.00  0.00     0.167 HD
ATOM     54  C   UNL A   1      42.831  29.231  34.949  1.00  0.00     0.037 A 
ATOM     55  C   UNL A   1      37.680  32.558  31.539  1.00  0.00     0.037 A 
ATOM     56  C   UNL A   1      42.292  30.383  35.625  1.00  0.00     0.049 A 
ATOM     57  C   UNL A   1      38.146  33.000  32.900  1.00  0.00     0.074 A 
ATOM     58  C   UNL A   1      42.670  30.920  36.844  1.00  0.00     0.029 A 
ATOM     59  N   UNL A   1      41.256  31.173  35.145  1.00  0.00    -0.354 N 
ATOM     60  N   UNL A   1      39.100  32.501  33.649  1.00  0.00    -0.248 NA
ATOM     61  C   UNL A   1      37.456  34.153  33.496  1.00  0.00     0.031 C 
ATOM     62  C   UNL A   1      41.827  32.000  37.125  1.00  0.00     0.029 A 
ATOM     63  C   UNL A   1      40.965  32.176  36.054  1.00  0.00     0.049 A 
ATOM     64  H   UNL A   1      40.797  31.037  34.285  1.00  0.00     0.167 HD
ATOM     65  C   UNL A   1      39.147  33.295  34.789  1.00  0.00     0.074 A 
ATOM     66  C   UNL A   1      38.133  34.317  34.623  1.00  0.00     0.031 C 
ATOM     67  C   UNL A   1      39.954  33.189  35.874  1.00  0.00     0.037 A 
BRANCH  54  68
ATOM     68  C   UNL A   1      43.903  28.431  35.642  1.00  0.00     0.058 A 
ATOM     69  C   UNL A   1      43.593  27.386  36.527  1.00  0.00     0.135 A 
ATOM     70  C   UNL A   1      45.261  28.690  35.391  1.00  0.00     0.135 A 
ATOM     71  F   UNL A   1      42.313  27.102  36.818  1.00  0.00    -0.206 F 
ATOM     72  C   UNL A   1      44.587  26.648  37.162  1.00  0.00     0.059 A 
ATOM     73  C   UNL A   1      46.272  27.944  35.990  1.00  0.00     0.059 A 
ATOM     74  F   UNL A   1      45.618  29.677  34.554  1.00  0.00    -0.206 F 
ATOM     75  C   UNL A   1      45.924  26.934  36.886  1.00  0.00     0.060 A 
BRANCH  75  76
ATOM     76  S   UNL A   1      47.201  25.962  37.713  1.00  0.00     0.124 S 
ATOM     77  O   UNL A   1      46.466  24.748  38.057  1.00  0.00    -0.237 OA
ATOM     78  O   UNL A   1      48.209  25.817  36.668  1.00  0.00    -0.237 OA
ATOM     79  O   UNL A   1      47.589  26.800  38.844  1.00  0.00    -0.744 OA
ENDBRANCH  75  76
ENDBRANCH  54  68
BRANCH  55  80
ATOM     80  C   UNL A   1      36.562  33.255  30.846  1.00  0.00     0.058 A 
ATOM     81  C   UNL A   1      35.236  33.112  31.282  1.00  0.00     0.135 A 
ATOM     82  C   UNL A   1      36.800  34.091  29.744  1.00  0.00     0.135 A 
ATOM     83  F   UNL A   1      34.956  32.318  32.327  1.00  0.00    -0.206 F 
ATOM     84  C   UNL A   1      34.184  33.758  30.640  1.00  0.00     0.059 A 
ATOM     85  C   UNL A   1      35.768  34.771  29.104  1.00  0.00     0.059 A 
ATOM     86  F   UNL A   1      38.052  34.276  29.298  1.00  0.00    -0.206 F 
ATOM     87  C   UNL A   1      34.461  34.590  29.554  1.00  0.00     0.060 A 
BRANCH  87  88
ATOM     88  S   UNL A   1      33.093  35.462  28.761  1.00  0.00     0.124 S 
ATOM     89  O   UNL A   1      33.799  36.474  27.984  1.00  0.00    -0.237 OA
ATOM     90  O   UNL A   1      32.456  34.396  27.994  1.00  0.00    -0.237 OA
ATOM     91  O   UNL A   1      32.315  35.961  29.890  1.00  0.00    -0.744 OA
ENDBRANCH  87  88
ENDBRANCH  55  80
BRANCH  67  92
ATOM     92  C   UNL A   1      39.802  34.227  36.953  1.00  0.00     0.058 A 
ATOM     93  C   UNL A   1      39.037  33.992  38.107  1.00  0.00     0.135 A 
ATOM     94  C   UNL A   1      40.465  35.461  36.847  1.00  0.00     0.135 A 
ATOM     95  F   UNL A   1      38.379  32.833  38.257  1.00  0.00    -0.206 F 
ATOM     96  C   UNL A   1      38.907  34.958  39.101  1.00  0.00     0.059 A 
ATOM     97  C   UNL A   1      40.375  36.428  37.845  1.00  0.00     0.059 A 
ATOM     98  F   UNL A   1      41.221  35.733  35.771  1.00  0.00    -0.206 F 
ATOM     99  C   UNL A   1      39.580  36.172  38.960  1.00  0.00     0.060 A 
BRANCH  99 100
ATOM    100  S   UNL A   1      39.415  37.409  40.265  1.00  0.00     0.124 S 
ATOM    101  O   UNL A   1      38.799  36.628  41.333  1.00  0.00    -0.237 OA
ATOM    102  O   UNL A   1      40.799  37.811  40.490  1.00  0.00    -0.237 OA
ATOM    103  O   UNL A   1      38.563  38.429  39.662  1.00  0.00    -0.744 OA
ENDBRANCH  99 100
ENDBRANCH  67  92
ENDBRANCH  41  42
ENDBRANCH  33  36
ENDBRANCH  31  32
ENDBRANCH  30  31
ENDBRANCH  29  30
ENDBRANCH   3  29
TORSDOF 19
ENDMDL
MODEL 2
REMARK VINA RESULT:     -12.1      6.325     11.973
REMARK SMILES COc1ccc(CCc2nnc(NC(=O)[C@@H]3[C@@H](C(=O)NCCCNC(=O)c4ccc(-c5c6nc(c(-c7c(F)cc(S(=O)(=O)[O-])cc7F)c7ccc([nH]7)c(-c7c(F)cc(S(=O)(=O)[O-])cc7F)c7nc(c(-c8c(F)cc(S(=O)(=O)[O-])cc8F)c8ccc5[nH]8)C=C7)C=C6)cc4)C3(C)C)s2)cc1
REMARK SMILES IDX 18 1 19 2 20 3 17 5 16 6 93 7 94 8 95 9 14 10 13 11 15 13
REMARK SMILES IDX 12 14 9 15 10 16 96 17 11 18 8 19 7 20 6 21 3 22 4 23 98 24
REMARK SMILES IDX 5 25 97 26 2 27 1 28 21 29 22 30 23 31 24 32 25 33 26 35
REMARK SMILES IDX 27 36 28 37 92 38 29 39 91 40 30 41 31 42 32 43 85 44 33 45
REMARK SMILES IDX 90 46 84 47 86 48 34 49 89 50 83 51 82 52 35 54 69 55 48 56
REMARK SMILES IDX 68 57 49 58 52 59 67 60 87 61 50 62 51 63 66 65 88 66 53 67
REMARK SMILES IDX 36 68 37 69 46 70 38 71 39 72 45 73 47 74 40 75 41 76 42 77
REMARK SMILES IDX 43 78 44 79 70 80 71 81 80 82 72 83 73 84 79 85 81 86 74 87
REMARK SMILES IDX 75 88 76 89 77 90 78 91 54 92 55 93 64 94 56 95 57 96 63 97
REMARK SMILES IDX 65 98 58 99 59 100 60 101 61 102 62 103
REMARK H PARENT 20 4 13 12 24 34 86 53 52 64
REMARK Flexibility Score: inf
ROOT
ATOM      1  C   UNL A   1      31.791  28.462  27.163  1.00  0.00     0.224 C 
ATOM      2  O   UNL A   1      31.078  27.862  27.968  1.00  0.00    -0.275 OA
ATOM      3  N   UNL A   1      32.528  29.493  27.662  1.00  0.00    -0.356 N 
ATOM      4  H   UNL A   1      32.415  29.604  28.633  1.00  0.00     0.163 HD
ENDROOT
BRANCH   1   5
ATOM      5  C   UNL A   1      31.795  27.957  25.770  1.00  0.00     0.098 C 
ATOM      6  C   UNL A   1      31.520  26.567  25.256  1.00  0.00     0.098 C 
ATOM      7  C   UNL A   1      32.913  27.194  25.086  1.00  0.00    -0.011 C 
ATOM      8  C   UNL A   1      34.043  26.606  25.904  1.00  0.00     0.013 C 
ATOM      9  C   UNL A   1      33.364  27.675  23.728  1.00  0.00     0.013 C 
BRANCH   6  10
ATOM     10  C   UNL A   1      30.457  26.472  24.214  1.00  0.00     0.230 C 
ATOM     11  N   UNL A   1      30.409  25.373  23.391  1.00  0.00    -0.300 N 
ATOM     12  H   UNL A   1      29.625  25.283  22.802  1.00  0.00     0.172 HD
ATOM     13  O   UNL A   1      29.610  27.355  24.094  1.00  0.00    -0.274 OA
BRANCH  11  14
ATOM     14  C   UNL A   1      31.358  24.394  23.326  1.00  0.00     0.212 A 
ATOM     15  C   UNL A   1      32.438  22.297  23.545  1.00  0.00     0.119 A 
ATOM     16  N   UNL A   1      32.982  23.045  22.610  1.00  0.00    -0.142 NA
ATOM     17  S   UNL A   1      31.206  23.112  24.447  1.00  0.00    -0.080 S 
ATOM     18  N   UNL A   1      32.348  24.258  22.484  1.00  0.00    -0.120 NA
BRANCH  15  19
ATOM     19  C   UNL A   1      32.843  20.880  23.800  1.00  0.00     0.074 C 
BRANCH  19  20
ATOM     20  C   UNL A   1      33.502  20.617  25.161  1.00  0.00     0.043 C 
BRANCH  20  21
ATOM     21  C   UNL A   1      34.978  20.935  25.295  1.00  0.00    -0.047 A 
ATOM     22  C   UNL A   1      37.727  21.566  25.383  1.00  0.00     0.118 A 
ATOM     23  C   UNL A   1      36.782  22.486  25.818  1.00  0.00     0.046 A 
ATOM     24  C   UNL A   1      37.312  20.315  24.934  1.00  0.00     0.046 A 
ATOM     25  C   UNL A   1      35.421  22.183  25.752  1.00  0.00     0.007 A 
ATOM     26  C   UNL A   1      35.945  20.001  24.891  1.00  0.00     0.007 A 
BRANCH  22  27
ATOM     27  O   UNL A   1      39.032  21.958  25.490  1.00  0.00    -0.497 OA
ATOM     28  C   UNL A   1      39.319  22.709  26.665  1.00  0.00     0.278 C 
ENDBRANCH  22  27
ENDBRANCH  20  21
ENDBRANCH  19  20
ENDBRANCH  15  19
ENDBRANCH  11  14
ENDBRANCH   6  10
ENDBRANCH   1   5
BRANCH   3  29
ATOM     29  C   UNL A   1      33.438  30.465  27.089  1.00  0.00     0.117 C 
BRANCH  29  30
ATOM     30  C   UNL A   1      34.893  30.087  27.334  1.00  0.00     0.042 C 
BRANCH  30  31
ATOM     31  C   UNL A   1      35.659  31.128  28.137  1.00  0.00     0.118 C 
BRANCH  31  32
ATOM     32  N   UNL A   1      35.556  30.904  29.572  1.00  0.00    -0.352 N 
ATOM     33  C   UNL A   1      36.399  30.241  30.430  1.00  0.00     0.251 C 
ATOM     34  H   UNL A   1      34.754  31.288  29.994  1.00  0.00     0.163 HD
ATOM     35  O   UNL A   1      36.013  29.978  31.566  1.00  0.00    -0.269 OA
BRANCH  33  36
ATOM     36  C   UNL A   1      37.755  29.832  29.997  1.00  0.00     0.039 A 
ATOM     37  C   UNL A   1      38.066  29.870  28.635  1.00  0.00     0.014 A 
ATOM     38  C   UNL A   1      38.706  29.371  30.911  1.00  0.00     0.014 A 
ATOM     39  C   UNL A   1      39.340  29.491  28.202  1.00  0.00     0.010 A 
ATOM     40  C   UNL A   1      40.005  29.097  30.491  1.00  0.00     0.010 A 
ATOM     41  C   UNL A   1      40.331  29.128  29.129  1.00  0.00    -0.014 A 
BRANCH  41  42
ATOM     42  C   UNL A   1      41.699  28.750  28.684  1.00  0.00     0.031 A 
ATOM     43  C   UNL A   1      42.787  29.790  28.612  1.00  0.00     0.074 A 
ATOM     44  C   UNL A   1      41.952  27.480  28.308  1.00  0.00     0.049 A 
ATOM     45  N   UNL A   1      44.032  29.659  28.228  1.00  0.00    -0.248 NA
ATOM     46  C   UNL A   1      42.424  31.165  28.993  1.00  0.00     0.031 C 
ATOM     47  C   UNL A   1      40.967  26.396  28.278  1.00  0.00     0.029 A 
ATOM     48  N   UNL A   1      43.111  26.886  27.877  1.00  0.00    -0.354 N 
ATOM     49  C   UNL A   1      44.591  30.929  28.307  1.00  0.00     0.074 A 
ATOM     50  C   UNL A   1      43.536  31.830  28.715  1.00  0.00     0.031 C 
ATOM     51  C   UNL A   1      41.571  25.263  27.883  1.00  0.00     0.029 A 
ATOM     52  C   UNL A   1      42.972  25.547  27.592  1.00  0.00     0.049 A 
ATOM     53  H   UNL A   1      43.961  27.372  27.779  1.00  0.00     0.167 HD
ATOM     54  C   UNL A   1      45.873  31.308  28.087  1.00  0.00     0.037 A 
ATOM     55  C   UNL A   1      43.872  24.650  27.144  1.00  0.00     0.037 A 
ATOM     56  C   UNL A   1      46.924  30.400  27.707  1.00  0.00     0.049 A 
ATOM     57  C   UNL A   1      45.293  25.091  26.917  1.00  0.00     0.074 A 
ATOM     58  C   UNL A   1      48.269  30.670  27.523  1.00  0.00     0.029 A 
ATOM     59  N   UNL A   1      46.749  29.048  27.449  1.00  0.00    -0.354 N 
ATOM     60  N   UNL A   1      45.821  26.282  27.069  1.00  0.00    -0.248 NA
ATOM     61  C   UNL A   1      46.243  24.065  26.467  1.00  0.00     0.031 C 
ATOM     62  C   UNL A   1      48.896  29.493  27.100  1.00  0.00     0.029 A 
ATOM     63  C   UNL A   1      47.956  28.475  27.081  1.00  0.00     0.049 A 
ATOM     64  H   UNL A   1      45.893  28.567  27.515  1.00  0.00     0.167 HD
ATOM     65  C   UNL A   1      47.171  26.143  26.763  1.00  0.00     0.074 A 
ATOM     66  C   UNL A   1      47.378  24.748  26.431  1.00  0.00     0.031 C 
ATOM     67  C   UNL A   1      48.148  27.084  26.756  1.00  0.00     0.037 A 
BRANCH  54  68
ATOM     68  C   UNL A   1      46.212  32.766  28.254  1.00  0.00     0.058 A 
ATOM     69  C   UNL A   1      46.673  33.285  29.475  1.00  0.00     0.135 A 
ATOM     70  C   UNL A   1      46.106  33.653  27.169  1.00  0.00     0.135 A 
ATOM     71  F   UNL A   1      46.779  32.490  30.552  1.00  0.00    -0.206 F 
ATOM     72  C   UNL A   1      46.987  34.633  29.623  1.00  0.00     0.059 A 
ATOM     73  C   UNL A   1      46.445  34.997  27.285  1.00  0.00     0.059 A 
ATOM     74  F   UNL A   1      45.671  33.213  25.977  1.00  0.00    -0.206 F 
ATOM     75  C   UNL A   1      46.871  35.481  28.522  1.00  0.00     0.060 A 
BRANCH  75  76
ATOM     76  S   UNL A   1      47.290  37.225  28.730  1.00  0.00     0.124 S 
ATOM     77  O   UNL A   1      46.443  37.852  27.720  1.00  0.00    -0.237 OA
ATOM     78  O   UNL A   1      46.911  37.472  30.117  1.00  0.00    -0.237 OA
ATOM     79  O   UNL A   1      48.724  37.265  28.457  1.00  0.00    -0.744 OA
ENDBRANCH  75  76
ENDBRANCH  54  68
BRANCH  55  80
ATOM     80  C   UNL A   1      43.459  23.239  26.906  1.00  0.00     0.058 A 
ATOM     81  C   UNL A   1      43.194  22.370  27.975  1.00  0.00     0.135 A 
ATOM     82  C   UNL A   1      43.305  22.738  25.604  1.00  0.00     0.135 A 
ATOM     83  F   UNL A   1      43.332  22.800  29.238  1.00  0.00    -0.206 F 
ATOM     84  C   UNL A   1      42.808  21.050  27.764  1.00  0.00     0.059 A 
ATOM     85  C   UNL A   1      42.892  21.430  25.367  1.00  0.00     0.059 A 
ATOM     86  F   UNL A   1      43.529  23.533  24.546  1.00  0.00    -0.206 F 
ATOM     87  C   UNL A   1      42.655  20.591  26.454  1.00  0.00     0.060 A 
BRANCH  87  88
ATOM     88  S   UNL A   1      42.107  18.890  26.193  1.00  0.00     0.124 S 
ATOM     89  O   UNL A   1      43.024  18.441  25.152  1.00  0.00    -0.237 OA
ATOM     90  O   UNL A   1      42.300  18.301  27.514  1.00  0.00    -0.237 OA
ATOM     91  O   UNL A   1      40.715  19.047  25.782  1.00  0.00    -0.744 OA
ENDBRANCH  87  88
ENDBRANCH  55  80
BRANCH  67  92
ATOM     92  C   UNL A   1      49.542  26.629  26.415  1.00  0.00     0.058 A 
ATOM     93  C   UNL A   1      50.362  25.982  27.353  1.00  0.00     0.135 A 
ATOM     94  C   UNL A   1      50.048  26.809  25.117  1.00  0.00     0.135 A 
ATOM     95  F   UNL A   1      49.931  25.789  28.609  1.00  0.00    -0.206 F 
ATOM     96  C   UNL A   1      51.648  25.562  27.026  1.00  0.00     0.059 A 
ATOM     97  C   UNL A   1      51.318  26.366  24.759  1.00  0.00     0.059 A 
ATOM     98  F   UNL A   1      49.301  27.409  24.177  1.00  0.00    -0.206 F 
ATOM     99  C   UNL A   1      52.116  25.759  25.726  1.00  0.00     0.060 A 
BRANCH  99 100
ATOM    100  S   UNL A   1      53.780  25.193  25.311  1.00  0.00     0.124 S 
ATOM    101  O   UNL A   1      53.626  23.744  25.395  1.00  0.00    -0.237 OA
ATOM    102  O   UNL A   1      53.969  25.735  23.970  1.00  0.00    -0.237 OA
ATOM    103  O   UNL A   1      54.613  25.796  26.347  1.00  0.00    -0.744 OA
ENDBRANCH  99 100
ENDBRANCH  67  92
ENDBRANCH  41  42
ENDBRANCH  33  36
ENDBRANCH  31  32
ENDBRANCH  30  31
ENDBRANCH  29  30
ENDBRANCH   3  29
TORSDOF 19
ENDMDL
MODEL 3
REMARK VINA RESULT:     -12.0      6.377     12.238
REMARK SMILES COc1ccc(CCc2nnc(NC(=O)[C@@H]3[C@@H](C(=O)NCCCNC(=O)c4ccc(-c5c6nc(c(-c7c(F)cc(S(=O)(=O)[O-])cc7F)c7ccc([nH]7)c(-c7c(F)cc(S(=O)(=O)[O-])cc7F)c7nc(c(-c8c(F)cc(S(=O)(=O)[O-])cc8F)c8ccc5[nH]8)C=C7)C=C6)cc4)C3(C)C)s2)cc1
REMARK SMILES IDX 18 1 19 2 20 3 17 5 16 6 93 7 94 8 95 9 14 10 13 11 15 13
REMARK SMILES IDX 12 14 9 15 10 16 96 17 11 18 8 19 7 20 6 21 3 22 4 23 98 24
REMARK SMILES IDX 5 25 97 26 2 27 1 28 21 29 22 30 23 31 24 32 25 33 26 35
REMARK SMILES IDX 27 36 28 37 92 38 29 39 91 40 30 41 31 42 32 43 85 44 33 45
REMARK SMILES IDX 90 46 84 47 86 48 34 49 89 50 83 51 82 52 35 54 69 55 48 56
REMARK SMILES IDX 68 57 49 58 52 59 67 60 87 61 50 62 51 63 66 65 88 66 53 67
REMARK SMILES IDX 36 68 37 69 46 70 38 71 39 72 45 73 47 74 40 75 41 76 42 77
REMARK SMILES IDX 43 78 44 79 70 80 71 81 80 82 72 83 73 84 79 85 81 86 74 87
REMARK SMILES IDX 75 88 76 89 77 90 78 91 54 92 55 93 64 94 56 95 57 96 63 97
REMARK SMILES IDX 65 98 58 99 59 100 60 101 61 102 62 103
REMARK H PARENT 20 4 13 12 24 34 86 53 52 64
REMARK Flexibility Score: inf
ROOT
ATOM      1  C   UNL A   1      31.825  28.793  27.054  1.00  0.00     0.224 C 
ATOM      2  O   UNL A   1      31.026  28.184  27.767  1.00  0.00    -0.275 OA
ATOM      3  N   UNL A   1      32.558  29.764  27.666  1.00  0.00    -0.356 N 
ATOM      4  H   UNL A   1      32.372  29.830  28.630  1.00  0.00     0.163 HD
ENDROOT
BRANCH   1   5
ATOM      5  C   UNL A   1      31.922  28.361  25.641  1.00  0.00     0.098 C 
ATOM      6  C   UNL A   1      31.675  27.002  25.037  1.00  0.00     0.098 C 
ATOM      7  C   UNL A   1      33.080  27.624  24.996  1.00  0.00    -0.011 C 
ATOM      8  C   UNL A   1      34.147  26.985  25.858  1.00  0.00     0.013 C 
ATOM      9  C   UNL A   1      33.626  28.170  23.699  1.00  0.00     0.013 C 
BRANCH   6  10
ATOM     10  C   UNL A   1      30.686  26.970  23.921  1.00  0.00     0.230 C 
ATOM     11  N   UNL A   1      30.726  25.946  23.007  1.00  0.00    -0.300 N 
ATOM     12  H   UNL A   1      29.986  25.887  22.360  1.00  0.00     0.172 HD
ATOM     13  O   UNL A   1      29.821  27.838  23.820  1.00  0.00    -0.274 OA
BRANCH  11  14
ATOM     14  C   UNL A   1      31.709  25.001  22.922  1.00  0.00     0.212 A 
ATOM     15  C   UNL A   1      32.869  22.946  23.127  1.00  0.00     0.119 A 
ATOM     16  N   UNL A   1      33.361  23.707  22.173  1.00  0.00    -0.142 NA
ATOM     17  S   UNL A   1      31.632  23.722  24.055  1.00  0.00    -0.080 S 
ATOM     18  N   UNL A   1      32.681  24.895  22.056  1.00  0.00    -0.120 NA
BRANCH  15  19
ATOM     19  C   UNL A   1      33.332  21.547  23.380  1.00  0.00     0.074 C 
BRANCH  19  20
ATOM     20  C   UNL A   1      32.257  20.461  23.236  1.00  0.00     0.043 C 
BRANCH  20  21
ATOM     21  C   UNL A   1      32.596  19.072  23.741  1.00  0.00    -0.047 A 
ATOM     22  C   UNL A   1      33.388  16.525  24.662  1.00  0.00     0.118 A 
ATOM     23  C   UNL A   1      33.045  17.523  25.566  1.00  0.00     0.046 A 
ATOM     24  C   UNL A   1      33.306  16.779  23.296  1.00  0.00     0.046 A 
ATOM     25  C   UNL A   1      32.677  18.789  25.111  1.00  0.00     0.007 A 
ATOM     26  C   UNL A   1      32.912  18.045  22.838  1.00  0.00     0.007 A 
BRANCH  22  27
ATOM     27  O   UNL A   1      33.734  15.321  25.208  1.00  0.00    -0.497 OA
ATOM     28  C   UNL A   1      32.622  14.517  25.591  1.00  0.00     0.278 C 
ENDBRANCH  22  27
ENDBRANCH  20  21
ENDBRANCH  19  20
ENDBRANCH  15  19
ENDBRANCH  11  14
ENDBRANCH   6  10
ENDBRANCH   1   5
BRANCH   3  29
ATOM     29  C   UNL A   1      33.550  30.723  27.220  1.00  0.00     0.117 C 
BRANCH  29  30
ATOM     30  C   UNL A   1      34.961  30.291  27.594  1.00  0.00     0.042 C 
BRANCH  30  31
ATOM     31  C   UNL A   1      35.718  31.334  28.402  1.00  0.00     0.118 C 
BRANCH  31  32
ATOM     32  N   UNL A   1      35.627  31.096  29.836  1.00  0.00    -0.352 N 
ATOM     33  C   UNL A   1      36.470  30.411  30.677  1.00  0.00     0.251 C 
ATOM     34  H   UNL A   1      34.835  31.487  30.270  1.00  0.00     0.163 HD
ATOM     35  O   UNL A   1      36.092  30.142  31.814  1.00  0.00    -0.269 OA
BRANCH  33  36
ATOM     36  C   UNL A   1      37.814  29.987  30.225  1.00  0.00     0.039 A 
ATOM     37  C   UNL A   1      38.116  30.049  28.862  1.00  0.00     0.014 A 
ATOM     38  C   UNL A   1      38.763  29.490  31.121  1.00  0.00     0.014 A 
ATOM     39  C   UNL A   1      39.379  29.656  28.410  1.00  0.00     0.010 A 
ATOM     40  C   UNL A   1      40.055  29.203  30.686  1.00  0.00     0.010 A 
ATOM     41  C   UNL A   1      40.371  29.257  29.322  1.00  0.00    -0.014 A 
BRANCH  41  42
ATOM     42  C   UNL A   1      41.728  28.863  28.859  1.00  0.00     0.031 A 
ATOM     43  C   UNL A   1      42.832  29.887  28.792  1.00  0.00     0.074 A 
ATOM     44  C   UNL A   1      41.957  27.595  28.462  1.00  0.00     0.049 A 
ATOM     45  N   UNL A   1      44.071  29.742  28.394  1.00  0.00    -0.248 NA
ATOM     46  C   UNL A   1      42.495  31.262  29.196  1.00  0.00     0.031 C 
ATOM     47  C   UNL A   1      40.955  26.528  28.425  1.00  0.00     0.029 A 
ATOM     48  N   UNL A   1      43.103  26.989  28.010  1.00  0.00    -0.354 N 
ATOM     49  C   UNL A   1      44.651  31.002  28.486  1.00  0.00     0.074 A 
ATOM     50  C   UNL A   1      43.614  31.913  28.918  1.00  0.00     0.031 C 
ATOM     51  C   UNL A   1      41.537  25.392  28.007  1.00  0.00     0.029 A 
ATOM     52  C   UNL A   1      42.940  25.658  27.707  1.00  0.00     0.049 A 
ATOM     53  H   UNL A   1      43.960  27.464  27.912  1.00  0.00     0.167 HD
ATOM     54  C   UNL A   1      45.937  31.364  28.260  1.00  0.00     0.037 A 
ATOM     55  C   UNL A   1      43.821  24.753  27.237  1.00  0.00     0.037 A 
ATOM     56  C   UNL A   1      46.970  30.445  27.857  1.00  0.00     0.049 A 
ATOM     57  C   UNL A   1      45.247  25.175  27.003  1.00  0.00     0.074 A 
ATOM     58  C   UNL A   1      48.317  30.696  27.664  1.00  0.00     0.029 A 
ATOM     59  N   UNL A   1      46.771  29.100  27.580  1.00  0.00    -0.354 N 
ATOM     60  N   UNL A   1      45.796  26.355  27.169  1.00  0.00    -0.248 NA
ATOM     61  C   UNL A   1      46.177  24.141  26.529  1.00  0.00     0.031 C 
ATOM     62  C   UNL A   1      48.921  29.516  27.218  1.00  0.00     0.029 A 
ATOM     63  C   UNL A   1      47.965  28.514  27.193  1.00  0.00     0.049 A 
ATOM     64  H   UNL A   1      45.908  28.631  27.648  1.00  0.00     0.167 HD
ATOM     65  C   UNL A   1      47.140  26.199  26.847  1.00  0.00     0.074 A 
ATOM     66  C   UNL A   1      47.322  24.807  26.493  1.00  0.00     0.031 C 
ATOM     67  C   UNL A   1      48.132  27.124  26.845  1.00  0.00     0.037 A 
BRANCH  54  68
ATOM     68  C   UNL A   1      46.300  32.814  28.446  1.00  0.00     0.058 A 
ATOM     69  C   UNL A   1      46.147  33.755  27.415  1.00  0.00     0.135 A 
ATOM     70  C   UNL A   1      46.779  33.276  29.684  1.00  0.00     0.135 A 
ATOM     71  F   UNL A   1      45.710  33.370  26.206  1.00  0.00    -0.206 F 
ATOM     72  C   UNL A   1      46.483  35.094  27.594  1.00  0.00     0.059 A 
ATOM     73  C   UNL A   1      47.090  34.616  29.895  1.00  0.00     0.059 A 
ATOM     74  F   UNL A   1      46.946  32.422  30.706  1.00  0.00    -0.206 F 
ATOM     75  C   UNL A   1      46.953  35.515  28.838  1.00  0.00     0.060 A 
BRANCH  75  76
ATOM     76  S   UNL A   1      47.376  37.257  29.054  1.00  0.00     0.124 S 
ATOM     77  O   UNL A   1      48.610  37.356  28.281  1.00  0.00    -0.237 OA
ATOM     78  O   UNL A   1      46.215  37.932  28.483  1.00  0.00    -0.237 OA
ATOM     79  O   UNL A   1      47.530  37.393  30.499  1.00  0.00    -0.744 OA
ENDBRANCH  75  76
ENDBRANCH  54  68
BRANCH  55  80
ATOM     80  C   UNL A   1      43.383  23.353  26.982  1.00  0.00     0.058 A 
ATOM     81  C   UNL A   1      43.157  22.890  25.676  1.00  0.00     0.135 A 
ATOM     82  C   UNL A   1      43.198  22.446  28.037  1.00  0.00     0.135 A 
ATOM     83  F   UNL A   1      43.315  23.720  24.634  1.00  0.00    -0.206 F 
ATOM     84  C   UNL A   1      42.747  21.584  25.427  1.00  0.00     0.059 A 
ATOM     85  C   UNL A   1      42.817  21.127  27.811  1.00  0.00     0.059 A 
ATOM     86  F   UNL A   1      43.418  22.833  29.303  1.00  0.00    -0.206 F 
ATOM     87  C   UNL A   1      42.584  20.708  26.502  1.00  0.00     0.060 A 
BRANCH  87  88
ATOM     88  S   UNL A   1      42.098  19.003  26.161  1.00  0.00     0.124 S 
ATOM     89  O   UNL A   1      40.700  19.165  25.781  1.00  0.00    -0.237 OA
ATOM     90  O   UNL A   1      43.014  18.633  25.087  1.00  0.00    -0.237 OA
ATOM     91  O   UNL A   1      42.332  18.327  27.434  1.00  0.00    -0.744 OA
ENDBRANCH  87  88
ENDBRANCH  55  80
BRANCH  67  92
ATOM     92  C   UNL A   1      49.515  26.653  26.484  1.00  0.00     0.058 A 
ATOM     93  C   UNL A   1      50.366  26.057  27.429  1.00  0.00     0.135 A 
ATOM     94  C   UNL A   1      49.979  26.764  25.163  1.00  0.00     0.135 A 
ATOM     95  F   UNL A   1      49.975  25.929  28.706  1.00  0.00    -0.206 F 
ATOM     96  C   UNL A   1      51.642  25.620  27.083  1.00  0.00     0.059 A 
ATOM     97  C   UNL A   1      51.238  26.304  24.788  1.00  0.00     0.059 A 
ATOM     98  F   UNL A   1      49.201  27.314  24.216  1.00  0.00    -0.206 F 
ATOM     99  C   UNL A   1      52.068  25.748  25.760  1.00  0.00     0.060 A 
BRANCH  99 100
ATOM    100  S   UNL A   1      53.718  25.162  25.323  1.00  0.00     0.124 S 
ATOM    101  O   UNL A   1      53.895  25.745  23.996  1.00  0.00    -0.237 OA
ATOM    102  O   UNL A   1      54.544  25.733  26.382  1.00  0.00    -0.237 OA
ATOM    103  O   UNL A   1      53.584  23.709  25.356  1.00  0.00    -0.744 OA
ENDBRANCH  99 100
ENDBRANCH  67  92
ENDBRANCH  41  42
ENDBRANCH  33  36
ENDBRANCH  31  32
ENDBRANCH  30  31
ENDBRANCH  29  30
ENDBRANCH   3  29
TORSDOF 19
ENDMDL
