MODEL 1
REMARK VINA RESULT:     -11.5      0.000      0.000
REMARK SMILES CCC(CC)(NC(=O)NC[C@H](C)[NH+]1CCCCC1)C(=O)NCCCNC(=O)c1ccc(-c2c3nc(c(-c4c(F)cc(S(=O)(=O)[O-])cc4F)c4ccc([nH]4)c(-c4c(F)cc(S(=O)(=O)[O-])cc4F)c4nc(c(-c5c(F)cc(S(=O)(=O)[O-])cc5F)c5ccc2[nH]5)C=C4)C=C3)cc1
REMARK SMILES IDX 22 1 21 2 19 3 20 4 3 6 2 7 1 8 4 9 5 10 6 11 7 12 8 14 9 15
REMARK SMILES IDX 10 17 11 18 12 19 13 20 14 21 18 22 15 24 17 25 16 26 23 27
REMARK SMILES IDX 24 28 25 29 26 30 27 32 28 33 29 34 93 35 30 36 92 37 31 38
REMARK SMILES IDX 32 39 33 40 86 41 34 42 91 43 85 44 87 45 35 46 90 47 84 48
REMARK SMILES IDX 83 49 36 51 70 52 49 53 69 54 50 55 53 56 68 57 88 58 51 59
REMARK SMILES IDX 52 60 67 62 89 63 54 64 37 65 38 66 47 67 39 68 40 69 46 70
REMARK SMILES IDX 48 71 41 72 42 73 43 74 44 75 45 76 71 77 72 78 81 79 73 80
REMARK SMILES IDX 74 81 80 82 82 83 75 84 76 85 77 86 78 87 79 88 55 89 56 90
REMARK SMILES IDX 65 91 57 92 58 93 64 94 66 95 59 96 60 97 61 98 62 99 63 100
REMARK H PARENT 21 5 6 13 9 16 13 23 25 31 87 50 53 61
REMARK Flexibility Score: inf
ROOT
ATOM      1  C   UNL A   1      31.423  27.790  25.808  1.00  0.00     0.117 C 
ENDROOT
BRANCH   1   2
ATOM      2  N   UNL A   1      30.995  27.010  24.635  1.00  0.00    -0.354 N 
ATOM      3  C   UNL A   1      31.156  25.709  24.208  1.00  0.00     0.245 C 
ATOM      4  O   UNL A   1      30.372  25.296  23.347  1.00  0.00    -0.272 OA
ATOM      5  H   UNL A   1      30.466  27.547  24.002  1.00  0.00     0.163 HD
BRANCH   3   6
ATOM      6  C   UNL A   1      32.063  24.716  24.939  1.00  0.00     0.120 C 
BRANCH   6   7
ATOM      7  C   UNL A   1      33.475  25.161  25.422  1.00  0.00     0.035 C 
ATOM      8  C   UNL A   1      34.437  24.106  25.947  1.00  0.00     0.007 C 
ENDBRANCH   6   7
BRANCH   6   9
ATOM      9  C   UNL A   1      32.188  23.660  23.773  1.00  0.00     0.035 C 
ATOM     10  C   UNL A   1      33.205  23.787  22.659  1.00  0.00     0.007 C 
ENDBRANCH   6   9
BRANCH   6  11
ATOM     11  N   UNL A   1      31.329  24.300  26.144  1.00  0.00    -0.324 N 
ATOM     12  C   UNL A   1      31.008  23.090  26.660  1.00  0.00     0.315 C 
ATOM     13  H   UNL A   1      31.004  25.055  26.685  1.00  0.00     0.166 HD
ATOM     14  O   UNL A   1      30.115  23.080  27.513  1.00  0.00    -0.249 OA
ATOM     15  N   UNL A   1      31.694  21.933  26.484  1.00  0.00    -0.332 N 
ATOM     16  H   UNL A   1      31.842  21.459  27.335  1.00  0.00     0.165 HD
BRANCH  15  17
ATOM     17  C   UNL A   1      32.278  21.206  25.335  1.00  0.00     0.182 C 
BRANCH  17  18
ATOM     18  C   UNL A   1      33.583  20.296  25.507  1.00  0.00     0.200 C 
ATOM     19  C   UNL A   1      34.937  20.667  24.896  1.00  0.00     0.077 C 
BRANCH  18  20
ATOM     20  N   UNL A   1      33.464  18.909  25.020  1.00  0.00    -0.331 N 
ATOM     21  C   UNL A   1      34.658  18.325  24.447  1.00  0.00     0.262 C 
ATOM     22  C   UNL A   1      32.708  18.010  25.891  1.00  0.00     0.262 C 
ATOM     23  H   UNL A   1      32.865  19.029  24.203  1.00  0.00     0.348 HD
ATOM     24  C   UNL A   1      34.273  17.054  23.682  1.00  0.00     0.062 C 
ATOM     25  C   UNL A   1      32.318  16.715  25.198  1.00  0.00     0.062 C 
ATOM     26  C   UNL A   1      33.534  16.058  24.572  1.00  0.00     0.012 C 
ENDBRANCH  18  20
ENDBRANCH  17  18
ENDBRANCH  15  17
ENDBRANCH   6  11
ENDBRANCH   3   6
ENDBRANCH   1   2
BRANCH   1  27
ATOM     27  C   UNL A   1      32.780  28.527  25.941  1.00  0.00     0.042 C 
BRANCH  27  28
ATOM     28  C   UNL A   1      33.588  28.678  27.232  1.00  0.00     0.118 C 
BRANCH  28  29
ATOM     29  N   UNL A   1      33.561  29.995  27.845  1.00  0.00    -0.352 N 
ATOM     30  C   UNL A   1      34.605  30.743  28.359  1.00  0.00     0.251 C 
ATOM     31  H   UNL A   1      32.672  30.415  27.904  1.00  0.00     0.163 HD
ATOM     32  O   UNL A   1      34.425  31.880  28.731  1.00  0.00    -0.269 OA
BRANCH  30  33
ATOM     33  C   UNL A   1      35.929  30.101  28.538  1.00  0.00     0.039 A 
ATOM     34  C   UNL A   1      36.811  30.147  27.455  1.00  0.00     0.014 A 
ATOM     35  C   UNL A   1      36.318  29.521  29.747  1.00  0.00     0.014 A 
ATOM     36  C   UNL A   1      38.122  29.700  27.612  1.00  0.00     0.010 A 
ATOM     37  C   UNL A   1      37.642  29.115  29.915  1.00  0.00     0.010 A 
ATOM     38  C   UNL A   1      38.562  29.230  28.858  1.00  0.00    -0.014 A 
BRANCH  38  39
ATOM     39  C   UNL A   1      39.994  28.907  29.082  1.00  0.00     0.031 A 
ATOM     40  C   UNL A   1      40.935  29.960  29.592  1.00  0.00     0.074 A 
ATOM     41  C   UNL A   1      40.448  27.679  28.762  1.00  0.00     0.049 A 
ATOM     42  N   UNL A   1      42.229  29.895  29.764  1.00  0.00    -0.248 NA
ATOM     43  C   UNL A   1      40.344  31.262  29.936  1.00  0.00     0.031 C 
ATOM     44  C   UNL A   1      39.626  26.587  28.230  1.00  0.00     0.029 A 
ATOM     45  N   UNL A   1      41.710  27.140  28.817  1.00  0.00    -0.354 N 
ATOM     46  C   UNL A   1      42.613  31.150  30.219  1.00  0.00     0.074 A 
ATOM     47  C   UNL A   1      41.419  31.968  30.259  1.00  0.00     0.031 C 
ATOM     48  C   UNL A   1      40.400  25.513  28.019  1.00  0.00     0.029 A 
ATOM     49  C   UNL A   1      41.780  25.846  28.356  1.00  0.00     0.049 A 
ATOM     50  H   UNL A   1      42.492  27.635  29.155  1.00  0.00     0.167 HD
ATOM     51  C   UNL A   1      43.846  31.573  30.585  1.00  0.00     0.037 A 
ATOM     52  C   UNL A   1      42.840  25.026  28.205  1.00  0.00     0.037 A 
ATOM     53  C   UNL A   1      45.021  30.741  30.551  1.00  0.00     0.049 A 
ATOM     54  C   UNL A   1      44.203  25.525  28.601  1.00  0.00     0.074 A 
ATOM     55  C   UNL A   1      46.312  31.056  30.938  1.00  0.00     0.029 A 
ATOM     56  N   UNL A   1      45.049  29.428  30.098  1.00  0.00    -0.354 N 
ATOM     57  N   UNL A   1      44.541  26.700  29.080  1.00  0.00    -0.248 NA
ATOM     58  C   UNL A   1      45.328  24.594  28.443  1.00  0.00     0.031 C 
ATOM     59  C   UNL A   1      47.128  29.950  30.676  1.00  0.00     0.029 A 
ATOM     60  C   UNL A   1      46.337  28.926  30.180  1.00  0.00     0.049 A 
ATOM     61  H   UNL A   1      44.267  28.928  29.769  1.00  0.00     0.167 HD
ATOM     62  C   UNL A   1      45.910  26.636  29.313  1.00  0.00     0.074 A 
ATOM     63  C   UNL A   1      46.338  25.308  28.925  1.00  0.00     0.031 C 
ATOM     64  C   UNL A   1      46.737  27.591  29.808  1.00  0.00     0.037 A 
BRANCH  51  65
ATOM     65  C   UNL A   1      43.991  32.999  31.045  1.00  0.00     0.058 A 
ATOM     66  C   UNL A   1      44.291  34.038  30.149  1.00  0.00     0.135 A 
ATOM     67  C   UNL A   1      43.796  33.338  32.394  1.00  0.00     0.135 A 
ATOM     68  F   UNL A   1      44.501  33.770  28.850  1.00  0.00    -0.206 F 
ATOM     69  C   UNL A   1      44.425  35.354  30.578  1.00  0.00     0.059 A 
ATOM     70  C   UNL A   1      43.896  34.653  32.841  1.00  0.00     0.059 A 
ATOM     71  F   UNL A   1      43.507  32.386  33.296  1.00  0.00    -0.206 F 
ATOM     72  C   UNL A   1      44.227  35.652  31.927  1.00  0.00     0.060 A 
BRANCH  72  73
ATOM     73  S   UNL A   1      44.403  37.367  32.465  1.00  0.00     0.124 S 
ATOM     74  O   UNL A   1      43.418  37.436  33.541  1.00  0.00    -0.237 OA
ATOM     75  O   UNL A   1      45.801  37.421  32.881  1.00  0.00    -0.237 OA
ATOM     76  O   UNL A   1      44.077  38.135  31.268  1.00  0.00    -0.744 OA
ENDBRANCH  72  73
ENDBRANCH  51  65
BRANCH  52  77
ATOM     77  C   UNL A   1      42.650  23.651  27.669  1.00  0.00     0.058 A 
ATOM     78  C   UNL A   1      42.676  23.402  26.289  1.00  0.00     0.135 A 
ATOM     79  C   UNL A   1      42.458  22.553  28.524  1.00  0.00     0.135 A 
ATOM     80  F   UNL A   1      42.851  24.417  25.428  1.00  0.00    -0.206 F 
ATOM     81  C   UNL A   1      42.505  22.121  25.773  1.00  0.00     0.059 A 
ATOM     82  C   UNL A   1      42.311  21.258  28.033  1.00  0.00     0.059 A 
ATOM     83  F   UNL A   1      42.441  22.731  29.853  1.00  0.00    -0.206 F 
ATOM     84  C   UNL A   1      42.325  21.054  26.655  1.00  0.00     0.060 A 
BRANCH  84  85
ATOM     85  S   UNL A   1      42.152  19.388  25.975  1.00  0.00     0.124 S 
ATOM     86  O   UNL A   1      40.719  19.325  25.715  1.00  0.00    -0.237 OA
ATOM     87  O   UNL A   1      43.013  19.447  24.798  1.00  0.00    -0.237 OA
ATOM     88  O   UNL A   1      42.637  18.533  27.055  1.00  0.00    -0.744 OA
ENDBRANCH  84  85
ENDBRANCH  52  77
BRANCH  64  89
ATOM     89  C   UNL A   1      48.181  27.225  30.011  1.00  0.00     0.058 A 
ATOM     90  C   UNL A   1      49.150  27.461  29.026  1.00  0.00     0.135 A 
ATOM     91  C   UNL A   1      48.610  26.720  31.250  1.00  0.00     0.135 A 
ATOM     92  F   UNL A   1      48.789  27.934  27.821  1.00  0.00    -0.206 F 
ATOM     93  C   UNL A   1      50.496  27.204  29.259  1.00  0.00     0.059 A 
ATOM     94  C   UNL A   1      49.955  26.482  31.513  1.00  0.00     0.059 A 
ATOM     95  F   UNL A   1      47.722  26.485  32.229  1.00  0.00    -0.206 F 
ATOM     96  C   UNL A   1      50.890  26.723  30.509  1.00  0.00     0.060 A 
BRANCH  96  97
ATOM     97  S   UNL A   1      52.649  26.464  30.822  1.00  0.00     0.124 S 
ATOM     98  O   UNL A   1      53.174  26.341  29.466  1.00  0.00    -0.237 OA
ATOM     99  O   UNL A   1      53.021  27.681  31.538  1.00  0.00    -0.237 OA
ATOM    100  O   UNL A   1      52.677  25.242  31.619  1.00  0.00    -0.744 OA
ENDBRANCH  96  97
ENDBRANCH  64  89
ENDBRANCH  38  39
ENDBRANCH  30  33
ENDBRANCH  28  29
ENDBRANCH  27  28
ENDBRANCH   1  27
TORSDOF 19
ENDMDL
MODEL 2
REMARK VINA RESULT:     -11.3      3.173      8.200
REMARK SMILES CCC(CC)(NC(=O)NC[C@H](C)[NH+]1CCCCC1)C(=O)NCCCNC(=O)c1ccc(-c2c3nc(c(-c4c(F)cc(S(=O)(=O)[O-])cc4F)c4ccc([nH]4)c(-c4c(F)cc(S(=O)(=O)[O-])cc4F)c4nc(c(-c5c(F)cc(S(=O)(=O)[O-])cc5F)c5ccc2[nH]5)C=C4)C=C3)cc1
REMARK SMILES IDX 22 1 21 2 19 3 20 4 3 6 2 7 1 8 4 9 5 10 6 11 7 12 8 14 9 15
REMARK SMILES IDX 10 17 11 18 12 19 13 20 14 21 18 22 15 24 17 25 16 26 23 27
REMARK SMILES IDX 24 28 25 29 26 30 27 32 28 33 29 34 93 35 30 36 92 37 31 38
REMARK SMILES IDX 32 39 33 40 86 41 34 42 91 43 85 44 87 45 35 46 90 47 84 48
REMARK SMILES IDX 83 49 36 51 70 52 49 53 69 54 50 55 53 56 68 57 88 58 51 59
REMARK SMILES IDX 52 60 67 62 89 63 54 64 37 65 38 66 47 67 39 68 40 69 46 70
REMARK SMILES IDX 48 71 41 72 42 73 43 74 44 75 45 76 71 77 72 78 81 79 73 80
REMARK SMILES IDX 74 81 80 82 82 83 75 84 76 85 77 86 78 87 79 88 55 89 56 90
REMARK SMILES IDX 65 91 57 92 58 93 64 94 66 95 59 96 60 97 61 98 62 99 63 100
REMARK H PARENT 21 5 6 13 9 16 13 23 25 31 87 50 53 61
REMARK Flexibility Score: inf
ROOT
ATOM      1  C   UNL A   1      36.433  22.040  25.348  1.00  0.00     0.117 C 
ENDROOT
BRANCH   1   2
ATOM      2  N   UNL A   1      35.655  21.947  26.595  1.00  0.00    -0.354 N 
ATOM      3  C   UNL A   1      34.359  22.232  26.968  1.00  0.00     0.245 C 
ATOM      4  O   UNL A   1      33.943  21.709  28.007  1.00  0.00    -0.272 OA
ATOM      5  H   UNL A   1      36.190  21.597  27.343  1.00  0.00     0.163 HD
BRANCH   3   6
ATOM      6  C   UNL A   1      33.373  22.928  26.027  1.00  0.00     0.120 C 
BRANCH   6   7
ATOM      7  C   UNL A   1      33.235  22.450  24.551  1.00  0.00     0.035 C 
ATOM      8  C   UNL A   1      32.885  20.995  24.281  1.00  0.00     0.007 C 
ENDBRANCH   6   7
BRANCH   6   9
ATOM      9  C   UNL A   1      34.021  24.366  26.081  1.00  0.00     0.035 C 
ATOM     10  C   UNL A   1      34.450  25.118  24.840  1.00  0.00     0.007 C 
ENDBRANCH   6   9
BRANCH   6  11
ATOM     11  N   UNL A   1      32.044  22.769  26.636  1.00  0.00    -0.324 N 
ATOM     12  C   UNL A   1      30.867  23.419  26.472  1.00  0.00     0.315 C 
ATOM     13  H   UNL A   1      32.001  22.042  27.298  1.00  0.00     0.166 HD
ATOM     14  O   UNL A   1      30.024  23.253  27.359  1.00  0.00    -0.249 OA
ATOM     15  N   UNL A   1      30.452  24.063  25.352  1.00  0.00    -0.332 N 
ATOM     16  H   UNL A   1      29.531  23.817  25.105  1.00  0.00     0.165 HD
BRANCH  15  17
ATOM     17  C   UNL A   1      31.039  25.039  24.407  1.00  0.00     0.182 C 
BRANCH  17  18
ATOM     18  C   UNL A   1      30.499  26.543  24.328  1.00  0.00     0.200 C 
ATOM     19  C   UNL A   1      30.360  27.304  23.008  1.00  0.00     0.077 C 
BRANCH  18  20
ATOM     20  N   UNL A   1      31.261  27.536  25.108  1.00  0.00    -0.331 N 
ATOM     21  C   UNL A   1      31.098  28.921  24.718  1.00  0.00     0.262 C 
ATOM     22  C   UNL A   1      31.274  27.311  26.553  1.00  0.00     0.262 C 
ATOM     23  H   UNL A   1      32.218  27.337  24.815  1.00  0.00     0.348 HD
ATOM     24  C   UNL A   1      32.206  29.756  25.369  1.00  0.00     0.062 C 
ATOM     25  C   UNL A   1      32.336  28.134  27.263  1.00  0.00     0.062 C 
ATOM     26  C   UNL A   1      32.217  29.599  26.887  1.00  0.00     0.012 C 
ENDBRANCH  18  20
ENDBRANCH  17  18
ENDBRANCH  15  17
ENDBRANCH   6  11
ENDBRANCH   3   6
ENDBRANCH   1   2
BRANCH   1  27
ATOM     27  C   UNL A   1      37.697  21.205  25.023  1.00  0.00     0.042 C 
BRANCH  27  28
ATOM     28  C   UNL A   1      38.999  21.209  25.828  1.00  0.00     0.118 C 
BRANCH  28  29
ATOM     29  N   UNL A   1      39.796  19.997  25.747  1.00  0.00    -0.352 N 
ATOM     30  C   UNL A   1      41.112  19.789  26.122  1.00  0.00     0.251 C 
ATOM     31  H   UNL A   1      39.336  19.212  25.372  1.00  0.00     0.163 HD
ATOM     32  O   UNL A   1      41.593  18.679  26.095  1.00  0.00    -0.269 OA
BRANCH  30  33
ATOM     33  C   UNL A   1      41.956  20.958  26.464  1.00  0.00     0.039 A 
ATOM     34  C   UNL A   1      42.436  21.729  25.402  1.00  0.00     0.014 A 
ATOM     35  C   UNL A   1      42.222  21.323  27.785  1.00  0.00     0.014 A 
ATOM     36  C   UNL A   1      43.104  22.925  25.663  1.00  0.00     0.010 A 
ATOM     37  C   UNL A   1      42.850  22.542  28.044  1.00  0.00     0.010 A 
ATOM     38  C   UNL A   1      43.269  23.366  26.985  1.00  0.00    -0.014 A 
BRANCH  38  39
ATOM     39  C   UNL A   1      43.828  24.713  27.268  1.00  0.00     0.031 A 
ATOM     40  C   UNL A   1      42.921  25.837  27.676  1.00  0.00     0.074 A 
ATOM     41  C   UNL A   1      45.147  24.926  27.092  1.00  0.00     0.049 A 
ATOM     42  N   UNL A   1      43.208  27.096  27.877  1.00  0.00    -0.248 NA
ATOM     43  C   UNL A   1      41.501  25.504  27.864  1.00  0.00     0.031 C 
ATOM     44  C   UNL A   1      46.117  23.910  26.669  1.00  0.00     0.029 A 
ATOM     45  N   UNL A   1      45.904  26.063  27.229  1.00  0.00    -0.354 N 
ATOM     46  C   UNL A   1      42.004  27.712  28.198  1.00  0.00     0.074 A 
ATOM     47  C   UNL A   1      40.978  26.694  28.127  1.00  0.00     0.031 C 
ATOM     48  C   UNL A   1      47.335  24.467  26.591  1.00  0.00     0.029 A 
ATOM     49  C   UNL A   1      47.232  25.886  26.914  1.00  0.00     0.049 A 
ATOM     50  H   UNL A   1      45.530  26.925  27.524  1.00  0.00     0.167 HD
ATOM     51  C   UNL A   1      41.783  29.004  28.537  1.00  0.00     0.037 A 
ATOM     52  C   UNL A   1      48.247  26.772  26.873  1.00  0.00     0.037 A 
ATOM     53  C   UNL A   1      42.820  30.000  28.615  1.00  0.00     0.049 A 
ATOM     54  C   UNL A   1      47.973  28.206  27.235  1.00  0.00     0.074 A 
ATOM     55  C   UNL A   1      42.712  31.328  28.989  1.00  0.00     0.029 A 
ATOM     56  N   UNL A   1      44.157  29.779  28.310  1.00  0.00    -0.354 N 
ATOM     57  N   UNL A   1      46.837  28.761  27.589  1.00  0.00    -0.248 NA
ATOM     58  C   UNL A   1      49.110  29.134  27.201  1.00  0.00     0.031 C 
ATOM     59  C   UNL A   1      43.973  31.920  28.864  1.00  0.00     0.029 A 
ATOM     60  C   UNL A   1      44.880  30.948  28.469  1.00  0.00     0.049 A 
ATOM     61  H   UNL A   1      44.535  28.915  28.023  1.00  0.00     0.167 HD
ATOM     62  C   UNL A   1      47.130  30.094  27.852  1.00  0.00     0.074 A 
ATOM     63  C   UNL A   1      48.550  30.263  27.619  1.00  0.00     0.031 C 
ATOM     64  C   UNL A   1      46.299  31.088  28.253  1.00  0.00     0.037 A 
BRANCH  51  65
ATOM     65  C   UNL A   1      40.368  29.416  28.841  1.00  0.00     0.058 A 
ATOM     66  C   UNL A   1      39.415  29.592  27.823  1.00  0.00     0.135 A 
ATOM     67  C   UNL A   1      39.948  29.608  30.167  1.00  0.00     0.135 A 
ATOM     68  F   UNL A   1      39.764  29.436  26.536  1.00  0.00    -0.206 F 
ATOM     69  C   UNL A   1      38.108  29.975  28.107  1.00  0.00     0.059 A 
ATOM     70  C   UNL A   1      38.637  29.963  30.477  1.00  0.00     0.059 A 
ATOM     71  F   UNL A   1      40.815  29.454  31.180  1.00  0.00    -0.206 F 
ATOM     72  C   UNL A   1      37.729  30.159  29.438  1.00  0.00     0.060 A 
BRANCH  72  73
ATOM     73  S   UNL A   1      36.028  30.653  29.788  1.00  0.00     0.124 S 
ATOM     74  O   UNL A   1      35.841  30.119  31.133  1.00  0.00    -0.237 OA
ATOM     75  O   UNL A   1      36.099  32.108  29.687  1.00  0.00    -0.237 OA
ATOM     76  O   UNL A   1      35.258  29.991  28.739  1.00  0.00    -0.744 OA
ENDBRANCH  72  73
ENDBRANCH  51  65
BRANCH  52  77
ATOM     77  C   UNL A   1      49.614  26.324  26.487  1.00  0.00     0.058 A 
ATOM     78  C   UNL A   1      50.478  25.746  27.427  1.00  0.00     0.135 A 
ATOM     79  C   UNL A   1      50.076  26.444  25.166  1.00  0.00     0.135 A 
ATOM     80  F   UNL A   1      50.087  25.612  28.704  1.00  0.00    -0.206 F 
ATOM     81  C   UNL A   1      51.756  25.318  27.080  1.00  0.00     0.059 A 
ATOM     82  C   UNL A   1      51.340  25.999  24.788  1.00  0.00     0.059 A 
ATOM     83  F   UNL A   1      49.284  26.974  24.222  1.00  0.00    -0.206 F 
ATOM     84  C   UNL A   1      52.177  25.446  25.755  1.00  0.00     0.060 A 
BRANCH  84  85
ATOM     85  S   UNL A   1      53.820  24.843  25.306  1.00  0.00     0.124 S 
ATOM     86  O   UNL A   1      54.584  25.150  26.509  1.00  0.00    -0.237 OA
ATOM     87  O   UNL A   1      53.568  23.427  25.054  1.00  0.00    -0.237 OA
ATOM     88  O   UNL A   1      54.157  25.632  24.125  1.00  0.00    -0.744 OA
ENDBRANCH  84  85
ENDBRANCH  52  77
BRANCH  64  89
ATOM     89  C   UNL A   1      46.904  32.438  28.520  1.00  0.00     0.058 A 
ATOM     90  C   UNL A   1      46.969  33.430  27.531  1.00  0.00     0.135 A 
ATOM     91  C   UNL A   1      47.337  32.769  29.815  1.00  0.00     0.135 A 
ATOM     92  F   UNL A   1      46.577  33.159  26.275  1.00  0.00    -0.206 F 
ATOM     93  C   UNL A   1      47.448  34.704  27.815  1.00  0.00     0.059 A 
ATOM     94  C   UNL A   1      47.793  34.046  30.127  1.00  0.00     0.059 A 
ATOM     95  F   UNL A   1      47.287  31.858  30.799  1.00  0.00    -0.206 F 
ATOM     96  C   UNL A   1      47.848  35.005  29.118  1.00  0.00     0.060 A 
BRANCH  96  97
ATOM     97  S   UNL A   1      48.396  36.685  29.487  1.00  0.00     0.124 S 
ATOM     98  O   UNL A   1      47.701  37.455  28.461  1.00  0.00    -0.237 OA
ATOM     99  O   UNL A   1      47.921  36.875  30.854  1.00  0.00    -0.237 OA
ATOM    100  O   UNL A   1      49.847  36.610  29.340  1.00  0.00    -0.744 OA
ENDBRANCH  96  97
ENDBRANCH  64  89
ENDBRANCH  38  39
ENDBRANCH  30  33
ENDBRANCH  28  29
ENDBRANCH  27  28
ENDBRANCH   1  27
TORSDOF 19
ENDMDL
MODEL 3
REMARK VINA RESULT:     -10.9      3.118      9.173
REMARK SMILES CCC(CC)(NC(=O)NC[C@H](C)[NH+]1CCCCC1)C(=O)NCCCNC(=O)c1ccc(-c2c3nc(c(-c4c(F)cc(S(=O)(=O)[O-])cc4F)c4ccc([nH]4)c(-c4c(F)cc(S(=O)(=O)[O-])cc4F)c4nc(c(-c5c(F)cc(S(=O)(=O)[O-])cc5F)c5ccc2[nH]5)C=C4)C=C3)cc1
REMARK SMILES IDX 22 1 21 2 19 3 20 4 3 6 2 7 1 8 4 9 5 10 6 11 7 12 8 14 9 15
REMARK SMILES IDX 10 17 11 18 12 19 13 20 14 21 18 22 15 24 17 25 16 26 23 27
REMARK SMILES IDX 24 28 25 29 26 30 27 32 28 33 29 34 93 35 30 36 92 37 31 38
REMARK SMILES IDX 32 39 33 40 86 41 34 42 91 43 85 44 87 45 35 46 90 47 84 48
REMARK SMILES IDX 83 49 36 51 70 52 49 53 69 54 50 55 53 56 68 57 88 58 51 59
REMARK SMILES IDX 52 60 67 62 89 63 54 64 37 65 38 66 47 67 39 68 40 69 46 70
REMARK SMILES IDX 48 71 41 72 42 73 43 74 44 75 45 76 71 77 72 78 81 79 73 80
REMARK SMILES IDX 74 81 80 82 82 83 75 84 76 85 77 86 78 87 79 88 55 89 56 90
REMARK SMILES IDX 65 91 57 92 58 93 64 94 66 95 59 96 60 97 61 98 62 99 63 100
REMARK H PARENT 21 5 6 13 9 16 13 23 25 31 87 50 53 61
REMARK Flexibility Score: inf
ROOT
ATOM      1  C   UNL A   1      36.724  22.017  25.350  1.00  0.00     0.117 C 
ENDROOT
BRANCH   1   2
ATOM      2  N   UNL A   1      35.845  22.049  26.530  1.00  0.00    -0.354 N 
ATOM      3  C   UNL A   1      34.485  22.118  26.741  1.00  0.00     0.245 C 
ATOM      4  O   UNL A   1      34.066  21.775  27.851  1.00  0.00    -0.272 OA
ATOM      5  H   UNL A   1      36.351  22.012  27.374  1.00  0.00     0.163 HD
BRANCH   3   6
ATOM      6  C   UNL A   1      33.492  22.337  25.596  1.00  0.00     0.120 C 
BRANCH   6   7
ATOM      7  C   UNL A   1      33.421  21.319  24.421  1.00  0.00     0.035 C 
ATOM      8  C   UNL A   1      33.883  19.889  24.660  1.00  0.00     0.007 C 
ENDBRANCH   6   7
BRANCH   6   9
ATOM      9  C   UNL A   1      34.064  23.720  25.093  1.00  0.00     0.035 C 
ATOM     10  C   UNL A   1      34.523  23.945  23.669  1.00  0.00     0.007 C 
ENDBRANCH   6   9
BRANCH   6  11
ATOM     11  N   UNL A   1      32.155  22.349  26.211  1.00  0.00    -0.324 N 
ATOM     12  C   UNL A   1      30.985  22.940  25.869  1.00  0.00     0.315 C 
ATOM     13  H   UNL A   1      32.100  21.821  27.039  1.00  0.00     0.166 HD
ATOM     14  O   UNL A   1      30.132  23.016  26.759  1.00  0.00    -0.249 OA
ATOM     15  N   UNL A   1      30.587  23.271  24.615  1.00  0.00    -0.332 N 
ATOM     16  H   UNL A   1      29.666  22.974  24.430  1.00  0.00     0.165 HD
BRANCH  15  17
ATOM     17  C   UNL A   1      31.190  23.963  23.454  1.00  0.00     0.182 C 
BRANCH  17  18
ATOM     18  C   UNL A   1      31.146  25.558  23.326  1.00  0.00     0.200 C 
ATOM     19  C   UNL A   1      31.751  26.309  22.138  1.00  0.00     0.077 C 
BRANCH  18  20
ATOM     20  N   UNL A   1      31.768  26.305  24.435  1.00  0.00    -0.331 N 
ATOM     21  C   UNL A   1      32.841  27.209  24.078  1.00  0.00     0.262 C 
ATOM     22  C   UNL A   1      30.831  26.837  25.425  1.00  0.00     0.262 C 
ATOM     23  H   UNL A   1      32.262  25.563  24.931  1.00  0.00     0.348 HD
ATOM     24  C   UNL A   1      33.595  27.614  25.349  1.00  0.00     0.062 C 
ATOM     25  C   UNL A   1      31.523  27.284  26.702  1.00  0.00     0.062 C 
ATOM     26  C   UNL A   1      32.664  28.233  26.388  1.00  0.00     0.012 C 
ENDBRANCH  18  20
ENDBRANCH  17  18
ENDBRANCH  15  17
ENDBRANCH   6  11
ENDBRANCH   3   6
ENDBRANCH   1   2
BRANCH   1  27
ATOM     27  C   UNL A   1      37.945  21.078  25.173  1.00  0.00     0.042 C 
BRANCH  27  28
ATOM     28  C   UNL A   1      39.198  21.072  26.051  1.00  0.00     0.118 C 
BRANCH  28  29
ATOM     29  N   UNL A   1      40.075  19.924  25.895  1.00  0.00    -0.352 N 
ATOM     30  C   UNL A   1      41.430  19.816  26.154  1.00  0.00     0.251 C 
ATOM     31  H   UNL A   1      39.644  19.106  25.557  1.00  0.00     0.163 HD
ATOM     32  O   UNL A   1      41.988  18.745  26.079  1.00  0.00    -0.269 OA
BRANCH  30  33
ATOM     33  C   UNL A   1      42.210  21.046  26.428  1.00  0.00     0.039 A 
ATOM     34  C   UNL A   1      42.589  21.817  25.326  1.00  0.00     0.014 A 
ATOM     35  C   UNL A   1      42.512  21.462  27.726  1.00  0.00     0.014 A 
ATOM     36  C   UNL A   1      43.188  23.061  25.527  1.00  0.00     0.010 A 
ATOM     37  C   UNL A   1      43.070  22.725  27.925  1.00  0.00     0.010 A 
ATOM     38  C   UNL A   1      43.384  23.547  26.828  1.00  0.00    -0.014 A 
BRANCH  38  39
ATOM     39  C   UNL A   1      43.866  24.934  27.053  1.00  0.00     0.031 A 
ATOM     40  C   UNL A   1      45.317  25.269  26.865  1.00  0.00     0.074 A 
ATOM     41  C   UNL A   1      42.997  25.868  27.489  1.00  0.00     0.049 A 
ATOM     42  N   UNL A   1      45.940  26.394  27.099  1.00  0.00    -0.248 NA
ATOM     43  C   UNL A   1      46.184  24.191  26.365  1.00  0.00     0.031 C 
ATOM     44  C   UNL A   1      41.569  25.643  27.734  1.00  0.00     0.029 A 
ATOM     45  N   UNL A   1      43.181  27.187  27.820  1.00  0.00    -0.354 N 
ATOM     46  C   UNL A   1      47.274  26.158  26.792  1.00  0.00     0.074 A 
ATOM     47  C   UNL A   1      47.376  24.771  26.393  1.00  0.00     0.031 C 
ATOM     48  C   UNL A   1      41.009  26.783  28.165  1.00  0.00     0.029 A 
ATOM     49  C   UNL A   1      42.040  27.810  28.271  1.00  0.00     0.049 A 
ATOM     50  H   UNL A   1      44.050  27.645  27.743  1.00  0.00     0.167 HD
ATOM     51  C   UNL A   1      48.313  27.026  26.827  1.00  0.00     0.037 A 
ATOM     52  C   UNL A   1      41.851  29.061  28.735  1.00  0.00     0.037 A 
ATOM     53  C   UNL A   1      48.189  28.407  27.215  1.00  0.00     0.049 A 
ATOM     54  C   UNL A   1      43.024  30.002  28.781  1.00  0.00     0.074 A 
ATOM     55  C   UNL A   1      49.169  29.385  27.245  1.00  0.00     0.029 A 
ATOM     56  N   UNL A   1      47.013  29.008  27.644  1.00  0.00    -0.354 N 
ATOM     57  N   UNL A   1      44.271  29.778  28.437  1.00  0.00    -0.248 NA
ATOM     58  C   UNL A   1      42.771  31.363  29.270  1.00  0.00     0.031 C 
ATOM     59  C   UNL A   1      48.595  30.562  27.737  1.00  0.00     0.029 A 
ATOM     60  C   UNL A   1      47.246  30.336  27.959  1.00  0.00     0.049 A 
ATOM     61  H   UNL A   1      46.141  28.555  27.714  1.00  0.00     0.167 HD
ATOM     62  C   UNL A   1      44.943  30.978  28.636  1.00  0.00     0.074 A 
ATOM     63  C   UNL A   1      43.964  31.927  29.128  1.00  0.00     0.031 C 
ATOM     64  C   UNL A   1      46.251  31.270  28.427  1.00  0.00     0.037 A 
BRANCH  51  65
ATOM     65  C   UNL A   1      49.673  26.507  26.443  1.00  0.00     0.058 A 
ATOM     66  C   UNL A   1      50.497  25.844  27.367  1.00  0.00     0.135 A 
ATOM     67  C   UNL A   1      50.146  26.646  25.129  1.00  0.00     0.135 A 
ATOM     68  F   UNL A   1      50.102  25.695  28.641  1.00  0.00    -0.206 F 
ATOM     69  C   UNL A   1      51.755  25.367  27.010  1.00  0.00     0.059 A 
ATOM     70  C   UNL A   1      51.388  26.151  24.741  1.00  0.00     0.059 A 
ATOM     71  F   UNL A   1      49.400  27.271  24.203  1.00  0.00    -0.206 F 
ATOM     72  C   UNL A   1      52.192  25.527  25.694  1.00  0.00     0.060 A 
BRANCH  72  73
ATOM     73  S   UNL A   1      53.826  24.900  25.247  1.00  0.00     0.124 S 
ATOM     74  O   UNL A   1      54.079  25.613  23.999  1.00  0.00    -0.237 OA
ATOM     75  O   UNL A   1      54.639  25.309  26.388  1.00  0.00    -0.237 OA
ATOM     76  O   UNL A   1      53.614  23.461  25.115  1.00  0.00    -0.744 OA
ENDBRANCH  72  73
ENDBRANCH  51  65
BRANCH  52  77
ATOM     77  C   UNL A   1      40.497  29.497  29.177  1.00  0.00     0.058 A 
ATOM     78  C   UNL A   1      40.205  29.682  30.536  1.00  0.00     0.135 A 
ATOM     79  C   UNL A   1      39.475  29.756  28.250  1.00  0.00     0.135 A 
ATOM     80  F   UNL A   1      41.146  29.443  31.463  1.00  0.00    -0.206 F 
ATOM     81  C   UNL A   1      38.946  30.093  30.964  1.00  0.00     0.059 A 
ATOM     82  C   UNL A   1      38.215  30.195  28.652  1.00  0.00     0.059 A 
ATOM     83  F   UNL A   1      39.704  29.611  26.937  1.00  0.00    -0.206 F 
ATOM     84  C   UNL A   1      37.958  30.350  30.013  1.00  0.00     0.060 A 
BRANCH  84  85
ATOM     85  S   UNL A   1      36.342  30.930  30.577  1.00  0.00     0.124 S 
ATOM     86  O   UNL A   1      35.563  30.872  29.346  1.00  0.00    -0.237 OA
ATOM     87  O   UNL A   1      36.001  29.942  31.596  1.00  0.00    -0.237 OA
ATOM     88  O   UNL A   1      36.624  32.270  31.083  1.00  0.00    -0.744 OA
ENDBRANCH  84  85
ENDBRANCH  52  77
BRANCH  64  89
ATOM     89  C   UNL A   1      46.699  32.683  28.674  1.00  0.00     0.058 A 
ATOM     90  C   UNL A   1      47.236  33.084  29.906  1.00  0.00     0.135 A 
ATOM     91  C   UNL A   1      46.675  33.621  27.629  1.00  0.00     0.135 A 
ATOM     92  F   UNL A   1      47.272  32.227  30.940  1.00  0.00    -0.206 F 
ATOM     93  C   UNL A   1      47.731  34.370  30.095  1.00  0.00     0.059 A 
ATOM     94  C   UNL A   1      47.190  34.903  27.788  1.00  0.00     0.059 A 
ATOM     95  F   UNL A   1      46.178  33.283  26.428  1.00  0.00    -0.206 F 
ATOM     96  C   UNL A   1      47.713  35.269  29.027  1.00  0.00     0.060 A 
BRANCH  96  97
ATOM     97  S   UNL A   1      48.427  36.910  29.266  1.00  0.00     0.124 S 
ATOM     98  O   UNL A   1      47.605  37.434  30.351  1.00  0.00    -0.237 OA
ATOM     99  O   UNL A   1      49.811  36.601  29.610  1.00  0.00    -0.237 OA
ATOM    100  O   UNL A   1      48.239  37.555  27.970  1.00  0.00    -0.744 OA
ENDBRANCH  96  97
ENDBRANCH  64  89
ENDBRANCH  38  39
ENDBRANCH  30  33
ENDBRANCH  28  29
ENDBRANCH  27  28
ENDBRANCH   1  27
TORSDOF 19
ENDMDL
