MODEL 1
REMARK VINA RESULT:     -13.0      0.000      0.000
REMARK SMILES O=C(NCCCNC(=O)[C@H]1CC2(CCN(C(=O)C3CC3)CC2)CN1C(=O)CCn1cccn1)c1ccc(-c2c3nc(c(-c4c(F)cc(S(=O)(=O)[O-])cc4F)c4ccc([nH]4)c(-c4c(F)cc(S(=O)(=O)[O-])cc4F)c4nc(c(-c5c(F)cc(S(=O)(=O)[O-])cc5F)c5ccc2[nH]5)C=C4)C=C3)cc1
REMARK SMILES IDX 5 1 4 2 3 3 1 4 2 5 34 7 35 8 99 9 36 10 98 11 37 12 38 13
REMARK SMILES IDX 39 14 92 15 40 16 97 17 91 18 93 19 41 20 96 21 90 22 89 23
REMARK SMILES IDX 42 25 76 26 55 27 75 28 56 29 59 30 74 31 94 32 57 33 58 34
REMARK SMILES IDX 73 36 95 37 60 38 43 39 44 40 53 41 45 42 46 43 52 44 54 45
REMARK SMILES IDX 47 46 48 47 49 48 50 49 51 50 77 51 78 52 87 53 79 54 80 55
REMARK SMILES IDX 86 56 88 57 81 58 82 59 83 60 84 61 85 62 61 63 62 64 71 65
REMARK SMILES IDX 63 66 64 67 70 68 72 69 65 70 66 71 67 72 68 73 69 74 6 75
REMARK SMILES IDX 7 76 8 77 9 79 10 80 11 81 24 82 12 83 23 84 13 85 22 86
REMARK SMILES IDX 14 87 21 88 15 89 16 90 17 91 25 92 26 93 27 94 28 95 29 96
REMARK SMILES IDX 30 97 33 98 31 99 32 100 18 101 19 102 20 103
REMARK H PARENT 3 6 93 24 59 35 7 78
REMARK Flexibility Score: inf
ROOT
ATOM      1  C   UNL A   1      32.071  29.133  27.244  1.00  0.00     0.042 C 
ENDROOT
BRANCH   1   2
ATOM      2  C   UNL A   1      33.266  29.970  26.793  1.00  0.00     0.118 C 
BRANCH   2   3
ATOM      3  N   UNL A   1      33.535  31.188  27.535  1.00  0.00    -0.352 N 
ATOM      4  O   UNL A   1      34.522  32.918  28.490  1.00  0.00    -0.269 OA
ATOM      5  C   UNL A   1      34.644  31.754  28.104  1.00  0.00     0.251 C 
ATOM      6  H   UNL A   1      32.729  31.738  27.659  1.00  0.00     0.163 HD
BRANCH   5   7
ATOM      7  C   UNL A   1      35.926  31.047  28.361  1.00  0.00     0.039 A 
ATOM      8  C   UNL A   1      36.162  29.690  28.146  1.00  0.00     0.014 A 
ATOM      9  C   UNL A   1      36.978  31.843  28.854  1.00  0.00     0.014 A 
ATOM     10  C   UNL A   1      37.386  29.126  28.512  1.00  0.00     0.010 A 
ATOM     11  C   UNL A   1      38.207  31.291  29.202  1.00  0.00     0.010 A 
ATOM     12  C   UNL A   1      38.405  29.922  29.060  1.00  0.00    -0.014 A 
BRANCH  12  13
ATOM     13  C   UNL A   1      39.743  29.338  29.220  1.00  0.00     0.031 A 
ATOM     14  C   UNL A   1      40.138  29.182  30.653  1.00  0.00     0.074 A 
ATOM     15  C   UNL A   1      40.504  28.824  28.229  1.00  0.00     0.049 A 
ATOM     16  N   UNL A   1      41.086  29.789  31.286  1.00  0.00    -0.248 NA
ATOM     17  C   UNL A   1      39.271  28.369  31.525  1.00  0.00     0.031 C 
ATOM     18  C   UNL A   1      40.139  28.626  26.825  1.00  0.00     0.029 A 
ATOM     19  N   UNL A   1      41.759  28.278  28.287  1.00  0.00    -0.354 N 
ATOM     20  C   UNL A   1      41.086  29.261  32.577  1.00  0.00     0.074 A 
ATOM     21  C   UNL A   1      39.848  28.544  32.715  1.00  0.00     0.031 C 
ATOM     22  C   UNL A   1      41.047  27.816  26.230  1.00  0.00     0.029 A 
ATOM     23  C   UNL A   1      42.130  27.541  27.161  1.00  0.00     0.049 A 
ATOM     24  H   UNL A   1      42.354  28.396  29.063  1.00  0.00     0.167 HD
ATOM     25  C   UNL A   1      42.214  29.263  33.342  1.00  0.00     0.037 A 
ATOM     26  C   UNL A   1      43.221  26.737  27.017  1.00  0.00     0.037 A 
ATOM     27  C   UNL A   1      43.176  30.207  32.832  1.00  0.00     0.049 A 
ATOM     28  C   UNL A   1      44.205  27.141  28.052  1.00  0.00     0.074 A 
ATOM     29  C   UNL A   1      43.180  31.570  32.603  1.00  0.00     0.029 A 
ATOM     30  N   UNL A   1      44.241  29.705  32.126  1.00  0.00    -0.354 N 
ATOM     31  N   UNL A   1      44.831  28.283  28.057  1.00  0.00    -0.248 NA
ATOM     32  C   UNL A   1      44.159  26.445  29.328  1.00  0.00     0.031 C 
ATOM     33  C   UNL A   1      43.924  31.737  31.399  1.00  0.00     0.029 A 
ATOM     34  C   UNL A   1      44.398  30.483  31.010  1.00  0.00     0.049 A 
ATOM     35  H   UNL A   1      44.792  28.929  32.376  1.00  0.00     0.167 HD
ATOM     36  C   UNL A   1      44.854  28.661  29.390  1.00  0.00     0.074 A 
ATOM     37  C   UNL A   1      44.503  27.453  30.133  1.00  0.00     0.031 C 
ATOM     38  C   UNL A   1      44.879  29.979  29.745  1.00  0.00     0.037 A 
BRANCH  25  39
ATOM     39  C   UNL A   1      42.612  28.151  34.294  1.00  0.00     0.058 A 
ATOM     40  C   UNL A   1      42.750  28.445  35.669  1.00  0.00     0.135 A 
ATOM     41  C   UNL A   1      43.149  26.910  33.888  1.00  0.00     0.135 A 
ATOM     42  F   UNL A   1      42.275  29.595  36.177  1.00  0.00    -0.206 F 
ATOM     43  C   UNL A   1      43.451  27.619  36.549  1.00  0.00     0.059 A 
ATOM     44  C   UNL A   1      43.805  26.046  34.760  1.00  0.00     0.059 A 
ATOM     45  F   UNL A   1      43.149  26.507  32.613  1.00  0.00    -0.206 F 
ATOM     46  C   UNL A   1      43.990  26.427  36.077  1.00  0.00     0.060 A 
BRANCH  46  47
ATOM     47  S   UNL A   1      44.969  25.400  37.186  1.00  0.00     0.124 S 
ATOM     48  O   UNL A   1      46.320  25.873  36.903  1.00  0.00    -0.237 OA
ATOM     49  O   UNL A   1      44.423  25.762  38.490  1.00  0.00    -0.237 OA
ATOM     50  O   UNL A   1      44.666  24.044  36.741  1.00  0.00    -0.744 OA
ENDBRANCH  46  47
ENDBRANCH  25  39
BRANCH  26  51
ATOM     51  C   UNL A   1      43.370  25.448  26.275  1.00  0.00     0.058 A 
ATOM     52  C   UNL A   1      44.407  25.251  25.337  1.00  0.00     0.135 A 
ATOM     53  C   UNL A   1      42.699  24.283  26.695  1.00  0.00     0.135 A 
ATOM     54  F   UNL A   1      45.119  26.297  24.887  1.00  0.00    -0.206 F 
ATOM     55  C   UNL A   1      44.793  23.976  24.895  1.00  0.00     0.059 A 
ATOM     56  C   UNL A   1      43.061  23.005  26.263  1.00  0.00     0.059 A 
ATOM     57  F   UNL A   1      41.729  24.344  27.618  1.00  0.00    -0.206 F 
ATOM     58  C   UNL A   1      44.128  22.855  25.385  1.00  0.00     0.060 A 
BRANCH  58  59
ATOM     59  S   UNL A   1      44.739  21.200  24.974  1.00  0.00     0.124 S 
ATOM     60  O   UNL A   1      43.767  20.343  25.645  1.00  0.00    -0.237 OA
ATOM     61  O   UNL A   1      44.688  21.201  23.517  1.00  0.00    -0.237 OA
ATOM     62  O   UNL A   1      46.083  21.184  25.547  1.00  0.00    -0.744 OA
ENDBRANCH  58  59
ENDBRANCH  26  51
BRANCH  38  63
ATOM     63  C   UNL A   1      45.241  31.002  28.703  1.00  0.00     0.058 A 
ATOM     64  C   UNL A   1      44.356  31.541  27.752  1.00  0.00     0.135 A 
ATOM     65  C   UNL A   1      46.523  31.570  28.781  1.00  0.00     0.135 A 
ATOM     66  F   UNL A   1      43.083  31.129  27.677  1.00  0.00    -0.206 F 
ATOM     67  C   UNL A   1      44.747  32.572  26.891  1.00  0.00     0.059 A 
ATOM     68  C   UNL A   1      46.920  32.620  27.961  1.00  0.00     0.059 A 
ATOM     69  F   UNL A   1      47.395  31.136  29.707  1.00  0.00    -0.206 F 
ATOM     70  C   UNL A   1      46.031  33.107  27.009  1.00  0.00     0.060 A 
BRANCH  70  71
ATOM     71  S   UNL A   1      46.512  34.491  25.954  1.00  0.00     0.124 S 
ATOM     72  O   UNL A   1      47.892  34.158  25.621  1.00  0.00    -0.237 OA
ATOM     73  O   UNL A   1      45.555  34.399  24.854  1.00  0.00    -0.237 OA
ATOM     74  O   UNL A   1      46.342  35.656  26.820  1.00  0.00    -0.744 OA
ENDBRANCH  70  71
ENDBRANCH  38  63
ENDBRANCH  12  13
ENDBRANCH   5   7
ENDBRANCH   2   3
ENDBRANCH   1   2
BRANCH   1  75
ATOM     75  C   UNL A   1      32.233  27.626  27.118  1.00  0.00     0.117 C 
BRANCH  75  76
ATOM     76  N   UNL A   1      31.116  26.940  26.501  1.00  0.00    -0.354 N 
ATOM     77  C   UNL A   1      31.052  25.616  26.184  1.00  0.00     0.242 C 
ATOM     78  H   UNL A   1      30.325  27.485  26.288  1.00  0.00     0.163 HD
ATOM     79  O   UNL A   1      30.050  24.999  26.559  1.00  0.00    -0.273 OA
BRANCH  77  80
ATOM     80  C   UNL A   1      32.245  24.872  25.557  1.00  0.00     0.175 C 
ATOM     81  C   UNL A   1      31.849  23.447  25.156  1.00  0.00     0.044 C 
ATOM     82  N   UNL A   1      33.076  25.233  24.401  1.00  0.00    -0.330 N 
ATOM     83  C   UNL A   1      33.165  22.835  24.614  1.00  0.00    -0.006 C 
ATOM     84  C   UNL A   1      33.999  24.095  24.218  1.00  0.00     0.127 C 
ATOM     85  C   UNL A   1      32.927  21.932  23.390  1.00  0.00     0.030 C 
ATOM     86  C   UNL A   1      33.835  21.973  25.705  1.00  0.00     0.030 C 
ATOM     87  C   UNL A   1      32.120  20.681  23.734  1.00  0.00     0.120 C 
ATOM     88  C   UNL A   1      33.012  20.714  26.027  1.00  0.00     0.120 C 
ATOM     89  N   UNL A   1      32.723  19.923  24.825  1.00  0.00    -0.342 N 
ATOM     90  C   UNL A   1      32.883  18.535  24.929  1.00  0.00     0.225 C 
ATOM     91  O   UNL A   1      33.230  18.025  25.988  1.00  0.00    -0.275 OA
BRANCH  82  92
ATOM     92  C   UNL A   1      32.590  25.833  23.238  1.00  0.00     0.225 C 
ATOM     93  O   UNL A   1      31.725  25.302  22.535  1.00  0.00    -0.275 OA
BRANCH  92  94
ATOM     94  C   UNL A   1      33.223  27.115  22.746  1.00  0.00     0.124 C 
BRANCH  94  95
ATOM     95  C   UNL A   1      32.686  28.348  23.465  1.00  0.00     0.154 C 
BRANCH  95  96
ATOM     96  N   UNL A   1      31.305  28.654  23.147  1.00  0.00    -0.272 N 
ATOM     97  C   UNL A   1      30.846  29.392  22.093  1.00  0.00     0.108 A 
ATOM     98  N   UNL A   1      30.325  28.235  23.970  1.00  0.00    -0.182 NA
ATOM     99  C   UNL A   1      29.474  29.357  22.175  1.00  0.00     0.042 A 
ATOM    100  C   UNL A   1      29.207  28.627  23.350  1.00  0.00     0.135 A 
ENDBRANCH  95  96
ENDBRANCH  94  95
ENDBRANCH  92  94
ENDBRANCH  82  92
BRANCH  90 101
ATOM    101  C   UNL A   1      32.710  17.567  23.801  1.00  0.00     0.079 C 
ATOM    102  C   UNL A   1      32.896  17.708  22.320  1.00  0.00     0.014 C 
ATOM    103  C   UNL A   1      33.906  16.938  23.130  1.00  0.00     0.014 C 
ENDBRANCH  90 101
ENDBRANCH  77  80
ENDBRANCH  75  76
ENDBRANCH   1  75
TORSDOF 18
ENDMDL
MODEL 2
REMARK VINA RESULT:     -12.8      2.781      9.695
REMARK SMILES O=C(NCCCNC(=O)[C@H]1CC2(CCN(C(=O)C3CC3)CC2)CN1C(=O)CCn1cccn1)c1ccc(-c2c3nc(c(-c4c(F)cc(S(=O)(=O)[O-])cc4F)c4ccc([nH]4)c(-c4c(F)cc(S(=O)(=O)[O-])cc4F)c4nc(c(-c5c(F)cc(S(=O)(=O)[O-])cc5F)c5ccc2[nH]5)C=C4)C=C3)cc1
REMARK SMILES IDX 5 1 4 2 3 3 1 4 2 5 34 7 35 8 99 9 36 10 98 11 37 12 38 13
REMARK SMILES IDX 39 14 92 15 40 16 97 17 91 18 93 19 41 20 96 21 90 22 89 23
REMARK SMILES IDX 42 25 76 26 55 27 75 28 56 29 59 30 74 31 94 32 57 33 58 34
REMARK SMILES IDX 73 36 95 37 60 38 43 39 44 40 53 41 45 42 46 43 52 44 54 45
REMARK SMILES IDX 47 46 48 47 49 48 50 49 51 50 77 51 78 52 87 53 79 54 80 55
REMARK SMILES IDX 86 56 88 57 81 58 82 59 83 60 84 61 85 62 61 63 62 64 71 65
REMARK SMILES IDX 63 66 64 67 70 68 72 69 65 70 66 71 67 72 68 73 69 74 6 75
REMARK SMILES IDX 7 76 8 77 9 79 10 80 11 81 24 82 12 83 23 84 13 85 22 86
REMARK SMILES IDX 14 87 21 88 15 89 16 90 17 91 25 92 26 93 27 94 28 95 29 96
REMARK SMILES IDX 30 97 33 98 31 99 32 100 18 101 19 102 20 103
REMARK H PARENT 3 6 93 24 59 35 7 78
REMARK Flexibility Score: inf
ROOT
ATOM      1  C   UNL A   1      36.889  21.862  24.434  1.00  0.00     0.042 C 
ENDROOT
BRANCH   1   2
ATOM      2  C   UNL A   1      37.660  22.071  25.735  1.00  0.00     0.118 C 
BRANCH   2   3
ATOM      3  N   UNL A   1      39.066  21.710  25.734  1.00  0.00    -0.352 N 
ATOM      4  O   UNL A   1      41.207  21.509  26.239  1.00  0.00    -0.269 OA
ATOM      5  C   UNL A   1      40.199  22.215  26.312  1.00  0.00     0.251 C 
ATOM      6  H   UNL A   1      39.248  20.913  25.186  1.00  0.00     0.163 HD
BRANCH   5   7
ATOM      7  C   UNL A   1      40.314  23.562  26.929  1.00  0.00     0.039 A 
ATOM      8  C   UNL A   1      39.424  24.619  26.743  1.00  0.00     0.014 A 
ATOM      9  C   UNL A   1      41.422  23.756  27.777  1.00  0.00     0.014 A 
ATOM     10  C   UNL A   1      39.693  25.868  27.309  1.00  0.00     0.010 A 
ATOM     11  C   UNL A   1      41.683  24.992  28.361  1.00  0.00     0.010 A 
ATOM     12  C   UNL A   1      40.833  26.062  28.104  1.00  0.00    -0.014 A 
BRANCH  12  13
ATOM     13  C   UNL A   1      40.959  27.316  28.857  1.00  0.00     0.031 A 
ATOM     14  C   UNL A   1      42.006  28.224  28.300  1.00  0.00     0.074 A 
ATOM     15  C   UNL A   1      40.134  27.730  29.845  1.00  0.00     0.049 A 
ATOM     16  N   UNL A   1      43.115  28.592  28.852  1.00  0.00    -0.248 NA
ATOM     17  C   UNL A   1      41.877  28.648  26.894  1.00  0.00     0.031 C 
ATOM     18  C   UNL A   1      38.892  27.102  30.301  1.00  0.00     0.029 A 
ATOM     19  N   UNL A   1      40.186  28.868  30.605  1.00  0.00    -0.354 N 
ATOM     20  C   UNL A   1      43.713  29.481  27.958  1.00  0.00     0.074 A 
ATOM     21  C   UNL A   1      43.009  29.329  26.713  1.00  0.00     0.031 C 
ATOM     22  C   UNL A   1      38.209  27.969  31.086  1.00  0.00     0.029 A 
ATOM     23  C   UNL A   1      39.013  29.161  31.302  1.00  0.00     0.049 A 
ATOM     24  H   UNL A   1      40.989  29.436  30.656  1.00  0.00     0.167 HD
ATOM     25  C   UNL A   1      44.585  30.435  28.387  1.00  0.00     0.037 A 
ATOM     26  C   UNL A   1      38.709  30.308  31.973  1.00  0.00     0.037 A 
ATOM     27  C   UNL A   1      45.086  30.118  29.701  1.00  0.00     0.049 A 
ATOM     28  C   UNL A   1      39.990  31.001  32.262  1.00  0.00     0.074 A 
ATOM     29  C   UNL A   1      45.782  29.058  30.250  1.00  0.00     0.029 A 
ATOM     30  N   UNL A   1      44.560  30.811  30.763  1.00  0.00    -0.354 N 
ATOM     31  N   UNL A   1      40.892  30.551  33.087  1.00  0.00    -0.248 NA
ATOM     32  C   UNL A   1      40.458  31.976  31.291  1.00  0.00     0.031 C 
ATOM     33  C   UNL A   1      45.229  28.891  31.553  1.00  0.00     0.029 A 
ATOM     34  C   UNL A   1      44.290  29.905  31.753  1.00  0.00     0.049 A 
ATOM     35  H   UNL A   1      44.406  31.782  30.805  1.00  0.00     0.167 HD
ATOM     36  C   UNL A   1      42.099  30.823  32.464  1.00  0.00     0.074 A 
ATOM     37  C   UNL A   1      41.773  31.776  31.404  1.00  0.00     0.031 C 
ATOM     38  C   UNL A   1      43.195  30.041  32.684  1.00  0.00     0.037 A 
BRANCH  25  39
ATOM     39  C   UNL A   1      44.683  31.836  27.812  1.00  0.00     0.058 A 
ATOM     40  C   UNL A   1      45.844  32.202  27.096  1.00  0.00     0.135 A 
ATOM     41  C   UNL A   1      43.842  32.908  28.182  1.00  0.00     0.135 A 
ATOM     42  F   UNL A   1      46.720  31.269  26.685  1.00  0.00    -0.206 F 
ATOM     43  C   UNL A   1      46.191  33.532  26.854  1.00  0.00     0.059 A 
ATOM     44  C   UNL A   1      44.143  34.238  27.905  1.00  0.00     0.059 A 
ATOM     45  F   UNL A   1      42.733  32.737  28.909  1.00  0.00    -0.206 F 
ATOM     46  C   UNL A   1      45.339  34.544  27.279  1.00  0.00     0.060 A 
BRANCH  46  47
ATOM     47  S   UNL A   1      45.823  36.263  27.048  1.00  0.00     0.124 S 
ATOM     48  O   UNL A   1      46.593  36.184  25.811  1.00  0.00    -0.237 OA
ATOM     49  O   UNL A   1      44.528  36.929  26.954  1.00  0.00    -0.237 OA
ATOM     50  O   UNL A   1      46.589  36.560  28.253  1.00  0.00    -0.744 OA
ENDBRANCH  46  47
ENDBRANCH  25  39
BRANCH  26  51
ATOM     51  C   UNL A   1      37.401  31.018  32.113  1.00  0.00     0.058 A 
ATOM     52  C   UNL A   1      37.025  31.641  33.324  1.00  0.00     0.135 A 
ATOM     53  C   UNL A   1      36.639  31.372  30.984  1.00  0.00     0.135 A 
ATOM     54  F   UNL A   1      37.701  31.382  34.455  1.00  0.00    -0.206 F 
ATOM     55  C   UNL A   1      36.002  32.598  33.395  1.00  0.00     0.059 A 
ATOM     56  C   UNL A   1      35.610  32.316  31.032  1.00  0.00     0.059 A 
ATOM     57  F   UNL A   1      36.935  30.880  29.773  1.00  0.00    -0.206 F 
ATOM     58  C   UNL A   1      35.315  32.947  32.235  1.00  0.00     0.060 A 
BRANCH  58  59
ATOM     59  S   UNL A   1      34.128  34.315  32.273  1.00  0.00     0.124 S 
ATOM     60  O   UNL A   1      34.929  35.397  32.836  1.00  0.00    -0.237 OA
ATOM     61  O   UNL A   1      33.767  34.455  30.867  1.00  0.00    -0.237 OA
ATOM     62  O   UNL A   1      33.062  33.814  33.139  1.00  0.00    -0.744 OA
ENDBRANCH  58  59
ENDBRANCH  26  51
BRANCH  38  63
ATOM     63  C   UNL A   1      43.192  29.107  33.865  1.00  0.00     0.058 A 
ATOM     64  C   UNL A   1      43.572  29.451  35.173  1.00  0.00     0.135 A 
ATOM     65  C   UNL A   1      42.626  27.835  33.674  1.00  0.00     0.135 A 
ATOM     66  F   UNL A   1      44.026  30.679  35.464  1.00  0.00    -0.206 F 
ATOM     67  C   UNL A   1      43.431  28.553  36.236  1.00  0.00     0.059 A 
ATOM     68  C   UNL A   1      42.443  26.942  34.722  1.00  0.00     0.059 A 
ATOM     69  F   UNL A   1      42.192  27.468  32.456  1.00  0.00    -0.206 F 
ATOM     70  C   UNL A   1      42.861  27.302  35.999  1.00  0.00     0.060 A 
BRANCH  70  71
ATOM     71  S   UNL A   1      42.604  26.170  37.382  1.00  0.00     0.124 S 
ATOM     72  O   UNL A   1      43.037  24.896  36.820  1.00  0.00    -0.237 OA
ATOM     73  O   UNL A   1      43.467  26.733  38.417  1.00  0.00    -0.237 OA
ATOM     74  O   UNL A   1      41.172  26.279  37.652  1.00  0.00    -0.744 OA
ENDBRANCH  70  71
ENDBRANCH  38  63
ENDBRANCH  12  13
ENDBRANCH   5   7
ENDBRANCH   2   3
ENDBRANCH   1   2
BRANCH   1  75
ATOM     75  C   UNL A   1      36.157  23.081  23.894  1.00  0.00     0.117 C 
BRANCH  75  76
ATOM     76  N   UNL A   1      34.856  22.808  23.320  1.00  0.00    -0.354 N 
ATOM     77  C   UNL A   1      33.951  23.731  22.885  1.00  0.00     0.242 C 
ATOM     78  H   UNL A   1      34.598  21.862  23.236  1.00  0.00     0.163 HD
ATOM     79  O   UNL A   1      33.478  23.561  21.757  1.00  0.00    -0.273 OA
BRANCH  77  80
ATOM     80  C   UNL A   1      33.667  25.023  23.670  1.00  0.00     0.175 C 
ATOM     81  C   UNL A   1      32.310  25.614  23.275  1.00  0.00     0.044 C 
ATOM     82  N   UNL A   1      33.624  25.252  25.120  1.00  0.00    -0.330 N 
ATOM     83  C   UNL A   1      32.220  26.923  24.100  1.00  0.00    -0.006 C 
ATOM     84  C   UNL A   1      33.213  26.662  25.277  1.00  0.00     0.127 C 
ATOM     85  C   UNL A   1      30.799  27.181  24.631  1.00  0.00     0.030 C 
ATOM     86  C   UNL A   1      32.615  28.129  23.221  1.00  0.00     0.030 C 
ATOM     87  C   UNL A   1      29.795  27.450  23.511  1.00  0.00     0.120 C 
ATOM     88  C   UNL A   1      31.585  28.389  22.108  1.00  0.00     0.120 C 
ATOM     89  N   UNL A   1      30.226  28.537  22.639  1.00  0.00    -0.342 N 
ATOM     90  C   UNL A   1      29.454  29.583  22.115  1.00  0.00     0.225 C 
ATOM     91  O   UNL A   1      29.906  30.314  21.241  1.00  0.00    -0.275 OA
BRANCH  82  92
ATOM     92  C   UNL A   1      33.104  24.346  26.045  1.00  0.00     0.225 C 
ATOM     93  O   UNL A   1      31.950  24.432  26.475  1.00  0.00    -0.275 OA
BRANCH  92  94
ATOM     94  C   UNL A   1      34.012  23.294  26.642  1.00  0.00     0.124 C 
BRANCH  94  95
ATOM     95  C   UNL A   1      33.265  22.020  27.020  1.00  0.00     0.154 C 
BRANCH  95  96
ATOM     96  N   UNL A   1      33.016  21.134  25.899  1.00  0.00    -0.272 N 
ATOM     97  C   UNL A   1      32.159  21.345  24.857  1.00  0.00     0.108 A 
ATOM     98  N   UNL A   1      33.629  19.936  25.850  1.00  0.00    -0.182 NA
ATOM     99  C   UNL A   1      32.307  20.265  24.019  1.00  0.00     0.042 A 
ATOM    100  C   UNL A   1      33.229  19.428  24.679  1.00  0.00     0.135 A 
ENDBRANCH  95  96
ENDBRANCH  94  95
ENDBRANCH  92  94
ENDBRANCH  82  92
BRANCH  90 101
ATOM    101  C   UNL A   1      28.077  29.945  22.576  1.00  0.00     0.079 C 
ATOM    102  C   UNL A   1      27.584  30.662  23.796  1.00  0.00     0.014 C 
ATOM    103  C   UNL A   1      27.570  31.361  22.462  1.00  0.00     0.014 C 
ENDBRANCH  90 101
ENDBRANCH  77  80
ENDBRANCH  75  76
ENDBRANCH   1  75
TORSDOF 18
ENDMDL
MODEL 3
REMARK VINA RESULT:     -12.7      2.855      9.791
REMARK SMILES O=C(NCCCNC(=O)[C@H]1CC2(CCN(C(=O)C3CC3)CC2)CN1C(=O)CCn1cccn1)c1ccc(-c2c3nc(c(-c4c(F)cc(S(=O)(=O)[O-])cc4F)c4ccc([nH]4)c(-c4c(F)cc(S(=O)(=O)[O-])cc4F)c4nc(c(-c5c(F)cc(S(=O)(=O)[O-])cc5F)c5ccc2[nH]5)C=C4)C=C3)cc1
REMARK SMILES IDX 5 1 4 2 3 3 1 4 2 5 34 7 35 8 99 9 36 10 98 11 37 12 38 13
REMARK SMILES IDX 39 14 92 15 40 16 97 17 91 18 93 19 41 20 96 21 90 22 89 23
REMARK SMILES IDX 42 25 76 26 55 27 75 28 56 29 59 30 74 31 94 32 57 33 58 34
REMARK SMILES IDX 73 36 95 37 60 38 43 39 44 40 53 41 45 42 46 43 52 44 54 45
REMARK SMILES IDX 47 46 48 47 49 48 50 49 51 50 77 51 78 52 87 53 79 54 80 55
REMARK SMILES IDX 86 56 88 57 81 58 82 59 83 60 84 61 85 62 61 63 62 64 71 65
REMARK SMILES IDX 63 66 64 67 70 68 72 69 65 70 66 71 67 72 68 73 69 74 6 75
REMARK SMILES IDX 7 76 8 77 9 79 10 80 11 81 24 82 12 83 23 84 13 85 22 86
REMARK SMILES IDX 14 87 21 88 15 89 16 90 17 91 25 92 26 93 27 94 28 95 29 96
REMARK SMILES IDX 30 97 33 98 31 99 32 100 18 101 19 102 20 103
REMARK H PARENT 3 6 93 24 59 35 7 78
REMARK Flexibility Score: inf
ROOT
ATOM      1  C   UNL A   1      38.387  22.348  25.936  1.00  0.00     0.042 C 
ENDROOT
BRANCH   1   2
ATOM      2  C   UNL A   1      39.700  21.786  26.475  1.00  0.00     0.118 C 
BRANCH   2   3
ATOM      3  N   UNL A   1      40.896  22.039  25.692  1.00  0.00    -0.352 N 
ATOM      4  O   UNL A   1      42.864  22.760  24.994  1.00  0.00    -0.269 OA
ATOM      5  C   UNL A   1      41.881  22.988  25.702  1.00  0.00     0.251 C 
ATOM      6  H   UNL A   1      41.030  21.368  24.985  1.00  0.00     0.163 HD
BRANCH   5   7
ATOM      7  C   UNL A   1      41.808  24.285  26.425  1.00  0.00     0.039 A 
ATOM      8  C   UNL A   1      40.869  25.290  26.197  1.00  0.00     0.014 A 
ATOM      9  C   UNL A   1      42.778  24.485  27.427  1.00  0.00     0.014 A 
ATOM     10  C   UNL A   1      40.963  26.503  26.883  1.00  0.00     0.010 A 
ATOM     11  C   UNL A   1      42.863  25.684  28.129  1.00  0.00     0.010 A 
ATOM     12  C   UNL A   1      41.972  26.710  27.837  1.00  0.00    -0.014 A 
BRANCH  12  13
ATOM     13  C   UNL A   1      41.899  27.904  28.689  1.00  0.00     0.031 A 
ATOM     14  C   UNL A   1      42.959  28.907  28.371  1.00  0.00     0.074 A 
ATOM     15  C   UNL A   1      40.907  28.193  29.560  1.00  0.00     0.049 A 
ATOM     16  N   UNL A   1      43.944  29.286  29.117  1.00  0.00    -0.248 NA
ATOM     17  C   UNL A   1      43.022  29.437  26.997  1.00  0.00     0.031 C 
ATOM     18  C   UNL A   1      39.653  27.466  29.767  1.00  0.00     0.029 A 
ATOM     19  N   UNL A   1      40.768  29.267  30.399  1.00  0.00    -0.354 N 
ATOM     20  C   UNL A   1      44.615  30.274  28.396  1.00  0.00     0.074 A 
ATOM     21  C   UNL A   1      44.122  30.188  27.048  1.00  0.00     0.031 C 
ATOM     22  C   UNL A   1      38.802  28.230  30.494  1.00  0.00     0.029 A 
ATOM     23  C   UNL A   1      39.485  29.441  30.920  1.00  0.00     0.049 A 
ATOM     24  H   UNL A   1      41.515  29.869  30.617  1.00  0.00     0.167 HD
ATOM     25  C   UNL A   1      45.347  31.235  29.026  1.00  0.00     0.037 A 
ATOM     26  C   UNL A   1      39.008  30.513  31.615  1.00  0.00     0.037 A 
ATOM     27  C   UNL A   1      45.659  30.839  30.376  1.00  0.00     0.049 A 
ATOM     28  C   UNL A   1      40.183  31.245  32.152  1.00  0.00     0.074 A 
ATOM     29  C   UNL A   1      46.328  29.775  30.951  1.00  0.00     0.029 A 
ATOM     30  N   UNL A   1      44.932  31.415  31.388  1.00  0.00    -0.354 N 
ATOM     31  N   UNL A   1      40.974  30.777  33.076  1.00  0.00    -0.248 NA
ATOM     32  C   UNL A   1      40.732  32.319  31.341  1.00  0.00     0.031 C 
ATOM     33  C   UNL A   1      45.593  29.475  32.134  1.00  0.00     0.029 A 
ATOM     34  C   UNL A   1      44.572  30.419  32.255  1.00  0.00     0.049 A 
ATOM     35  H   UNL A   1      44.712  32.370  31.475  1.00  0.00     0.167 HD
ATOM     36  C   UNL A   1      42.243  31.162  32.673  1.00  0.00     0.074 A 
ATOM     37  C   UNL A   1      42.024  32.179  31.647  1.00  0.00     0.031 C 
ATOM     38  C   UNL A   1      43.339  30.422  33.008  1.00  0.00     0.037 A 
BRANCH  25  39
ATOM     39  C   UNL A   1      45.443  32.681  28.576  1.00  0.00     0.058 A 
ATOM     40  C   UNL A   1      46.718  33.278  28.458  1.00  0.00     0.135 A 
ATOM     41  C   UNL A   1      44.353  33.578  28.547  1.00  0.00     0.135 A 
ATOM     42  F   UNL A   1      47.831  32.526  28.467  1.00  0.00    -0.206 F 
ATOM     43  C   UNL A   1      46.900  34.661  28.416  1.00  0.00     0.059 A 
ATOM     44  C   UNL A   1      44.510  34.958  28.453  1.00  0.00     0.059 A 
ATOM     45  F   UNL A   1      43.086  33.180  28.701  1.00  0.00    -0.206 F 
ATOM     46  C   UNL A   1      45.787  35.493  28.432  1.00  0.00     0.060 A 
BRANCH  46  47
ATOM     47  S   UNL A   1      46.018  37.278  28.466  1.00  0.00     0.124 S 
ATOM     48  O   UNL A   1      45.248  37.694  27.299  1.00  0.00    -0.237 OA
ATOM     49  O   UNL A   1      45.452  37.629  29.765  1.00  0.00    -0.237 OA
ATOM     50  O   UNL A   1      47.465  37.431  28.358  1.00  0.00    -0.744 OA
ENDBRANCH  46  47
ENDBRANCH  25  39
BRANCH  26  51
ATOM     51  C   UNL A   1      37.652  31.140  31.597  1.00  0.00     0.058 A 
ATOM     52  C   UNL A   1      36.922  31.354  32.786  1.00  0.00     0.135 A 
ATOM     53  C   UNL A   1      37.181  31.825  30.461  1.00  0.00     0.135 A 
ATOM     54  F   UNL A   1      37.301  30.759  33.929  1.00  0.00    -0.206 F 
ATOM     55  C   UNL A   1      35.835  32.239  32.856  1.00  0.00     0.059 A 
ATOM     56  C   UNL A   1      36.096  32.705  30.504  1.00  0.00     0.059 A 
ATOM     57  F   UNL A   1      37.824  31.735  29.288  1.00  0.00    -0.206 F 
ATOM     58  C   UNL A   1      35.445  32.930  31.711  1.00  0.00     0.060 A 
BRANCH  58  59
ATOM     59  S   UNL A   1      34.173  34.215  31.829  1.00  0.00     0.124 S 
ATOM     60  O   UNL A   1      34.952  35.376  32.246  1.00  0.00    -0.237 OA
ATOM     61  O   UNL A   1      33.645  34.257  30.470  1.00  0.00    -0.237 OA
ATOM     62  O   UNL A   1      33.253  33.688  32.835  1.00  0.00    -0.744 OA
ENDBRANCH  58  59
ENDBRANCH  26  51
BRANCH  38  63
ATOM     63  C   UNL A   1      43.214  29.396  34.103  1.00  0.00     0.058 A 
ATOM     64  C   UNL A   1      43.333  29.659  35.479  1.00  0.00     0.135 A 
ATOM     65  C   UNL A   1      42.802  28.107  33.728  1.00  0.00     0.135 A 
ATOM     66  F   UNL A   1      43.622  30.889  35.928  1.00  0.00    -0.206 F 
ATOM     67  C   UNL A   1      43.089  28.669  36.436  1.00  0.00     0.059 A 
ATOM     68  C   UNL A   1      42.519  27.119  34.664  1.00  0.00     0.059 A 
ATOM     69  F   UNL A   1      42.617  27.810  32.431  1.00  0.00    -0.206 F 
ATOM     70  C   UNL A   1      42.678  27.403  36.016  1.00  0.00     0.060 A 
BRANCH  70  71
ATOM     71  S   UNL A   1      42.286  26.146  37.252  1.00  0.00     0.124 S 
ATOM     72  O   UNL A   1      40.884  26.428  37.542  1.00  0.00    -0.237 OA
ATOM     73  O   UNL A   1      42.547  24.902  36.532  1.00  0.00    -0.237 OA
ATOM     74  O   UNL A   1      43.219  26.433  38.340  1.00  0.00    -0.744 OA
ENDBRANCH  70  71
ENDBRANCH  38  63
ENDBRANCH  12  13
ENDBRANCH   5   7
ENDBRANCH   2   3
ENDBRANCH   1   2
BRANCH   1  75
ATOM     75  C   UNL A   1      37.401  21.323  25.395  1.00  0.00     0.117 C 
BRANCH  75  76
ATOM     76  N   UNL A   1      36.859  21.627  24.087  1.00  0.00    -0.354 N 
ATOM     77  C   UNL A   1      36.082  22.698  23.760  1.00  0.00     0.242 C 
ATOM     78  H   UNL A   1      37.072  20.997  23.361  1.00  0.00     0.163 HD
ATOM     79  O   UNL A   1      36.421  23.354  22.771  1.00  0.00    -0.273 OA
BRANCH  77  80
ATOM     80  C   UNL A   1      34.946  23.188  24.676  1.00  0.00     0.175 C 
ATOM     81  C   UNL A   1      34.092  24.245  23.969  1.00  0.00     0.044 C 
ATOM     82  N   UNL A   1      33.888  22.426  25.351  1.00  0.00    -0.330 N 
ATOM     83  C   UNL A   1      33.057  24.666  25.042  1.00  0.00    -0.006 C 
ATOM     84  C   UNL A   1      33.041  23.441  26.011  1.00  0.00     0.127 C 
ATOM     85  C   UNL A   1      31.661  24.907  24.443  1.00  0.00     0.030 C 
ATOM     86  C   UNL A   1      33.505  25.979  25.721  1.00  0.00     0.030 C 
ATOM     87  C   UNL A   1      31.628  26.104  23.494  1.00  0.00     0.120 C 
ATOM     88  C   UNL A   1      33.454  27.172  24.751  1.00  0.00     0.120 C 
ATOM     89  N   UNL A   1      32.135  27.317  24.126  1.00  0.00    -0.342 N 
ATOM     90  C   UNL A   1      31.612  28.615  24.049  1.00  0.00     0.225 C 
ATOM     91  O   UNL A   1      32.252  29.571  24.473  1.00  0.00    -0.275 OA
BRANCH  82  92
ATOM     92  C   UNL A   1      33.226  21.332  24.792  1.00  0.00     0.225 C 
ATOM     93  O   UNL A   1      32.058  21.400  24.398  1.00  0.00    -0.275 OA
BRANCH  92  94
ATOM     94  C   UNL A   1      33.908  19.982  24.777  1.00  0.00     0.124 C 
BRANCH  94  95
ATOM     95  C   UNL A   1      33.091  18.919  24.051  1.00  0.00     0.154 C 
BRANCH  95  96
ATOM     96  N   UNL A   1      33.203  17.597  24.634  1.00  0.00    -0.272 N 
ATOM     97  C   UNL A   1      34.274  16.752  24.562  1.00  0.00     0.108 A 
ATOM     98  N   UNL A   1      32.151  17.067  25.288  1.00  0.00    -0.182 NA
ATOM     99  C   UNL A   1      33.938  15.649  25.310  1.00  0.00     0.042 A 
ATOM    100  C   UNL A   1      32.620  15.898  25.737  1.00  0.00     0.135 A 
ENDBRANCH  95  96
ENDBRANCH  94  95
ENDBRANCH  92  94
ENDBRANCH  82  92
BRANCH  90 101
ATOM    101  C   UNL A   1      30.257  28.962  23.517  1.00  0.00     0.079 C 
ATOM    102  C   UNL A   1      29.504  30.257  23.459  1.00  0.00     0.014 C 
ATOM    103  C   UNL A   1      30.104  29.684  22.201  1.00  0.00     0.014 C 
ENDBRANCH  90 101
ENDBRANCH  77  80
ENDBRANCH  75  76
ENDBRANCH   1  75
TORSDOF 18
ENDMDL
