MODEL 1
REMARK VINA RESULT:     -13.1      0.000      0.000
REMARK SMILES CN1C(=O)/C(=C\c2ccc(-c3ccccc3C(=O)NCCCNC(=O)c3ccc(-c4c5nc(c(-c6c(F)cc(S(=O)(=O)[O-])cc6F)c6ccc([nH]6)c(-c6c(F)cc(S(=O)(=O)[O-])cc6F)c6nc(c(-c7c(F)cc(S(=O)(=O)[O-])cc7F)c7ccc4[nH]7)C=C6)C=C5)cc3)o2)C(=O)[NH+]=C1S
REMARK SMILES IDX 21 1 20 2 19 3 17 4 18 5 16 7 11 8 12 9 13 10 15 11 14 12
REMARK SMILES IDX 10 13 7 14 8 15 92 16 9 17 6 18 1 19 2 20 3 21 96 22 4 23
REMARK SMILES IDX 5 24 95 25 93 26 94 28 97 29 22 31 23 32 24 33 25 35 26 36
REMARK SMILES IDX 27 37 91 38 28 39 90 40 29 41 30 42 31 43 84 44 32 45 89 46
REMARK SMILES IDX 83 47 85 48 33 49 88 50 82 51 81 52 34 54 68 55 47 56 67 57
REMARK SMILES IDX 48 58 51 59 66 60 86 61 49 62 50 63 65 65 87 66 52 67 35 68
REMARK SMILES IDX 36 69 45 70 37 71 38 72 44 73 46 74 39 75 40 76 41 77 42 78
REMARK SMILES IDX 43 79 69 80 70 81 79 82 71 83 72 84 78 85 80 86 73 87 74 88
REMARK SMILES IDX 75 89 76 90 77 91 53 92 54 93 63 94 55 95 56 96 62 97 64 98
REMARK SMILES IDX 57 99 58 100 59 101 60 102 61 103
REMARK H PARENT 19 6 95 27 97 30 23 34 85 53 51 64
REMARK Flexibility Score: inf
ROOT
ATOM      1  C   UNL A   1      37.342  23.219  25.185  1.00  0.00     0.042 C 
ENDROOT
BRANCH   1   2
ATOM      2  C   UNL A   1      36.581  22.009  25.666  1.00  0.00     0.118 C 
BRANCH   2   3
ATOM      3  N   UNL A   1      35.545  22.157  26.643  1.00  0.00    -0.352 N 
ATOM      4  C   UNL A   1      34.221  21.787  26.525  1.00  0.00     0.252 C 
ATOM      5  O   UNL A   1      33.554  21.817  27.565  1.00  0.00    -0.269 OA
ATOM      6  H   UNL A   1      35.808  22.570  27.497  1.00  0.00     0.163 HD
BRANCH   4   7
ATOM      7  C   UNL A   1      33.506  21.460  25.231  1.00  0.00     0.050 A 
ATOM      8  C   UNL A   1      33.136  22.291  24.148  1.00  0.00     0.030 A 
ATOM      9  C   UNL A   1      32.441  21.728  23.050  1.00  0.00     0.013 A 
ATOM     10  C   UNL A   1      32.153  20.368  22.980  1.00  0.00     0.001 A 
ATOM     11  C   UNL A   1      33.205  20.078  25.123  1.00  0.00     0.014 A 
ATOM     12  C   UNL A   1      32.547  19.537  24.016  1.00  0.00     0.001 A 
BRANCH   8  13
ATOM     13  C   UNL A   1      33.419  23.709  24.013  1.00  0.00     0.135 A 
ATOM     14  C   UNL A   1      33.831  25.697  24.933  1.00  0.00     0.128 A 
ATOM     15  C   UNL A   1      34.028  25.802  23.558  1.00  0.00     0.051 A 
ATOM     16  O   UNL A   1      33.438  24.407  25.191  1.00  0.00    -0.457 OA
ATOM     17  C   UNL A   1      33.718  24.552  22.968  1.00  0.00     0.051 A 
BRANCH  14  18
ATOM     18  C   UNL A   1      34.028  26.684  25.940  1.00  0.00     0.071 C 
ATOM     19  C   UNL A   1      30.478  29.292  24.110  1.00  0.00     0.301 C 
ATOM     20  N   UNL A   1      31.500  29.132  25.136  1.00  0.00    -0.189 N 
ATOM     21  C   UNL A   1      31.933  27.846  25.343  1.00  0.00     0.349 C 
ATOM     22  C   UNL A   1      31.896  30.104  26.014  1.00  0.00     0.318 C 
ATOM     23  O   UNL A   1      31.286  26.866  24.980  1.00  0.00    -0.240 OA
ATOM     24  C   UNL A   1      33.203  27.739  26.083  1.00  0.00     0.157 C 
ATOM     25  N   UNL A   1      32.839  29.990  26.881  1.00  0.00    -0.200 N 
ATOM     26  C   UNL A   1      33.616  28.868  26.942  1.00  0.00     0.347 C 
ATOM     27  H   UNL A   1      33.004  30.726  27.514  1.00  0.00     0.316 HD
ATOM     28  O   UNL A   1      34.634  28.809  27.626  1.00  0.00    -0.241 OA
BRANCH  22  29
ATOM     29  S   UNL A   1      31.028  31.621  26.006  1.00  0.00    -0.055 SA
ATOM     30  H   UNL A   1      30.497  31.846  27.239  1.00  0.00     0.116 HD
ENDBRANCH  22  29
ENDBRANCH  14  18
ENDBRANCH   8  13
ENDBRANCH   4   7
ENDBRANCH   2   3
ENDBRANCH   1   2
BRANCH   1  31
ATOM     31  C   UNL A   1      38.112  23.996  26.242  1.00  0.00     0.118 C 
BRANCH  31  32
ATOM     32  N   UNL A   1      39.571  23.952  26.126  1.00  0.00    -0.352 N 
ATOM     33  C   UNL A   1      40.593  24.703  26.669  1.00  0.00     0.251 C 
ATOM     34  H   UNL A   1      39.891  23.234  25.533  1.00  0.00     0.163 HD
ATOM     35  O   UNL A   1      41.745  24.467  26.301  1.00  0.00    -0.269 OA
BRANCH  33  36
ATOM     36  C   UNL A   1      40.345  25.809  27.628  1.00  0.00     0.039 A 
ATOM     37  C   UNL A   1      39.394  25.640  28.642  1.00  0.00     0.014 A 
ATOM     38  C   UNL A   1      41.035  27.012  27.557  1.00  0.00     0.014 A 
ATOM     39  C   UNL A   1      39.236  26.621  29.630  1.00  0.00     0.010 A 
ATOM     40  C   UNL A   1      41.009  27.898  28.626  1.00  0.00     0.010 A 
ATOM     41  C   UNL A   1      40.095  27.730  29.670  1.00  0.00    -0.014 A 
BRANCH  41  42
ATOM     42  C   UNL A   1      40.048  28.742  30.761  1.00  0.00     0.031 A 
ATOM     43  C   UNL A   1      40.942  28.589  31.970  1.00  0.00     0.074 A 
ATOM     44  C   UNL A   1      39.143  29.742  30.712  1.00  0.00     0.049 A 
ATOM     45  N   UNL A   1      40.965  29.286  33.078  1.00  0.00    -0.248 NA
ATOM     46  C   UNL A   1      41.908  27.476  31.954  1.00  0.00     0.031 C 
ATOM     47  C   UNL A   1      38.172  29.961  29.634  1.00  0.00     0.029 A 
ATOM     48  N   UNL A   1      38.883  30.760  31.596  1.00  0.00    -0.354 N 
ATOM     49  C   UNL A   1      41.920  28.680  33.889  1.00  0.00     0.074 A 
ATOM     50  C   UNL A   1      42.396  27.513  33.184  1.00  0.00     0.031 C 
ATOM     51  C   UNL A   1      37.457  31.065  29.901  1.00  0.00     0.029 A 
ATOM     52  C   UNL A   1      37.875  31.604  31.188  1.00  0.00     0.049 A 
ATOM     53  H   UNL A   1      39.372  30.875  32.443  1.00  0.00     0.167 HD
ATOM     54  C   UNL A   1      42.391  29.080  35.094  1.00  0.00     0.037 A 
ATOM     55  C   UNL A   1      37.344  32.688  31.788  1.00  0.00     0.037 A 
ATOM     56  C   UNL A   1      41.950  30.273  35.765  1.00  0.00     0.049 A 
ATOM     57  C   UNL A   1      37.894  33.121  33.121  1.00  0.00     0.074 A 
ATOM     58  C   UNL A   1      42.408  30.809  36.956  1.00  0.00     0.029 A 
ATOM     59  N   UNL A   1      40.956  31.120  35.300  1.00  0.00    -0.354 N 
ATOM     60  N   UNL A   1      38.845  32.573  33.841  1.00  0.00    -0.248 NA
ATOM     61  C   UNL A   1      37.304  34.325  33.723  1.00  0.00     0.031 C 
ATOM     62  C   UNL A   1      41.658  31.955  37.234  1.00  0.00     0.029 A 
ATOM     63  C   UNL A   1      40.772  32.166  36.188  1.00  0.00     0.049 A 
ATOM     64  H   UNL A   1      40.454  30.997  34.461  1.00  0.00     0.167 HD
ATOM     65  C   UNL A   1      38.990  33.383  34.963  1.00  0.00     0.074 A 
ATOM     66  C   UNL A   1      38.038  34.466  34.819  1.00  0.00     0.031 C 
ATOM     67  C   UNL A   1      39.831  33.244  36.017  1.00  0.00     0.037 A 
BRANCH  54  68
ATOM     68  C   UNL A   1      43.453  28.238  35.750  1.00  0.00     0.058 A 
ATOM     69  C   UNL A   1      44.821  28.462  35.517  1.00  0.00     0.135 A 
ATOM     70  C   UNL A   1      43.106  27.226  36.660  1.00  0.00     0.135 A 
ATOM     71  F   UNL A   1      45.213  29.404  34.644  1.00  0.00    -0.206 F 
ATOM     72  C   UNL A   1      45.802  27.697  36.138  1.00  0.00     0.059 A 
ATOM     73  C   UNL A   1      44.072  26.469  37.318  1.00  0.00     0.059 A 
ATOM     74  F   UNL A   1      41.816  26.964  36.921  1.00  0.00    -0.206 F 
ATOM     75  C   UNL A   1      45.418  26.705  37.041  1.00  0.00     0.060 A 
BRANCH  75  76
ATOM     76  S   UNL A   1      46.708  25.740  37.855  1.00  0.00     0.124 S 
ATOM     77  O   UNL A   1      46.383  24.387  37.412  1.00  0.00    -0.237 OA
ATOM     78  O   UNL A   1      47.927  26.314  37.294  1.00  0.00    -0.237 OA
ATOM     79  O   UNL A   1      46.488  26.005  39.274  1.00  0.00    -0.744 OA
ENDBRANCH  75  76
ENDBRANCH  54  68
BRANCH  55  80
ATOM     80  C   UNL A   1      36.254  33.456  31.126  1.00  0.00     0.058 A 
ATOM     81  C   UNL A   1      36.499  34.200  29.961  1.00  0.00     0.135 A 
ATOM     82  C   UNL A   1      34.948  33.468  31.641  1.00  0.00     0.135 A 
ATOM     83  F   UNL A   1      37.731  34.226  29.429  1.00  0.00    -0.206 F 
ATOM     84  C   UNL A   1      35.501  34.953  29.350  1.00  0.00     0.059 A 
ATOM     85  C   UNL A   1      33.925  34.188  31.029  1.00  0.00     0.059 A 
ATOM     86  F   UNL A   1      34.653  32.761  32.744  1.00  0.00    -0.206 F 
ATOM     87  C   UNL A   1      34.215  34.940  29.893  1.00  0.00     0.060 A 
BRANCH  87  88
ATOM     88  S   UNL A   1      32.924  35.907  29.080  1.00  0.00     0.124 S 
ATOM     89  O   UNL A   1      32.292  34.902  28.233  1.00  0.00    -0.237 OA
ATOM     90  O   UNL A   1      32.132  36.376  30.213  1.00  0.00    -0.237 OA
ATOM     91  O   UNL A   1      33.673  36.945  28.376  1.00  0.00    -0.744 OA
ENDBRANCH  87  88
ENDBRANCH  55  80
BRANCH  67  92
ATOM     92  C   UNL A   1      39.797  34.310  37.076  1.00  0.00     0.058 A 
ATOM     93  C   UNL A   1      40.491  35.521  36.931  1.00  0.00     0.135 A 
ATOM     94  C   UNL A   1      39.008  34.138  38.226  1.00  0.00     0.135 A 
ATOM     95  F   UNL A   1      41.263  35.733  35.853  1.00  0.00    -0.206 F 
ATOM     96  C   UNL A   1      40.427  36.514  37.902  1.00  0.00     0.059 A 
ATOM     97  C   UNL A   1      38.903  35.132  39.193  1.00  0.00     0.059 A 
ATOM     98  F   UNL A   1      38.313  33.004  38.407  1.00  0.00    -0.206 F 
ATOM     99  C   UNL A   1      39.626  36.312  39.028  1.00  0.00     0.060 A 
BRANCH  99 100
ATOM    100  S   UNL A   1      39.523  37.625  40.262  1.00  0.00     0.124 S 
ATOM    101  O   UNL A   1      38.928  36.920  41.393  1.00  0.00    -0.237 OA
ATOM    102  O   UNL A   1      40.921  38.013  40.420  1.00  0.00    -0.237 OA
ATOM    103  O   UNL A   1      38.670  38.624  39.626  1.00  0.00    -0.744 OA
ENDBRANCH  99 100
ENDBRANCH  67  92
ENDBRANCH  41  42
ENDBRANCH  33  36
ENDBRANCH  31  32
ENDBRANCH   1  31
TORSDOF 16
ENDMDL
MODEL 2
REMARK VINA RESULT:     -13.1      0.908      1.741
REMARK SMILES CN1C(=O)/C(=C\c2ccc(-c3ccccc3C(=O)NCCCNC(=O)c3ccc(-c4c5nc(c(-c6c(F)cc(S(=O)(=O)[O-])cc6F)c6ccc([nH]6)c(-c6c(F)cc(S(=O)(=O)[O-])cc6F)c6nc(c(-c7c(F)cc(S(=O)(=O)[O-])cc7F)c7ccc4[nH]7)C=C6)C=C5)cc3)o2)C(=O)[NH+]=C1S
REMARK SMILES IDX 21 1 20 2 19 3 17 4 18 5 16 7 11 8 12 9 13 10 15 11 14 12
REMARK SMILES IDX 10 13 7 14 8 15 92 16 9 17 6 18 1 19 2 20 3 21 96 22 4 23
REMARK SMILES IDX 5 24 95 25 93 26 94 28 97 29 22 31 23 32 24 33 25 35 26 36
REMARK SMILES IDX 27 37 91 38 28 39 90 40 29 41 30 42 31 43 84 44 32 45 89 46
REMARK SMILES IDX 83 47 85 48 33 49 88 50 82 51 81 52 34 54 68 55 47 56 67 57
REMARK SMILES IDX 48 58 51 59 66 60 86 61 49 62 50 63 65 65 87 66 52 67 35 68
REMARK SMILES IDX 36 69 45 70 37 71 38 72 44 73 46 74 39 75 40 76 41 77 42 78
REMARK SMILES IDX 43 79 69 80 70 81 79 82 71 83 72 84 78 85 80 86 73 87 74 88
REMARK SMILES IDX 75 89 76 90 77 91 53 92 54 93 63 94 55 95 56 96 62 97 64 98
REMARK SMILES IDX 57 99 58 100 59 101 60 102 61 103
REMARK H PARENT 19 6 95 27 97 30 23 34 85 53 51 64
REMARK Flexibility Score: inf
ROOT
ATOM      1  C   UNL A   1      37.463  22.837  25.645  1.00  0.00     0.042 C 
ENDROOT
BRANCH   1   2
ATOM      2  C   UNL A   1      36.018  23.082  25.288  1.00  0.00     0.118 C 
BRANCH   2   3
ATOM      3  N   UNL A   1      35.015  23.066  26.309  1.00  0.00    -0.352 N 
ATOM      4  C   UNL A   1      33.929  22.220  26.406  1.00  0.00     0.252 C 
ATOM      5  O   UNL A   1      33.312  22.248  27.476  1.00  0.00    -0.269 OA
ATOM      6  H   UNL A   1      35.111  23.735  27.024  1.00  0.00     0.163 HD
BRANCH   4   7
ATOM      7  C   UNL A   1      33.377  21.358  25.290  1.00  0.00     0.050 A 
ATOM      8  C   UNL A   1      32.539  21.688  24.200  1.00  0.00     0.030 A 
ATOM      9  C   UNL A   1      32.143  20.671  23.299  1.00  0.00     0.013 A 
ATOM     10  C   UNL A   1      32.594  19.360  23.423  1.00  0.00     0.001 A 
ATOM     11  C   UNL A   1      33.826  20.016  25.382  1.00  0.00     0.014 A 
ATOM     12  C   UNL A   1      33.449  19.034  24.462  1.00  0.00     0.001 A 
BRANCH   8  13
ATOM     13  C   UNL A   1      32.035  23.010  23.869  1.00  0.00     0.135 A 
ATOM     14  C   UNL A   1      32.396  25.163  23.418  1.00  0.00     0.128 A 
ATOM     15  C   UNL A   1      31.051  24.886  23.182  1.00  0.00     0.051 A 
ATOM     16  O   UNL A   1      32.981  24.001  23.858  1.00  0.00    -0.457 OA
ATOM     17  C   UNL A   1      30.812  23.531  23.517  1.00  0.00     0.051 A 
BRANCH  14  18
ATOM     18  C   UNL A   1      33.105  26.381  23.217  1.00  0.00     0.071 C 
ATOM     19  C   UNL A   1      31.447  28.058  27.363  1.00  0.00     0.301 C 
ATOM     20  N   UNL A   1      32.272  28.266  26.181  1.00  0.00    -0.189 N 
ATOM     21  C   UNL A   1      32.672  27.125  25.531  1.00  0.00     0.349 C 
ATOM     22  C   UNL A   1      32.823  29.460  25.803  1.00  0.00     0.318 C 
ATOM     23  O   UNL A   1      32.664  26.021  26.072  1.00  0.00    -0.240 OA
ATOM     24  C   UNL A   1      33.164  27.341  24.159  1.00  0.00     0.157 C 
ATOM     25  N   UNL A   1      33.500  29.665  24.729  1.00  0.00    -0.200 N 
ATOM     26  C   UNL A   1      33.660  28.684  23.791  1.00  0.00     0.347 C 
ATOM     27  H   UNL A   1      33.912  30.547  24.579  1.00  0.00     0.316 HD
ATOM     28  O   UNL A   1      34.135  28.907  22.681  1.00  0.00    -0.241 OA
BRANCH  22  29
ATOM     29  S   UNL A   1      32.644  30.825  26.880  1.00  0.00    -0.055 SA
ATOM     30  H   UNL A   1      32.974  31.968  26.221  1.00  0.00     0.116 HD
ENDBRANCH  22  29
ENDBRANCH  14  18
ENDBRANCH   8  13
ENDBRANCH   4   7
ENDBRANCH   2   3
ENDBRANCH   1   2
BRANCH   1  31
ATOM     31  C   UNL A   1      38.239  24.033  26.172  1.00  0.00     0.118 C 
BRANCH  31  32
ATOM     32  N   UNL A   1      39.699  23.915  26.125  1.00  0.00    -0.352 N 
ATOM     33  C   UNL A   1      40.731  24.619  26.708  1.00  0.00     0.251 C 
ATOM     34  H   UNL A   1      40.008  23.174  25.555  1.00  0.00     0.163 HD
ATOM     35  O   UNL A   1      41.886  24.321  26.398  1.00  0.00    -0.269 OA
BRANCH  33  36
ATOM     36  C   UNL A   1      40.495  25.748  27.643  1.00  0.00     0.039 A 
ATOM     37  C   UNL A   1      39.466  25.656  28.588  1.00  0.00     0.014 A 
ATOM     38  C   UNL A   1      41.273  26.899  27.617  1.00  0.00     0.014 A 
ATOM     39  C   UNL A   1      39.310  26.654  29.559  1.00  0.00     0.010 A 
ATOM     40  C   UNL A   1      41.234  27.794  28.678  1.00  0.00     0.010 A 
ATOM     41  C   UNL A   1      40.240  27.700  29.656  1.00  0.00    -0.014 A 
BRANCH  41  42
ATOM     42  C   UNL A   1      40.188  28.722  30.737  1.00  0.00     0.031 A 
ATOM     43  C   UNL A   1      41.084  28.585  31.948  1.00  0.00     0.074 A 
ATOM     44  C   UNL A   1      39.279  29.717  30.679  1.00  0.00     0.049 A 
ATOM     45  N   UNL A   1      41.104  29.292  33.048  1.00  0.00    -0.248 NA
ATOM     46  C   UNL A   1      42.054  27.476  31.942  1.00  0.00     0.031 C 
ATOM     47  C   UNL A   1      38.307  29.921  29.599  1.00  0.00     0.029 A 
ATOM     48  N   UNL A   1      39.014  30.742  31.553  1.00  0.00    -0.354 N 
ATOM     49  C   UNL A   1      42.062  28.698  33.865  1.00  0.00     0.074 A 
ATOM     50  C   UNL A   1      42.543  27.527  33.171  1.00  0.00     0.031 C 
ATOM     51  C   UNL A   1      37.586  31.024  29.855  1.00  0.00     0.029 A 
ATOM     52  C   UNL A   1      38.003  31.578  31.137  1.00  0.00     0.049 A 
ATOM     53  H   UNL A   1      39.503  30.868  32.398  1.00  0.00     0.167 HD
ATOM     54  C   UNL A   1      42.530  29.112  35.066  1.00  0.00     0.037 A 
ATOM     55  C   UNL A   1      37.467  32.665  31.727  1.00  0.00     0.037 A 
ATOM     56  C   UNL A   1      42.084  30.310  35.726  1.00  0.00     0.049 A 
ATOM     57  C   UNL A   1      38.015  33.114  33.056  1.00  0.00     0.074 A 
ATOM     58  C   UNL A   1      42.540  30.859  36.911  1.00  0.00     0.029 A 
ATOM     59  N   UNL A   1      41.086  31.148  35.252  1.00  0.00    -0.354 N 
ATOM     60  N   UNL A   1      38.968  32.577  33.781  1.00  0.00    -0.248 NA
ATOM     61  C   UNL A   1      37.420  34.321  33.646  1.00  0.00     0.031 C 
ATOM     62  C   UNL A   1      41.785  32.005  37.178  1.00  0.00     0.029 A 
ATOM     63  C   UNL A   1      40.898  32.201  36.131  1.00  0.00     0.049 A 
ATOM     64  H   UNL A   1      40.585  31.014  34.415  1.00  0.00     0.167 HD
ATOM     65  C   UNL A   1      39.109  33.398  34.894  1.00  0.00     0.074 A 
ATOM     66  C   UNL A   1      38.153  34.475  34.740  1.00  0.00     0.031 C 
ATOM     67  C   UNL A   1      39.952  33.273  35.950  1.00  0.00     0.037 A 
BRANCH  54  68
ATOM     68  C   UNL A   1      43.597  28.282  35.730  1.00  0.00     0.058 A 
ATOM     69  C   UNL A   1      43.277  27.234  36.610  1.00  0.00     0.135 A 
ATOM     70  C   UNL A   1      44.956  28.503  35.449  1.00  0.00     0.135 A 
ATOM     71  F   UNL A   1      41.996  26.987  36.929  1.00  0.00    -0.206 F 
ATOM     72  C   UNL A   1      44.262  26.456  37.207  1.00  0.00     0.059 A 
ATOM     73  C   UNL A   1      45.957  27.715  36.010  1.00  0.00     0.059 A 
ATOM     74  F   UNL A   1      45.323  29.491  34.619  1.00  0.00    -0.206 F 
ATOM     75  C   UNL A   1      45.601  26.701  36.897  1.00  0.00     0.060 A 
BRANCH  75  76
ATOM     76  S   UNL A   1      46.863  25.662  37.664  1.00  0.00     0.124 S 
ATOM     77  O   UNL A   1      46.129  24.418  37.873  1.00  0.00    -0.237 OA
ATOM     78  O   UNL A   1      47.898  25.622  36.637  1.00  0.00    -0.237 OA
ATOM     79  O   UNL A   1      47.215  26.394  38.878  1.00  0.00    -0.744 OA
ENDBRANCH  75  76
ENDBRANCH  54  68
BRANCH  55  80
ATOM     80  C   UNL A   1      36.373  33.422  31.058  1.00  0.00     0.058 A 
ATOM     81  C   UNL A   1      35.060  33.387  31.555  1.00  0.00     0.135 A 
ATOM     82  C   UNL A   1      36.610  34.190  29.907  1.00  0.00     0.135 A 
ATOM     83  F   UNL A   1      34.779  32.664  32.651  1.00  0.00    -0.206 F 
ATOM     84  C   UNL A   1      34.019  34.057  30.922  1.00  0.00     0.059 A 
ATOM     85  C   UNL A   1      35.590  34.895  29.273  1.00  0.00     0.059 A 
ATOM     86  F   UNL A   1      37.849  34.272  29.396  1.00  0.00    -0.206 F 
ATOM     87  C   UNL A   1      34.294  34.809  29.779  1.00  0.00     0.060 A 
BRANCH  87  88
ATOM     88  S   UNL A   1      32.937  35.690  28.976  1.00  0.00     0.124 S 
ATOM     89  O   UNL A   1      32.107  36.057  30.117  1.00  0.00    -0.237 OA
ATOM     90  O   UNL A   1      33.633  36.788  28.313  1.00  0.00    -0.237 OA
ATOM     91  O   UNL A   1      32.368  34.686  28.080  1.00  0.00    -0.744 OA
ENDBRANCH  87  88
ENDBRANCH  55  80
BRANCH  67  92
ATOM     92  C   UNL A   1      39.913  34.349  36.999  1.00  0.00     0.058 A 
ATOM     93  C   UNL A   1      40.622  35.552  36.853  1.00  0.00     0.135 A 
ATOM     94  C   UNL A   1      39.106  34.196  38.138  1.00  0.00     0.135 A 
ATOM     95  F   UNL A   1      41.411  35.746  35.785  1.00  0.00    -0.206 F 
ATOM     96  C   UNL A   1      40.553  36.554  37.814  1.00  0.00     0.059 A 
ATOM     97  C   UNL A   1      38.996  35.199  39.095  1.00  0.00     0.059 A 
ATOM     98  F   UNL A   1      38.396  33.071  38.319  1.00  0.00    -0.206 F 
ATOM     99  C   UNL A   1      39.734  36.370  38.930  1.00  0.00     0.060 A 
BRANCH  99 100
ATOM    100  S   UNL A   1      39.626  37.696  40.150  1.00  0.00     0.124 S 
ATOM    101  O   UNL A   1      40.990  38.215  40.142  1.00  0.00    -0.237 OA
ATOM    102  O   UNL A   1      38.610  38.569  39.572  1.00  0.00    -0.237 OA
ATOM    103  O   UNL A   1      39.227  37.003  41.372  1.00  0.00    -0.744 OA
ENDBRANCH  99 100
ENDBRANCH  67  92
ENDBRANCH  41  42
ENDBRANCH  33  36
ENDBRANCH  31  32
ENDBRANCH   1  31
TORSDOF 16
ENDMDL
MODEL 3
REMARK VINA RESULT:     -12.8      6.726     12.203
REMARK SMILES CN1C(=O)/C(=C\c2ccc(-c3ccccc3C(=O)NCCCNC(=O)c3ccc(-c4c5nc(c(-c6c(F)cc(S(=O)(=O)[O-])cc6F)c6ccc([nH]6)c(-c6c(F)cc(S(=O)(=O)[O-])cc6F)c6nc(c(-c7c(F)cc(S(=O)(=O)[O-])cc7F)c7ccc4[nH]7)C=C6)C=C5)cc3)o2)C(=O)[NH+]=C1S
REMARK SMILES IDX 21 1 20 2 19 3 17 4 18 5 16 7 11 8 12 9 13 10 15 11 14 12
REMARK SMILES IDX 10 13 7 14 8 15 92 16 9 17 6 18 1 19 2 20 3 21 96 22 4 23
REMARK SMILES IDX 5 24 95 25 93 26 94 28 97 29 22 31 23 32 24 33 25 35 26 36
REMARK SMILES IDX 27 37 91 38 28 39 90 40 29 41 30 42 31 43 84 44 32 45 89 46
REMARK SMILES IDX 83 47 85 48 33 49 88 50 82 51 81 52 34 54 68 55 47 56 67 57
REMARK SMILES IDX 48 58 51 59 66 60 86 61 49 62 50 63 65 65 87 66 52 67 35 68
REMARK SMILES IDX 36 69 45 70 37 71 38 72 44 73 46 74 39 75 40 76 41 77 42 78
REMARK SMILES IDX 43 79 69 80 70 81 79 82 71 83 72 84 78 85 80 86 73 87 74 88
REMARK SMILES IDX 75 89 76 90 77 91 53 92 54 93 63 94 55 95 56 96 62 97 64 98
REMARK SMILES IDX 57 99 58 100 59 101 60 102 61 103
REMARK H PARENT 19 6 95 27 97 30 23 34 85 53 51 64
REMARK Flexibility Score: inf
ROOT
ATOM      1  C   UNL A   1      33.984  28.655  26.926  1.00  0.00     0.042 C 
ENDROOT
BRANCH   1   2
ATOM      2  C   UNL A   1      33.890  28.474  25.431  1.00  0.00     0.118 C 
BRANCH   2   3
ATOM      3  N   UNL A   1      34.080  27.177  24.853  1.00  0.00    -0.352 N 
ATOM      4  C   UNL A   1      33.212  26.492  24.027  1.00  0.00     0.252 C 
ATOM      5  O   UNL A   1      33.667  25.482  23.480  1.00  0.00    -0.269 OA
ATOM      6  H   UNL A   1      34.925  26.723  25.071  1.00  0.00     0.163 HD
BRANCH   4   7
ATOM      7  C   UNL A   1      31.745  26.809  23.826  1.00  0.00     0.050 A 
ATOM      8  C   UNL A   1      30.587  26.144  24.291  1.00  0.00     0.030 A 
ATOM      9  C   UNL A   1      29.312  26.643  23.933  1.00  0.00     0.013 A 
ATOM     10  C   UNL A   1      29.160  27.802  23.177  1.00  0.00     0.001 A 
ATOM     11  C   UNL A   1      31.555  27.991  23.066  1.00  0.00     0.014 A 
ATOM     12  C   UNL A   1      30.287  28.486  22.751  1.00  0.00     0.001 A 
BRANCH   8  13
ATOM     13  C   UNL A   1      30.552  24.972  25.149  1.00  0.00     0.135 A 
ATOM     14  C   UNL A   1      31.172  22.878  25.593  1.00  0.00     0.128 A 
ATOM     15  C   UNL A   1      30.500  23.380  26.705  1.00  0.00     0.051 A 
ATOM     16  O   UNL A   1      31.178  23.866  24.639  1.00  0.00    -0.457 OA
ATOM     17  C   UNL A   1      30.062  24.693  26.403  1.00  0.00     0.051 A 
BRANCH  14  18
ATOM     18  C   UNL A   1      31.801  21.611  25.428  1.00  0.00     0.071 C 
ATOM     19  C   UNL A   1      36.091  23.680  25.699  1.00  0.00     0.301 C 
ATOM     20  N   UNL A   1      35.307  22.460  25.555  1.00  0.00    -0.189 N 
ATOM     21  C   UNL A   1      34.016  22.529  26.016  1.00  0.00     0.349 C 
ATOM     22  C   UNL A   1      35.808  21.239  25.194  1.00  0.00     0.318 C 
ATOM     23  O   UNL A   1      33.644  23.393  26.807  1.00  0.00    -0.240 OA
ATOM     24  C   UNL A   1      33.134  21.453  25.532  1.00  0.00     0.157 C 
ATOM     25  N   UNL A   1      35.115  20.173  25.005  1.00  0.00    -0.200 N 
ATOM     26  C   UNL A   1      33.750  20.191  25.068  1.00  0.00     0.347 C 
ATOM     27  H   UNL A   1      35.577  19.325  24.811  1.00  0.00     0.316 HD
ATOM     28  O   UNL A   1      33.062  19.241  24.709  1.00  0.00    -0.241 OA
BRANCH  22  29
ATOM     29  S   UNL A   1      37.539  21.081  25.015  1.00  0.00    -0.055 SA
ATOM     30  H   UNL A   1      37.845  19.797  24.687  1.00  0.00     0.116 HD
ENDBRANCH  22  29
ENDBRANCH  14  18
ENDBRANCH   8  13
ENDBRANCH   4   7
ENDBRANCH   2   3
ENDBRANCH   1   2
BRANCH   1  31
ATOM     31  C   UNL A   1      35.254  29.305  27.449  1.00  0.00     0.118 C 
BRANCH  31  32
ATOM     32  N   UNL A   1      35.226  29.717  28.854  1.00  0.00    -0.352 N 
ATOM     33  C   UNL A   1      36.200  29.903  29.813  1.00  0.00     0.251 C 
ATOM     34  H   UNL A   1      34.317  29.899  29.185  1.00  0.00     0.163 HD
ATOM     35  O   UNL A   1      35.841  30.178  30.959  1.00  0.00    -0.269 OA
BRANCH  33  36
ATOM     36  C   UNL A   1      37.645  29.730  29.522  1.00  0.00     0.039 A 
ATOM     37  C   UNL A   1      38.513  29.339  30.549  1.00  0.00     0.014 A 
ATOM     38  C   UNL A   1      38.170  29.938  28.252  1.00  0.00     0.014 A 
ATOM     39  C   UNL A   1      39.854  29.049  30.267  1.00  0.00     0.010 A 
ATOM     40  C   UNL A   1      39.444  29.483  27.938  1.00  0.00     0.010 A 
ATOM     41  C   UNL A   1      40.316  29.051  28.942  1.00  0.00    -0.014 A 
BRANCH  41  42
ATOM     42  C   UNL A   1      41.698  28.641  28.573  1.00  0.00     0.031 A 
ATOM     43  C   UNL A   1      42.803  29.671  28.525  1.00  0.00     0.074 A 
ATOM     44  C   UNL A   1      41.943  27.369  28.194  1.00  0.00     0.049 A 
ATOM     45  N   UNL A   1      44.038  29.545  28.110  1.00  0.00    -0.248 NA
ATOM     46  C   UNL A   1      42.464  31.039  28.956  1.00  0.00     0.031 C 
ATOM     47  C   UNL A   1      40.949  26.293  28.127  1.00  0.00     0.029 A 
ATOM     48  N   UNL A   1      43.105  26.765  27.781  1.00  0.00    -0.354 N 
ATOM     49  C   UNL A   1      44.604  30.813  28.206  1.00  0.00     0.074 A 
ATOM     50  C   UNL A   1      43.560  31.711  28.639  1.00  0.00     0.031 C 
ATOM     51  C   UNL A   1      41.552  25.157  27.742  1.00  0.00     0.029 A 
ATOM     52  C   UNL A   1      42.960  25.429  27.483  1.00  0.00     0.049 A 
ATOM     53  H   UNL A   1      43.963  27.242  27.706  1.00  0.00     0.167 HD
ATOM     54  C   UNL A   1      45.887  31.190  27.993  1.00  0.00     0.037 A 
ATOM     55  C   UNL A   1      43.859  24.526  27.044  1.00  0.00     0.037 A 
ATOM     56  C   UNL A   1      46.933  30.278  27.614  1.00  0.00     0.049 A 
ATOM     57  C   UNL A   1      45.283  24.967  26.829  1.00  0.00     0.074 A 
ATOM     58  C   UNL A   1      48.280  30.540  27.440  1.00  0.00     0.029 A 
ATOM     59  N   UNL A   1      46.751  28.927  27.360  1.00  0.00    -0.354 N 
ATOM     60  N   UNL A   1      45.814  26.156  26.990  1.00  0.00    -0.248 NA
ATOM     61  C   UNL A   1      46.234  23.942  26.378  1.00  0.00     0.031 C 
ATOM     62  C   UNL A   1      48.905  29.358  27.035  1.00  0.00     0.029 A 
ATOM     63  C   UNL A   1      47.958  28.345  27.012  1.00  0.00     0.049 A 
ATOM     64  H   UNL A   1      45.890  28.452  27.419  1.00  0.00     0.167 HD
ATOM     65  C   UNL A   1      47.165  26.015  26.694  1.00  0.00     0.074 A 
ATOM     66  C   UNL A   1      47.372  24.622  26.357  1.00  0.00     0.031 C 
ATOM     67  C   UNL A   1      48.146  26.951  26.698  1.00  0.00     0.037 A 
BRANCH  54  68
ATOM     68  C   UNL A   1      46.237  32.641  28.193  1.00  0.00     0.058 A 
ATOM     69  C   UNL A   1      46.727  33.121  29.419  1.00  0.00     0.135 A 
ATOM     70  C   UNL A   1      46.126  33.557  27.133  1.00  0.00     0.135 A 
ATOM     71  F   UNL A   1      46.837  32.295  30.472  1.00  0.00    -0.206 F 
ATOM     72  C   UNL A   1      47.067  34.457  29.596  1.00  0.00     0.059 A 
ATOM     73  C   UNL A   1      46.493  34.893  27.279  1.00  0.00     0.059 A 
ATOM     74  F   UNL A   1      45.661  33.158  25.939  1.00  0.00    -0.206 F 
ATOM     75  C   UNL A   1      46.951  35.336  28.518  1.00  0.00     0.060 A 
BRANCH  75  76
ATOM     76  S   UNL A   1      47.422  37.061  28.763  1.00  0.00     0.124 S 
ATOM     77  O   UNL A   1      47.385  37.570  27.395  1.00  0.00    -0.237 OA
ATOM     78  O   UNL A   1      46.369  37.548  29.649  1.00  0.00    -0.237 OA
ATOM     79  O   UNL A   1      48.750  36.970  29.362  1.00  0.00    -0.744 OA
ENDBRANCH  75  76
ENDBRANCH  54  68
BRANCH  55  80
ATOM     80  C   UNL A   1      43.452  23.114  26.806  1.00  0.00     0.058 A 
ATOM     81  C   UNL A   1      43.172  22.252  27.878  1.00  0.00     0.135 A 
ATOM     82  C   UNL A   1      43.340  22.592  25.507  1.00  0.00     0.135 A 
ATOM     83  F   UNL A   1      43.269  22.699  29.140  1.00  0.00    -0.206 F 
ATOM     84  C   UNL A   1      42.827  20.920  27.675  1.00  0.00     0.059 A 
ATOM     85  C   UNL A   1      42.965  21.271  25.278  1.00  0.00     0.059 A 
ATOM     86  F   UNL A   1      43.580  23.376  24.444  1.00  0.00    -0.206 F 
ATOM     87  C   UNL A   1      42.726  20.438  26.369  1.00  0.00     0.060 A 
BRANCH  87  88
ATOM     88  S   UNL A   1      42.260  18.711  26.118  1.00  0.00     0.124 S 
ATOM     89  O   UNL A   1      40.860  18.837  25.727  1.00  0.00    -0.237 OA
ATOM     90  O   UNL A   1      43.181  18.293  25.067  1.00  0.00    -0.237 OA
ATOM     91  O   UNL A   1      42.496  18.105  27.426  1.00  0.00    -0.744 OA
ENDBRANCH  87  88
ENDBRANCH  55  80
BRANCH  67  92
ATOM     92  C   UNL A   1      49.541  26.496  26.372  1.00  0.00     0.058 A 
ATOM     93  C   UNL A   1      50.096  26.665  25.095  1.00  0.00     0.135 A 
ATOM     94  C   UNL A   1      50.352  25.936  27.373  1.00  0.00     0.135 A 
ATOM     95  F   UNL A   1      49.360  27.190  24.102  1.00  0.00    -0.206 F 
ATOM     96  C   UNL A   1      51.399  26.269  24.813  1.00  0.00     0.059 A 
ATOM     97  C   UNL A   1      51.669  25.565  27.121  1.00  0.00     0.059 A 
ATOM     98  F   UNL A   1      49.875  25.765  28.616  1.00  0.00    -0.206 F 
ATOM     99  C   UNL A   1      52.179  25.724  25.834  1.00  0.00     0.060 A 
BRANCH  99 100
ATOM    100  S   UNL A   1      53.881  25.250  25.462  1.00  0.00     0.124 S 
ATOM    101  O   UNL A   1      53.809  23.796  25.558  1.00  0.00    -0.237 OA
ATOM    102  O   UNL A   1      54.067  25.790  24.119  1.00  0.00    -0.237 OA
ATOM    103  O   UNL A   1      54.655  25.910  26.509  1.00  0.00    -0.744 OA
ENDBRANCH  99 100
ENDBRANCH  67  92
ENDBRANCH  41  42
ENDBRANCH  33  36
ENDBRANCH  31  32
ENDBRANCH   1  31
TORSDOF 16
ENDMDL
