MODEL 1
REMARK VINA RESULT:     -13.0      0.000      0.000
REMARK SMILES CCCSc1nc2n(n1)[C@@H](c1ccccc1C(=O)NCCCNC(=O)c1ccc(-c3c4nc(c(-c5c(F)cc(S(=O)(=O)[O-])cc5F)c5ccc([nH]5)c(-c5c(F)cc(S(=O)(=O)[O-])cc5F)c5nc(c(-c6c(F)cc(S(=O)(=O)[O-])cc6F)c6ccc3[nH]6)C=C5)C=C4)cc1)C(C(=O)Nc1cccc(C)c1C)=C(C)N2
REMARK SMILES IDX 20 1 19 2 17 3 18 4 16 6 11 7 12 8 13 9 15 10 14 11 10 12
REMARK SMILES IDX 5 13 6 14 9 15 7 16 8 17 106 18 104 19 92 21 105 22 4 23
REMARK SMILES IDX 3 24 2 25 1 26 93 27 94 28 95 29 96 31 97 32 102 33 98 34
REMARK SMILES IDX 100 35 103 36 99 37 101 38 21 39 22 40 23 41 24 42 25 44
REMARK SMILES IDX 26 45 27 46 91 47 28 48 90 49 29 50 30 51 31 52 84 53 32 54
REMARK SMILES IDX 89 55 83 56 85 57 33 58 88 59 82 60 81 61 34 63 68 64 47 65
REMARK SMILES IDX 67 66 48 67 51 68 66 69 86 70 49 71 50 72 65 74 87 75 52 76
REMARK SMILES IDX 35 77 36 78 45 79 37 80 38 81 44 82 46 83 39 84 40 85 41 86
REMARK SMILES IDX 42 87 43 88 69 89 70 90 79 91 71 92 72 93 78 94 80 95 73 96
REMARK SMILES IDX 74 97 75 98 76 99 77 100 53 101 54 102 63 103 55 104 56 105
REMARK SMILES IDX 62 106 64 107 57 108 58 109 59 110 60 111 61 112
REMARK H PARENT 19 5 106 20 95 30 23 43 85 62 51 73
REMARK Flexibility Score: inf
ROOT
ATOM      1  C   UNL A   1      36.614  22.652  23.276  1.00  0.00     0.118 C 
ENDROOT
BRANCH   1   2
ATOM      2  N   UNL A   1      35.159  22.751  23.402  1.00  0.00    -0.352 N 
ATOM      3  C   UNL A   1      34.357  23.517  24.213  1.00  0.00     0.251 C 
ATOM      4  O   UNL A   1      33.659  24.341  23.615  1.00  0.00    -0.269 OA
ATOM      5  H   UNL A   1      34.664  22.159  22.791  1.00  0.00     0.163 HD
BRANCH   3   6
ATOM      6  C   UNL A   1      34.019  23.195  25.654  1.00  0.00     0.045 A 
ATOM      7  C   UNL A   1      32.807  22.769  26.248  1.00  0.00    -0.006 A 
ATOM      8  C   UNL A   1      32.800  22.497  27.650  1.00  0.00     0.007 A 
ATOM      9  C   UNL A   1      33.937  22.614  28.444  1.00  0.00     0.000 A 
ATOM     10  C   UNL A   1      35.165  23.274  26.495  1.00  0.00     0.014 A 
ATOM     11  C   UNL A   1      35.131  22.985  27.860  1.00  0.00     0.001 A 
BRANCH   7  12
ATOM     12  C   UNL A   1      31.539  22.422  25.472  1.00  0.00     0.180 C 
ATOM     13  C   UNL A   1      32.431  19.788  23.323  1.00  0.00     0.210 A 
ATOM     14  N   UNL A   1      31.929  20.634  22.366  1.00  0.00    -0.185 NA
ATOM     15  N   UNL A   1      32.362  20.235  24.582  1.00  0.00    -0.141 NA
ATOM     16  C   UNL A   1      31.569  21.680  23.066  1.00  0.00     0.227 A 
ATOM     17  N   UNL A   1      31.815  21.452  24.392  1.00  0.00    -0.218 N 
ATOM     18  N   UNL A   1      31.059  22.867  22.690  1.00  0.00    -0.328 N 
ATOM     19  C   UNL A   1      30.692  23.865  23.587  1.00  0.00     0.026 C 
ATOM     20  H   UNL A   1      30.941  23.039  21.728  1.00  0.00     0.169 HD
ATOM     21  C   UNL A   1      30.801  23.651  24.920  1.00  0.00     0.065 C 
ATOM     22  C   UNL A   1      30.205  25.147  22.963  1.00  0.00     0.065 C 
BRANCH  13  23
ATOM     23  S   UNL A   1      33.230  18.292  22.943  1.00  0.00    -0.084 SA
BRANCH  23  24
ATOM     24  C   UNL A   1      34.120  17.953  24.487  1.00  0.00     0.078 C 
BRANCH  24  25
ATOM     25  C   UNL A   1      34.298  16.462  24.783  1.00  0.00     0.008 C 
ATOM     26  C   UNL A   1      33.051  15.787  25.333  1.00  0.00     0.005 C 
ENDBRANCH  24  25
ENDBRANCH  23  24
ENDBRANCH  13  23
BRANCH  21  27
ATOM     27  C   UNL A   1      30.307  24.593  25.951  1.00  0.00     0.255 C 
ATOM     28  O   UNL A   1      29.660  24.159  26.903  1.00  0.00    -0.269 OA
ATOM     29  N   UNL A   1      30.455  25.953  25.844  1.00  0.00    -0.322 N 
ATOM     30  H   UNL A   1      29.653  26.498  26.013  1.00  0.00     0.170 HD
BRANCH  29  31
ATOM     31  C   UNL A   1      31.636  26.655  25.519  1.00  0.00     0.044 A 
ATOM     32  C   UNL A   1      32.744  26.314  26.312  1.00  0.00     0.026 A 
ATOM     33  C   UNL A   1      31.780  27.596  24.484  1.00  0.00    -0.025 A 
ATOM     34  C   UNL A   1      34.013  26.791  26.009  1.00  0.00     0.002 A 
ATOM     35  C   UNL A   1      33.080  28.072  24.170  1.00  0.00    -0.046 A 
ATOM     36  C   UNL A   1      30.602  28.189  23.766  1.00  0.00     0.047 C 
ATOM     37  C   UNL A   1      34.184  27.638  24.924  1.00  0.00     0.004 A 
ATOM     38  C   UNL A   1      33.357  28.978  22.998  1.00  0.00     0.044 C 
ENDBRANCH  29  31
ENDBRANCH  21  27
ENDBRANCH   7  12
ENDBRANCH   3   6
ENDBRANCH   1   2
BRANCH   1  39
ATOM     39  C   UNL A   1      37.208  21.906  24.474  1.00  0.00     0.042 C 
BRANCH  39  40
ATOM     40  C   UNL A   1      38.191  22.714  25.317  1.00  0.00     0.118 C 
BRANCH  40  41
ATOM     41  N   UNL A   1      38.715  22.008  26.484  1.00  0.00    -0.352 N 
ATOM     42  C   UNL A   1      39.845  22.340  27.227  1.00  0.00     0.251 C 
ATOM     43  H   UNL A   1      38.215  21.211  26.778  1.00  0.00     0.163 HD
ATOM     44  O   UNL A   1      40.460  21.505  27.861  1.00  0.00    -0.269 OA
BRANCH  42  45
ATOM     45  C   UNL A   1      40.249  23.756  27.228  1.00  0.00     0.039 A 
ATOM     46  C   UNL A   1      39.329  24.776  26.979  1.00  0.00     0.014 A 
ATOM     47  C   UNL A   1      41.528  24.028  27.699  1.00  0.00     0.014 A 
ATOM     48  C   UNL A   1      39.654  26.073  27.376  1.00  0.00     0.010 A 
ATOM     49  C   UNL A   1      41.785  25.278  28.210  1.00  0.00     0.010 A 
ATOM     50  C   UNL A   1      40.854  26.310  28.069  1.00  0.00    -0.014 A 
BRANCH  50  51
ATOM     51  C   UNL A   1      41.029  27.555  28.828  1.00  0.00     0.031 A 
ATOM     52  C   UNL A   1      42.079  28.496  28.319  1.00  0.00     0.074 A 
ATOM     53  C   UNL A   1      40.150  28.023  29.740  1.00  0.00     0.049 A 
ATOM     54  N   UNL A   1      43.173  28.869  28.901  1.00  0.00    -0.248 NA
ATOM     55  C   UNL A   1      41.931  29.027  26.954  1.00  0.00     0.031 C 
ATOM     56  C   UNL A   1      38.867  27.452  30.162  1.00  0.00     0.029 A 
ATOM     57  N   UNL A   1      40.178  29.215  30.398  1.00  0.00    -0.354 N 
ATOM     58  C   UNL A   1      43.758  29.826  28.072  1.00  0.00     0.074 A 
ATOM     59  C   UNL A   1      43.037  29.765  26.827  1.00  0.00     0.031 C 
ATOM     60  C   UNL A   1      38.138  28.397  30.792  1.00  0.00     0.029 A 
ATOM     61  C   UNL A   1      38.980  29.559  31.000  1.00  0.00     0.049 A 
ATOM     62  H   UNL A   1      40.981  29.784  30.441  1.00  0.00     0.167 HD
ATOM     63  C   UNL A   1      44.667  30.734  28.539  1.00  0.00     0.037 A 
ATOM     64  C   UNL A   1      38.686  30.719  31.630  1.00  0.00     0.037 A 
ATOM     65  C   UNL A   1      45.144  30.371  29.850  1.00  0.00     0.049 A 
ATOM     66  C   UNL A   1      39.975  31.326  32.046  1.00  0.00     0.074 A 
ATOM     67  C   UNL A   1      45.790  29.275  30.386  1.00  0.00     0.029 A 
ATOM     68  N   UNL A   1      44.643  31.065  30.925  1.00  0.00    -0.354 N 
ATOM     69  N   UNL A   1      40.783  30.789  32.922  1.00  0.00    -0.248 NA
ATOM     70  C   UNL A   1      40.575  32.334  31.189  1.00  0.00     0.031 C 
ATOM     71  C   UNL A   1      45.207  29.101  31.677  1.00  0.00     0.029 A 
ATOM     72  C   UNL A   1      44.285  30.133  31.868  1.00  0.00     0.049 A 
ATOM     73  H   UNL A   1      44.556  32.042  31.005  1.00  0.00     0.167 HD
ATOM     74  C   UNL A   1      42.058  31.071  32.452  1.00  0.00     0.074 A 
ATOM     75  C   UNL A   1      41.866  32.124  31.460  1.00  0.00     0.031 C 
ATOM     76  C   UNL A   1      43.112  30.239  32.711  1.00  0.00     0.037 A 
BRANCH  63  77
ATOM     77  C   UNL A   1      44.895  32.120  27.974  1.00  0.00     0.058 A 
ATOM     78  C   UNL A   1      46.163  32.462  27.453  1.00  0.00     0.135 A 
ATOM     79  C   UNL A   1      44.016  33.205  28.183  1.00  0.00     0.135 A 
ATOM     80  F   UNL A   1      47.082  31.513  27.214  1.00  0.00    -0.206 F 
ATOM     81  C   UNL A   1      46.557  33.785  27.237  1.00  0.00     0.059 A 
ATOM     82  C   UNL A   1      44.368  34.527  27.922  1.00  0.00     0.059 A 
ATOM     83  F   UNL A   1      42.813  33.047  28.745  1.00  0.00    -0.206 F 
ATOM     84  C   UNL A   1      45.657  34.813  27.499  1.00  0.00     0.060 A 
BRANCH  84  85
ATOM     85  S   UNL A   1      46.200  36.526  27.364  1.00  0.00     0.124 S 
ATOM     86  O   UNL A   1      44.928  37.236  27.432  1.00  0.00    -0.237 OA
ATOM     87  O   UNL A   1      47.073  36.665  28.524  1.00  0.00    -0.237 OA
ATOM     88  O   UNL A   1      46.876  36.560  26.070  1.00  0.00    -0.744 OA
ENDBRANCH  84  85
ENDBRANCH  63  77
BRANCH  64  89
ATOM     89  C   UNL A   1      37.384  31.425  31.660  1.00  0.00     0.058 A 
ATOM     90  C   UNL A   1      36.731  31.700  32.871  1.00  0.00     0.135 A 
ATOM     91  C   UNL A   1      36.877  32.072  30.513  1.00  0.00     0.135 A 
ATOM     92  F   UNL A   1      37.161  31.141  34.011  1.00  0.00    -0.206 F 
ATOM     93  C   UNL A   1      35.666  32.602  32.950  1.00  0.00     0.059 A 
ATOM     94  C   UNL A   1      35.810  32.965  30.564  1.00  0.00     0.059 A 
ATOM     95  F   UNL A   1      37.468  31.924  29.316  1.00  0.00    -0.206 F 
ATOM     96  C   UNL A   1      35.225  33.247  31.793  1.00  0.00     0.060 A 
BRANCH  96  97
ATOM     97  S   UNL A   1      33.982  34.551  31.928  1.00  0.00     0.124 S 
ATOM     98  O   UNL A   1      33.486  34.635  30.558  1.00  0.00    -0.237 OA
ATOM     99  O   UNL A   1      33.057  33.993  32.908  1.00  0.00    -0.237 OA
ATOM    100  O   UNL A   1      34.749  35.706  32.387  1.00  0.00    -0.744 OA
ENDBRANCH  96  97
ENDBRANCH  64  89
BRANCH  76 101
ATOM    101  C   UNL A   1      42.950  29.179  33.773  1.00  0.00     0.058 A 
ATOM    102  C   UNL A   1      43.113  29.407  35.151  1.00  0.00     0.135 A 
ATOM    103  C   UNL A   1      42.447  27.925  33.393  1.00  0.00     0.135 A 
ATOM    104  F   UNL A   1      43.483  30.606  35.614  1.00  0.00    -0.206 F 
ATOM    105  C   UNL A   1      42.830  28.424  36.102  1.00  0.00     0.059 A 
ATOM    106  C   UNL A   1      42.128  26.940  34.326  1.00  0.00     0.059 A 
ATOM    107  F   UNL A   1      42.204  27.664  32.098  1.00  0.00    -0.206 F 
ATOM    108  C   UNL A   1      42.333  27.193  35.680  1.00  0.00     0.060 A 
BRANCH 108 109
ATOM    109  S   UNL A   1      41.881  25.960  36.919  1.00  0.00     0.124 S 
ATOM    110  O   UNL A   1      42.940  26.117  37.911  1.00  0.00    -0.237 OA
ATOM    111  O   UNL A   1      40.552  26.398  37.336  1.00  0.00    -0.237 OA
ATOM    112  O   UNL A   1      41.906  24.703  36.174  1.00  0.00    -0.744 OA
ENDBRANCH 108 109
ENDBRANCH  76 101
ENDBRANCH  50  51
ENDBRANCH  42  45
ENDBRANCH  40  41
ENDBRANCH  39  40
ENDBRANCH   1  39
TORSDOF 19
ENDMDL
MODEL 2
REMARK VINA RESULT:     -11.9      1.688      4.021
REMARK SMILES CCCSc1nc2n(n1)[C@@H](c1ccccc1C(=O)NCCCNC(=O)c1ccc(-c3c4nc(c(-c5c(F)cc(S(=O)(=O)[O-])cc5F)c5ccc([nH]5)c(-c5c(F)cc(S(=O)(=O)[O-])cc5F)c5nc(c(-c6c(F)cc(S(=O)(=O)[O-])cc6F)c6ccc3[nH]6)C=C5)C=C4)cc1)C(C(=O)Nc1cccc(C)c1C)=C(C)N2
REMARK SMILES IDX 20 1 19 2 17 3 18 4 16 6 11 7 12 8 13 9 15 10 14 11 10 12
REMARK SMILES IDX 5 13 6 14 9 15 7 16 8 17 106 18 104 19 92 21 105 22 4 23
REMARK SMILES IDX 3 24 2 25 1 26 93 27 94 28 95 29 96 31 97 32 102 33 98 34
REMARK SMILES IDX 100 35 103 36 99 37 101 38 21 39 22 40 23 41 24 42 25 44
REMARK SMILES IDX 26 45 27 46 91 47 28 48 90 49 29 50 30 51 31 52 84 53 32 54
REMARK SMILES IDX 89 55 83 56 85 57 33 58 88 59 82 60 81 61 34 63 68 64 47 65
REMARK SMILES IDX 67 66 48 67 51 68 66 69 86 70 49 71 50 72 65 74 87 75 52 76
REMARK SMILES IDX 35 77 36 78 45 79 37 80 38 81 44 82 46 83 39 84 40 85 41 86
REMARK SMILES IDX 42 87 43 88 69 89 70 90 79 91 71 92 72 93 78 94 80 95 73 96
REMARK SMILES IDX 74 97 75 98 76 99 77 100 53 101 54 102 63 103 55 104 56 105
REMARK SMILES IDX 62 106 64 107 57 108 58 109 59 110 60 111 61 112
REMARK H PARENT 19 5 106 20 95 30 23 43 85 62 51 73
REMARK Flexibility Score: inf
ROOT
ATOM      1  C   UNL A   1      36.294  24.369  25.731  1.00  0.00     0.118 C 
ENDROOT
BRANCH   1   2
ATOM      2  N   UNL A   1      35.090  24.686  24.961  1.00  0.00    -0.352 N 
ATOM      3  C   UNL A   1      34.483  25.879  24.654  1.00  0.00     0.251 C 
ATOM      4  O   UNL A   1      34.476  26.160  23.452  1.00  0.00    -0.269 OA
ATOM      5  H   UNL A   1      34.631  23.896  24.594  1.00  0.00     0.163 HD
BRANCH   3   6
ATOM      6  C   UNL A   1      33.561  26.648  25.579  1.00  0.00     0.045 A 
ATOM      7  C   UNL A   1      32.162  26.558  25.777  1.00  0.00    -0.006 A 
ATOM      8  C   UNL A   1      31.565  27.397  26.766  1.00  0.00     0.007 A 
ATOM      9  C   UNL A   1      32.303  28.276  27.552  1.00  0.00     0.000 A 
ATOM     10  C   UNL A   1      34.283  27.538  26.423  1.00  0.00     0.014 A 
ATOM     11  C   UNL A   1      33.672  28.333  27.394  1.00  0.00     0.001 A 
BRANCH   7  12
ATOM     12  C   UNL A   1      31.262  25.515  25.120  1.00  0.00     0.180 C 
ATOM     13  C   UNL A   1      28.705  27.330  23.532  1.00  0.00     0.210 A 
ATOM     14  N   UNL A   1      27.900  26.511  24.283  1.00  0.00    -0.185 NA
ATOM     15  N   UNL A   1      30.021  27.119  23.657  1.00  0.00    -0.141 NA
ATOM     16  C   UNL A   1      28.764  25.781  24.942  1.00  0.00     0.227 A 
ATOM     17  N   UNL A   1      30.034  26.128  24.571  1.00  0.00    -0.218 N 
ATOM     18  N   UNL A   1      28.593  24.834  25.880  1.00  0.00    -0.328 N 
ATOM     19  C   UNL A   1      29.641  24.121  26.454  1.00  0.00     0.026 C 
ATOM     20  H   UNL A   1      27.676  24.634  26.179  1.00  0.00     0.169 HD
ATOM     21  C   UNL A   1      30.913  24.337  26.042  1.00  0.00     0.065 C 
ATOM     22  C   UNL A   1      29.246  23.151  27.537  1.00  0.00     0.065 C 
BRANCH  13  23
ATOM     23  S   UNL A   1      28.094  28.649  22.578  1.00  0.00    -0.084 SA
BRANCH  23  24
ATOM     24  C   UNL A   1      29.191  30.002  23.084  1.00  0.00     0.078 C 
BRANCH  24  25
ATOM     25  C   UNL A   1      30.407  29.543  23.892  1.00  0.00     0.008 C 
ATOM     26  C   UNL A   1      30.862  30.540  24.945  1.00  0.00     0.005 C 
ENDBRANCH  24  25
ENDBRANCH  23  24
ENDBRANCH  13  23
BRANCH  21  27
ATOM     27  C   UNL A   1      32.074  23.533  26.489  1.00  0.00     0.255 C 
ATOM     28  O   UNL A   1      32.373  23.516  27.681  1.00  0.00    -0.269 OA
ATOM     29  N   UNL A   1      32.901  22.876  25.612  1.00  0.00    -0.322 N 
ATOM     30  H   UNL A   1      33.868  22.999  25.743  1.00  0.00     0.170 HD
BRANCH  29  31
ATOM     31  C   UNL A   1      32.511  22.041  24.543  1.00  0.00     0.044 A 
ATOM     32  C   UNL A   1      32.087  22.733  23.397  1.00  0.00     0.026 A 
ATOM     33  C   UNL A   1      32.553  20.635  24.534  1.00  0.00    -0.025 A 
ATOM     34  C   UNL A   1      31.833  22.061  22.209  1.00  0.00     0.002 A 
ATOM     35  C   UNL A   1      32.304  19.952  23.315  1.00  0.00    -0.046 A 
ATOM     36  C   UNL A   1      32.754  19.828  25.785  1.00  0.00     0.047 C 
ATOM     37  C   UNL A   1      31.973  20.681  22.160  1.00  0.00     0.004 A 
ATOM     38  C   UNL A   1      32.453  18.459  23.171  1.00  0.00     0.044 C 
ENDBRANCH  29  31
ENDBRANCH  21  27
ENDBRANCH   7  12
ENDBRANCH   3   6
ENDBRANCH   1   2
BRANCH   1  39
ATOM     39  C   UNL A   1      36.791  22.960  25.397  1.00  0.00     0.042 C 
BRANCH  39  40
ATOM     40  C   UNL A   1      38.307  22.786  25.423  1.00  0.00     0.118 C 
BRANCH  40  41
ATOM     41  N   UNL A   1      38.816  22.060  26.585  1.00  0.00    -0.352 N 
ATOM     42  C   UNL A   1      39.952  22.363  27.330  1.00  0.00     0.251 C 
ATOM     43  H   UNL A   1      38.300  21.272  26.873  1.00  0.00     0.163 HD
ATOM     44  O   UNL A   1      40.550  21.512  27.959  1.00  0.00    -0.269 OA
BRANCH  42  45
ATOM     45  C   UNL A   1      40.385  23.772  27.343  1.00  0.00     0.039 A 
ATOM     46  C   UNL A   1      39.501  24.808  27.038  1.00  0.00     0.014 A 
ATOM     47  C   UNL A   1      41.642  24.021  27.879  1.00  0.00     0.014 A 
ATOM     48  C   UNL A   1      39.831  26.101  27.442  1.00  0.00     0.010 A 
ATOM     49  C   UNL A   1      41.898  25.270  28.394  1.00  0.00     0.010 A 
ATOM     50  C   UNL A   1      40.997  26.319  28.195  1.00  0.00    -0.014 A 
BRANCH  50  51
ATOM     51  C   UNL A   1      41.158  27.567  28.954  1.00  0.00     0.031 A 
ATOM     52  C   UNL A   1      42.207  28.513  28.453  1.00  0.00     0.074 A 
ATOM     53  C   UNL A   1      40.267  28.032  29.856  1.00  0.00     0.049 A 
ATOM     54  N   UNL A   1      43.293  28.893  29.045  1.00  0.00    -0.248 NA
ATOM     55  C   UNL A   1      42.069  29.040  27.086  1.00  0.00     0.031 C 
ATOM     56  C   UNL A   1      38.983  27.454  30.266  1.00  0.00     0.029 A 
ATOM     57  N   UNL A   1      40.281  29.226  30.511  1.00  0.00    -0.354 N 
ATOM     58  C   UNL A   1      43.881  29.852  28.220  1.00  0.00     0.074 A 
ATOM     59  C   UNL A   1      43.173  29.784  26.968  1.00  0.00     0.031 C 
ATOM     60  C   UNL A   1      38.242  28.396  30.887  1.00  0.00     0.029 A 
ATOM     61  C   UNL A   1      39.075  29.564  31.101  1.00  0.00     0.049 A 
ATOM     62  H   UNL A   1      41.081  29.799  30.561  1.00  0.00     0.167 HD
ATOM     63  C   UNL A   1      44.780  30.766  28.693  1.00  0.00     0.037 A 
ATOM     64  C   UNL A   1      38.768  30.723  31.725  1.00  0.00     0.037 A 
ATOM     65  C   UNL A   1      45.246  30.409  30.010  1.00  0.00     0.049 A 
ATOM     66  C   UNL A   1      40.050  31.339  32.153  1.00  0.00     0.074 A 
ATOM     67  C   UNL A   1      45.893  29.318  30.555  1.00  0.00     0.029 A 
ATOM     68  N   UNL A   1      44.730  31.102  31.079  1.00  0.00    -0.354 N 
ATOM     69  N   UNL A   1      40.853  30.808  33.037  1.00  0.00    -0.248 NA
ATOM     70  C   UNL A   1      40.653  32.349  31.299  1.00  0.00     0.031 C 
ATOM     71  C   UNL A   1      45.298  29.144  31.840  1.00  0.00     0.029 A 
ATOM     72  C   UNL A   1      44.368  30.171  32.020  1.00  0.00     0.049 A 
ATOM     73  H   UNL A   1      44.637  32.079  31.156  1.00  0.00     0.167 HD
ATOM     74  C   UNL A   1      42.130  31.096  32.580  1.00  0.00     0.074 A 
ATOM     75  C   UNL A   1      41.942  32.147  31.584  1.00  0.00     0.031 C 
ATOM     76  C   UNL A   1      43.186  30.271  32.851  1.00  0.00     0.037 A 
BRANCH  63  77
ATOM     77  C   UNL A   1      45.006  32.153  28.128  1.00  0.00     0.058 A 
ATOM     78  C   UNL A   1      46.295  32.525  27.684  1.00  0.00     0.135 A 
ATOM     79  C   UNL A   1      44.086  33.214  28.268  1.00  0.00     0.135 A 
ATOM     80  F   UNL A   1      47.253  31.599  27.515  1.00  0.00    -0.206 F 
ATOM     81  C   UNL A   1      46.665  33.856  27.479  1.00  0.00     0.059 A 
ATOM     82  C   UNL A   1      44.417  34.543  28.014  1.00  0.00     0.059 A 
ATOM     83  F   UNL A   1      42.854  33.028  28.755  1.00  0.00    -0.206 F 
ATOM     84  C   UNL A   1      45.722  34.861  27.671  1.00  0.00     0.060 A 
BRANCH  84  85
ATOM     85  S   UNL A   1      46.226  36.587  27.550  1.00  0.00     0.124 S 
ATOM     86  O   UNL A   1      46.443  36.722  26.114  1.00  0.00    -0.237 OA
ATOM     87  O   UNL A   1      45.064  37.285  28.090  1.00  0.00    -0.237 OA
ATOM     88  O   UNL A   1      47.425  36.643  28.379  1.00  0.00    -0.744 OA
ENDBRANCH  84  85
ENDBRANCH  63  77
BRANCH  64  89
ATOM     89  C   UNL A   1      37.462  31.422  31.741  1.00  0.00     0.058 A 
ATOM     90  C   UNL A   1      36.780  31.667  32.942  1.00  0.00     0.135 A 
ATOM     91  C   UNL A   1      36.979  32.092  30.597  1.00  0.00     0.135 A 
ATOM     92  F   UNL A   1      37.187  31.085  34.079  1.00  0.00    -0.206 F 
ATOM     93  C   UNL A   1      35.708  32.562  33.016  1.00  0.00     0.059 A 
ATOM     94  C   UNL A   1      35.905  32.977  30.643  1.00  0.00     0.059 A 
ATOM     95  F   UNL A   1      37.597  31.973  29.411  1.00  0.00    -0.206 F 
ATOM     96  C   UNL A   1      35.291  33.229  31.864  1.00  0.00     0.060 A 
BRANCH  96  97
ATOM     97  S   UNL A   1      34.038  34.524  31.998  1.00  0.00     0.124 S 
ATOM     98  O   UNL A   1      33.112  33.945  32.966  1.00  0.00    -0.237 OA
ATOM     99  O   UNL A   1      34.821  35.662  32.466  1.00  0.00    -0.237 OA
ATOM    100  O   UNL A   1      33.524  34.642  30.636  1.00  0.00    -0.744 OA
ENDBRANCH  96  97
ENDBRANCH  64  89
BRANCH  76 101
ATOM    101  C   UNL A   1      43.020  29.213  33.914  1.00  0.00     0.058 A 
ATOM    102  C   UNL A   1      43.165  29.445  35.293  1.00  0.00     0.135 A 
ATOM    103  C   UNL A   1      42.531  27.954  33.531  1.00  0.00     0.135 A 
ATOM    104  F   UNL A   1      43.520  30.649  35.758  1.00  0.00    -0.206 F 
ATOM    105  C   UNL A   1      42.878  28.463  36.243  1.00  0.00     0.059 A 
ATOM    106  C   UNL A   1      42.209  26.969  34.462  1.00  0.00     0.059 A 
ATOM    107  F   UNL A   1      42.306  27.687  32.234  1.00  0.00    -0.206 F 
ATOM    108  C   UNL A   1      42.396  27.226  35.818  1.00  0.00     0.060 A 
BRANCH 108 109
ATOM    109  S   UNL A   1      41.938  25.993  37.055  1.00  0.00     0.124 S 
ATOM    110  O   UNL A   1      42.087  24.745  36.314  1.00  0.00    -0.237 OA
ATOM    111  O   UNL A   1      42.918  26.222  38.114  1.00  0.00    -0.237 OA
ATOM    112  O   UNL A   1      40.566  26.353  37.403  1.00  0.00    -0.744 OA
ENDBRANCH 108 109
ENDBRANCH  76 101
ENDBRANCH  50  51
ENDBRANCH  42  45
ENDBRANCH  40  41
ENDBRANCH  39  40
ENDBRANCH   1  39
TORSDOF 19
ENDMDL
MODEL 3
REMARK VINA RESULT:     -11.6      1.288      2.050
REMARK SMILES CCCSc1nc2n(n1)[C@@H](c1ccccc1C(=O)NCCCNC(=O)c1ccc(-c3c4nc(c(-c5c(F)cc(S(=O)(=O)[O-])cc5F)c5ccc([nH]5)c(-c5c(F)cc(S(=O)(=O)[O-])cc5F)c5nc(c(-c6c(F)cc(S(=O)(=O)[O-])cc6F)c6ccc3[nH]6)C=C5)C=C4)cc1)C(C(=O)Nc1cccc(C)c1C)=C(C)N2
REMARK SMILES IDX 20 1 19 2 17 3 18 4 16 6 11 7 12 8 13 9 15 10 14 11 10 12
REMARK SMILES IDX 5 13 6 14 9 15 7 16 8 17 106 18 104 19 92 21 105 22 4 23
REMARK SMILES IDX 3 24 2 25 1 26 93 27 94 28 95 29 96 31 97 32 102 33 98 34
REMARK SMILES IDX 100 35 103 36 99 37 101 38 21 39 22 40 23 41 24 42 25 44
REMARK SMILES IDX 26 45 27 46 91 47 28 48 90 49 29 50 30 51 31 52 84 53 32 54
REMARK SMILES IDX 89 55 83 56 85 57 33 58 88 59 82 60 81 61 34 63 68 64 47 65
REMARK SMILES IDX 67 66 48 67 51 68 66 69 86 70 49 71 50 72 65 74 87 75 52 76
REMARK SMILES IDX 35 77 36 78 45 79 37 80 38 81 44 82 46 83 39 84 40 85 41 86
REMARK SMILES IDX 42 87 43 88 69 89 70 90 79 91 71 92 72 93 78 94 80 95 73 96
REMARK SMILES IDX 74 97 75 98 76 99 77 100 53 101 54 102 63 103 55 104 56 105
REMARK SMILES IDX 62 106 64 107 57 108 58 109 59 110 60 111 61 112
REMARK H PARENT 19 5 106 20 95 30 23 43 85 62 51 73
REMARK Flexibility Score: inf
ROOT
ATOM      1  C   UNL A   1      36.087  23.690  25.956  1.00  0.00     0.118 C 
ENDROOT
BRANCH   1   2
ATOM      2  N   UNL A   1      35.063  23.875  24.927  1.00  0.00    -0.352 N 
ATOM      3  C   UNL A   1      34.383  24.988  24.498  1.00  0.00     0.251 C 
ATOM      4  O   UNL A   1      34.616  25.318  23.331  1.00  0.00    -0.269 OA
ATOM      5  H   UNL A   1      34.818  23.047  24.453  1.00  0.00     0.163 HD
BRANCH   3   6
ATOM      6  C   UNL A   1      33.172  25.585  25.187  1.00  0.00     0.045 A 
ATOM      7  C   UNL A   1      31.800  25.555  24.839  1.00  0.00    -0.006 A 
ATOM      8  C   UNL A   1      30.866  26.180  25.720  1.00  0.00     0.007 A 
ATOM      9  C   UNL A   1      31.248  26.795  26.909  1.00  0.00     0.000 A 
ATOM     10  C   UNL A   1      33.518  26.197  26.424  1.00  0.00     0.014 A 
ATOM     11  C   UNL A   1      32.579  26.786  27.273  1.00  0.00     0.001 A 
BRANCH   7  12
ATOM     12  C   UNL A   1      31.222  24.763  23.670  1.00  0.00     0.180 C 
ATOM     13  C   UNL A   1      32.388  21.473  24.083  1.00  0.00     0.210 A 
ATOM     14  N   UNL A   1      32.842  21.662  22.801  1.00  0.00    -0.185 NA
ATOM     15  N   UNL A   1      31.714  22.500  24.613  1.00  0.00    -0.141 NA
ATOM     16  C   UNL A   1      32.467  22.888  22.540  1.00  0.00     0.227 A 
ATOM     17  N   UNL A   1      31.786  23.397  23.610  1.00  0.00    -0.218 N 
ATOM     18  N   UNL A   1      32.669  23.667  21.462  1.00  0.00    -0.328 N 
ATOM     19  C   UNL A   1      32.156  24.954  21.337  1.00  0.00     0.026 C 
ATOM     20  H   UNL A   1      33.211  23.308  20.722  1.00  0.00     0.169 HD
ATOM     21  C   UNL A   1      31.373  25.469  22.314  1.00  0.00     0.065 C 
ATOM     22  C   UNL A   1      32.552  25.688  20.082  1.00  0.00     0.065 C 
BRANCH  13  23
ATOM     23  S   UNL A   1      32.762  20.060  25.025  1.00  0.00    -0.084 SA
BRANCH  23  24
ATOM     24  C   UNL A   1      32.411  18.731  23.842  1.00  0.00     0.078 C 
BRANCH  24  25
ATOM     25  C   UNL A   1      33.113  17.411  24.170  1.00  0.00     0.008 C 
ATOM     26  C   UNL A   1      34.083  16.943  23.097  1.00  0.00     0.005 C 
ENDBRANCH  24  25
ENDBRANCH  23  24
ENDBRANCH  13  23
BRANCH  21  27
ATOM     27  C   UNL A   1      30.668  26.769  22.210  1.00  0.00     0.255 C 
ATOM     28  O   UNL A   1      29.450  26.781  22.043  1.00  0.00    -0.269 OA
ATOM     29  N   UNL A   1      31.329  27.971  22.195  1.00  0.00    -0.322 N 
ATOM     30  H   UNL A   1      31.069  28.607  21.492  1.00  0.00     0.170 HD
BRANCH  29  31
ATOM     31  C   UNL A   1      32.343  28.393  23.083  1.00  0.00     0.044 A 
ATOM     32  C   UNL A   1      33.645  28.089  22.656  1.00  0.00     0.026 A 
ATOM     33  C   UNL A   1      32.148  29.093  24.287  1.00  0.00    -0.025 A 
ATOM     34  C   UNL A   1      34.753  28.584  23.332  1.00  0.00     0.002 A 
ATOM     35  C   UNL A   1      33.282  29.607  24.969  1.00  0.00    -0.046 A 
ATOM     36  C   UNL A   1      30.796  29.234  24.927  1.00  0.00     0.047 C 
ATOM     37  C   UNL A   1      34.570  29.367  24.463  1.00  0.00     0.004 A 
ATOM     38  C   UNL A   1      33.172  30.481  26.192  1.00  0.00     0.044 C 
ENDBRANCH  29  31
ENDBRANCH  21  27
ENDBRANCH   7  12
ENDBRANCH   3   6
ENDBRANCH   1   2
BRANCH   1  39
ATOM     39  C   UNL A   1      36.814  22.357  25.758  1.00  0.00     0.042 C 
BRANCH  39  40
ATOM     40  C   UNL A   1      38.329  22.463  25.607  1.00  0.00     0.118 C 
BRANCH  40  41
ATOM     41  N   UNL A   1      39.092  21.894  26.717  1.00  0.00    -0.352 N 
ATOM     42  C   UNL A   1      40.168  22.477  27.380  1.00  0.00     0.251 C 
ATOM     43  H   UNL A   1      38.815  21.002  27.030  1.00  0.00     0.163 HD
ATOM     44  O   UNL A   1      41.008  21.807  27.948  1.00  0.00    -0.269 OA
BRANCH  42  45
ATOM     45  C   UNL A   1      40.231  23.949  27.381  1.00  0.00     0.039 A 
ATOM     46  C   UNL A   1      39.100  24.726  27.637  1.00  0.00     0.014 A 
ATOM     47  C   UNL A   1      41.502  24.508  27.331  1.00  0.00     0.014 A 
ATOM     48  C   UNL A   1      39.282  26.055  28.017  1.00  0.00     0.010 A 
ATOM     49  C   UNL A   1      41.681  25.774  27.836  1.00  0.00     0.010 A 
ATOM     50  C   UNL A   1      40.582  26.558  28.196  1.00  0.00    -0.014 A 
BRANCH  50  51
ATOM     51  C   UNL A   1      40.792  27.795  28.959  1.00  0.00     0.031 A 
ATOM     52  C   UNL A   1      41.916  28.673  28.497  1.00  0.00     0.074 A 
ATOM     53  C   UNL A   1      39.899  28.318  29.827  1.00  0.00     0.049 A 
ATOM     54  N   UNL A   1      43.001  28.986  29.129  1.00  0.00    -0.248 NA
ATOM     55  C   UNL A   1      41.862  29.203  27.125  1.00  0.00     0.031 C 
ATOM     56  C   UNL A   1      38.567  27.823  30.190  1.00  0.00     0.029 A 
ATOM     57  N   UNL A   1      39.964  29.510  30.482  1.00  0.00    -0.354 N 
ATOM     58  C   UNL A   1      43.678  29.904  28.326  1.00  0.00     0.074 A 
ATOM     59  C   UNL A   1      43.013  29.876  27.048  1.00  0.00     0.031 C 
ATOM     60  C   UNL A   1      37.864  28.811  30.782  1.00  0.00     0.029 A 
ATOM     61  C   UNL A   1      38.760  29.925  31.026  1.00  0.00     0.049 A 
ATOM     62  H   UNL A   1      40.795  30.033  30.561  1.00  0.00     0.167 HD
ATOM     63  C   UNL A   1      44.614  30.761  28.831  1.00  0.00     0.037 A 
ATOM     64  C   UNL A   1      38.504  31.103  31.638  1.00  0.00     0.037 A 
ATOM     65  C   UNL A   1      45.008  30.380  30.165  1.00  0.00     0.049 A 
ATOM     66  C   UNL A   1      39.804  31.638  32.113  1.00  0.00     0.074 A 
ATOM     67  C   UNL A   1      45.565  29.252  30.734  1.00  0.00     0.029 A 
ATOM     68  N   UNL A   1      44.497  31.107  31.213  1.00  0.00    -0.354 N 
ATOM     69  N   UNL A   1      40.539  31.061  33.027  1.00  0.00    -0.248 NA
ATOM     70  C   UNL A   1      40.500  32.606  31.281  1.00  0.00     0.031 C 
ATOM     71  C   UNL A   1      44.913  29.119  31.997  1.00  0.00     0.029 A 
ATOM     72  C   UNL A   1      44.043  30.203  32.141  1.00  0.00     0.049 A 
ATOM     73  H   UNL A   1      44.463  32.087  31.286  1.00  0.00     0.167 HD
ATOM     74  C   UNL A   1      41.848  31.268  32.617  1.00  0.00     0.074 A 
ATOM     75  C   UNL A   1      41.763  32.325  31.614  1.00  0.00     0.031 C 
ATOM     76  C   UNL A   1      42.840  30.379  32.927  1.00  0.00     0.037 A 
BRANCH  63  77
ATOM     77  C   UNL A   1      44.947  32.130  28.274  1.00  0.00     0.058 A 
ATOM     78  C   UNL A   1      46.272  32.419  27.877  1.00  0.00     0.135 A 
ATOM     79  C   UNL A   1      44.091  33.247  28.380  1.00  0.00     0.135 A 
ATOM     80  F   UNL A   1      47.175  31.434  27.743  1.00  0.00    -0.206 F 
ATOM     81  C   UNL A   1      46.732  33.723  27.684  1.00  0.00     0.059 A 
ATOM     82  C   UNL A   1      44.515  34.552  28.138  1.00  0.00     0.059 A 
ATOM     83  F   UNL A   1      42.833  33.140  28.822  1.00  0.00    -0.206 F 
ATOM     84  C   UNL A   1      45.848  34.786  27.842  1.00  0.00     0.060 A 
BRANCH  84  85
ATOM     85  S   UNL A   1      46.464  36.477  27.738  1.00  0.00     0.124 S 
ATOM     86  O   UNL A   1      46.345  36.738  26.309  1.00  0.00    -0.237 OA
ATOM     87  O   UNL A   1      45.531  37.197  28.599  1.00  0.00    -0.237 OA
ATOM     88  O   UNL A   1      47.826  36.368  28.252  1.00  0.00    -0.744 OA
ENDBRANCH  84  85
ENDBRANCH  63  77
BRANCH  64  89
ATOM     89  C   UNL A   1      37.244  31.882  31.604  1.00  0.00     0.058 A 
ATOM     90  C   UNL A   1      36.471  32.069  32.760  1.00  0.00     0.135 A 
ATOM     91  C   UNL A   1      36.905  32.676  30.488  1.00  0.00     0.135 A 
ATOM     92  F   UNL A   1      36.739  31.368  33.871  1.00  0.00    -0.206 F 
ATOM     93  C   UNL A   1      35.451  33.023  32.823  1.00  0.00     0.059 A 
ATOM     94  C   UNL A   1      35.885  33.622  30.521  1.00  0.00     0.059 A 
ATOM     95  F   UNL A   1      37.621  32.616  29.353  1.00  0.00    -0.206 F 
ATOM     96  C   UNL A   1      35.179  33.811  31.703  1.00  0.00     0.060 A 
BRANCH  96  97
ATOM     97  S   UNL A   1      33.995  35.169  31.846  1.00  0.00     0.124 S 
ATOM     98  O   UNL A   1      33.735  35.488  30.446  1.00  0.00    -0.237 OA
ATOM     99  O   UNL A   1      32.896  34.542  32.572  1.00  0.00    -0.237 OA
ATOM    100  O   UNL A   1      34.732  36.185  32.592  1.00  0.00    -0.744 OA
ENDBRANCH  96  97
ENDBRANCH  64  89
BRANCH  76 101
ATOM    101  C   UNL A   1      42.569  29.336  33.984  1.00  0.00     0.058 A 
ATOM    102  C   UNL A   1      42.037  28.061  33.721  1.00  0.00     0.135 A 
ATOM    103  C   UNL A   1      43.022  29.576  35.290  1.00  0.00     0.135 A 
ATOM    104  F   UNL A   1      41.680  27.704  32.482  1.00  0.00    -0.206 F 
ATOM    105  C   UNL A   1      41.922  27.088  34.715  1.00  0.00     0.059 A 
ATOM    106  C   UNL A   1      42.947  28.610  36.292  1.00  0.00     0.059 A 
ATOM    107  F   UNL A   1      43.602  30.750  35.595  1.00  0.00    -0.206 F 
ATOM    108  C   UNL A   1      42.384  27.370  35.999  1.00  0.00     0.060 A 
BRANCH 108 109
ATOM    109  S   UNL A   1      42.319  26.076  37.257  1.00  0.00     0.124 S 
ATOM    110  O   UNL A   1      40.948  26.189  37.744  1.00  0.00    -0.237 OA
ATOM    111  O   UNL A   1      42.622  24.870  36.492  1.00  0.00    -0.237 OA
ATOM    112  O   UNL A   1      43.353  26.474  38.209  1.00  0.00    -0.744 OA
ENDBRANCH 108 109
ENDBRANCH  76 101
ENDBRANCH  50  51
ENDBRANCH  42  45
ENDBRANCH  40  41
ENDBRANCH  39  40
ENDBRANCH   1  39
TORSDOF 19
ENDMDL
