MODEL 1
REMARK VINA RESULT:     -12.5      0.000      0.000
REMARK SMILES CC(C)(C)c1csc(NC(=O)Cn2cccc2C(=O)NCCCNC(=O)c2ccc(-c3c4nc(c(-c5c(F)cc(S(=O)(=O)[O-])cc5F)c5ccc([nH]5)c(-c5c(F)cc(S(=O)(=O)[O-])cc5F)c5nc(c(-c6c(F)cc(S(=O)(=O)[O-])cc6F)c6ccc3[nH]6)C=C5)C=C4)cc2)n1
REMARK SMILES IDX 21 1 20 2 18 3 19 4 17 6 13 7 14 8 15 9 16 10 12 11 10 12
REMARK SMILES IDX 9 13 11 15 8 16 5 17 6 18 93 19 7 20 2 21 1 22 3 23 4 24
REMARK SMILES IDX 22 25 23 26 24 27 25 28 26 30 27 31 28 32 92 33 29 34 91 35
REMARK SMILES IDX 30 36 31 37 32 38 85 39 33 40 90 41 84 42 86 43 34 44 89 45
REMARK SMILES IDX 83 46 82 47 35 49 69 50 48 51 68 52 49 53 52 54 67 55 87 56
REMARK SMILES IDX 50 57 51 58 66 60 88 61 53 62 36 63 37 64 46 65 38 66 39 67
REMARK SMILES IDX 45 68 47 69 40 70 41 71 42 72 43 73 44 74 70 75 71 76 80 77
REMARK SMILES IDX 72 78 73 79 79 80 81 81 74 82 75 83 76 84 77 85 78 86 54 87
REMARK SMILES IDX 55 88 64 89 56 90 57 91 63 92 65 93 58 94 59 95 60 96 61 97
REMARK SMILES IDX 62 98
REMARK H PARENT 20 5 9 14 24 29 86 48 52 59
REMARK Flexibility Score: inf
ROOT
ATOM      1  C   UNL A   1      33.560  29.097  24.858  1.00  0.00     0.118 C 
ENDROOT
BRANCH   1   2
ATOM      2  N   UNL A   1      32.259  29.200  24.243  1.00  0.00    -0.351 N 
ATOM      3  C   UNL A   1      31.170  28.396  24.069  1.00  0.00     0.267 C 
ATOM      4  O   UNL A   1      30.195  29.023  23.638  1.00  0.00    -0.268 OA
ATOM      5  H   UNL A   1      32.118  30.088  23.842  1.00  0.00     0.163 HD
BRANCH   3   6
ATOM      6  C   UNL A   1      31.035  26.966  24.361  1.00  0.00     0.107 A 
ATOM      7  N   UNL A   1      31.144  25.778  23.639  1.00  0.00    -0.334 N 
ATOM      8  C   UNL A   1      30.644  24.729  24.385  1.00  0.00     0.087 A 
ATOM      9  C   UNL A   1      30.355  25.179  25.644  1.00  0.00     0.020 A 
ATOM     10  C   UNL A   1      30.592  26.562  25.627  1.00  0.00     0.033 A 
BRANCH   7  11
ATOM     11  C   UNL A   1      31.673  25.583  22.297  1.00  0.00     0.222 C 
BRANCH  11  12
ATOM     12  C   UNL A   1      33.147  25.825  22.064  1.00  0.00     0.246 C 
ATOM     13  N   UNL A   1      34.141  25.347  22.859  1.00  0.00    -0.300 N 
ATOM     14  H   UNL A   1      35.040  25.623  22.568  1.00  0.00     0.172 HD
ATOM     15  O   UNL A   1      33.496  26.540  21.113  1.00  0.00    -0.273 OA
BRANCH  13  16
ATOM     16  C   UNL A   1      34.149  24.563  23.977  1.00  0.00     0.189 A 
ATOM     17  C   UNL A   1      34.006  22.672  25.121  1.00  0.00     0.059 A 
ATOM     18  C   UNL A   1      33.991  23.580  26.166  1.00  0.00     0.093 A 
ATOM     19  N   UNL A   1      34.145  23.256  23.870  1.00  0.00    -0.224 NA
ATOM     20  S   UNL A   1      34.253  25.154  25.564  1.00  0.00    -0.105 S 
BRANCH  17  21
ATOM     21  C   UNL A   1      33.918  21.162  25.237  1.00  0.00     0.005 C 
ATOM     22  C   UNL A   1      32.937  20.574  24.202  1.00  0.00     0.017 C 
ATOM     23  C   UNL A   1      33.430  20.753  26.640  1.00  0.00     0.017 C 
ATOM     24  C   UNL A   1      35.312  20.555  24.982  1.00  0.00     0.017 C 
ENDBRANCH  17  21
ENDBRANCH  13  16
ENDBRANCH  11  12
ENDBRANCH   7  11
ENDBRANCH   3   6
ENDBRANCH   1   2
BRANCH   1  25
ATOM     25  C   UNL A   1      33.448  28.802  26.357  1.00  0.00     0.042 C 
BRANCH  25  26
ATOM     26  C   UNL A   1      34.786  28.843  27.071  1.00  0.00     0.118 C 
BRANCH  26  27
ATOM     27  N   UNL A   1      35.220  30.221  27.237  1.00  0.00    -0.352 N 
ATOM     28  C   UNL A   1      36.292  30.720  27.928  1.00  0.00     0.251 C 
ATOM     29  H   UNL A   1      34.661  30.894  26.786  1.00  0.00     0.163 HD
ATOM     30  O   UNL A   1      36.287  31.899  28.260  1.00  0.00    -0.269 OA
BRANCH  28  31
ATOM     31  C   UNL A   1      37.425  29.849  28.294  1.00  0.00     0.039 A 
ATOM     32  C   UNL A   1      38.541  29.848  27.449  1.00  0.00     0.014 A 
ATOM     33  C   UNL A   1      37.373  29.005  29.408  1.00  0.00     0.014 A 
ATOM     34  C   UNL A   1      39.628  29.043  27.757  1.00  0.00     0.010 A 
ATOM     35  C   UNL A   1      38.476  28.238  29.748  1.00  0.00     0.010 A 
ATOM     36  C   UNL A   1      39.602  28.264  28.923  1.00  0.00    -0.014 A 
BRANCH  36  37
ATOM     37  C   UNL A   1      40.845  27.589  29.343  1.00  0.00     0.031 A 
ATOM     38  C   UNL A   1      41.093  26.322  28.490  1.00  0.00     0.074 A 
ATOM     39  C   UNL A   1      41.508  28.159  30.398  1.00  0.00     0.049 A 
ATOM     40  N   UNL A   1      41.654  25.196  28.806  1.00  0.00    -0.248 NA
ATOM     41  C   UNL A   1      40.545  26.259  27.103  1.00  0.00     0.031 C 
ATOM     42  C   UNL A   1      41.128  29.441  31.039  1.00  0.00     0.029 A 
ATOM     43  N   UNL A   1      42.615  27.812  31.145  1.00  0.00    -0.354 N 
ATOM     44  C   UNL A   1      41.736  24.406  27.632  1.00  0.00     0.074 A 
ATOM     45  C   UNL A   1      40.909  25.051  26.660  1.00  0.00     0.031 C 
ATOM     46  C   UNL A   1      41.916  29.709  32.103  1.00  0.00     0.029 A 
ATOM     47  C   UNL A   1      42.889  28.650  32.267  1.00  0.00     0.049 A 
ATOM     48  H   UNL A   1      43.178  27.038  30.919  1.00  0.00     0.167 HD
ATOM     49  C   UNL A   1      42.606  23.356  27.499  1.00  0.00     0.037 A 
ATOM     50  C   UNL A   1      43.803  28.473  33.276  1.00  0.00     0.037 A 
ATOM     51  C   UNL A   1      43.365  23.234  28.698  1.00  0.00     0.049 A 
ATOM     52  C   UNL A   1      44.596  27.313  32.851  1.00  0.00     0.074 A 
ATOM     53  C   UNL A   1      43.025  22.803  29.953  1.00  0.00     0.029 A 
ATOM     54  N   UNL A   1      44.530  23.963  28.760  1.00  0.00    -0.354 N 
ATOM     55  N   UNL A   1      45.471  27.330  31.893  1.00  0.00    -0.248 NA
ATOM     56  C   UNL A   1      44.321  26.008  33.467  1.00  0.00     0.031 C 
ATOM     57  C   UNL A   1      43.706  23.709  30.786  1.00  0.00     0.029 A 
ATOM     58  C   UNL A   1      44.631  24.450  30.037  1.00  0.00     0.049 A 
ATOM     59  H   UNL A   1      45.170  24.107  28.025  1.00  0.00     0.167 HD
ATOM     60  C   UNL A   1      45.568  26.001  31.567  1.00  0.00     0.074 A 
ATOM     61  C   UNL A   1      45.134  25.256  32.731  1.00  0.00     0.031 C 
ATOM     62  C   UNL A   1      45.437  25.627  30.269  1.00  0.00     0.037 A 
BRANCH  49  63
ATOM     63  C   UNL A   1      43.086  22.532  26.329  1.00  0.00     0.058 A 
ATOM     64  C   UNL A   1      42.588  21.207  26.211  1.00  0.00     0.135 A 
ATOM     65  C   UNL A   1      44.227  22.826  25.572  1.00  0.00     0.135 A 
ATOM     66  F   UNL A   1      41.452  20.840  26.829  1.00  0.00    -0.206 F 
ATOM     67  C   UNL A   1      43.270  20.202  25.533  1.00  0.00     0.059 A 
ATOM     68  C   UNL A   1      44.904  21.840  24.842  1.00  0.00     0.059 A 
ATOM     69  F   UNL A   1      44.763  24.055  25.581  1.00  0.00    -0.206 F 
ATOM     70  C   UNL A   1      44.454  20.521  24.883  1.00  0.00     0.060 A 
BRANCH  70  71
ATOM     71  S   UNL A   1      45.400  19.179  24.135  1.00  0.00     0.124 S 
ATOM     72  O   UNL A   1      45.228  18.111  25.114  1.00  0.00    -0.237 OA
ATOM     73  O   UNL A   1      44.711  18.985  22.862  1.00  0.00    -0.237 OA
ATOM     74  O   UNL A   1      46.746  19.734  24.032  1.00  0.00    -0.744 OA
ENDBRANCH  70  71
ENDBRANCH  49  63
BRANCH  50  75
ATOM     75  C   UNL A   1      44.123  29.019  34.657  1.00  0.00     0.058 A 
ATOM     76  C   UNL A   1      45.092  29.977  34.977  1.00  0.00     0.135 A 
ATOM     77  C   UNL A   1      43.283  28.664  35.757  1.00  0.00     0.135 A 
ATOM     78  F   UNL A   1      46.052  30.306  34.105  1.00  0.00    -0.206 F 
ATOM     79  C   UNL A   1      45.107  30.652  36.216  1.00  0.00     0.059 A 
ATOM     80  C   UNL A   1      43.238  29.353  36.966  1.00  0.00     0.059 A 
ATOM     81  F   UNL A   1      42.422  27.639  35.691  1.00  0.00    -0.206 F 
ATOM     82  C   UNL A   1      44.132  30.381  37.176  1.00  0.00     0.060 A 
BRANCH  82  83
ATOM     83  S   UNL A   1      43.921  31.439  38.626  1.00  0.00     0.124 S 
ATOM     84  O   UNL A   1      44.516  30.633  39.684  1.00  0.00    -0.237 OA
ATOM     85  O   UNL A   1      44.662  32.639  38.246  1.00  0.00    -0.237 OA
ATOM     86  O   UNL A   1      42.473  31.615  38.704  1.00  0.00    -0.744 OA
ENDBRANCH  82  83
ENDBRANCH  50  75
BRANCH  62  87
ATOM     87  C   UNL A   1      45.822  26.695  29.253  1.00  0.00     0.058 A 
ATOM     88  C   UNL A   1      47.149  27.158  29.200  1.00  0.00     0.135 A 
ATOM     89  C   UNL A   1      44.918  27.353  28.399  1.00  0.00     0.135 A 
ATOM     90  F   UNL A   1      48.089  26.581  29.967  1.00  0.00    -0.206 F 
ATOM     91  C   UNL A   1      47.548  28.211  28.370  1.00  0.00     0.059 A 
ATOM     92  C   UNL A   1      45.290  28.403  27.551  1.00  0.00     0.059 A 
ATOM     93  F   UNL A   1      43.634  26.995  28.366  1.00  0.00    -0.206 F 
ATOM     94  C   UNL A   1      46.612  28.830  27.545  1.00  0.00     0.060 A 
BRANCH  94  95
ATOM     95  S   UNL A   1      47.155  30.167  26.455  1.00  0.00     0.124 S 
ATOM     96  O   UNL A   1      46.672  31.356  27.150  1.00  0.00    -0.237 OA
ATOM     97  O   UNL A   1      48.604  29.986  26.449  1.00  0.00    -0.237 OA
ATOM     98  O   UNL A   1      46.486  29.876  25.190  1.00  0.00    -0.744 OA
ENDBRANCH  94  95
ENDBRANCH  62  87
ENDBRANCH  36  37
ENDBRANCH  28  31
ENDBRANCH  26  27
ENDBRANCH  25  26
ENDBRANCH   1  25
TORSDOF 17
ENDMDL
MODEL 2
REMARK VINA RESULT:     -12.4      1.249      2.058
REMARK SMILES CC(C)(C)c1csc(NC(=O)Cn2cccc2C(=O)NCCCNC(=O)c2ccc(-c3c4nc(c(-c5c(F)cc(S(=O)(=O)[O-])cc5F)c5ccc([nH]5)c(-c5c(F)cc(S(=O)(=O)[O-])cc5F)c5nc(c(-c6c(F)cc(S(=O)(=O)[O-])cc6F)c6ccc3[nH]6)C=C5)C=C4)cc2)n1
REMARK SMILES IDX 21 1 20 2 18 3 19 4 17 6 13 7 14 8 15 9 16 10 12 11 10 12
REMARK SMILES IDX 9 13 11 15 8 16 5 17 6 18 93 19 7 20 2 21 1 22 3 23 4 24
REMARK SMILES IDX 22 25 23 26 24 27 25 28 26 30 27 31 28 32 92 33 29 34 91 35
REMARK SMILES IDX 30 36 31 37 32 38 85 39 33 40 90 41 84 42 86 43 34 44 89 45
REMARK SMILES IDX 83 46 82 47 35 49 69 50 48 51 68 52 49 53 52 54 67 55 87 56
REMARK SMILES IDX 50 57 51 58 66 60 88 61 53 62 36 63 37 64 46 65 38 66 39 67
REMARK SMILES IDX 45 68 47 69 40 70 41 71 42 72 43 73 44 74 70 75 71 76 80 77
REMARK SMILES IDX 72 78 73 79 79 80 81 81 74 82 75 83 76 84 77 85 78 86 54 87
REMARK SMILES IDX 55 88 64 89 56 90 57 91 63 92 65 93 58 94 59 95 60 96 61 97
REMARK SMILES IDX 62 98
REMARK H PARENT 20 5 9 14 24 29 86 48 52 59
REMARK Flexibility Score: inf
ROOT
ATOM      1  C   UNL A   1      33.128  27.269  26.616  1.00  0.00     0.118 C 
ENDROOT
BRANCH   1   2
ATOM      2  N   UNL A   1      33.482  26.971  25.250  1.00  0.00    -0.351 N 
ATOM      3  C   UNL A   1      32.932  27.152  24.014  1.00  0.00     0.267 C 
ATOM      4  O   UNL A   1      33.733  26.894  23.108  1.00  0.00    -0.268 OA
ATOM      5  H   UNL A   1      34.353  26.515  25.193  1.00  0.00     0.163 HD
BRANCH   3   6
ATOM      6  C   UNL A   1      31.588  27.628  23.674  1.00  0.00     0.107 A 
ATOM      7  N   UNL A   1      30.322  27.057  23.540  1.00  0.00    -0.334 N 
ATOM      8  C   UNL A   1      29.466  27.955  22.932  1.00  0.00     0.087 A 
ATOM      9  C   UNL A   1      30.102  29.160  22.810  1.00  0.00     0.020 A 
ATOM     10  C   UNL A   1      31.414  28.956  23.263  1.00  0.00     0.033 A 
BRANCH   7  11
ATOM     11  C   UNL A   1      29.887  25.725  23.934  1.00  0.00     0.222 C 
BRANCH  11  12
ATOM     12  C   UNL A   1      30.214  25.248  25.331  1.00  0.00     0.246 C 
ATOM     13  N   UNL A   1      31.207  24.370  25.631  1.00  0.00    -0.300 N 
ATOM     14  H   UNL A   1      31.262  24.155  26.590  1.00  0.00     0.172 HD
ATOM     15  O   UNL A   1      29.516  25.638  26.278  1.00  0.00    -0.273 OA
BRANCH  13  16
ATOM     16  C   UNL A   1      32.146  23.725  24.877  1.00  0.00     0.189 A 
ATOM     17  C   UNL A   1      34.179  23.027  24.342  1.00  0.00     0.059 A 
ATOM     18  C   UNL A   1      33.505  22.703  23.177  1.00  0.00     0.093 A 
ATOM     19  N   UNL A   1      33.367  23.572  25.327  1.00  0.00    -0.224 NA
ATOM     20  S   UNL A   1      31.838  22.998  23.375  1.00  0.00    -0.105 S 
BRANCH  17  21
ATOM     21  C   UNL A   1      35.654  22.812  24.621  1.00  0.00     0.005 C 
ATOM     22  C   UNL A   1      36.485  22.861  23.323  1.00  0.00     0.017 C 
ATOM     23  C   UNL A   1      35.887  21.439  25.281  1.00  0.00     0.017 C 
ATOM     24  C   UNL A   1      36.157  23.924  25.562  1.00  0.00     0.017 C 
ENDBRANCH  17  21
ENDBRANCH  13  16
ENDBRANCH  11  12
ENDBRANCH   7  11
ENDBRANCH   3   6
ENDBRANCH   1   2
BRANCH   1  25
ATOM     25  C   UNL A   1      33.552  28.689  27.006  1.00  0.00     0.042 C 
BRANCH  25  26
ATOM     26  C   UNL A   1      35.025  28.956  26.759  1.00  0.00     0.118 C 
BRANCH  26  27
ATOM     27  N   UNL A   1      35.371  30.295  27.212  1.00  0.00    -0.352 N 
ATOM     28  C   UNL A   1      36.340  30.693  28.094  1.00  0.00     0.251 C 
ATOM     29  H   UNL A   1      34.828  31.021  26.828  1.00  0.00     0.163 HD
ATOM     30  O   UNL A   1      36.241  31.792  28.626  1.00  0.00    -0.269 OA
BRANCH  28  31
ATOM     31  C   UNL A   1      37.471  29.806  28.424  1.00  0.00     0.039 A 
ATOM     32  C   UNL A   1      38.602  29.864  27.602  1.00  0.00     0.014 A 
ATOM     33  C   UNL A   1      37.403  28.892  29.480  1.00  0.00     0.014 A 
ATOM     34  C   UNL A   1      39.688  29.047  27.877  1.00  0.00     0.010 A 
ATOM     35  C   UNL A   1      38.504  28.109  29.790  1.00  0.00     0.010 A 
ATOM     36  C   UNL A   1      39.646  28.194  28.989  1.00  0.00    -0.014 A 
BRANCH  36  37
ATOM     37  C   UNL A   1      40.884  27.498  29.388  1.00  0.00     0.031 A 
ATOM     38  C   UNL A   1      41.091  26.222  28.538  1.00  0.00     0.074 A 
ATOM     39  C   UNL A   1      41.579  28.063  30.425  1.00  0.00     0.049 A 
ATOM     40  N   UNL A   1      41.638  25.088  28.849  1.00  0.00    -0.248 NA
ATOM     41  C   UNL A   1      40.514  26.161  27.163  1.00  0.00     0.031 C 
ATOM     42  C   UNL A   1      41.236  29.355  31.066  1.00  0.00     0.029 A 
ATOM     43  N   UNL A   1      42.695  27.701  31.151  1.00  0.00    -0.354 N 
ATOM     44  C   UNL A   1      41.682  24.290  27.679  1.00  0.00     0.074 A 
ATOM     45  C   UNL A   1      40.846  24.944  26.720  1.00  0.00     0.031 C 
ATOM     46  C   UNL A   1      42.051  29.615  32.112  1.00  0.00     0.029 A 
ATOM     47  C   UNL A   1      43.008  28.540  32.262  1.00  0.00     0.049 A 
ATOM     48  H   UNL A   1      43.239  26.914  30.919  1.00  0.00     0.167 HD
ATOM     49  C   UNL A   1      42.530  23.224  27.534  1.00  0.00     0.037 A 
ATOM     50  C   UNL A   1      43.939  28.352  33.253  1.00  0.00     0.037 A 
ATOM     51  C   UNL A   1      43.311  23.095  28.718  1.00  0.00     0.049 A 
ATOM     52  C   UNL A   1      44.701  27.175  32.820  1.00  0.00     0.074 A 
ATOM     53  C   UNL A   1      42.989  22.678  29.983  1.00  0.00     0.029 A 
ATOM     54  N   UNL A   1      44.490  23.803  28.751  1.00  0.00    -0.354 N 
ATOM     55  N   UNL A   1      45.556  27.171  31.843  1.00  0.00    -0.248 NA
ATOM     56  C   UNL A   1      44.417  25.879  33.449  1.00  0.00     0.031 C 
ATOM     57  C   UNL A   1      43.704  23.576  30.796  1.00  0.00     0.029 A 
ATOM     58  C   UNL A   1      44.626  24.296  30.023  1.00  0.00     0.049 A 
ATOM     59  H   UNL A   1      45.117  23.931  28.003  1.00  0.00     0.167 HD
ATOM     60  C   UNL A   1      45.623  25.839  31.524  1.00  0.00     0.074 A 
ATOM     61  C   UNL A   1      45.200  25.109  32.701  1.00  0.00     0.031 C 
ATOM     62  C   UNL A   1      45.458  25.459  30.231  1.00  0.00     0.037 A 
BRANCH  49  63
ATOM     63  C   UNL A   1      42.971  22.384  26.360  1.00  0.00     0.058 A 
ATOM     64  C   UNL A   1      42.646  21.001  26.383  1.00  0.00     0.135 A 
ATOM     65  C   UNL A   1      43.960  22.765  25.446  1.00  0.00     0.135 A 
ATOM     66  F   UNL A   1      41.654  20.540  27.163  1.00  0.00    -0.206 F 
ATOM     67  C   UNL A   1      43.369  20.045  25.679  1.00  0.00     0.059 A 
ATOM     68  C   UNL A   1      44.670  21.822  24.690  1.00  0.00     0.059 A 
ATOM     69  F   UNL A   1      44.322  24.049  25.315  1.00  0.00    -0.206 F 
ATOM     70  C   UNL A   1      44.410  20.463  24.863  1.00  0.00     0.060 A 
BRANCH  70  71
ATOM     71  S   UNL A   1      45.431  19.201  24.074  1.00  0.00     0.124 S 
ATOM     72  O   UNL A   1      45.226  18.057  24.957  1.00  0.00    -0.237 OA
ATOM     73  O   UNL A   1      44.824  19.093  22.751  1.00  0.00    -0.237 OA
ATOM     74  O   UNL A   1      46.767  19.787  24.097  1.00  0.00    -0.744 OA
ENDBRANCH  70  71
ENDBRANCH  49  63
BRANCH  50  75
ATOM     75  C   UNL A   1      44.297  28.901  34.624  1.00  0.00     0.058 A 
ATOM     76  C   UNL A   1      43.502  28.863  35.776  1.00  0.00     0.135 A 
ATOM     77  C   UNL A   1      45.621  29.383  34.857  1.00  0.00     0.135 A 
ATOM     78  F   UNL A   1      42.195  28.582  35.705  1.00  0.00    -0.206 F 
ATOM     79  C   UNL A   1      44.027  29.104  37.064  1.00  0.00     0.059 A 
ATOM     80  C   UNL A   1      46.179  29.570  36.118  1.00  0.00     0.059 A 
ATOM     81  F   UNL A   1      46.463  29.659  33.851  1.00  0.00    -0.206 F 
ATOM     82  C   UNL A   1      45.383  29.388  37.228  1.00  0.00     0.060 A 
BRANCH  82  83
ATOM     83  S   UNL A   1      46.151  29.381  38.864  1.00  0.00     0.124 S 
ATOM     84  O   UNL A   1      45.727  28.093  39.398  1.00  0.00    -0.237 OA
ATOM     85  O   UNL A   1      47.571  29.503  38.542  1.00  0.00    -0.237 OA
ATOM     86  O   UNL A   1      45.569  30.555  39.511  1.00  0.00    -0.744 OA
ENDBRANCH  82  83
ENDBRANCH  50  75
BRANCH  62  87
ATOM     87  C   UNL A   1      45.841  26.514  29.201  1.00  0.00     0.058 A 
ATOM     88  C   UNL A   1      47.169  26.973  29.135  1.00  0.00     0.135 A 
ATOM     89  C   UNL A   1      44.935  27.164  28.344  1.00  0.00     0.135 A 
ATOM     90  F   UNL A   1      48.111  26.402  29.905  1.00  0.00    -0.206 F 
ATOM     91  C   UNL A   1      47.567  28.014  28.291  1.00  0.00     0.059 A 
ATOM     92  C   UNL A   1      45.306  28.203  27.481  1.00  0.00     0.059 A 
ATOM     93  F   UNL A   1      43.650  26.810  28.321  1.00  0.00    -0.206 F 
ATOM     94  C   UNL A   1      46.629  28.627  27.464  1.00  0.00     0.060 A 
BRANCH  94  95
ATOM     95  S   UNL A   1      47.170  29.949  26.355  1.00  0.00     0.124 S 
ATOM     96  O   UNL A   1      46.338  29.732  25.176  1.00  0.00    -0.237 OA
ATOM     97  O   UNL A   1      46.860  31.145  27.133  1.00  0.00    -0.237 OA
ATOM     98  O   UNL A   1      48.593  29.682  26.166  1.00  0.00    -0.744 OA
ENDBRANCH  94  95
ENDBRANCH  62  87
ENDBRANCH  36  37
ENDBRANCH  28  31
ENDBRANCH  26  27
ENDBRANCH  25  26
ENDBRANCH   1  25
TORSDOF 17
ENDMDL
MODEL 3
REMARK VINA RESULT:     -12.2      3.975      5.620
REMARK SMILES CC(C)(C)c1csc(NC(=O)Cn2cccc2C(=O)NCCCNC(=O)c2ccc(-c3c4nc(c(-c5c(F)cc(S(=O)(=O)[O-])cc5F)c5ccc([nH]5)c(-c5c(F)cc(S(=O)(=O)[O-])cc5F)c5nc(c(-c6c(F)cc(S(=O)(=O)[O-])cc6F)c6ccc3[nH]6)C=C5)C=C4)cc2)n1
REMARK SMILES IDX 21 1 20 2 18 3 19 4 17 6 13 7 14 8 15 9 16 10 12 11 10 12
REMARK SMILES IDX 9 13 11 15 8 16 5 17 6 18 93 19 7 20 2 21 1 22 3 23 4 24
REMARK SMILES IDX 22 25 23 26 24 27 25 28 26 30 27 31 28 32 92 33 29 34 91 35
REMARK SMILES IDX 30 36 31 37 32 38 85 39 33 40 90 41 84 42 86 43 34 44 89 45
REMARK SMILES IDX 83 46 82 47 35 49 69 50 48 51 68 52 49 53 52 54 67 55 87 56
REMARK SMILES IDX 50 57 51 58 66 60 88 61 53 62 36 63 37 64 46 65 38 66 39 67
REMARK SMILES IDX 45 68 47 69 40 70 41 71 42 72 43 73 44 74 70 75 71 76 80 77
REMARK SMILES IDX 72 78 73 79 79 80 81 81 74 82 75 83 76 84 77 85 78 86 54 87
REMARK SMILES IDX 55 88 64 89 56 90 57 91 63 92 65 93 58 94 59 95 60 96 61 97
REMARK SMILES IDX 62 98
REMARK H PARENT 20 5 9 14 24 29 86 48 52 59
REMARK Flexibility Score: inf
ROOT
ATOM      1  C   UNL A   1      31.285  30.881  25.713  1.00  0.00     0.118 C 
ENDROOT
BRANCH   1   2
ATOM      2  N   UNL A   1      32.486  30.192  26.118  1.00  0.00    -0.351 N 
ATOM      3  C   UNL A   1      33.329  29.259  25.588  1.00  0.00     0.267 C 
ATOM      4  O   UNL A   1      34.359  29.130  26.261  1.00  0.00    -0.268 OA
ATOM      5  H   UNL A   1      32.774  30.468  27.018  1.00  0.00     0.163 HD
BRANCH   3   6
ATOM      6  C   UNL A   1      33.168  28.475  24.360  1.00  0.00     0.107 A 
ATOM      7  N   UNL A   1      32.414  27.370  23.964  1.00  0.00    -0.334 N 
ATOM      8  C   UNL A   1      32.876  26.901  22.749  1.00  0.00     0.087 A 
ATOM      9  C   UNL A   1      33.811  27.772  22.264  1.00  0.00     0.020 A 
ATOM     10  C   UNL A   1      33.996  28.742  23.261  1.00  0.00     0.033 A 
BRANCH   7  11
ATOM     11  C   UNL A   1      31.311  26.732  24.666  1.00  0.00     0.222 C 
BRANCH  11  12
ATOM     12  C   UNL A   1      31.541  26.256  26.083  1.00  0.00     0.246 C 
ATOM     13  N   UNL A   1      32.215  25.124  26.415  1.00  0.00    -0.300 N 
ATOM     14  H   UNL A   1      32.248  24.959  27.384  1.00  0.00     0.172 HD
ATOM     15  O   UNL A   1      31.056  26.906  27.021  1.00  0.00    -0.273 OA
BRANCH  13  16
ATOM     16  C   UNL A   1      32.856  24.167  25.680  1.00  0.00     0.189 A 
ATOM     17  C   UNL A   1      34.603  23.090  24.849  1.00  0.00     0.059 A 
ATOM     18  C   UNL A   1      33.593  22.513  24.098  1.00  0.00     0.093 A 
ATOM     19  N   UNL A   1      34.152  24.007  25.788  1.00  0.00    -0.224 NA
ATOM     20  S   UNL A   1      32.078  23.061  24.655  1.00  0.00    -0.105 S 
BRANCH  17  21
ATOM     21  C   UNL A   1      36.087  22.787  24.750  1.00  0.00     0.005 C 
ATOM     22  C   UNL A   1      36.913  23.716  25.663  1.00  0.00     0.017 C 
ATOM     23  C   UNL A   1      36.584  22.978  23.304  1.00  0.00     0.017 C 
ATOM     24  C   UNL A   1      36.334  21.331  25.188  1.00  0.00     0.017 C 
ENDBRANCH  17  21
ENDBRANCH  13  16
ENDBRANCH  11  12
ENDBRANCH   7  11
ENDBRANCH   3   6
ENDBRANCH   1   2
BRANCH   1  25
ATOM     25  C   UNL A   1      31.129  32.214  26.453  1.00  0.00     0.042 C 
BRANCH  25  26
ATOM     26  C   UNL A   1      32.397  32.648  27.165  1.00  0.00     0.118 C 
BRANCH  26  27
ATOM     27  N   UNL A   1      32.334  34.069  27.470  1.00  0.00    -0.352 N 
ATOM     28  C   UNL A   1      32.991  34.782  28.437  1.00  0.00     0.251 C 
ATOM     29  H   UNL A   1      31.730  34.595  26.898  1.00  0.00     0.163 HD
ATOM     30  O   UNL A   1      32.543  35.870  28.779  1.00  0.00    -0.269 OA
BRANCH  28  31
ATOM     31  C   UNL A   1      34.204  34.242  29.080  1.00  0.00     0.039 A 
ATOM     32  C   UNL A   1      34.045  33.543  30.282  1.00  0.00     0.014 A 
ATOM     33  C   UNL A   1      35.478  34.468  28.549  1.00  0.00     0.014 A 
ATOM     34  C   UNL A   1      35.160  33.019  30.918  1.00  0.00     0.010 A 
ATOM     35  C   UNL A   1      36.590  33.903  29.154  1.00  0.00     0.010 A 
ATOM     36  C   UNL A   1      36.425  33.176  30.335  1.00  0.00    -0.014 A 
BRANCH  36  37
ATOM     37  C   UNL A   1      37.561  32.430  30.910  1.00  0.00     0.031 A 
ATOM     38  C   UNL A   1      37.820  31.129  30.113  1.00  0.00     0.074 A 
ATOM     39  C   UNL A   1      38.133  32.980  32.028  1.00  0.00     0.049 A 
ATOM     40  N   UNL A   1      38.261  29.977  30.511  1.00  0.00    -0.248 NA
ATOM     41  C   UNL A   1      37.436  31.070  28.672  1.00  0.00     0.031 C 
ATOM     42  C   UNL A   1      37.769  34.298  32.599  1.00  0.00     0.029 A 
ATOM     43  N   UNL A   1      39.117  32.578  32.906  1.00  0.00    -0.354 N 
ATOM     44  C   UNL A   1      38.427  29.155  29.368  1.00  0.00     0.074 A 
ATOM     45  C   UNL A   1      37.765  29.830  28.294  1.00  0.00     0.031 C 
ATOM     46  C   UNL A   1      38.442  34.539  33.745  1.00  0.00     0.029 A 
ATOM     47  C   UNL A   1      39.315  33.422  34.040  1.00  0.00     0.049 A 
ATOM     48  H   UNL A   1      39.649  31.763  32.761  1.00  0.00     0.167 HD
ATOM     49  C   UNL A   1      39.232  28.047  29.356  1.00  0.00     0.037 A 
ATOM     50  C   UNL A   1      40.090  33.209  35.153  1.00  0.00     0.037 A 
ATOM     51  C   UNL A   1      39.835  27.903  30.639  1.00  0.00     0.049 A 
ATOM     52  C   UNL A   1      40.845  31.989  34.844  1.00  0.00     0.074 A 
ATOM     53  C   UNL A   1      39.320  27.526  31.851  1.00  0.00     0.029 A 
ATOM     54  N   UNL A   1      41.031  28.555  30.827  1.00  0.00    -0.354 N 
ATOM     55  N   UNL A   1      41.826  31.926  33.996  1.00  0.00    -0.248 NA
ATOM     56  C   UNL A   1      40.411  30.721  35.443  1.00  0.00     0.031 C 
ATOM     57  C   UNL A   1      39.959  28.405  32.744  1.00  0.00     0.029 A 
ATOM     58  C   UNL A   1      41.015  29.065  32.099  1.00  0.00     0.049 A 
ATOM     59  H   UNL A   1      41.762  28.639  30.171  1.00  0.00     0.167 HD
ATOM     60  C   UNL A   1      41.870  30.587  33.706  1.00  0.00     0.074 A 
ATOM     61  C   UNL A   1      41.251  29.900  34.821  1.00  0.00     0.031 C 
ATOM     62  C   UNL A   1      41.866  30.191  32.407  1.00  0.00     0.037 A 
BRANCH  49  63
ATOM     63  C   UNL A   1      39.789  27.165  28.265  1.00  0.00     0.058 A 
ATOM     64  C   UNL A   1      39.690  25.759  28.442  1.00  0.00     0.135 A 
ATOM     65  C   UNL A   1      40.695  27.597  27.287  1.00  0.00     0.135 A 
ATOM     66  F   UNL A   1      38.793  25.234  29.294  1.00  0.00    -0.206 F 
ATOM     67  C   UNL A   1      40.549  24.859  27.823  1.00  0.00     0.059 A 
ATOM     68  C   UNL A   1      41.538  26.701  26.616  1.00  0.00     0.059 A 
ATOM     69  F   UNL A   1      40.845  28.900  27.013  1.00  0.00    -0.206 F 
ATOM     70  C   UNL A   1      41.501  25.345  26.938  1.00  0.00     0.060 A 
BRANCH  70  71
ATOM     71  S   UNL A   1      42.702  24.182  26.258  1.00  0.00     0.124 S 
ATOM     72  O   UNL A   1      43.116  24.862  25.035  1.00  0.00    -0.237 OA
ATOM     73  O   UNL A   1      43.707  24.120  27.315  1.00  0.00    -0.237 OA
ATOM     74  O   UNL A   1      41.921  22.963  26.073  1.00  0.00    -0.744 OA
ENDBRANCH  70  71
ENDBRANCH  49  63
BRANCH  50  75
ATOM     75  C   UNL A   1      40.281  33.766  36.554  1.00  0.00     0.058 A 
ATOM     76  C   UNL A   1      41.477  34.223  37.119  1.00  0.00     0.135 A 
ATOM     77  C   UNL A   1      39.133  34.006  37.370  1.00  0.00     0.135 A 
ATOM     78  F   UNL A   1      42.659  33.940  36.556  1.00  0.00    -0.206 F 
ATOM     79  C   UNL A   1      41.508  35.007  38.292  1.00  0.00     0.059 A 
ATOM     80  C   UNL A   1      39.127  34.825  38.496  1.00  0.00     0.059 A 
ATOM     81  F   UNL A   1      37.934  33.482  37.080  1.00  0.00    -0.206 F 
ATOM     82  C   UNL A   1      40.320  35.360  38.932  1.00  0.00     0.060 A 
BRANCH  82  83
ATOM     83  S   UNL A   1      40.291  36.615  40.231  1.00  0.00     0.124 S 
ATOM     84  O   UNL A   1      41.574  36.405  40.890  1.00  0.00    -0.237 OA
ATOM     85  O   UNL A   1      40.162  37.853  39.467  1.00  0.00    -0.237 OA
ATOM     86  O   UNL A   1      39.113  36.256  41.017  1.00  0.00    -0.744 OA
ENDBRANCH  82  83
ENDBRANCH  50  75
BRANCH  62  87
ATOM     87  C   UNL A   1      42.441  31.206  31.427  1.00  0.00     0.058 A 
ATOM     88  C   UNL A   1      43.799  31.563  31.511  1.00  0.00     0.135 A 
ATOM     89  C   UNL A   1      41.687  31.918  30.476  1.00  0.00     0.135 A 
ATOM     90  F   UNL A   1      44.603  30.928  32.380  1.00  0.00    -0.206 F 
ATOM     91  C   UNL A   1      44.366  32.566  30.718  1.00  0.00     0.059 A 
ATOM     92  C   UNL A   1      42.229  32.920  29.662  1.00  0.00     0.059 A 
ATOM     93  F   UNL A   1      40.390  31.661  30.310  1.00  0.00    -0.206 F 
ATOM     94  C   UNL A   1      43.574  33.242  29.793  1.00  0.00     0.060 A 
BRANCH  94  95
ATOM     95  S   UNL A   1      44.334  34.512  28.753  1.00  0.00     0.124 S 
ATOM     96  O   UNL A   1      43.905  35.747  29.400  1.00  0.00    -0.237 OA
ATOM     97  O   UNL A   1      45.755  34.197  28.877  1.00  0.00    -0.237 OA
ATOM     98  O   UNL A   1      43.757  34.271  27.433  1.00  0.00    -0.744 OA
ENDBRANCH  94  95
ENDBRANCH  62  87
ENDBRANCH  36  37
ENDBRANCH  28  31
ENDBRANCH  26  27
ENDBRANCH  25  26
ENDBRANCH   1  25
TORSDOF 17
ENDMDL
