MODEL 1
REMARK VINA RESULT:     -11.3      0.000      0.000
REMARK SMILES COc1cc(/C=C/C(=O)NCCCNC(=O)c2ccc(-c3c4nc(c(-c5c(F)cc(S(=O)(=O)[O-])cc5F)c5ccc([nH]5)c(-c5c(F)cc(S(=O)(=O)[O-])cc5F)c5nc(c(-c6c(F)cc(S(=O)(=O)[O-])cc6F)c6ccc3[nH]6)C=C5)C=C4)cc2)cc(OC)c1O
REMARK SMILES IDX 12 1 11 2 10 3 8 4 9 5 7 7 6 8 5 9 3 10 4 11 87 12 84 13
REMARK SMILES IDX 83 14 2 15 1 16 88 17 85 19 86 20 13 21 14 22 15 23 16 25
REMARK SMILES IDX 17 26 18 27 82 28 19 29 81 30 20 31 21 32 22 33 75 34 23 35
REMARK SMILES IDX 80 36 74 37 76 38 24 39 79 40 73 41 72 42 25 44 59 45 38 46
REMARK SMILES IDX 58 47 39 48 42 49 57 50 77 51 40 52 41 53 56 55 78 56 43 57
REMARK SMILES IDX 26 58 27 59 36 60 28 61 29 62 35 63 37 64 30 65 31 66 32 67
REMARK SMILES IDX 33 68 34 69 60 70 61 71 70 72 62 73 63 74 69 75 71 76 64 77
REMARK SMILES IDX 65 78 66 79 67 80 68 81 44 82 45 83 54 84 46 85 47 86 53 87
REMARK SMILES IDX 55 88 48 89 49 90 50 91 51 92 52 93
REMARK H PARENT 10 6 88 18 14 24 76 43 42 54
REMARK Flexibility Score: inf
ROOT
ATOM      1  C   UNL A   1      33.989  30.873  27.546  1.00  0.00     0.042 C 
ENDROOT
BRANCH   1   2
ATOM      2  C   UNL A   1      33.217  29.713  26.922  1.00  0.00     0.118 C 
BRANCH   2   3
ATOM      3  N   UNL A   1      33.628  29.472  25.549  1.00  0.00    -0.352 N 
ATOM      4  C   UNL A   1      33.830  28.312  24.873  1.00  0.00     0.244 C 
ATOM      5  O   UNL A   1      34.057  28.345  23.665  1.00  0.00    -0.270 OA
ATOM      6  H   UNL A   1      33.787  30.288  25.020  1.00  0.00     0.163 HD
BRANCH   4   7
ATOM      7  C   UNL A   1      33.689  26.999  25.541  1.00  0.00     0.072 C 
ATOM      8  C   UNL A   1      34.218  25.852  25.089  1.00  0.00     0.014 C 
BRANCH   8   9
ATOM      9  C   UNL A   1      34.026  24.554  25.747  1.00  0.00    -0.018 A 
ATOM     10  C   UNL A   1      32.665  22.966  27.004  1.00  0.00     0.165 A 
ATOM     11  C   UNL A   1      32.861  24.240  26.452  1.00  0.00     0.058 A 
ATOM     12  C   UNL A   1      33.649  21.981  26.824  1.00  0.00     0.200 A 
ATOM     13  C   UNL A   1      34.836  22.281  26.138  1.00  0.00     0.165 A 
ATOM     14  C   UNL A   1      35.005  23.567  25.602  1.00  0.00     0.058 A 
BRANCH  10  15
ATOM     15  O   UNL A   1      31.452  22.844  27.628  1.00  0.00    -0.493 OA
ATOM     16  C   UNL A   1      30.268  23.015  26.862  1.00  0.00     0.278 C 
ENDBRANCH  10  15
BRANCH  12  17
ATOM     17  O   UNL A   1      33.416  20.703  27.248  1.00  0.00    -0.502 OA
ATOM     18  H   UNL A   1      32.772  20.537  27.908  1.00  0.00     0.293 HD
ENDBRANCH  12  17
BRANCH  13  19
ATOM     19  O   UNL A   1      35.897  21.461  25.863  1.00  0.00    -0.493 OA
ATOM     20  C   UNL A   1      37.192  22.027  25.734  1.00  0.00     0.278 C 
ENDBRANCH  13  19
ENDBRANCH   8   9
ENDBRANCH   4   7
ENDBRANCH   2   3
ENDBRANCH   1   2
BRANCH   1  21
ATOM     21  C   UNL A   1      35.305  30.453  28.199  1.00  0.00     0.118 C 
BRANCH  21  22
ATOM     22  N   UNL A   1      35.384  30.871  29.592  1.00  0.00    -0.352 N 
ATOM     23  C   UNL A   1      36.387  30.703  30.513  1.00  0.00     0.251 C 
ATOM     24  H   UNL A   1      34.591  31.351  29.925  1.00  0.00     0.163 HD
ATOM     25  O   UNL A   1      36.155  30.932  31.697  1.00  0.00    -0.269 OA
BRANCH  23  26
ATOM     26  C   UNL A   1      37.732  30.245  30.100  1.00  0.00     0.039 A 
ATOM     27  C   UNL A   1      38.081  30.316  28.748  1.00  0.00     0.014 A 
ATOM     28  C   UNL A   1      38.628  29.693  31.022  1.00  0.00     0.014 A 
ATOM     29  C   UNL A   1      39.341  29.882  28.329  1.00  0.00     0.010 A 
ATOM     30  C   UNL A   1      39.908  29.323  30.613  1.00  0.00     0.010 A 
ATOM     31  C   UNL A   1      40.276  29.407  29.262  1.00  0.00    -0.014 A 
BRANCH  31  32
ATOM     32  C   UNL A   1      41.641  28.997  28.840  1.00  0.00     0.031 A 
ATOM     33  C   UNL A   1      42.754  30.007  28.781  1.00  0.00     0.074 A 
ATOM     34  C   UNL A   1      41.859  27.725  28.454  1.00  0.00     0.049 A 
ATOM     35  N   UNL A   1      43.991  29.850  28.384  1.00  0.00    -0.248 NA
ATOM     36  C   UNL A   1      42.430  31.380  29.200  1.00  0.00     0.031 C 
ATOM     37  C   UNL A   1      40.849  26.666  28.420  1.00  0.00     0.029 A 
ATOM     38  N   UNL A   1      43.000  27.107  28.007  1.00  0.00    -0.354 N 
ATOM     39  C   UNL A   1      44.587  31.101  28.489  1.00  0.00     0.074 A 
ATOM     40  C   UNL A   1      43.562  32.018  28.943  1.00  0.00     0.031 C 
ATOM     41  C   UNL A   1      41.418  25.526  27.997  1.00  0.00     0.029 A 
ATOM     42  C   UNL A   1      42.823  25.779  27.696  1.00  0.00     0.049 A 
ATOM     43  H   UNL A   1      43.864  27.571  27.916  1.00  0.00     0.167 HD
ATOM     44  C   UNL A   1      45.875  31.452  28.251  1.00  0.00     0.037 A 
ATOM     45  C   UNL A   1      43.693  24.869  27.218  1.00  0.00     0.037 A 
ATOM     46  C   UNL A   1      46.895  30.528  27.824  1.00  0.00     0.049 A 
ATOM     47  C   UNL A   1      45.119  25.277  26.972  1.00  0.00     0.074 A 
ATOM     48  C   UNL A   1      48.241  30.770  27.613  1.00  0.00     0.029 A 
ATOM     49  N   UNL A   1      46.682  29.187  27.542  1.00  0.00    -0.354 N 
ATOM     50  N   UNL A   1      45.679  26.452  27.135  1.00  0.00    -0.248 NA
ATOM     51  C   UNL A   1      46.034  24.236  26.484  1.00  0.00     0.031 C 
ATOM     52  C   UNL A   1      48.834  29.584  27.166  1.00  0.00     0.029 A 
ATOM     53  C   UNL A   1      47.868  28.592  27.142  1.00  0.00     0.049 A 
ATOM     54  H   UNL A   1      45.815  28.725  27.616  1.00  0.00     0.167 HD
ATOM     55  C   UNL A   1      47.017  26.287  26.792  1.00  0.00     0.074 A 
ATOM     56  C   UNL A   1      47.183  24.895  26.424  1.00  0.00     0.031 C 
ATOM     57  C   UNL A   1      48.016  27.203  26.780  1.00  0.00     0.037 A 
BRANCH  44  58
ATOM     58  C   UNL A   1      46.252  32.894  28.450  1.00  0.00     0.058 A 
ATOM     59  C   UNL A   1      46.142  33.835  27.414  1.00  0.00     0.135 A 
ATOM     60  C   UNL A   1      46.707  33.350  29.698  1.00  0.00     0.135 A 
ATOM     61  F   UNL A   1      45.725  33.453  26.196  1.00  0.00    -0.206 F 
ATOM     62  C   UNL A   1      46.501  35.167  27.596  1.00  0.00     0.059 A 
ATOM     63  C   UNL A   1      47.046  34.684  29.912  1.00  0.00     0.059 A 
ATOM     64  F   UNL A   1      46.832  32.496  30.727  1.00  0.00    -0.206 F 
ATOM     65  C   UNL A   1      46.955  35.581  28.849  1.00  0.00     0.060 A 
BRANCH  65  66
ATOM     66  S   UNL A   1      47.424  37.311  29.068  1.00  0.00     0.124 S 
ATOM     67  O   UNL A   1      47.872  37.317  30.457  1.00  0.00    -0.237 OA
ATOM     68  O   UNL A   1      48.471  37.481  28.065  1.00  0.00    -0.237 OA
ATOM     69  O   UNL A   1      46.185  38.035  28.804  1.00  0.00    -0.744 OA
ENDBRANCH  65  66
ENDBRANCH  44  58
BRANCH  45  70
ATOM     70  C   UNL A   1      43.242  23.474  26.971  1.00  0.00     0.058 A 
ATOM     71  C   UNL A   1      43.053  23.000  25.665  1.00  0.00     0.135 A 
ATOM     72  C   UNL A   1      43.018  22.581  28.030  1.00  0.00     0.135 A 
ATOM     73  F   UNL A   1      43.249  23.819  24.620  1.00  0.00    -0.206 F 
ATOM     74  C   UNL A   1      42.648  21.694  25.414  1.00  0.00     0.059 A 
ATOM     75  C   UNL A   1      42.635  21.262  27.804  1.00  0.00     0.059 A 
ATOM     76  F   UNL A   1      43.201  22.980  29.298  1.00  0.00    -0.206 F 
ATOM     77  C   UNL A   1      42.445  20.830  26.493  1.00  0.00     0.060 A 
BRANCH  77  78
ATOM     78  S   UNL A   1      41.979  19.118  26.156  1.00  0.00     0.124 S 
ATOM     79  O   UNL A   1      42.809  18.810  24.996  1.00  0.00    -0.237 OA
ATOM     80  O   UNL A   1      42.345  18.448  27.399  1.00  0.00    -0.237 OA
ATOM     81  O   UNL A   1      40.544  19.206  25.902  1.00  0.00    -0.744 OA
ENDBRANCH  77  78
ENDBRANCH  45  70
BRANCH  57  82
ATOM     82  C   UNL A   1      49.384  26.725  26.382  1.00  0.00     0.058 A 
ATOM     83  C   UNL A   1      50.221  26.051  27.284  1.00  0.00     0.135 A 
ATOM     84  C   UNL A   1      49.847  26.909  25.069  1.00  0.00     0.135 A 
ATOM     85  F   UNL A   1      49.828  25.856  28.553  1.00  0.00    -0.206 F 
ATOM     86  C   UNL A   1      51.481  25.599  26.908  1.00  0.00     0.059 A 
ATOM     87  C   UNL A   1      51.094  26.442  24.663  1.00  0.00     0.059 A 
ATOM     88  F   UNL A   1      49.082  27.538  24.163  1.00  0.00    -0.206 F 
ATOM     89  C   UNL A   1      51.909  25.800  25.594  1.00  0.00     0.060 A 
BRANCH  89  90
ATOM     90  S   UNL A   1      53.536  25.187  25.109  1.00  0.00     0.124 S 
ATOM     91  O   UNL A   1      53.399  23.757  25.362  1.00  0.00    -0.237 OA
ATOM     92  O   UNL A   1      53.612  25.576  23.704  1.00  0.00    -0.237 OA
ATOM     93  O   UNL A   1      54.447  25.900  25.999  1.00  0.00    -0.744 OA
ENDBRANCH  89  90
ENDBRANCH  57  82
ENDBRANCH  31  32
ENDBRANCH  23  26
ENDBRANCH  21  22
ENDBRANCH   1  21
TORSDOF 17
ENDMDL
MODEL 2
REMARK VINA RESULT:     -11.3      1.163      2.018
REMARK SMILES COc1cc(/C=C/C(=O)NCCCNC(=O)c2ccc(-c3c4nc(c(-c5c(F)cc(S(=O)(=O)[O-])cc5F)c5ccc([nH]5)c(-c5c(F)cc(S(=O)(=O)[O-])cc5F)c5nc(c(-c6c(F)cc(S(=O)(=O)[O-])cc6F)c6ccc3[nH]6)C=C5)C=C4)cc2)cc(OC)c1O
REMARK SMILES IDX 12 1 11 2 10 3 8 4 9 5 7 7 6 8 5 9 3 10 4 11 87 12 84 13
REMARK SMILES IDX 83 14 2 15 1 16 88 17 85 19 86 20 13 21 14 22 15 23 16 25
REMARK SMILES IDX 17 26 18 27 82 28 19 29 81 30 20 31 21 32 22 33 75 34 23 35
REMARK SMILES IDX 80 36 74 37 76 38 24 39 79 40 73 41 72 42 25 44 59 45 38 46
REMARK SMILES IDX 58 47 39 48 42 49 57 50 77 51 40 52 41 53 56 55 78 56 43 57
REMARK SMILES IDX 26 58 27 59 36 60 28 61 29 62 35 63 37 64 30 65 31 66 32 67
REMARK SMILES IDX 33 68 34 69 60 70 61 71 70 72 62 73 63 74 69 75 71 76 64 77
REMARK SMILES IDX 65 78 66 79 67 80 68 81 44 82 45 83 54 84 46 85 47 86 53 87
REMARK SMILES IDX 55 88 48 89 49 90 50 91 51 92 52 93
REMARK H PARENT 10 6 88 18 14 24 76 43 42 54
REMARK Flexibility Score: inf
ROOT
ATOM      1  C   UNL A   1      34.327  31.548  27.776  1.00  0.00     0.042 C 
ENDROOT
BRANCH   1   2
ATOM      2  C   UNL A   1      34.123  30.170  27.152  1.00  0.00     0.118 C 
BRANCH   2   3
ATOM      3  N   UNL A   1      32.872  29.567  27.580  1.00  0.00    -0.352 N 
ATOM      4  C   UNL A   1      32.291  28.389  27.236  1.00  0.00     0.244 C 
ATOM      5  O   UNL A   1      31.277  28.018  27.826  1.00  0.00    -0.270 OA
ATOM      6  H   UNL A   1      32.360  30.104  28.227  1.00  0.00     0.163 HD
BRANCH   4   7
ATOM      7  C   UNL A   1      32.905  27.493  26.232  1.00  0.00     0.072 C 
ATOM      8  C   UNL A   1      32.836  26.154  26.260  1.00  0.00     0.014 C 
BRANCH   8   9
ATOM      9  C   UNL A   1      33.492  25.286  25.274  1.00  0.00    -0.018 A 
ATOM     10  C   UNL A   1      33.885  24.563  22.977  1.00  0.00     0.165 A 
ATOM     11  C   UNL A   1      33.190  25.344  23.911  1.00  0.00     0.058 A 
ATOM     12  C   UNL A   1      34.922  23.724  23.419  1.00  0.00     0.200 A 
ATOM     13  C   UNL A   1      35.227  23.635  24.785  1.00  0.00     0.165 A 
ATOM     14  C   UNL A   1      34.509  24.425  25.696  1.00  0.00     0.058 A 
BRANCH  10  15
ATOM     15  O   UNL A   1      33.466  24.783  21.692  1.00  0.00    -0.493 OA
ATOM     16  C   UNL A   1      32.764  25.981  21.395  1.00  0.00     0.278 C 
ENDBRANCH  10  15
BRANCH  12  17
ATOM     17  O   UNL A   1      35.688  23.055  22.507  1.00  0.00    -0.502 OA
ATOM     18  H   UNL A   1      35.297  22.419  21.941  1.00  0.00     0.293 HD
ENDBRANCH  12  17
BRANCH  13  19
ATOM     19  O   UNL A   1      36.194  22.884  25.400  1.00  0.00    -0.493 OA
ATOM     20  C   UNL A   1      35.832  21.650  25.998  1.00  0.00     0.278 C 
ENDBRANCH  13  19
ENDBRANCH   8   9
ENDBRANCH   4   7
ENDBRANCH   2   3
ENDBRANCH   1   2
BRANCH   1  21
ATOM     21  C   UNL A   1      35.652  31.695  28.521  1.00  0.00     0.118 C 
BRANCH  21  22
ATOM     22  N   UNL A   1      35.538  31.321  29.924  1.00  0.00    -0.352 N 
ATOM     23  C   UNL A   1      36.372  30.567  30.711  1.00  0.00     0.251 C 
ATOM     24  H   UNL A   1      34.734  31.663  30.379  1.00  0.00     0.163 HD
ATOM     25  O   UNL A   1      35.971  30.183  31.807  1.00  0.00    -0.269 OA
BRANCH  23  26
ATOM     26  C   UNL A   1      37.734  30.210  30.257  1.00  0.00     0.039 A 
ATOM     27  C   UNL A   1      38.713  29.939  31.217  1.00  0.00     0.014 A 
ATOM     28  C   UNL A   1      38.068  30.198  28.899  1.00  0.00     0.014 A 
ATOM     29  C   UNL A   1      40.010  29.607  30.816  1.00  0.00     0.010 A 
ATOM     30  C   UNL A   1      39.343  29.802  28.498  1.00  0.00     0.010 A 
ATOM     31  C   UNL A   1      40.330  29.510  29.452  1.00  0.00    -0.014 A 
BRANCH  31  32
ATOM     32  C   UNL A   1      41.688  29.101  29.010  1.00  0.00     0.031 A 
ATOM     33  C   UNL A   1      42.805  30.108  28.955  1.00  0.00     0.074 A 
ATOM     34  C   UNL A   1      41.897  27.834  28.602  1.00  0.00     0.049 A 
ATOM     35  N   UNL A   1      44.037  29.952  28.542  1.00  0.00    -0.248 NA
ATOM     36  C   UNL A   1      42.490  31.476  29.397  1.00  0.00     0.031 C 
ATOM     37  C   UNL A   1      40.882  26.780  28.564  1.00  0.00     0.029 A 
ATOM     38  N   UNL A   1      43.031  27.219  28.134  1.00  0.00    -0.354 N 
ATOM     39  C   UNL A   1      44.639  31.199  28.660  1.00  0.00     0.074 A 
ATOM     40  C   UNL A   1      43.623  32.113  29.138  1.00  0.00     0.031 C 
ATOM     41  C   UNL A   1      41.442  25.645  28.118  1.00  0.00     0.029 A 
ATOM     42  C   UNL A   1      42.846  25.896  27.806  1.00  0.00     0.049 A 
ATOM     43  H   UNL A   1      43.896  27.681  28.042  1.00  0.00     0.167 HD
ATOM     44  C   UNL A   1      45.925  31.549  28.413  1.00  0.00     0.037 A 
ATOM     45  C   UNL A   1      43.707  24.990  27.306  1.00  0.00     0.037 A 
ATOM     46  C   UNL A   1      46.937  30.628  27.962  1.00  0.00     0.049 A 
ATOM     47  C   UNL A   1      45.132  25.397  27.050  1.00  0.00     0.074 A 
ATOM     48  C   UNL A   1      48.282  30.867  27.740  1.00  0.00     0.029 A 
ATOM     49  N   UNL A   1      46.716  29.291  27.662  1.00  0.00    -0.354 N 
ATOM     50  N   UNL A   1      45.698  26.567  27.225  1.00  0.00    -0.248 NA
ATOM     51  C   UNL A   1      46.037  24.359  26.537  1.00  0.00     0.031 C 
ATOM     52  C   UNL A   1      48.866  29.685  27.270  1.00  0.00     0.029 A 
ATOM     53  C   UNL A   1      47.895  28.697  27.241  1.00  0.00     0.049 A 
ATOM     54  H   UNL A   1      45.849  28.832  27.738  1.00  0.00     0.167 HD
ATOM     55  C   UNL A   1      47.031  26.401  26.865  1.00  0.00     0.074 A 
ATOM     56  C   UNL A   1      47.188  25.015  26.475  1.00  0.00     0.031 C 
ATOM     57  C   UNL A   1      48.034  27.314  26.856  1.00  0.00     0.037 A 
BRANCH  44  58
ATOM     58  C   UNL A   1      46.311  32.986  28.630  1.00  0.00     0.058 A 
ATOM     59  C   UNL A   1      46.775  33.446  29.873  1.00  0.00     0.135 A 
ATOM     60  C   UNL A   1      46.239  33.913  27.578  1.00  0.00     0.135 A 
ATOM     61  F   UNL A   1      46.852  32.607  30.918  1.00  0.00    -0.206 F 
ATOM     62  C   UNL A   1      47.122  34.778  30.074  1.00  0.00     0.059 A 
ATOM     63  C   UNL A   1      46.607  35.246  27.748  1.00  0.00     0.059 A 
ATOM     64  F   UNL A   1      45.804  33.530  26.366  1.00  0.00    -0.206 F 
ATOM     65  C   UNL A   1      47.031  35.672  29.007  1.00  0.00     0.060 A 
BRANCH  65  66
ATOM     66  S   UNL A   1      47.478  37.399  29.286  1.00  0.00     0.124 S 
ATOM     67  O   UNL A   1      46.774  38.062  28.192  1.00  0.00    -0.237 OA
ATOM     68  O   UNL A   1      46.947  37.647  30.623  1.00  0.00    -0.237 OA
ATOM     69  O   UNL A   1      48.934  37.394  29.184  1.00  0.00    -0.744 OA
ENDBRANCH  65  66
ENDBRANCH  44  58
BRANCH  45  70
ATOM     70  C   UNL A   1      43.247  23.601  27.042  1.00  0.00     0.058 A 
ATOM     71  C   UNL A   1      43.014  23.157  25.733  1.00  0.00     0.135 A 
ATOM     72  C   UNL A   1      43.060  22.684  28.088  1.00  0.00     0.135 A 
ATOM     73  F   UNL A   1      43.175  23.999  24.701  1.00  0.00    -0.206 F 
ATOM     74  C   UNL A   1      42.601  21.856  25.467  1.00  0.00     0.059 A 
ATOM     75  C   UNL A   1      42.669  21.370  27.845  1.00  0.00     0.059 A 
ATOM     76  F   UNL A   1      43.286  23.055  29.357  1.00  0.00    -0.206 F 
ATOM     77  C   UNL A   1      42.435  20.968  26.532  1.00  0.00     0.060 A 
BRANCH  77  78
ATOM     78  S   UNL A   1      41.958  19.263  26.172  1.00  0.00     0.124 S 
ATOM     79  O   UNL A   1      40.534  19.410  25.891  1.00  0.00    -0.237 OA
ATOM     80  O   UNL A   1      42.805  18.941  25.028  1.00  0.00    -0.237 OA
ATOM     81  O   UNL A   1      42.290  18.556  27.405  1.00  0.00    -0.744 OA
ENDBRANCH  77  78
ENDBRANCH  45  70
BRANCH  57  82
ATOM     82  C   UNL A   1      49.396  26.837  26.437  1.00  0.00     0.058 A 
ATOM     83  C   UNL A   1      50.283  26.245  27.348  1.00  0.00     0.135 A 
ATOM     84  C   UNL A   1      49.803  26.937  25.096  1.00  0.00     0.135 A 
ATOM     85  F   UNL A   1      49.945  26.131  28.643  1.00  0.00    -0.206 F 
ATOM     86  C   UNL A   1      51.537  25.793  26.953  1.00  0.00     0.059 A 
ATOM     87  C   UNL A   1      51.043  26.469  24.673  1.00  0.00     0.059 A 
ATOM     88  F   UNL A   1      48.988  27.486  24.181  1.00  0.00    -0.206 F 
ATOM     89  C   UNL A   1      51.908  25.909  25.612  1.00  0.00     0.060 A 
BRANCH  89  90
ATOM     90  S   UNL A   1      53.529  25.297  25.105  1.00  0.00     0.124 S 
ATOM     91  O   UNL A   1      53.399  23.868  25.370  1.00  0.00    -0.237 OA
ATOM     92  O   UNL A   1      53.581  25.677  23.696  1.00  0.00    -0.237 OA
ATOM     93  O   UNL A   1      54.452  26.018  25.975  1.00  0.00    -0.744 OA
ENDBRANCH  89  90
ENDBRANCH  57  82
ENDBRANCH  31  32
ENDBRANCH  23  26
ENDBRANCH  21  22
ENDBRANCH   1  21
TORSDOF 17
ENDMDL
MODEL 3
REMARK VINA RESULT:     -11.2      5.034      6.441
REMARK SMILES COc1cc(/C=C/C(=O)NCCCNC(=O)c2ccc(-c3c4nc(c(-c5c(F)cc(S(=O)(=O)[O-])cc5F)c5ccc([nH]5)c(-c5c(F)cc(S(=O)(=O)[O-])cc5F)c5nc(c(-c6c(F)cc(S(=O)(=O)[O-])cc6F)c6ccc3[nH]6)C=C5)C=C4)cc2)cc(OC)c1O
REMARK SMILES IDX 12 1 11 2 10 3 8 4 9 5 7 7 6 8 5 9 3 10 4 11 87 12 84 13
REMARK SMILES IDX 83 14 2 15 1 16 88 17 85 19 86 20 13 21 14 22 15 23 16 25
REMARK SMILES IDX 17 26 18 27 82 28 19 29 81 30 20 31 21 32 22 33 75 34 23 35
REMARK SMILES IDX 80 36 74 37 76 38 24 39 79 40 73 41 72 42 25 44 59 45 38 46
REMARK SMILES IDX 58 47 39 48 42 49 57 50 77 51 40 52 41 53 56 55 78 56 43 57
REMARK SMILES IDX 26 58 27 59 36 60 28 61 29 62 35 63 37 64 30 65 31 66 32 67
REMARK SMILES IDX 33 68 34 69 60 70 61 71 70 72 62 73 63 74 69 75 71 76 64 77
REMARK SMILES IDX 65 78 66 79 67 80 68 81 44 82 45 83 54 84 46 85 47 86 53 87
REMARK SMILES IDX 55 88 48 89 49 90 50 91 51 92 52 93
REMARK H PARENT 10 6 88 18 14 24 76 43 42 54
REMARK Flexibility Score: inf
ROOT
ATOM      1  C   UNL A   1      33.790  28.249  24.482  1.00  0.00     0.042 C 
ENDROOT
BRANCH   1   2
ATOM      2  C   UNL A   1      33.039  26.949  24.203  1.00  0.00     0.118 C 
BRANCH   2   3
ATOM      3  N   UNL A   1      33.206  26.519  22.825  1.00  0.00    -0.352 N 
ATOM      4  C   UNL A   1      33.391  25.281  22.297  1.00  0.00     0.244 C 
ATOM      5  O   UNL A   1      33.382  25.135  21.076  1.00  0.00    -0.270 OA
ATOM      6  H   UNL A   1      33.182  27.248  22.163  1.00  0.00     0.163 HD
BRANCH   4   7
ATOM      7  C   UNL A   1      33.509  24.087  23.162  1.00  0.00     0.072 C 
ATOM      8  C   UNL A   1      32.860  22.931  22.958  1.00  0.00     0.014 C 
BRANCH   8   9
ATOM      9  C   UNL A   1      32.960  21.774  23.857  1.00  0.00    -0.018 A 
ATOM     10  C   UNL A   1      33.345  20.794  26.058  1.00  0.00     0.165 A 
ATOM     11  C   UNL A   1      33.334  21.901  25.197  1.00  0.00     0.058 A 
ATOM     12  C   UNL A   1      32.948  19.539  25.568  1.00  0.00     0.200 A 
ATOM     13  C   UNL A   1      32.588  19.386  24.221  1.00  0.00     0.165 A 
ATOM     14  C   UNL A   1      32.594  20.511  23.383  1.00  0.00     0.058 A 
BRANCH  10  15
ATOM     15  O   UNL A   1      33.710  21.125  27.336  1.00  0.00    -0.493 OA
ATOM     16  C   UNL A   1      33.243  22.348  27.887  1.00  0.00     0.278 C 
ENDBRANCH  10  15
BRANCH  12  17
ATOM     17  O   UNL A   1      32.834  18.481  26.425  1.00  0.00    -0.502 OA
ATOM     18  H   UNL A   1      32.119  18.441  27.029  1.00  0.00     0.293 HD
ENDBRANCH  12  17
BRANCH  13  19
ATOM     19  O   UNL A   1      32.175  18.255  23.568  1.00  0.00    -0.493 OA
ATOM     20  C   UNL A   1      33.147  17.326  23.113  1.00  0.00     0.278 C 
ENDBRANCH  13  19
ENDBRANCH   8   9
ENDBRANCH   4   7
ENDBRANCH   2   3
ENDBRANCH   1   2
BRANCH   1  21
ATOM     21  C   UNL A   1      34.037  28.508  25.967  1.00  0.00     0.118 C 
BRANCH  21  22
ATOM     22  N   UNL A   1      33.766  29.890  26.335  1.00  0.00    -0.352 N 
ATOM     23  C   UNL A   1      34.342  30.682  27.298  1.00  0.00     0.251 C 
ATOM     24  H   UNL A   1      33.055  30.327  25.811  1.00  0.00     0.163 HD
ATOM     25  O   UNL A   1      33.806  31.746  27.594  1.00  0.00    -0.269 OA
BRANCH  23  26
ATOM     26  C   UNL A   1      35.588  30.267  27.980  1.00  0.00     0.039 A 
ATOM     27  C   UNL A   1      36.810  30.472  27.332  1.00  0.00     0.014 A 
ATOM     28  C   UNL A   1      35.558  29.626  29.223  1.00  0.00     0.014 A 
ATOM     29  C   UNL A   1      38.001  30.082  27.950  1.00  0.00     0.010 A 
ATOM     30  C   UNL A   1      36.751  29.298  29.866  1.00  0.00     0.010 A 
ATOM     31  C   UNL A   1      37.984  29.516  29.234  1.00  0.00    -0.014 A 
BRANCH  31  32
ATOM     32  C   UNL A   1      39.246  29.150  29.928  1.00  0.00     0.031 A 
ATOM     33  C   UNL A   1      39.687  29.905  31.152  1.00  0.00     0.074 A 
ATOM     34  C   UNL A   1      40.023  28.175  29.417  1.00  0.00     0.049 A 
ATOM     35  N   UNL A   1      40.782  29.769  31.856  1.00  0.00    -0.248 NA
ATOM     36  C   UNL A   1      38.794  30.970  31.636  1.00  0.00     0.031 C 
ATOM     37  C   UNL A   1      39.726  27.405  28.208  1.00  0.00     0.029 A 
ATOM     38  N   UNL A   1      41.225  27.670  29.845  1.00  0.00    -0.354 N 
ATOM     39  C   UNL A   1      40.717  30.736  32.852  1.00  0.00     0.074 A 
ATOM     40  C   UNL A   1      39.497  31.484  32.633  1.00  0.00     0.031 C 
ATOM     41  C   UNL A   1      40.707  26.512  28.003  1.00  0.00     0.029 A 
ATOM     42  C   UNL A   1      41.719  26.668  29.043  1.00  0.00     0.049 A 
ATOM     43  H   UNL A   1      41.690  27.995  30.650  1.00  0.00     0.167 HD
ATOM     44  C   UNL A   1      41.583  30.967  33.870  1.00  0.00     0.037 A 
ATOM     45  C   UNL A   1      42.860  25.958  29.132  1.00  0.00     0.037 A 
ATOM     46  C   UNL A   1      42.782  30.201  34.096  1.00  0.00     0.049 A 
ATOM     47  C   UNL A   1      43.800  26.224  30.275  1.00  0.00     0.074 A 
ATOM     48  C   UNL A   1      43.694  30.315  35.131  1.00  0.00     0.029 A 
ATOM     49  N   UNL A   1      43.237  29.179  33.275  1.00  0.00    -0.354 N 
ATOM     50  N   UNL A   1      43.692  27.103  31.243  1.00  0.00    -0.248 NA
ATOM     51  C   UNL A   1      45.013  25.398  30.343  1.00  0.00     0.031 C 
ATOM     52  C   UNL A   1      44.720  29.389  34.914  1.00  0.00     0.029 A 
ATOM     53  C   UNL A   1      44.426  28.666  33.770  1.00  0.00     0.049 A 
ATOM     54  H   UNL A   1      42.782  28.865  32.461  1.00  0.00     0.167 HD
ATOM     55  C   UNL A   1      44.811  26.920  32.049  1.00  0.00     0.074 A 
ATOM     56  C   UNL A   1      45.575  25.838  31.461  1.00  0.00     0.031 C 
ATOM     57  C   UNL A   1      45.174  27.588  33.172  1.00  0.00     0.037 A 
BRANCH  44  58
ATOM     58  C   UNL A   1      41.262  32.091  34.816  1.00  0.00     0.058 A 
ATOM     59  C   UNL A   1      40.446  31.896  35.943  1.00  0.00     0.135 A 
ATOM     60  C   UNL A   1      41.794  33.374  34.611  1.00  0.00     0.135 A 
ATOM     61  F   UNL A   1      39.899  30.694  36.182  1.00  0.00    -0.206 F 
ATOM     62  C   UNL A   1      40.142  32.939  36.812  1.00  0.00     0.059 A 
ATOM     63  C   UNL A   1      41.526  34.427  35.483  1.00  0.00     0.059 A 
ATOM     64  F   UNL A   1      42.581  33.619  33.552  1.00  0.00    -0.206 F 
ATOM     65  C   UNL A   1      40.684  34.202  36.572  1.00  0.00     0.060 A 
BRANCH  65  66
ATOM     66  S   UNL A   1      40.274  35.547  37.704  1.00  0.00     0.124 S 
ATOM     67  O   UNL A   1      39.920  36.615  36.773  1.00  0.00    -0.237 OA
ATOM     68  O   UNL A   1      39.166  34.984  38.471  1.00  0.00    -0.237 OA
ATOM     69  O   UNL A   1      41.510  35.750  38.452  1.00  0.00    -0.744 OA
ENDBRANCH  65  66
ENDBRANCH  44  58
BRANCH  45  70
ATOM     70  C   UNL A   1      43.159  24.909  28.122  1.00  0.00     0.058 A 
ATOM     71  C   UNL A   1      43.788  25.233  26.912  1.00  0.00     0.135 A 
ATOM     72  C   UNL A   1      42.848  23.561  28.358  1.00  0.00     0.135 A 
ATOM     73  F   UNL A   1      44.099  26.509  26.640  1.00  0.00    -0.206 F 
ATOM     74  C   UNL A   1      44.090  24.262  25.964  1.00  0.00     0.059 A 
ATOM     75  C   UNL A   1      43.161  22.567  27.435  1.00  0.00     0.059 A 
ATOM     76  F   UNL A   1      42.261  23.196  29.508  1.00  0.00    -0.206 F 
ATOM     77  C   UNL A   1      43.776  22.929  26.238  1.00  0.00     0.060 A 
BRANCH  77  78
ATOM     78  S   UNL A   1      44.228  21.666  25.027  1.00  0.00     0.124 S 
ATOM     79  O   UNL A   1      43.251  20.622  25.313  1.00  0.00    -0.237 OA
ATOM     80  O   UNL A   1      44.055  22.375  23.763  1.00  0.00    -0.237 OA
ATOM     81  O   UNL A   1      45.611  21.352  25.374  1.00  0.00    -0.744 OA
ENDBRANCH  77  78
ENDBRANCH  45  70
BRANCH  57  82
ATOM     82  C   UNL A   1      46.440  27.151  33.854  1.00  0.00     0.058 A 
ATOM     83  C   UNL A   1      47.680  27.729  33.547  1.00  0.00     0.135 A 
ATOM     84  C   UNL A   1      46.404  26.167  34.855  1.00  0.00     0.135 A 
ATOM     85  F   UNL A   1      47.770  28.669  32.593  1.00  0.00    -0.206 F 
ATOM     86  C   UNL A   1      48.847  27.330  34.190  1.00  0.00     0.059 A 
ATOM     87  C   UNL A   1      47.554  25.770  35.530  1.00  0.00     0.059 A 
ATOM     88  F   UNL A   1      45.240  25.588  35.195  1.00  0.00    -0.206 F 
ATOM     89  C   UNL A   1      48.774  26.349  35.181  1.00  0.00     0.060 A 
BRANCH  89  90
ATOM     90  S   UNL A   1      50.290  25.856  36.027  1.00  0.00     0.124 S 
ATOM     91  O   UNL A   1      49.792  25.533  37.360  1.00  0.00    -0.237 OA
ATOM     92  O   UNL A   1      50.741  24.720  35.228  1.00  0.00    -0.237 OA
ATOM     93  O   UNL A   1      51.130  27.046  35.940  1.00  0.00    -0.744 OA
ENDBRANCH  89  90
ENDBRANCH  57  82
ENDBRANCH  31  32
ENDBRANCH  23  26
ENDBRANCH  21  22
ENDBRANCH   1  21
TORSDOF 17
ENDMDL
