MODEL 1
REMARK VINA RESULT:     -12.2      0.000      0.000
REMARK SMILES O=C(CCC(=O)Nc1ccc(C(=O)N2CCOCC2)cc1)NCCCNC(=O)c1ccc(-c2c3nc(c(-c4c(F)cc(S(=O)(=O)[O-])cc4F)c4ccc([nH]4)c(-c4c(F)cc(S(=O)(=O)[O-])cc4F)c4nc(c(-c5c(F)cc(S(=O)(=O)[O-])cc5F)c5ccc2[nH]5)C=C4)C=C3)cc1
REMARK SMILES IDX 23 1 22 2 1 3 2 4 3 6 4 7 5 8 6 9 7 10 8 12 9 13 21 14 10 15
REMARK SMILES IDX 20 16 11 17 12 18 13 19 14 20 15 21 19 22 16 23 18 24 17 25
REMARK SMILES IDX 24 26 25 27 26 28 27 29 28 31 29 32 30 33 94 34 31 35 93 36
REMARK SMILES IDX 32 37 33 38 34 39 87 40 35 41 92 42 86 43 88 44 36 45 91 46
REMARK SMILES IDX 85 47 84 48 37 50 71 51 50 52 70 53 51 54 54 55 69 56 89 57
REMARK SMILES IDX 52 58 53 59 68 61 90 62 55 63 38 64 39 65 48 66 40 67 41 68
REMARK SMILES IDX 47 69 49 70 42 71 43 72 44 73 45 74 46 75 72 76 73 77 82 78
REMARK SMILES IDX 74 79 75 80 81 81 83 82 76 83 77 84 78 85 79 86 80 87 56 88
REMARK SMILES IDX 57 89 66 90 58 91 59 92 65 93 67 94 60 95 61 96 62 97 63 98
REMARK SMILES IDX 64 99
REMARK H PARENT 22 5 7 11 26 30 88 49 54 60
REMARK Flexibility Score: inf
ROOT
ATOM      1  C   UNL A   1      39.674  21.407  26.144  1.00  0.00     0.117 C 
ENDROOT
BRANCH   1   2
ATOM      2  N   UNL A   1      38.416  21.860  25.590  1.00  0.00    -0.356 N 
ATOM      3  O   UNL A   1      37.815  19.850  24.639  1.00  0.00    -0.275 OA
ATOM      4  C   UNL A   1      37.546  21.007  24.950  1.00  0.00     0.220 C 
ATOM      5  H   UNL A   1      38.173  22.810  25.674  1.00  0.00     0.163 HD
BRANCH   4   6
ATOM      6  C   UNL A   1      36.179  21.604  24.709  1.00  0.00     0.110 C 
BRANCH   6   7
ATOM      7  C   UNL A   1      35.079  21.002  25.581  1.00  0.00     0.110 C 
BRANCH   7   8
ATOM      8  C   UNL A   1      34.144  20.061  24.851  1.00  0.00     0.224 C 
ATOM      9  O   UNL A   1      34.563  18.937  24.546  1.00  0.00    -0.275 OA
ATOM     10  N   UNL A   1      32.883  20.370  24.436  1.00  0.00    -0.326 N 
ATOM     11  H   UNL A   1      32.388  19.586  24.104  1.00  0.00     0.169 HD
BRANCH  10  12
ATOM     12  C   UNL A   1      32.129  21.557  24.374  1.00  0.00     0.041 A 
ATOM     13  C   UNL A   1      32.176  22.278  23.164  1.00  0.00     0.027 A 
ATOM     14  C   UNL A   1      31.447  22.121  25.442  1.00  0.00     0.027 A 
ATOM     15  C   UNL A   1      31.707  23.600  23.091  1.00  0.00     0.016 A 
ATOM     16  C   UNL A   1      30.995  23.437  25.381  1.00  0.00     0.016 A 
ATOM     17  C   UNL A   1      31.179  24.203  24.230  1.00  0.00     0.040 A 
BRANCH  17  18
ATOM     18  C   UNL A   1      30.694  25.607  24.226  1.00  0.00     0.254 C 
ATOM     19  O   UNL A   1      29.567  25.855  23.817  1.00  0.00    -0.269 OA
ATOM     20  N   UNL A   1      31.500  26.520  24.883  1.00  0.00    -0.334 N 
ATOM     21  C   UNL A   1      32.875  26.831  24.484  1.00  0.00     0.148 C 
ATOM     22  C   UNL A   1      30.938  27.415  25.879  1.00  0.00     0.148 C 
ATOM     23  C   UNL A   1      33.783  27.024  25.704  1.00  0.00     0.181 C 
ATOM     24  C   UNL A   1      31.901  27.494  27.072  1.00  0.00     0.181 C 
ATOM     25  O   UNL A   1      33.203  27.940  26.655  1.00  0.00    -0.378 OA
ENDBRANCH  17  18
ENDBRANCH  10  12
ENDBRANCH   7   8
ENDBRANCH   6   7
ENDBRANCH   4   6
ENDBRANCH   1   2
BRANCH   1  26
ATOM     26  C   UNL A   1      40.214  22.276  27.260  1.00  0.00     0.042 C 
BRANCH  26  27
ATOM     27  C   UNL A   1      41.508  23.007  26.938  1.00  0.00     0.118 C 
BRANCH  27  28
ATOM     28  N   UNL A   1      41.400  24.030  25.902  1.00  0.00    -0.352 N 
ATOM     29  C   UNL A   1      41.327  25.401  26.049  1.00  0.00     0.251 C 
ATOM     30  H   UNL A   1      41.377  23.697  24.976  1.00  0.00     0.163 HD
ATOM     31  O   UNL A   1      41.207  26.121  25.062  1.00  0.00    -0.269 OA
BRANCH  29  32
ATOM     32  C   UNL A   1      41.327  25.979  27.412  1.00  0.00     0.039 A 
ATOM     33  C   UNL A   1      42.497  26.566  27.898  1.00  0.00     0.014 A 
ATOM     34  C   UNL A   1      40.140  26.067  28.142  1.00  0.00     0.014 A 
ATOM     35  C   UNL A   1      42.441  27.363  29.045  1.00  0.00     0.010 A 
ATOM     36  C   UNL A   1      40.066  26.943  29.219  1.00  0.00     0.010 A 
ATOM     37  C   UNL A   1      41.209  27.625  29.667  1.00  0.00    -0.014 A 
BRANCH  37  38
ATOM     38  C   UNL A   1      41.070  28.648  30.740  1.00  0.00     0.031 A 
ATOM     39  C   UNL A   1      41.934  28.575  31.971  1.00  0.00     0.074 A 
ATOM     40  C   UNL A   1      40.089  29.573  30.664  1.00  0.00     0.049 A 
ATOM     41  N   UNL A   1      41.860  29.274  33.074  1.00  0.00    -0.248 NA
ATOM     42  C   UNL A   1      42.995  27.555  31.976  1.00  0.00     0.031 C 
ATOM     43  C   UNL A   1      39.135  29.712  29.561  1.00  0.00     0.029 A 
ATOM     44  N   UNL A   1      39.718  30.560  31.543  1.00  0.00    -0.354 N 
ATOM     45  C   UNL A   1      42.840  28.758  33.914  1.00  0.00     0.074 A 
ATOM     46  C   UNL A   1      43.462  27.656  33.211  1.00  0.00     0.031 C 
ATOM     47  C   UNL A   1      38.308  30.741  29.817  1.00  0.00     0.029 A 
ATOM     48  C   UNL A   1      38.641  31.305  31.119  1.00  0.00     0.049 A 
ATOM     49  H   UNL A   1      40.180  30.721  32.398  1.00  0.00     0.167 HD
ATOM     50  C   UNL A   1      43.205  29.176  35.149  1.00  0.00     0.037 A 
ATOM     51  C   UNL A   1      37.985  32.321  31.715  1.00  0.00     0.037 A 
ATOM     52  C   UNL A   1      42.623  30.304  35.827  1.00  0.00     0.049 A 
ATOM     53  C   UNL A   1      38.430  32.789  33.073  1.00  0.00     0.074 A 
ATOM     54  C   UNL A   1      42.982  30.855  37.045  1.00  0.00     0.029 A 
ATOM     55  N   UNL A   1      41.563  31.058  35.344  1.00  0.00    -0.354 N 
ATOM     56  N   UNL A   1      39.397  32.324  33.827  1.00  0.00    -0.248 NA
ATOM     57  C   UNL A   1      37.693  33.916  33.663  1.00  0.00     0.031 C 
ATOM     58  C   UNL A   1      42.120  31.925  37.311  1.00  0.00     0.029 A 
ATOM     59  C   UNL A   1      41.247  32.061  36.245  1.00  0.00     0.049 A 
ATOM     60  H   UNL A   1      41.104  30.902  34.487  1.00  0.00     0.167 HD
ATOM     61  C   UNL A   1      39.397  33.113  34.972  1.00  0.00     0.074 A 
ATOM     62  C   UNL A   1      38.343  34.093  34.806  1.00  0.00     0.031 C 
ATOM     63  C   UNL A   1      40.197  33.031  36.063  1.00  0.00     0.037 A 
BRANCH  50  64
ATOM     64  C   UNL A   1      44.302  28.415  35.840  1.00  0.00     0.058 A 
ATOM     65  C   UNL A   1      44.021  27.337  36.693  1.00  0.00     0.135 A 
ATOM     66  C   UNL A   1      45.648  28.755  35.632  1.00  0.00     0.135 A 
ATOM     67  F   UNL A   1      42.749  26.982  36.938  1.00  0.00    -0.206 F 
ATOM     68  C   UNL A   1      45.035  26.643  37.345  1.00  0.00     0.059 A 
ATOM     69  C   UNL A   1      46.681  28.058  36.254  1.00  0.00     0.059 A 
ATOM     70  F   UNL A   1      45.972  29.778  34.826  1.00  0.00    -0.206 F 
ATOM     71  C   UNL A   1      46.361  27.015  37.124  1.00  0.00     0.060 A 
BRANCH  71  72
ATOM     72  S   UNL A   1      47.666  26.112  37.983  1.00  0.00     0.124 S 
ATOM     73  O   UNL A   1      48.650  27.167  38.204  1.00  0.00    -0.237 OA
ATOM     74  O   UNL A   1      46.979  25.626  39.176  1.00  0.00    -0.237 OA
ATOM     75  O   UNL A   1      48.052  25.081  37.024  1.00  0.00    -0.744 OA
ENDBRANCH  71  72
ENDBRANCH  50  64
BRANCH  51  76
ATOM     76  C   UNL A   1      36.847  32.980  31.022  1.00  0.00     0.058 A 
ATOM     77  C   UNL A   1      35.526  32.738  31.427  1.00  0.00     0.135 A 
ATOM     78  C   UNL A   1      37.052  33.867  29.954  1.00  0.00     0.135 A 
ATOM     79  F   UNL A   1      35.280  31.892  32.439  1.00  0.00    -0.206 F 
ATOM     80  C   UNL A   1      34.446  33.343  30.792  1.00  0.00     0.059 A 
ATOM     81  C   UNL A   1      35.990  34.500  29.316  1.00  0.00     0.059 A 
ATOM     82  F   UNL A   1      38.299  34.144  29.540  1.00  0.00    -0.206 F 
ATOM     83  C   UNL A   1      34.689  34.223  29.736  1.00  0.00     0.060 A 
BRANCH  83  84
ATOM     84  S   UNL A   1      33.285  35.042  28.949  1.00  0.00     0.124 S 
ATOM     85  O   UNL A   1      32.818  34.009  28.033  1.00  0.00    -0.237 OA
ATOM     86  O   UNL A   1      32.417  35.328  30.087  1.00  0.00    -0.237 OA
ATOM     87  O   UNL A   1      33.891  36.216  28.326  1.00  0.00    -0.744 OA
ENDBRANCH  83  84
ENDBRANCH  51  76
BRANCH  63  88
ATOM     88  C   UNL A   1      39.979  34.039  37.155  1.00  0.00     0.058 A 
ATOM     89  C   UNL A   1      40.546  35.320  37.093  1.00  0.00     0.135 A 
ATOM     90  C   UNL A   1      39.151  33.737  38.247  1.00  0.00     0.135 A 
ATOM     91  F   UNL A   1      41.352  35.654  36.073  1.00  0.00    -0.206 F 
ATOM     92  C   UNL A   1      40.309  36.266  38.085  1.00  0.00     0.059 A 
ATOM     93  C   UNL A   1      38.883  34.675  39.240  1.00  0.00     0.059 A 
ATOM     94  F   UNL A   1      38.578  32.527  38.348  1.00  0.00    -0.206 F 
ATOM     95  C   UNL A   1      39.475  35.934  39.154  1.00  0.00     0.060 A 
BRANCH  95  96
ATOM     96  S   UNL A   1      39.141  37.184  40.413  1.00  0.00     0.124 S 
ATOM     97  O   UNL A   1      40.482  37.683  40.695  1.00  0.00    -0.237 OA
ATOM     98  O   UNL A   1      38.253  38.107  39.713  1.00  0.00    -0.237 OA
ATOM     99  O   UNL A   1      38.515  36.420  41.490  1.00  0.00    -0.744 OA
ENDBRANCH  95  96
ENDBRANCH  63  88
ENDBRANCH  37  38
ENDBRANCH  29  32
ENDBRANCH  27  28
ENDBRANCH  26  27
ENDBRANCH   1  26
TORSDOF 17
ENDMDL
MODEL 2
REMARK VINA RESULT:     -12.1      1.363      2.914
REMARK SMILES O=C(CCC(=O)Nc1ccc(C(=O)N2CCOCC2)cc1)NCCCNC(=O)c1ccc(-c2c3nc(c(-c4c(F)cc(S(=O)(=O)[O-])cc4F)c4ccc([nH]4)c(-c4c(F)cc(S(=O)(=O)[O-])cc4F)c4nc(c(-c5c(F)cc(S(=O)(=O)[O-])cc5F)c5ccc2[nH]5)C=C4)C=C3)cc1
REMARK SMILES IDX 23 1 22 2 1 3 2 4 3 6 4 7 5 8 6 9 7 10 8 12 9 13 21 14 10 15
REMARK SMILES IDX 20 16 11 17 12 18 13 19 14 20 15 21 19 22 16 23 18 24 17 25
REMARK SMILES IDX 24 26 25 27 26 28 27 29 28 31 29 32 30 33 94 34 31 35 93 36
REMARK SMILES IDX 32 37 33 38 34 39 87 40 35 41 92 42 86 43 88 44 36 45 91 46
REMARK SMILES IDX 85 47 84 48 37 50 71 51 50 52 70 53 51 54 54 55 69 56 89 57
REMARK SMILES IDX 52 58 53 59 68 61 90 62 55 63 38 64 39 65 48 66 40 67 41 68
REMARK SMILES IDX 47 69 49 70 42 71 43 72 44 73 45 74 46 75 72 76 73 77 82 78
REMARK SMILES IDX 74 79 75 80 81 81 83 82 76 83 77 84 78 85 79 86 80 87 56 88
REMARK SMILES IDX 57 89 66 90 58 91 59 92 65 93 67 94 60 95 61 96 62 97 63 98
REMARK SMILES IDX 64 99
REMARK H PARENT 22 5 7 11 26 30 88 49 54 60
REMARK Flexibility Score: inf
ROOT
ATOM      1  C   UNL A   1      44.146  21.352  25.823  1.00  0.00     0.117 C 
ENDROOT
BRANCH   1   2
ATOM      2  N   UNL A   1      42.752  21.142  26.154  1.00  0.00    -0.356 N 
ATOM      3  O   UNL A   1      42.649  18.950  25.454  1.00  0.00    -0.275 OA
ATOM      4  C   UNL A   1      42.141  19.916  26.015  1.00  0.00     0.220 C 
ATOM      5  H   UNL A   1      42.222  21.901  26.490  1.00  0.00     0.163 HD
BRANCH   4   6
ATOM      6  C   UNL A   1      40.787  19.835  26.682  1.00  0.00     0.110 C 
BRANCH   6   7
ATOM      7  C   UNL A   1      39.666  20.503  25.889  1.00  0.00     0.110 C 
BRANCH   7   8
ATOM      8  C   UNL A   1      39.493  21.980  26.170  1.00  0.00     0.224 C 
ATOM      9  O   UNL A   1      40.354  22.553  26.851  1.00  0.00    -0.275 OA
ATOM     10  N   UNL A   1      38.424  22.734  25.788  1.00  0.00    -0.326 N 
ATOM     11  H   UNL A   1      38.561  23.696  25.944  1.00  0.00     0.169 HD
BRANCH  10  12
ATOM     12  C   UNL A   1      37.168  22.447  25.222  1.00  0.00     0.041 A 
ATOM     13  C   UNL A   1      36.700  23.333  24.231  1.00  0.00     0.027 A 
ATOM     14  C   UNL A   1      36.317  21.437  25.646  1.00  0.00     0.027 A 
ATOM     15  C   UNL A   1      35.358  23.311  23.816  1.00  0.00     0.016 A 
ATOM     16  C   UNL A   1      34.981  21.420  25.251  1.00  0.00     0.016 A 
ATOM     17  C   UNL A   1      34.480  22.392  24.385  1.00  0.00     0.040 A 
BRANCH  17  18
ATOM     18  C   UNL A   1      33.043  22.338  24.012  1.00  0.00     0.254 C 
ATOM     19  O   UNL A   1      32.654  21.472  23.238  1.00  0.00    -0.269 OA
ATOM     20  N   UNL A   1      32.205  23.166  24.737  1.00  0.00    -0.334 N 
ATOM     21  C   UNL A   1      32.306  24.627  24.743  1.00  0.00     0.148 C 
ATOM     22  C   UNL A   1      31.002  22.636  25.355  1.00  0.00     0.148 C 
ATOM     23  C   UNL A   1      32.042  25.202  26.140  1.00  0.00     0.181 C 
ATOM     24  C   UNL A   1      30.865  23.237  26.761  1.00  0.00     0.181 C 
ATOM     25  O   UNL A   1      30.826  24.673  26.706  1.00  0.00    -0.378 OA
ENDBRANCH  17  18
ENDBRANCH  10  12
ENDBRANCH   7   8
ENDBRANCH   6   7
ENDBRANCH   4   6
ENDBRANCH   1   2
BRANCH   1  26
ATOM     26  C   UNL A   1      44.525  22.802  25.611  1.00  0.00     0.042 C 
BRANCH  26  27
ATOM     27  C   UNL A   1      43.652  23.810  26.342  1.00  0.00     0.118 C 
BRANCH  27  28
ATOM     28  N   UNL A   1      42.661  24.487  25.512  1.00  0.00    -0.352 N 
ATOM     29  C   UNL A   1      41.893  25.593  25.816  1.00  0.00     0.251 C 
ATOM     30  H   UNL A   1      42.521  24.103  24.616  1.00  0.00     0.163 HD
ATOM     31  O   UNL A   1      41.076  26.019  25.005  1.00  0.00    -0.269 OA
BRANCH  29  32
ATOM     32  C   UNL A   1      42.022  26.212  27.155  1.00  0.00     0.039 A 
ATOM     33  C   UNL A   1      42.912  27.274  27.327  1.00  0.00     0.014 A 
ATOM     34  C   UNL A   1      41.165  25.838  28.192  1.00  0.00     0.014 A 
ATOM     35  C   UNL A   1      42.840  28.051  28.487  1.00  0.00     0.010 A 
ATOM     36  C   UNL A   1      41.024  26.673  29.294  1.00  0.00     0.010 A 
ATOM     37  C   UNL A   1      41.839  27.807  29.442  1.00  0.00    -0.014 A 
BRANCH  37  38
ATOM     38  C   UNL A   1      41.578  28.747  30.567  1.00  0.00     0.031 A 
ATOM     39  C   UNL A   1      42.392  28.658  31.831  1.00  0.00     0.074 A 
ATOM     40  C   UNL A   1      40.535  29.602  30.500  1.00  0.00     0.049 A 
ATOM     41  N   UNL A   1      42.218  29.278  32.969  1.00  0.00    -0.248 NA
ATOM     42  C   UNL A   1      43.524  27.718  31.825  1.00  0.00     0.031 C 
ATOM     43  C   UNL A   1      39.621  29.742  29.363  1.00  0.00     0.029 A 
ATOM     44  N   UNL A   1      40.054  30.502  31.419  1.00  0.00    -0.354 N 
ATOM     45  C   UNL A   1      43.197  28.781  33.823  1.00  0.00     0.074 A 
ATOM     46  C   UNL A   1      43.928  27.774  33.085  1.00  0.00     0.031 C 
ATOM     47  C   UNL A   1      38.710  30.690  29.641  1.00  0.00     0.029 A 
ATOM     48  C   UNL A   1      38.944  31.193  30.990  1.00  0.00     0.049 A 
ATOM     49  H   UNL A   1      40.465  30.641  32.303  1.00  0.00     0.167 HD
ATOM     50  C   UNL A   1      43.476  29.145  35.097  1.00  0.00     0.037 A 
ATOM     51  C   UNL A   1      38.189  32.120  31.614  1.00  0.00     0.037 A 
ATOM     52  C   UNL A   1      42.782  30.183  35.813  1.00  0.00     0.049 A 
ATOM     53  C   UNL A   1      38.538  32.531  33.017  1.00  0.00     0.074 A 
ATOM     54  C   UNL A   1      43.046  30.680  37.078  1.00  0.00     0.029 A 
ATOM     55  N   UNL A   1      41.691  30.888  35.326  1.00  0.00    -0.354 N 
ATOM     56  N   UNL A   1      39.504  32.089  33.787  1.00  0.00    -0.248 NA
ATOM     57  C   UNL A   1      37.695  33.563  33.638  1.00  0.00     0.031 C 
ATOM     58  C   UNL A   1      42.097  31.666  37.366  1.00  0.00     0.029 A 
ATOM     59  C   UNL A   1      41.263  31.806  36.270  1.00  0.00     0.049 A 
ATOM     60  H   UNL A   1      41.283  30.754  34.441  1.00  0.00     0.167 HD
ATOM     61  C   UNL A   1      39.396  32.802  34.976  1.00  0.00     0.074 A 
ATOM     62  C   UNL A   1      38.280  33.712  34.820  1.00  0.00     0.031 C 
ATOM     63  C   UNL A   1      40.152  32.708  36.097  1.00  0.00     0.037 A 
BRANCH  50  64
ATOM     64  C   UNL A   1      44.596  28.423  35.792  1.00  0.00     0.058 A 
ATOM     65  C   UNL A   1      45.925  28.863  35.694  1.00  0.00     0.135 A 
ATOM     66  C   UNL A   1      44.335  27.290  36.579  1.00  0.00     0.135 A 
ATOM     67  F   UNL A   1      46.229  29.932  34.941  1.00  0.00    -0.206 F 
ATOM     68  C   UNL A   1      46.963  28.185  36.324  1.00  0.00     0.059 A 
ATOM     69  C   UNL A   1      45.356  26.611  37.240  1.00  0.00     0.059 A 
ATOM     70  F   UNL A   1      43.082  26.827  36.706  1.00  0.00    -0.206 F 
ATOM     71  C   UNL A   1      46.669  27.056  37.089  1.00  0.00     0.060 A 
BRANCH  71  72
ATOM     72  S   UNL A   1      48.027  26.181  37.894  1.00  0.00     0.124 S 
ATOM     73  O   UNL A   1      48.489  27.182  38.850  1.00  0.00    -0.237 OA
ATOM     74  O   UNL A   1      47.355  25.019  38.469  1.00  0.00    -0.237 OA
ATOM     75  O   UNL A   1      48.942  25.890  36.795  1.00  0.00    -0.744 OA
ENDBRANCH  71  72
ENDBRANCH  50  64
BRANCH  51  76
ATOM     76  C   UNL A   1      37.036  32.738  30.909  1.00  0.00     0.058 A 
ATOM     77  C   UNL A   1      37.238  33.730  29.938  1.00  0.00     0.135 A 
ATOM     78  C   UNL A   1      35.715  32.346  31.179  1.00  0.00     0.135 A 
ATOM     79  F   UNL A   1      38.482  34.142  29.651  1.00  0.00    -0.206 F 
ATOM     80  C   UNL A   1      36.173  34.324  29.268  1.00  0.00     0.059 A 
ATOM     81  C   UNL A   1      34.634  32.910  30.508  1.00  0.00     0.059 A 
ATOM     82  F   UNL A   1      35.471  31.389  32.087  1.00  0.00    -0.206 F 
ATOM     83  C   UNL A   1      34.874  33.905  29.560  1.00  0.00     0.060 A 
BRANCH  83  84
ATOM     84  S   UNL A   1      33.500  34.645  28.650  1.00  0.00     0.124 S 
ATOM     85  O   UNL A   1      32.544  34.902  29.720  1.00  0.00    -0.237 OA
ATOM     86  O   UNL A   1      34.124  35.821  28.052  1.00  0.00    -0.237 OA
ATOM     87  O   UNL A   1      33.125  33.597  27.704  1.00  0.00    -0.744 OA
ENDBRANCH  83  84
ENDBRANCH  51  76
BRANCH  63  88
ATOM     88  C   UNL A   1      39.813  33.626  37.237  1.00  0.00     0.058 A 
ATOM     89  C   UNL A   1      38.919  33.240  38.246  1.00  0.00     0.135 A 
ATOM     90  C   UNL A   1      40.432  34.881  37.348  1.00  0.00     0.135 A 
ATOM     91  F   UNL A   1      38.296  32.053  38.180  1.00  0.00    -0.206 F 
ATOM     92  C   UNL A   1      38.638  34.075  39.323  1.00  0.00     0.059 A 
ATOM     93  C   UNL A   1      40.182  35.723  38.427  1.00  0.00     0.059 A 
ATOM     94  F   UNL A   1      41.302  35.292  36.412  1.00  0.00    -0.206 F 
ATOM     95  C   UNL A   1      39.275  35.314  39.405  1.00  0.00     0.060 A 
BRANCH  95  96
ATOM     96  S   UNL A   1      38.936  36.371  40.829  1.00  0.00     0.124 S 
ATOM     97  O   UNL A   1      38.521  37.611  40.181  1.00  0.00    -0.237 OA
ATOM     98  O   UNL A   1      37.885  35.636  41.525  1.00  0.00    -0.237 OA
ATOM     99  O   UNL A   1      40.219  36.425  41.525  1.00  0.00    -0.744 OA
ENDBRANCH  95  96
ENDBRANCH  63  88
ENDBRANCH  37  38
ENDBRANCH  29  32
ENDBRANCH  27  28
ENDBRANCH  26  27
ENDBRANCH   1  26
TORSDOF 17
ENDMDL
MODEL 3
REMARK VINA RESULT:     -12.0      5.183     10.864
REMARK SMILES O=C(CCC(=O)Nc1ccc(C(=O)N2CCOCC2)cc1)NCCCNC(=O)c1ccc(-c2c3nc(c(-c4c(F)cc(S(=O)(=O)[O-])cc4F)c4ccc([nH]4)c(-c4c(F)cc(S(=O)(=O)[O-])cc4F)c4nc(c(-c5c(F)cc(S(=O)(=O)[O-])cc5F)c5ccc2[nH]5)C=C4)C=C3)cc1
REMARK SMILES IDX 23 1 22 2 1 3 2 4 3 6 4 7 5 8 6 9 7 10 8 12 9 13 21 14 10 15
REMARK SMILES IDX 20 16 11 17 12 18 13 19 14 20 15 21 19 22 16 23 18 24 17 25
REMARK SMILES IDX 24 26 25 27 26 28 27 29 28 31 29 32 30 33 94 34 31 35 93 36
REMARK SMILES IDX 32 37 33 38 34 39 87 40 35 41 92 42 86 43 88 44 36 45 91 46
REMARK SMILES IDX 85 47 84 48 37 50 71 51 50 52 70 53 51 54 54 55 69 56 89 57
REMARK SMILES IDX 52 58 53 59 68 61 90 62 55 63 38 64 39 65 48 66 40 67 41 68
REMARK SMILES IDX 47 69 49 70 42 71 43 72 44 73 45 74 46 75 72 76 73 77 82 78
REMARK SMILES IDX 74 79 75 80 81 81 83 82 76 83 77 84 78 85 79 86 80 87 56 88
REMARK SMILES IDX 57 89 66 90 58 91 59 92 65 93 67 94 60 95 61 96 62 97 63 98
REMARK SMILES IDX 64 99
REMARK H PARENT 22 5 7 11 26 30 88 49 54 60
REMARK Flexibility Score: inf
ROOT
ATOM      1  C   UNL A   1      31.632  28.520  26.595  1.00  0.00     0.117 C 
ENDROOT
BRANCH   1   2
ATOM      2  N   UNL A   1      31.378  27.285  25.883  1.00  0.00    -0.356 N 
ATOM      3  O   UNL A   1      32.389  27.912  23.911  1.00  0.00    -0.275 OA
ATOM      4  C   UNL A   1      31.860  27.057  24.614  1.00  0.00     0.220 C 
ATOM      5  H   UNL A   1      30.843  26.584  26.321  1.00  0.00     0.163 HD
BRANCH   4   6
ATOM      6  C   UNL A   1      31.739  25.617  24.170  1.00  0.00     0.110 C 
BRANCH   6   7
ATOM      7  C   UNL A   1      31.051  25.443  22.819  1.00  0.00     0.110 C 
BRANCH   7   8
ATOM      8  C   UNL A   1      31.994  25.187  21.663  1.00  0.00     0.224 C 
ATOM      9  O   UNL A   1      31.858  25.862  20.633  1.00  0.00    -0.275 OA
ATOM     10  N   UNL A   1      32.954  24.220  21.629  1.00  0.00    -0.326 N 
ATOM     11  H   UNL A   1      33.551  24.302  20.851  1.00  0.00     0.169 HD
BRANCH  10  12
ATOM     12  C   UNL A   1      33.284  23.129  22.456  1.00  0.00     0.041 A 
ATOM     13  C   UNL A   1      32.337  22.090  22.545  1.00  0.00     0.027 A 
ATOM     14  C   UNL A   1      34.405  23.060  23.269  1.00  0.00     0.027 A 
ATOM     15  C   UNL A   1      32.429  21.111  23.549  1.00  0.00     0.016 A 
ATOM     16  C   UNL A   1      34.494  22.102  24.277  1.00  0.00     0.016 A 
ATOM     17  C   UNL A   1      33.478  21.164  24.462  1.00  0.00     0.040 A 
BRANCH  17  18
ATOM     18  C   UNL A   1      33.616  20.178  25.564  1.00  0.00     0.254 C 
ATOM     19  O   UNL A   1      33.542  20.558  26.726  1.00  0.00    -0.269 OA
ATOM     20  N   UNL A   1      33.620  18.848  25.180  1.00  0.00    -0.334 N 
ATOM     21  C   UNL A   1      34.639  18.252  24.313  1.00  0.00     0.148 C 
ATOM     22  C   UNL A   1      32.732  17.894  25.822  1.00  0.00     0.148 C 
ATOM     23  C   UNL A   1      34.022  17.247  23.333  1.00  0.00     0.181 C 
ATOM     24  C   UNL A   1      32.135  16.975  24.747  1.00  0.00     0.181 C 
ATOM     25  O   UNL A   1      33.171  16.302  24.012  1.00  0.00    -0.378 OA
ENDBRANCH  17  18
ENDBRANCH  10  12
ENDBRANCH   7   8
ENDBRANCH   6   7
ENDBRANCH   4   6
ENDBRANCH   1   2
BRANCH   1  26
ATOM     26  C   UNL A   1      32.991  28.590  27.258  1.00  0.00     0.042 C 
BRANCH  26  27
ATOM     27  C   UNL A   1      33.805  29.831  26.928  1.00  0.00     0.118 C 
BRANCH  27  28
ATOM     28  N   UNL A   1      33.814  30.859  27.965  1.00  0.00    -0.352 N 
ATOM     29  C   UNL A   1      34.808  31.155  28.876  1.00  0.00     0.251 C 
ATOM     30  H   UNL A   1      33.003  31.415  28.021  1.00  0.00     0.163 HD
ATOM     31  O   UNL A   1      34.637  32.041  29.709  1.00  0.00    -0.269 OA
BRANCH  29  32
ATOM     32  C   UNL A   1      36.047  30.345  28.877  1.00  0.00     0.039 A 
ATOM     33  C   UNL A   1      36.812  30.278  27.711  1.00  0.00     0.014 A 
ATOM     34  C   UNL A   1      36.520  29.778  30.062  1.00  0.00     0.014 A 
ATOM     35  C   UNL A   1      38.113  29.769  27.771  1.00  0.00     0.010 A 
ATOM     36  C   UNL A   1      37.847  29.371  30.141  1.00  0.00     0.010 A 
ATOM     37  C   UNL A   1      38.669  29.388  29.003  1.00  0.00    -0.014 A 
BRANCH  37  38
ATOM     38  C   UNL A   1      40.116  29.065  29.148  1.00  0.00     0.031 A 
ATOM     39  C   UNL A   1      41.089  30.130  29.578  1.00  0.00     0.074 A 
ATOM     40  C   UNL A   1      40.573  27.849  28.780  1.00  0.00     0.049 A 
ATOM     41  N   UNL A   1      42.395  30.089  29.614  1.00  0.00    -0.248 NA
ATOM     42  C   UNL A   1      40.518  31.425  29.983  1.00  0.00     0.031 C 
ATOM     43  C   UNL A   1      39.749  26.746  28.277  1.00  0.00     0.029 A 
ATOM     44  N   UNL A   1      41.849  27.342  28.752  1.00  0.00    -0.354 N 
ATOM     45  C   UNL A   1      42.803  31.356  30.013  1.00  0.00     0.074 A 
ATOM     46  C   UNL A   1      41.607  32.157  30.159  1.00  0.00     0.031 C 
ATOM     47  C   UNL A   1      40.535  25.687  28.019  1.00  0.00     0.029 A 
ATOM     48  C   UNL A   1      41.921  26.047  28.292  1.00  0.00     0.049 A 
ATOM     49  H   UNL A   1      42.638  27.856  29.036  1.00  0.00     0.167 HD
ATOM     50  C   UNL A   1      44.057  31.807  30.257  1.00  0.00     0.037 A 
ATOM     51  C   UNL A   1      42.984  25.240  28.098  1.00  0.00     0.037 A 
ATOM     52  C   UNL A   1      45.241  30.997  30.161  1.00  0.00     0.049 A 
ATOM     53  C   UNL A   1      44.363  25.753  28.407  1.00  0.00     0.074 A 
ATOM     54  C   UNL A   1      46.546  31.341  30.468  1.00  0.00     0.029 A 
ATOM     55  N   UNL A   1      45.267  29.677  29.733  1.00  0.00    -0.354 N 
ATOM     56  N   UNL A   1      44.723  26.938  28.838  1.00  0.00    -0.248 NA
ATOM     57  C   UNL A   1      45.482  24.822  28.200  1.00  0.00     0.031 C 
ATOM     58  C   UNL A   1      47.364  30.238  30.198  1.00  0.00     0.029 A 
ATOM     59  C   UNL A   1      46.565  29.198  29.755  1.00  0.00     0.049 A 
ATOM     60  H   UNL A   1      44.477  29.160  29.454  1.00  0.00     0.167 HD
ATOM     61  C   UNL A   1      46.106  26.890  28.972  1.00  0.00     0.074 A 
ATOM     62  C   UNL A   1      46.518  25.555  28.588  1.00  0.00     0.031 C 
ATOM     63  C   UNL A   1      46.958  27.865  29.373  1.00  0.00     0.037 A 
BRANCH  50  64
ATOM     64  C   UNL A   1      44.206  33.245  30.669  1.00  0.00     0.058 A 
ATOM     65  C   UNL A   1      44.226  33.622  32.020  1.00  0.00     0.135 A 
ATOM     66  C   UNL A   1      44.348  34.254  29.703  1.00  0.00     0.135 A 
ATOM     67  F   UNL A   1      44.078  32.697  32.983  1.00  0.00    -0.206 F 
ATOM     68  C   UNL A   1      44.347  34.954  32.401  1.00  0.00     0.059 A 
ATOM     69  C   UNL A   1      44.496  35.591  30.062  1.00  0.00     0.059 A 
ATOM     70  F   UNL A   1      44.335  33.948  28.397  1.00  0.00    -0.206 F 
ATOM     71  C   UNL A   1      44.476  35.931  31.415  1.00  0.00     0.060 A 
BRANCH  71  72
ATOM     72  S   UNL A   1      44.624  37.657  31.923  1.00  0.00     0.124 S 
ATOM     73  O   UNL A   1      44.466  38.348  30.647  1.00  0.00    -0.237 OA
ATOM     74  O   UNL A   1      43.517  37.804  32.864  1.00  0.00    -0.237 OA
ATOM     75  O   UNL A   1      45.956  37.724  32.514  1.00  0.00    -0.744 OA
ENDBRANCH  71  72
ENDBRANCH  50  64
BRANCH  51  76
ATOM     76  C   UNL A   1      42.785  23.853  27.602  1.00  0.00     0.058 A 
ATOM     77  C   UNL A   1      42.745  23.584  26.226  1.00  0.00     0.135 A 
ATOM     78  C   UNL A   1      42.643  22.772  28.485  1.00  0.00     0.135 A 
ATOM     79  F   UNL A   1      42.869  24.587  25.344  1.00  0.00    -0.206 F 
ATOM     80  C   UNL A   1      42.558  22.294  25.740  1.00  0.00     0.059 A 
ATOM     81  C   UNL A   1      42.476  21.470  28.024  1.00  0.00     0.059 A 
ATOM     82  F   UNL A   1      42.692  22.976  29.811  1.00  0.00    -0.206 F 
ATOM     83  C   UNL A   1      42.424  21.243  26.648  1.00  0.00     0.060 A 
BRANCH  83  84
ATOM     84  S   UNL A   1      42.232  19.564  26.010  1.00  0.00     0.124 S 
ATOM     85  O   UNL A   1      43.184  19.559  24.906  1.00  0.00    -0.237 OA
ATOM     86  O   UNL A   1      42.590  18.751  27.168  1.00  0.00    -0.237 OA
ATOM     87  O   UNL A   1      40.822  19.511  25.631  1.00  0.00    -0.744 OA
ENDBRANCH  83  84
ENDBRANCH  51  76
BRANCH  63  88
ATOM     88  C   UNL A   1      48.418  27.520  29.439  1.00  0.00     0.058 A 
ATOM     89  C   UNL A   1      49.282  27.788  28.368  1.00  0.00     0.135 A 
ATOM     90  C   UNL A   1      48.968  26.968  30.607  1.00  0.00     0.135 A 
ATOM     91  F   UNL A   1      48.803  28.307  27.226  1.00  0.00    -0.206 F 
ATOM     92  C   UNL A   1      50.643  27.506  28.446  1.00  0.00     0.059 A 
ATOM     93  C   UNL A   1      50.328  26.699  30.716  1.00  0.00     0.059 A 
ATOM     94  F   UNL A   1      48.183  26.702  31.664  1.00  0.00    -0.206 F 
ATOM     95  C   UNL A   1      51.156  26.963  29.625  1.00  0.00     0.060 A 
BRANCH  95  96
ATOM     96  S   UNL A   1      52.930  26.641  29.731  1.00  0.00     0.124 S 
ATOM     97  O   UNL A   1      53.467  27.994  29.838  1.00  0.00    -0.237 OA
ATOM     98  O   UNL A   1      53.030  25.822  30.935  1.00  0.00    -0.237 OA
ATOM     99  O   UNL A   1      53.224  25.945  28.482  1.00  0.00    -0.744 OA
ENDBRANCH  95  96
ENDBRANCH  63  88
ENDBRANCH  37  38
ENDBRANCH  29  32
ENDBRANCH  27  28
ENDBRANCH  26  27
ENDBRANCH   1  26
TORSDOF 17
ENDMDL
