MODEL 1
REMARK VINA RESULT:     -14.8      0.000      0.000
REMARK SMILES Cc1ccc(C(=O)N2CCCC[C@@H]2C(=O)NCCCNC(=O)c2ccc(-c3c4nc(c(-c5c(F)cc(S(=O)(=O)[O-])cc5F)c5ccc([nH]5)c(-c5c(F)cc(S(=O)(=O)[O-])cc5F)c5nc(c(-c6c(F)cc(S(=O)(=O)[O-])cc6F)c6ccc3[nH]6)C=C5)C=C4)cc2)cc1S(=O)(=O)N1CCCCC1
REMARK SMILES IDX 17 1 16 2 14 3 15 4 13 6 8 7 9 8 10 9 12 10 11 11 6 12 7 13
REMARK SMILES IDX 5 14 1 15 2 16 3 17 90 18 4 19 89 20 91 21 92 22 93 23 94 24
REMARK SMILES IDX 95 25 99 26 96 27 98 28 97 29 18 30 19 31 20 32 21 33 22 35
REMARK SMILES IDX 23 36 24 37 88 38 25 39 87 40 26 41 27 42 28 43 81 44 29 45
REMARK SMILES IDX 86 46 80 47 82 48 30 49 85 50 79 51 78 52 31 54 65 55 44 56
REMARK SMILES IDX 64 57 45 58 48 59 63 60 83 61 46 62 47 63 62 65 84 66 49 67
REMARK SMILES IDX 32 68 33 69 42 70 34 71 35 72 41 73 43 74 36 75 37 76 38 77
REMARK SMILES IDX 39 78 40 79 66 80 67 81 76 82 68 83 69 84 75 85 77 86 70 87
REMARK SMILES IDX 71 88 72 89 73 90 74 91 50 92 51 93 60 94 52 95 53 96 59 97
REMARK SMILES IDX 61 98 54 99 55 100 56 101 57 102 58 103
REMARK H PARENT 16 5 20 34 82 53 48 64
REMARK Flexibility Score: inf
ROOT
ATOM      1  C   UNL A   1      32.749  28.806  25.440  1.00  0.00     0.117 C 
ENDROOT
BRANCH   1   2
ATOM      2  N   UNL A   1      31.819  27.942  26.154  1.00  0.00    -0.354 N 
ATOM      3  C   UNL A   1      31.311  26.719  25.831  1.00  0.00     0.242 C 
ATOM      4  O   UNL A   1      30.395  26.281  26.535  1.00  0.00    -0.273 OA
ATOM      5  H   UNL A   1      31.503  28.301  27.014  1.00  0.00     0.163 HD
BRANCH   3   6
ATOM      6  C   UNL A   1      31.722  25.956  24.541  1.00  0.00     0.174 C 
ATOM      7  N   UNL A   1      33.183  25.789  24.325  1.00  0.00    -0.327 N 
ATOM      8  C   UNL A   1      33.662  25.589  22.960  1.00  0.00     0.120 C 
ATOM      9  C   UNL A   1      32.984  26.459  21.922  1.00  0.00     0.022 C 
ATOM     10  C   UNL A   1      30.999  26.678  23.382  1.00  0.00     0.035 C 
ATOM     11  C   UNL A   1      31.481  26.276  22.000  1.00  0.00     0.004 C 
BRANCH   7  12
ATOM     12  C   UNL A   1      34.088  25.357  25.308  1.00  0.00     0.254 C 
ATOM     13  O   UNL A   1      34.597  26.121  26.130  1.00  0.00    -0.269 OA
BRANCH  12  14
ATOM     14  C   UNL A   1      34.545  23.957  25.364  1.00  0.00     0.041 A 
ATOM     15  C   UNL A   1      36.227  20.024  24.867  1.00  0.00     0.046 C 
ATOM     16  C   UNL A   1      35.489  21.311  25.050  1.00  0.00    -0.031 A 
ATOM     17  C   UNL A   1      36.338  22.374  25.461  1.00  0.00     0.005 A 
ATOM     18  C   UNL A   1      34.125  21.592  24.849  1.00  0.00     0.086 A 
ATOM     19  C   UNL A   1      35.881  23.681  25.609  1.00  0.00     0.014 A 
ATOM     20  C   UNL A   1      33.683  22.930  24.982  1.00  0.00     0.035 A 
BRANCH  18  21
ATOM     21  S   UNL A   1      32.748  20.522  24.408  1.00  0.00     0.243 S 
ATOM     22  O   UNL A   1      31.711  20.791  25.382  1.00  0.00    -0.207 OA
ATOM     23  O   UNL A   1      32.503  20.785  23.000  1.00  0.00    -0.207 OA
BRANCH  21  24
ATOM     24  N   UNL A   1      33.127  18.880  24.520  1.00  0.00    -0.198 NA
ATOM     25  C   UNL A   1      32.744  18.197  25.770  1.00  0.00     0.102 C 
ATOM     26  C   UNL A   1      33.310  18.150  23.246  1.00  0.00     0.102 C 
ATOM     27  C   UNL A   1      33.213  16.754  25.841  1.00  0.00     0.017 C 
ATOM     28  C   UNL A   1      33.697  16.687  23.422  1.00  0.00     0.017 C 
ATOM     29  C   UNL A   1      32.943  16.006  24.548  1.00  0.00     0.003 C 
ENDBRANCH  21  24
ENDBRANCH  18  21
ENDBRANCH  12  14
ENDBRANCH   7  12
ENDBRANCH   3   6
ENDBRANCH   1   2
BRANCH   1  30
ATOM     30  C   UNL A   1      33.184  29.990  26.295  1.00  0.00     0.042 C 
BRANCH  30  31
ATOM     31  C   UNL A   1      34.179  29.600  27.377  1.00  0.00     0.118 C 
BRANCH  31  32
ATOM     32  N   UNL A   1      34.661  30.747  28.140  1.00  0.00    -0.352 N 
ATOM     33  C   UNL A   1      35.841  30.840  28.857  1.00  0.00     0.251 C 
ATOM     34  H   UNL A   1      34.082  31.544  28.145  1.00  0.00     0.163 HD
ATOM     35  O   UNL A   1      36.130  31.807  29.536  1.00  0.00    -0.269 OA
BRANCH  33  36
ATOM     36  C   UNL A   1      36.776  29.710  28.706  1.00  0.00     0.039 A 
ATOM     37  C   UNL A   1      37.072  28.960  29.848  1.00  0.00     0.014 A 
ATOM     38  C   UNL A   1      37.560  29.638  27.557  1.00  0.00     0.014 A 
ATOM     39  C   UNL A   1      38.265  28.247  29.897  1.00  0.00     0.010 A 
ATOM     40  C   UNL A   1      38.782  28.999  27.640  1.00  0.00     0.010 A 
ATOM     41  C   UNL A   1      39.152  28.340  28.823  1.00  0.00    -0.014 A 
BRANCH  41  42
ATOM     42  C   UNL A   1      40.520  27.836  28.878  1.00  0.00     0.031 A 
ATOM     43  C   UNL A   1      40.811  26.452  28.442  1.00  0.00     0.074 A 
ATOM     44  C   UNL A   1      41.524  28.644  29.283  1.00  0.00     0.049 A 
ATOM     45  N   UNL A   1      41.835  25.766  28.824  1.00  0.00    -0.248 NA
ATOM     46  C   UNL A   1      39.922  25.708  27.558  1.00  0.00     0.031 C 
ATOM     47  C   UNL A   1      42.958  28.401  29.148  1.00  0.00     0.029 A 
ATOM     48  N   UNL A   1      41.438  29.780  30.096  1.00  0.00    -0.354 N 
ATOM     49  C   UNL A   1      41.882  24.615  28.068  1.00  0.00     0.074 A 
ATOM     50  C   UNL A   1      40.642  24.606  27.326  1.00  0.00     0.031 C 
ATOM     51  C   UNL A   1      43.613  29.162  30.038  1.00  0.00     0.029 A 
ATOM     52  C   UNL A   1      42.615  29.809  30.872  1.00  0.00     0.049 A 
ATOM     53  H   UNL A   1      40.700  30.432  30.122  1.00  0.00     0.167 HD
ATOM     54  C   UNL A   1      43.018  23.860  28.059  1.00  0.00     0.037 A 
ATOM     55  C   UNL A   1      42.573  29.734  32.234  1.00  0.00     0.037 A 
ATOM     56  C   UNL A   1      44.018  24.407  28.971  1.00  0.00     0.049 A 
ATOM     57  C   UNL A   1      43.292  28.532  32.804  1.00  0.00     0.074 A 
ATOM     58  C   UNL A   1      45.087  25.267  28.775  1.00  0.00     0.029 A 
ATOM     59  N   UNL A   1      43.808  24.346  30.344  1.00  0.00    -0.354 N 
ATOM     60  N   UNL A   1      43.645  27.491  32.100  1.00  0.00    -0.248 NA
ATOM     61  C   UNL A   1      43.657  28.396  34.213  1.00  0.00     0.031 C 
ATOM     62  C   UNL A   1      45.477  25.779  30.036  1.00  0.00     0.029 A 
ATOM     63  C   UNL A   1      44.664  25.212  31.000  1.00  0.00     0.049 A 
ATOM     64  H   UNL A   1      43.144  23.768  30.786  1.00  0.00     0.167 HD
ATOM     65  C   UNL A   1      44.223  26.554  32.918  1.00  0.00     0.074 A 
ATOM     66  C   UNL A   1      44.236  27.182  34.227  1.00  0.00     0.031 C 
ATOM     67  C   UNL A   1      44.630  25.337  32.450  1.00  0.00     0.037 A 
BRANCH  54  68
ATOM     68  C   UNL A   1      43.323  22.819  26.999  1.00  0.00     0.058 A 
ATOM     69  C   UNL A   1      42.676  21.564  27.011  1.00  0.00     0.135 A 
ATOM     70  C   UNL A   1      44.291  22.970  25.985  1.00  0.00     0.135 A 
ATOM     71  F   UNL A   1      41.659  21.306  27.843  1.00  0.00    -0.206 F 
ATOM     72  C   UNL A   1      43.049  20.506  26.180  1.00  0.00     0.059 A 
ATOM     73  C   UNL A   1      44.723  21.910  25.180  1.00  0.00     0.059 A 
ATOM     74  F   UNL A   1      44.825  24.168  25.711  1.00  0.00    -0.206 F 
ATOM     75  C   UNL A   1      44.105  20.673  25.296  1.00  0.00     0.060 A 
BRANCH  75  76
ATOM     76  S   UNL A   1      44.649  19.261  24.317  1.00  0.00     0.124 S 
ATOM     77  O   UNL A   1      46.061  19.162  24.673  1.00  0.00    -0.237 OA
ATOM     78  O   UNL A   1      43.792  18.193  24.820  1.00  0.00    -0.237 OA
ATOM     79  O   UNL A   1      44.388  19.679  22.942  1.00  0.00    -0.744 OA
ENDBRANCH  75  76
ENDBRANCH  54  68
BRANCH  55  80
ATOM     80  C   UNL A   1      41.372  30.385  32.823  1.00  0.00     0.058 A 
ATOM     81  C   UNL A   1      40.273  29.565  33.150  1.00  0.00     0.135 A 
ATOM     82  C   UNL A   1      41.439  31.648  33.426  1.00  0.00     0.135 A 
ATOM     83  F   UNL A   1      40.149  28.349  32.592  1.00  0.00    -0.206 F 
ATOM     84  C   UNL A   1      39.363  29.919  34.141  1.00  0.00     0.059 A 
ATOM     85  C   UNL A   1      40.531  32.028  34.417  1.00  0.00     0.059 A 
ATOM     86  F   UNL A   1      42.461  32.473  33.153  1.00  0.00    -0.206 F 
ATOM     87  C   UNL A   1      39.536  31.130  34.807  1.00  0.00     0.060 A 
BRANCH  87  88
ATOM     88  S   UNL A   1      38.551  31.418  36.297  1.00  0.00     0.124 S 
ATOM     89  O   UNL A   1      37.466  32.243  35.781  1.00  0.00    -0.237 OA
ATOM     90  O   UNL A   1      38.180  30.054  36.677  1.00  0.00    -0.237 OA
ATOM     91  O   UNL A   1      39.486  32.082  37.195  1.00  0.00    -0.744 OA
ENDBRANCH  87  88
ENDBRANCH  55  80
BRANCH  67  92
ATOM     92  C   UNL A   1      45.108  24.171  33.283  1.00  0.00     0.058 A 
ATOM     93  C   UNL A   1      46.334  24.141  33.968  1.00  0.00     0.135 A 
ATOM     94  C   UNL A   1      44.241  23.078  33.539  1.00  0.00     0.135 A 
ATOM     95  F   UNL A   1      47.201  25.160  33.887  1.00  0.00    -0.206 F 
ATOM     96  C   UNL A   1      46.699  23.083  34.804  1.00  0.00     0.059 A 
ATOM     97  C   UNL A   1      44.561  22.042  34.411  1.00  0.00     0.059 A 
ATOM     98  F   UNL A   1      43.037  22.990  32.953  1.00  0.00    -0.206 F 
ATOM     99  C   UNL A   1      45.804  22.040  35.024  1.00  0.00     0.060 A 
BRANCH  99 100
ATOM    100  S   UNL A   1      46.228  20.709  36.164  1.00  0.00     0.124 S 
ATOM    101  O   UNL A   1      46.017  21.355  37.456  1.00  0.00    -0.237 OA
ATOM    102  O   UNL A   1      45.267  19.665  35.820  1.00  0.00    -0.237 OA
ATOM    103  O   UNL A   1      47.614  20.411  35.822  1.00  0.00    -0.744 OA
ENDBRANCH  99 100
ENDBRANCH  67  92
ENDBRANCH  41  42
ENDBRANCH  33  36
ENDBRANCH  31  32
ENDBRANCH  30  31
ENDBRANCH   1  30
TORSDOF 17
ENDMDL
MODEL 2
REMARK VINA RESULT:     -14.7      1.543      2.558
REMARK SMILES Cc1ccc(C(=O)N2CCCC[C@@H]2C(=O)NCCCNC(=O)c2ccc(-c3c4nc(c(-c5c(F)cc(S(=O)(=O)[O-])cc5F)c5ccc([nH]5)c(-c5c(F)cc(S(=O)(=O)[O-])cc5F)c5nc(c(-c6c(F)cc(S(=O)(=O)[O-])cc6F)c6ccc3[nH]6)C=C5)C=C4)cc2)cc1S(=O)(=O)N1CCCCC1
REMARK SMILES IDX 17 1 16 2 14 3 15 4 13 6 8 7 9 8 10 9 12 10 11 11 6 12 7 13
REMARK SMILES IDX 5 14 1 15 2 16 3 17 90 18 4 19 89 20 91 21 92 22 93 23 94 24
REMARK SMILES IDX 95 25 99 26 96 27 98 28 97 29 18 30 19 31 20 32 21 33 22 35
REMARK SMILES IDX 23 36 24 37 88 38 25 39 87 40 26 41 27 42 28 43 81 44 29 45
REMARK SMILES IDX 86 46 80 47 82 48 30 49 85 50 79 51 78 52 31 54 65 55 44 56
REMARK SMILES IDX 64 57 45 58 48 59 63 60 83 61 46 62 47 63 62 65 84 66 49 67
REMARK SMILES IDX 32 68 33 69 42 70 34 71 35 72 41 73 43 74 36 75 37 76 38 77
REMARK SMILES IDX 39 78 40 79 66 80 67 81 76 82 68 83 69 84 75 85 77 86 70 87
REMARK SMILES IDX 71 88 72 89 73 90 74 91 50 92 51 93 60 94 52 95 53 96 59 97
REMARK SMILES IDX 61 98 54 99 55 100 56 101 57 102 58 103
REMARK H PARENT 16 5 20 34 82 53 48 64
REMARK Flexibility Score: inf
ROOT
ATOM      1  C   UNL A   1      32.661  30.436  26.033  1.00  0.00     0.117 C 
ENDROOT
BRANCH   1   2
ATOM      2  N   UNL A   1      32.953  29.679  24.824  1.00  0.00    -0.354 N 
ATOM      3  C   UNL A   1      32.139  28.950  24.010  1.00  0.00     0.242 C 
ATOM      4  O   UNL A   1      32.679  28.254  23.143  1.00  0.00    -0.273 OA
ATOM      5  H   UNL A   1      33.899  29.695  24.548  1.00  0.00     0.163 HD
BRANCH   3   6
ATOM      6  C   UNL A   1      30.607  28.838  24.242  1.00  0.00     0.174 C 
ATOM      7  N   UNL A   1      30.071  27.458  24.375  1.00  0.00    -0.327 N 
ATOM      8  C   UNL A   1      28.664  27.229  24.060  1.00  0.00     0.120 C 
ATOM      9  C   UNL A   1      28.165  27.964  22.834  1.00  0.00     0.022 C 
ATOM     10  C   UNL A   1      29.953  29.653  23.103  1.00  0.00     0.035 C 
ATOM     11  C   UNL A   1      28.455  29.446  22.969  1.00  0.00     0.004 C 
BRANCH   7  12
ATOM     12  C   UNL A   1      30.636  26.460  25.185  1.00  0.00     0.254 C 
ATOM     13  O   UNL A   1      30.720  26.561  26.410  1.00  0.00    -0.269 OA
BRANCH  12  14
ATOM     14  C   UNL A   1      31.237  25.249  24.598  1.00  0.00     0.041 A 
ATOM     15  C   UNL A   1      32.307  21.397  22.998  1.00  0.00     0.046 C 
ATOM     16  C   UNL A   1      32.068  22.715  23.662  1.00  0.00    -0.031 A 
ATOM     17  C   UNL A   1      31.258  23.582  22.880  1.00  0.00     0.005 A 
ATOM     18  C   UNL A   1      32.506  23.171  24.919  1.00  0.00     0.086 A 
ATOM     19  C   UNL A   1      30.838  24.828  23.339  1.00  0.00     0.014 A 
ATOM     20  C   UNL A   1      32.051  24.430  25.378  1.00  0.00     0.035 A 
BRANCH  18  21
ATOM     21  S   UNL A   1      33.583  22.412  26.145  1.00  0.00     0.243 S 
ATOM     22  O   UNL A   1      33.515  23.266  27.313  1.00  0.00    -0.207 OA
ATOM     23  O   UNL A   1      33.138  21.031  26.233  1.00  0.00    -0.207 OA
BRANCH  21  24
ATOM     24  N   UNL A   1      35.199  22.356  25.658  1.00  0.00    -0.198 NA
ATOM     25  C   UNL A   1      36.043  23.505  26.034  1.00  0.00     0.102 C 
ATOM     26  C   UNL A   1      35.766  21.017  25.384  1.00  0.00     0.102 C 
ATOM     27  C   UNL A   1      37.452  23.434  25.470  1.00  0.00     0.017 C 
ATOM     28  C   UNL A   1      37.211  21.044  24.904  1.00  0.00     0.017 C 
ATOM     29  C   UNL A   1      38.063  22.056  25.646  1.00  0.00     0.003 C 
ENDBRANCH  21  24
ENDBRANCH  18  21
ENDBRANCH  12  14
ENDBRANCH   7  12
ENDBRANCH   3   6
ENDBRANCH   1   2
BRANCH   1  30
ATOM     30  C   UNL A   1      32.874  29.597  27.287  1.00  0.00     0.042 C 
BRANCH  30  31
ATOM     31  C   UNL A   1      34.341  29.472  27.669  1.00  0.00     0.118 C 
BRANCH  31  32
ATOM     32  N   UNL A   1      34.901  30.722  28.172  1.00  0.00    -0.352 N 
ATOM     33  C   UNL A   1      36.172  30.925  28.682  1.00  0.00     0.251 C 
ATOM     34  H   UNL A   1      34.310  31.509  28.145  1.00  0.00     0.163 HD
ATOM     35  O   UNL A   1      36.533  31.983  29.159  1.00  0.00    -0.269 OA
BRANCH  33  36
ATOM     36  C   UNL A   1      37.102  29.787  28.563  1.00  0.00     0.039 A 
ATOM     37  C   UNL A   1      37.319  29.009  29.704  1.00  0.00     0.014 A 
ATOM     38  C   UNL A   1      37.953  29.729  27.463  1.00  0.00     0.014 A 
ATOM     39  C   UNL A   1      38.499  28.280  29.810  1.00  0.00     0.010 A 
ATOM     40  C   UNL A   1      39.160  29.073  27.606  1.00  0.00     0.010 A 
ATOM     41  C   UNL A   1      39.451  28.385  28.794  1.00  0.00    -0.014 A 
BRANCH  41  42
ATOM     42  C   UNL A   1      40.806  27.863  28.921  1.00  0.00     0.031 A 
ATOM     43  C   UNL A   1      41.107  26.483  28.478  1.00  0.00     0.074 A 
ATOM     44  C   UNL A   1      41.795  28.651  29.398  1.00  0.00     0.049 A 
ATOM     45  N   UNL A   1      42.099  25.778  28.908  1.00  0.00    -0.248 NA
ATOM     46  C   UNL A   1      40.263  25.765  27.531  1.00  0.00     0.031 C 
ATOM     47  C   UNL A   1      43.231  28.393  29.344  1.00  0.00     0.029 A 
ATOM     48  N   UNL A   1      41.674  29.775  30.224  1.00  0.00    -0.354 N 
ATOM     49  C   UNL A   1      42.178  24.639  28.136  1.00  0.00     0.074 A 
ATOM     50  C   UNL A   1      40.983  24.659  27.322  1.00  0.00     0.031 C 
ATOM     51  C   UNL A   1      43.841  29.131  30.284  1.00  0.00     0.029 A 
ATOM     52  C   UNL A   1      42.803  29.776  31.069  1.00  0.00     0.049 A 
ATOM     53  H   UNL A   1      40.943  30.435  30.218  1.00  0.00     0.167 HD
ATOM     54  C   UNL A   1      43.303  23.870  28.181  1.00  0.00     0.037 A 
ATOM     55  C   UNL A   1      42.680  29.679  32.424  1.00  0.00     0.037 A 
ATOM     56  C   UNL A   1      44.253  24.390  29.160  1.00  0.00     0.049 A 
ATOM     57  C   UNL A   1      43.350  28.458  33.015  1.00  0.00     0.074 A 
ATOM     58  C   UNL A   1      45.343  25.239  29.042  1.00  0.00     0.029 A 
ATOM     59  N   UNL A   1      43.962  24.308  30.517  1.00  0.00    -0.354 N 
ATOM     60  N   UNL A   1      43.732  27.425  32.315  1.00  0.00    -0.248 NA
ATOM     61  C   UNL A   1      43.629  28.294  34.440  1.00  0.00     0.031 C 
ATOM     62  C   UNL A   1      45.663  25.725  30.333  1.00  0.00     0.029 A 
ATOM     63  C   UNL A   1      44.787  25.152  31.237  1.00  0.00     0.049 A 
ATOM     64  H   UNL A   1      43.267  23.731  30.909  1.00  0.00     0.167 HD
ATOM     65  C   UNL A   1      44.250  26.467  33.149  1.00  0.00     0.074 A 
ATOM     66  C   UNL A   1      44.193  27.073  34.467  1.00  0.00     0.031 C 
ATOM     67  C   UNL A   1      44.669  25.253  32.684  1.00  0.00     0.037 A 
BRANCH  54  68
ATOM     68  C   UNL A   1      43.659  22.844  27.123  1.00  0.00     0.058 A 
ATOM     69  C   UNL A   1      42.886  21.672  26.964  1.00  0.00     0.135 A 
ATOM     70  C   UNL A   1      44.784  22.922  26.279  1.00  0.00     0.135 A 
ATOM     71  F   UNL A   1      41.729  21.500  27.616  1.00  0.00    -0.206 F 
ATOM     72  C   UNL A   1      43.270  20.611  26.142  1.00  0.00     0.059 A 
ATOM     73  C   UNL A   1      45.222  21.852  25.490  1.00  0.00     0.059 A 
ATOM     74  F   UNL A   1      45.480  24.061  26.156  1.00  0.00    -0.206 F 
ATOM     75  C   UNL A   1      44.465  20.690  25.441  1.00  0.00     0.060 A 
BRANCH  75  76
ATOM     76  S   UNL A   1      45.002  19.264  24.477  1.00  0.00     0.124 S 
ATOM     77  O   UNL A   1      46.439  19.240  24.734  1.00  0.00    -0.237 OA
ATOM     78  O   UNL A   1      44.231  18.182  25.079  1.00  0.00    -0.237 OA
ATOM     79  O   UNL A   1      44.626  19.616  23.110  1.00  0.00    -0.744 OA
ENDBRANCH  75  76
ENDBRANCH  54  68
BRANCH  55  80
ATOM     80  C   UNL A   1      41.453  30.335  32.953  1.00  0.00     0.058 A 
ATOM     81  C   UNL A   1      40.346  29.516  33.251  1.00  0.00     0.135 A 
ATOM     82  C   UNL A   1      41.491  31.609  33.534  1.00  0.00     0.135 A 
ATOM     83  F   UNL A   1      40.249  28.288  32.712  1.00  0.00    -0.206 F 
ATOM     84  C   UNL A   1      39.396  29.884  34.198  1.00  0.00     0.059 A 
ATOM     85  C   UNL A   1      40.543  32.003  34.481  1.00  0.00     0.059 A 
ATOM     86  F   UNL A   1      42.520  32.434  33.287  1.00  0.00    -0.206 F 
ATOM     87  C   UNL A   1      39.537  31.108  34.848  1.00  0.00     0.060 A 
BRANCH  87  88
ATOM     88  S   UNL A   1      38.492  31.418  36.292  1.00  0.00     0.124 S 
ATOM     89  O   UNL A   1      37.402  32.192  35.710  1.00  0.00    -0.237 OA
ATOM     90  O   UNL A   1      38.148  30.059  36.708  1.00  0.00    -0.237 OA
ATOM     91  O   UNL A   1      39.376  32.142  37.197  1.00  0.00    -0.744 OA
ENDBRANCH  87  88
ENDBRANCH  55  80
BRANCH  67  92
ATOM     92  C   UNL A   1      45.084  24.067  33.524  1.00  0.00     0.058 A 
ATOM     93  C   UNL A   1      44.264  22.956  33.779  1.00  0.00     0.135 A 
ATOM     94  C   UNL A   1      46.421  23.957  33.984  1.00  0.00     0.135 A 
ATOM     95  F   UNL A   1      43.009  22.895  33.312  1.00  0.00    -0.206 F 
ATOM     96  C   UNL A   1      44.718  21.836  34.482  1.00  0.00     0.059 A 
ATOM     97  C   UNL A   1      46.909  22.829  34.638  1.00  0.00     0.059 A 
ATOM     98  F   UNL A   1      47.308  24.947  33.799  1.00  0.00    -0.206 F 
ATOM     99  C   UNL A   1      46.043  21.780  34.903  1.00  0.00     0.060 A 
BRANCH  99 100
ATOM    100  S   UNL A   1      46.664  20.309  35.740  1.00  0.00     0.124 S 
ATOM    101  O   UNL A   1      45.934  20.363  37.004  1.00  0.00    -0.237 OA
ATOM    102  O   UNL A   1      46.276  19.230  34.837  1.00  0.00    -0.237 OA
ATOM    103  O   UNL A   1      48.099  20.558  35.825  1.00  0.00    -0.744 OA
ENDBRANCH  99 100
ENDBRANCH  67  92
ENDBRANCH  41  42
ENDBRANCH  33  36
ENDBRANCH  31  32
ENDBRANCH  30  31
ENDBRANCH   1  30
TORSDOF 17
ENDMDL
MODEL 3
REMARK VINA RESULT:     -14.1      1.436      2.261
REMARK SMILES Cc1ccc(C(=O)N2CCCC[C@@H]2C(=O)NCCCNC(=O)c2ccc(-c3c4nc(c(-c5c(F)cc(S(=O)(=O)[O-])cc5F)c5ccc([nH]5)c(-c5c(F)cc(S(=O)(=O)[O-])cc5F)c5nc(c(-c6c(F)cc(S(=O)(=O)[O-])cc6F)c6ccc3[nH]6)C=C5)C=C4)cc2)cc1S(=O)(=O)N1CCCCC1
REMARK SMILES IDX 17 1 16 2 14 3 15 4 13 6 8 7 9 8 10 9 12 10 11 11 6 12 7 13
REMARK SMILES IDX 5 14 1 15 2 16 3 17 90 18 4 19 89 20 91 21 92 22 93 23 94 24
REMARK SMILES IDX 95 25 99 26 96 27 98 28 97 29 18 30 19 31 20 32 21 33 22 35
REMARK SMILES IDX 23 36 24 37 88 38 25 39 87 40 26 41 27 42 28 43 81 44 29 45
REMARK SMILES IDX 86 46 80 47 82 48 30 49 85 50 79 51 78 52 31 54 65 55 44 56
REMARK SMILES IDX 64 57 45 58 48 59 63 60 83 61 46 62 47 63 62 65 84 66 49 67
REMARK SMILES IDX 32 68 33 69 42 70 34 71 35 72 41 73 43 74 36 75 37 76 38 77
REMARK SMILES IDX 39 78 40 79 66 80 67 81 76 82 68 83 69 84 75 85 77 86 70 87
REMARK SMILES IDX 71 88 72 89 73 90 74 91 50 92 51 93 60 94 52 95 53 96 59 97
REMARK SMILES IDX 61 98 54 99 55 100 56 101 57 102 58 103
REMARK H PARENT 16 5 20 34 82 53 48 64
REMARK Flexibility Score: inf
ROOT
ATOM      1  C   UNL A   1      33.593  27.726  25.689  1.00  0.00     0.117 C 
ENDROOT
BRANCH   1   2
ATOM      2  N   UNL A   1      32.540  27.041  26.427  1.00  0.00    -0.354 N 
ATOM      3  C   UNL A   1      31.237  26.803  26.108  1.00  0.00     0.242 C 
ATOM      4  O   UNL A   1      30.507  26.352  26.997  1.00  0.00    -0.273 OA
ATOM      5  H   UNL A   1      32.816  26.691  27.305  1.00  0.00     0.163 HD
BRANCH   3   6
ATOM      6  C   UNL A   1      30.617  27.229  24.748  1.00  0.00     0.174 C 
ATOM      7  N   UNL A   1      31.163  26.548  23.546  1.00  0.00    -0.327 N 
ATOM      8  C   UNL A   1      31.053  27.226  22.257  1.00  0.00     0.120 C 
ATOM      9  C   UNL A   1      31.337  28.713  22.302  1.00  0.00     0.022 C 
ATOM     10  C   UNL A   1      30.736  28.769  24.701  1.00  0.00     0.035 C 
ATOM     11  C   UNL A   1      30.450  29.375  23.338  1.00  0.00     0.004 C 
BRANCH   7  12
ATOM     12  C   UNL A   1      31.362  25.163  23.437  1.00  0.00     0.254 C 
ATOM     13  O   UNL A   1      30.444  24.370  23.222  1.00  0.00    -0.269 OA
BRANCH  12  14
ATOM     14  C   UNL A   1      32.691  24.563  23.653  1.00  0.00     0.041 A 
ATOM     15  C   UNL A   1      36.518  22.589  23.553  1.00  0.00     0.046 C 
ATOM     16  C   UNL A   1      35.150  23.171  23.722  1.00  0.00    -0.031 A 
ATOM     17  C   UNL A   1      35.013  24.435  23.086  1.00  0.00     0.005 A 
ATOM     18  C   UNL A   1      34.029  22.635  24.379  1.00  0.00     0.086 A 
ATOM     19  C   UNL A   1      33.802  25.121  23.041  1.00  0.00     0.014 A 
ATOM     20  C   UNL A   1      32.801  23.335  24.304  1.00  0.00     0.035 A 
BRANCH  18  21
ATOM     21  S   UNL A   1      33.829  21.128  25.341  1.00  0.00     0.243 S 
ATOM     22  O   UNL A   1      35.041  20.994  26.121  1.00  0.00    -0.207 OA
ATOM     23  O   UNL A   1      32.549  21.278  26.014  1.00  0.00    -0.207 OA
BRANCH  21  24
ATOM     24  N   UNL A   1      33.696  19.745  24.381  1.00  0.00    -0.198 NA
ATOM     25  C   UNL A   1      34.537  18.595  24.758  1.00  0.00     0.102 C 
ATOM     26  C   UNL A   1      32.442  19.587  23.610  1.00  0.00     0.102 C 
ATOM     27  C   UNL A   1      34.444  17.430  23.787  1.00  0.00     0.017 C 
ATOM     28  C   UNL A   1      32.410  18.345  22.730  1.00  0.00     0.017 C 
ATOM     29  C   UNL A   1      33.007  17.124  23.405  1.00  0.00     0.003 C 
ENDBRANCH  21  24
ENDBRANCH  18  21
ENDBRANCH  12  14
ENDBRANCH   7  12
ENDBRANCH   3   6
ENDBRANCH   1   2
BRANCH   1  30
ATOM     30  C   UNL A   1      33.731  29.179  26.127  1.00  0.00     0.042 C 
BRANCH  30  31
ATOM     31  C   UNL A   1      33.739  29.339  27.639  1.00  0.00     0.118 C 
BRANCH  31  32
ATOM     32  N   UNL A   1      34.215  30.652  28.065  1.00  0.00    -0.352 N 
ATOM     33  C   UNL A   1      35.444  30.956  28.625  1.00  0.00     0.251 C 
ATOM     34  H   UNL A   1      33.593  31.405  27.939  1.00  0.00     0.163 HD
ATOM     35  O   UNL A   1      35.730  32.067  29.030  1.00  0.00    -0.269 OA
BRANCH  33  36
ATOM     36  C   UNL A   1      36.428  29.858  28.653  1.00  0.00     0.039 A 
ATOM     37  C   UNL A   1      36.705  29.272  29.891  1.00  0.00     0.014 A 
ATOM     38  C   UNL A   1      37.260  29.676  27.552  1.00  0.00     0.014 A 
ATOM     39  C   UNL A   1      37.922  28.624  30.074  1.00  0.00     0.010 A 
ATOM     40  C   UNL A   1      38.501  29.107  27.760  1.00  0.00     0.010 A 
ATOM     41  C   UNL A   1      38.848  28.620  29.029  1.00  0.00    -0.014 A 
BRANCH  41  42
ATOM     42  C   UNL A   1      40.231  28.188  29.197  1.00  0.00     0.031 A 
ATOM     43  C   UNL A   1      40.651  26.858  28.700  1.00  0.00     0.074 A 
ATOM     44  C   UNL A   1      41.136  29.015  29.765  1.00  0.00     0.049 A 
ATOM     45  N   UNL A   1      41.670  26.201  29.142  1.00  0.00    -0.248 NA
ATOM     46  C   UNL A   1      39.906  26.137  27.675  1.00  0.00     0.031 C 
ATOM     47  C   UNL A   1      42.589  28.861  29.769  1.00  0.00     0.029 A 
ATOM     48  N   UNL A   1      40.895  30.080  30.641  1.00  0.00    -0.354 N 
ATOM     49  C   UNL A   1      41.867  25.116  28.316  1.00  0.00     0.074 A 
ATOM     50  C   UNL A   1      40.714  25.097  27.446  1.00  0.00     0.031 C 
ATOM     51  C   UNL A   1      43.099  29.586  30.776  1.00  0.00     0.029 A 
ATOM     52  C   UNL A   1      41.981  30.113  31.540  1.00  0.00     0.049 A 
ATOM     53  H   UNL A   1      40.120  30.687  30.632  1.00  0.00     0.167 HD
ATOM     54  C   UNL A   1      43.042  24.426  28.378  1.00  0.00     0.037 A 
ATOM     55  C   UNL A   1      41.802  29.933  32.881  1.00  0.00     0.037 A 
ATOM     56  C   UNL A   1      43.905  24.955  29.430  1.00  0.00     0.049 A 
ATOM     57  C   UNL A   1      42.531  28.731  33.440  1.00  0.00     0.074 A 
ATOM     58  C   UNL A   1      44.934  25.884  29.412  1.00  0.00     0.029 A 
ATOM     59  N   UNL A   1      43.558  24.778  30.764  1.00  0.00    -0.354 N 
ATOM     60  N   UNL A   1      43.018  27.767  32.708  1.00  0.00    -0.248 NA
ATOM     61  C   UNL A   1      42.754  28.508  34.867  1.00  0.00     0.031 C 
ATOM     62  C   UNL A   1      45.158  26.319  30.740  1.00  0.00     0.029 A 
ATOM     63  C   UNL A   1      44.285  25.637  31.569  1.00  0.00     0.049 A 
ATOM     64  H   UNL A   1      42.888  24.134  31.090  1.00  0.00     0.167 HD
ATOM     65  C   UNL A   1      43.564  26.803  33.516  1.00  0.00     0.074 A 
ATOM     66  C   UNL A   1      43.402  27.329  34.859  1.00  0.00     0.031 C 
ATOM     67  C   UNL A   1      44.092  25.649  33.011  1.00  0.00     0.037 A 
BRANCH  54  68
ATOM     68  C   UNL A   1      43.520  23.487  27.288  1.00  0.00     0.058 A 
ATOM     69  C   UNL A   1      42.952  22.202  27.140  1.00  0.00     0.135 A 
ATOM     70  C   UNL A   1      44.577  23.765  26.399  1.00  0.00     0.135 A 
ATOM     71  F   UNL A   1      41.871  21.828  27.836  1.00  0.00    -0.206 F 
ATOM     72  C   UNL A   1      43.474  21.232  26.283  1.00  0.00     0.059 A 
ATOM     73  C   UNL A   1      45.155  22.794  25.574  1.00  0.00     0.059 A 
ATOM     74  F   UNL A   1      45.063  25.007  26.269  1.00  0.00    -0.206 F 
ATOM     75  C   UNL A   1      44.605  21.521  25.534  1.00  0.00     0.060 A 
BRANCH  75  76
ATOM     76  S   UNL A   1      45.334  20.219  24.523  1.00  0.00     0.124 S 
ATOM     77  O   UNL A   1      44.684  20.429  23.233  1.00  0.00    -0.237 OA
ATOM     78  O   UNL A   1      46.754  20.548  24.579  1.00  0.00    -0.237 OA
ATOM     79  O   UNL A   1      44.947  18.993  25.216  1.00  0.00    -0.744 OA
ENDBRANCH  75  76
ENDBRANCH  54  68
BRANCH  55  80
ATOM     80  C   UNL A   1      40.508  30.471  33.380  1.00  0.00     0.058 A 
ATOM     81  C   UNL A   1      40.385  31.869  33.517  1.00  0.00     0.135 A 
ATOM     82  C   UNL A   1      39.326  29.720  33.322  1.00  0.00     0.135 A 
ATOM     83  F   UNL A   1      41.485  32.638  33.591  1.00  0.00    -0.206 F 
ATOM     84  C   UNL A   1      39.151  32.507  33.450  1.00  0.00     0.059 A 
ATOM     85  C   UNL A   1      38.075  30.340  33.262  1.00  0.00     0.059 A 
ATOM     86  F   UNL A   1      39.379  28.386  33.193  1.00  0.00    -0.206 F 
ATOM     87  C   UNL A   1      38.007  31.734  33.265  1.00  0.00     0.060 A 
BRANCH  87  88
ATOM     88  S   UNL A   1      36.469  32.594  32.854  1.00  0.00     0.124 S 
ATOM     89  O   UNL A   1      35.972  32.960  34.175  1.00  0.00    -0.237 OA
ATOM     90  O   UNL A   1      36.958  33.703  32.035  1.00  0.00    -0.237 OA
ATOM     91  O   UNL A   1      35.699  31.583  32.141  1.00  0.00    -0.744 OA
ENDBRANCH  87  88
ENDBRANCH  55  80
BRANCH  67  92
ATOM     92  C   UNL A   1      44.552  24.450  33.808  1.00  0.00     0.058 A 
ATOM     93  C   UNL A   1      43.688  23.578  34.489  1.00  0.00     0.135 A 
ATOM     94  C   UNL A   1      45.914  24.057  33.777  1.00  0.00     0.135 A 
ATOM     95  F   UNL A   1      42.363  23.785  34.510  1.00  0.00    -0.206 F 
ATOM     96  C   UNL A   1      44.144  22.427  35.137  1.00  0.00     0.059 A 
ATOM     97  C   UNL A   1      46.381  22.887  34.367  1.00  0.00     0.059 A 
ATOM     98  F   UNL A   1      46.841  24.801  33.152  1.00  0.00    -0.206 F 
ATOM     99  C   UNL A   1      45.492  22.086  35.066  1.00  0.00     0.060 A 
BRANCH  99 100
ATOM    100  S   UNL A   1      46.082  20.563  35.828  1.00  0.00     0.124 S 
ATOM    101  O   UNL A   1      45.322  19.557  35.091  1.00  0.00    -0.237 OA
ATOM    102  O   UNL A   1      47.515  20.593  35.554  1.00  0.00    -0.237 OA
ATOM    103  O   UNL A   1      45.716  20.732  37.230  1.00  0.00    -0.744 OA
ENDBRANCH  99 100
ENDBRANCH  67  92
ENDBRANCH  41  42
ENDBRANCH  33  36
ENDBRANCH  31  32
ENDBRANCH  30  31
ENDBRANCH   1  30
TORSDOF 17
ENDMDL
