MODEL 1
REMARK VINA RESULT:     -12.2      0.000      0.000
REMARK SMILES C[C@@H]1CN(S(=O)(=O)c2ccc(C(=O)NCCCNC(=O)c3ccc(-c4c5nc(c(-c6c(F)cc(S(=O)(=O)[O-])cc6F)c6ccc([nH]6)c(-c6c(F)cc(S(=O)(=O)[O-])cc6F)c6nc(c(-c7c(F)cc(S(=O)(=O)[O-])cc7F)c7ccc4[nH]7)C=C6)C=C5)cc3)cc2)[C@H](C)CO1
REMARK SMILES IDX 16 1 15 2 14 3 12 4 13 5 11 7 8 8 9 9 88 10 10 11 87 12 5 13
REMARK SMILES IDX 6 14 7 15 4 16 1 17 2 18 3 19 92 20 91 21 89 22 90 23 17 24
REMARK SMILES IDX 18 25 19 26 20 28 21 29 22 30 86 31 23 32 85 33 24 34 25 35
REMARK SMILES IDX 26 36 79 37 27 38 84 39 78 40 80 41 28 42 83 43 77 44 76 45
REMARK SMILES IDX 29 47 63 48 42 49 62 50 43 51 46 52 61 53 81 54 44 55 45 56
REMARK SMILES IDX 60 58 82 59 47 60 30 61 31 62 40 63 32 64 33 65 39 66 41 67
REMARK SMILES IDX 34 68 35 69 36 70 37 71 38 72 64 73 65 74 74 75 66 76 67 77
REMARK SMILES IDX 73 78 75 79 68 80 69 81 70 82 71 83 72 84 48 85 49 86 58 87
REMARK SMILES IDX 50 88 51 89 57 90 59 91 52 92 53 93 54 94 55 95 56 96
REMARK H PARENT 14 6 18 27 80 46 46 57
REMARK Flexibility Score: inf
ROOT
ATOM      1  C   UNL A   1      40.205  22.253  27.589  1.00  0.00     0.042 C 
ENDROOT
BRANCH   1   2
ATOM      2  C   UNL A   1      39.388  22.224  26.300  1.00  0.00     0.118 C 
BRANCH   2   3
ATOM      3  N   UNL A   1      39.148  20.868  25.835  1.00  0.00    -0.352 N 
ATOM      4  C   UNL A   1      38.141  20.351  25.060  1.00  0.00     0.251 C 
ATOM      5  O   UNL A   1      38.242  19.197  24.647  1.00  0.00    -0.269 OA
ATOM      6  H   UNL A   1      39.822  20.211  26.124  1.00  0.00     0.163 HD
BRANCH   4   7
ATOM      7  C   UNL A   1      36.958  21.157  24.668  1.00  0.00     0.039 A 
ATOM      8  C   UNL A   1      34.795  22.714  23.818  1.00  0.00     0.082 A 
ATOM      9  C   UNL A   1      36.062  22.937  23.275  1.00  0.00     0.022 A 
ATOM     10  C   UNL A   1      34.590  21.676  24.733  1.00  0.00     0.022 A 
ATOM     11  C   UNL A   1      37.141  22.154  23.699  1.00  0.00     0.015 A 
ATOM     12  C   UNL A   1      35.673  20.901  25.157  1.00  0.00     0.015 A 
BRANCH   8  13
ATOM     13  S   UNL A   1      33.404  23.657  23.224  1.00  0.00     0.243 S 
ATOM     14  O   UNL A   1      32.558  22.765  22.454  1.00  0.00    -0.207 OA
ATOM     15  O   UNL A   1      33.944  24.861  22.635  1.00  0.00    -0.207 OA
BRANCH  13  16
ATOM     16  N   UNL A   1      32.530  24.085  24.656  1.00  0.00    -0.190 NA
ATOM     17  C   UNL A   1      30.399  23.269  26.833  1.00  0.00     0.040 C 
ATOM     18  C   UNL A   1      30.274  24.353  25.765  1.00  0.00     0.130 C 
ATOM     19  C   UNL A   1      31.029  24.012  24.470  1.00  0.00     0.134 C 
ATOM     20  O   UNL A   1      30.652  25.638  26.271  1.00  0.00    -0.375 OA
ATOM     21  C   UNL A   1      32.063  25.750  26.474  1.00  0.00     0.180 C 
ATOM     22  C   UNL A   1      32.869  25.479  25.185  1.00  0.00     0.096 C 
ATOM     23  C   UNL A   1      34.349  25.648  25.518  1.00  0.00     0.028 C 
ENDBRANCH  13  16
ENDBRANCH   8  13
ENDBRANCH   4   7
ENDBRANCH   2   3
ENDBRANCH   1   2
BRANCH   1  24
ATOM     24  C   UNL A   1      41.457  23.124  27.515  1.00  0.00     0.118 C 
BRANCH  24  25
ATOM     25  N   UNL A   1      41.494  23.935  26.308  1.00  0.00    -0.352 N 
ATOM     26  C   UNL A   1      41.243  25.275  26.138  1.00  0.00     0.251 C 
ATOM     27  H   UNL A   1      41.739  23.449  25.487  1.00  0.00     0.163 HD
ATOM     28  O   UNL A   1      41.130  25.719  24.997  1.00  0.00    -0.269 OA
BRANCH  26  29
ATOM     29  C   UNL A   1      41.091  26.180  27.301  1.00  0.00     0.039 A 
ATOM     30  C   UNL A   1      42.035  27.197  27.487  1.00  0.00     0.014 A 
ATOM     31  C   UNL A   1      40.065  26.007  28.234  1.00  0.00     0.014 A 
ATOM     32  C   UNL A   1      41.918  28.068  28.575  1.00  0.00     0.010 A 
ATOM     33  C   UNL A   1      39.914  26.916  29.282  1.00  0.00     0.010 A 
ATOM     34  C   UNL A   1      40.840  27.953  29.467  1.00  0.00    -0.014 A 
BRANCH  34  35
ATOM     35  C   UNL A   1      40.672  28.900  30.598  1.00  0.00     0.031 A 
ATOM     36  C   UNL A   1      41.527  28.772  31.831  1.00  0.00     0.074 A 
ATOM     37  C   UNL A   1      39.709  29.842  30.541  1.00  0.00     0.049 A 
ATOM     38  N   UNL A   1      41.476  29.451  32.947  1.00  0.00    -0.248 NA
ATOM     39  C   UNL A   1      42.563  27.727  31.812  1.00  0.00     0.031 C 
ATOM     40  C   UNL A   1      38.790  30.046  29.419  1.00  0.00     0.029 A 
ATOM     41  N   UNL A   1      39.335  30.798  31.452  1.00  0.00    -0.354 N 
ATOM     42  C   UNL A   1      42.456  28.908  33.769  1.00  0.00     0.074 A 
ATOM     43  C   UNL A   1      43.060  27.814  33.038  1.00  0.00     0.031 C 
ATOM     44  C   UNL A   1      37.974  31.074  29.701  1.00  0.00     0.029 A 
ATOM     45  C   UNL A   1      38.285  31.580  31.033  1.00  0.00     0.049 A 
ATOM     46  H   UNL A   1      39.778  30.913  32.324  1.00  0.00     0.167 HD
ATOM     47  C   UNL A   1      42.833  29.298  35.011  1.00  0.00     0.037 A 
ATOM     48  C   UNL A   1      37.641  32.588  31.654  1.00  0.00     0.037 A 
ATOM     49  C   UNL A   1      42.250  30.405  35.724  1.00  0.00     0.049 A 
ATOM     50  C   UNL A   1      38.082  33.006  33.030  1.00  0.00     0.074 A 
ATOM     51  C   UNL A   1      42.596  30.907  36.967  1.00  0.00     0.029 A 
ATOM     52  N   UNL A   1      41.204  31.185  35.255  1.00  0.00    -0.354 N 
ATOM     53  N   UNL A   1      39.039  32.506  33.774  1.00  0.00    -0.248 NA
ATOM     54  C   UNL A   1      37.359  34.125  33.648  1.00  0.00     0.031 C 
ATOM     55  C   UNL A   1      41.738  31.972  37.263  1.00  0.00     0.029 A 
ATOM     56  C   UNL A   1      40.883  32.157  36.188  1.00  0.00     0.049 A 
ATOM     57  H   UNL A   1      40.754  31.065  34.388  1.00  0.00     0.167 HD
ATOM     58  C   UNL A   1      39.050  33.267  34.939  1.00  0.00     0.074 A 
ATOM     59  C   UNL A   1      38.010  34.265  34.796  1.00  0.00     0.031 C 
ATOM     60  C   UNL A   1      39.850  33.149  36.027  1.00  0.00     0.037 A 
BRANCH  47  61
ATOM     61  C   UNL A   1      43.937  28.522  35.678  1.00  0.00     0.058 A 
ATOM     62  C   UNL A   1      45.286  28.867  35.499  1.00  0.00     0.135 A 
ATOM     63  C   UNL A   1      43.642  27.445  36.529  1.00  0.00     0.135 A 
ATOM     64  F   UNL A   1      45.623  29.878  34.685  1.00  0.00    -0.206 F 
ATOM     65  C   UNL A   1      46.307  28.152  36.118  1.00  0.00     0.059 A 
ATOM     66  C   UNL A   1      44.646  26.732  37.178  1.00  0.00     0.059 A 
ATOM     67  F   UNL A   1      42.368  27.074  36.734  1.00  0.00    -0.206 F 
ATOM     68  C   UNL A   1      45.977  27.084  36.954  1.00  0.00     0.060 A 
BRANCH  68  69
ATOM     69  S   UNL A   1      47.312  26.166  37.750  1.00  0.00     0.124 S 
ATOM     70  O   UNL A   1      46.710  25.838  39.038  1.00  0.00    -0.237 OA
ATOM     71  O   UNL A   1      47.508  25.042  36.839  1.00  0.00    -0.237 OA
ATOM     72  O   UNL A   1      48.407  27.129  37.796  1.00  0.00    -0.744 OA
ENDBRANCH  68  69
ENDBRANCH  47  61
BRANCH  48  73
ATOM     73  C   UNL A   1      36.528  33.291  30.965  1.00  0.00     0.058 A 
ATOM     74  C   UNL A   1      35.200  33.111  31.381  1.00  0.00     0.135 A 
ATOM     75  C   UNL A   1      36.767  34.166  29.895  1.00  0.00     0.135 A 
ATOM     76  F   UNL A   1      34.923  32.280  32.396  1.00  0.00    -0.206 F 
ATOM     77  C   UNL A   1      34.146  33.767  30.755  1.00  0.00     0.059 A 
ATOM     78  C   UNL A   1      35.731  34.850  29.267  1.00  0.00     0.059 A 
ATOM     79  F   UNL A   1      38.022  34.384  29.472  1.00  0.00    -0.206 F 
ATOM     80  C   UNL A   1      34.422  34.637  29.698  1.00  0.00     0.060 A 
BRANCH  80  81
ATOM     81  S   UNL A   1      33.053  35.529  28.929  1.00  0.00     0.124 S 
ATOM     82  O   UNL A   1      33.758  36.571  28.194  1.00  0.00    -0.237 OA
ATOM     83  O   UNL A   1      32.423  34.490  28.121  1.00  0.00    -0.237 OA
ATOM     84  O   UNL A   1      32.267  35.983  30.073  1.00  0.00    -0.744 OA
ENDBRANCH  80  81
ENDBRANCH  48  73
BRANCH  60  85
ATOM     85  C   UNL A   1      39.654  34.143  37.136  1.00  0.00     0.058 A 
ATOM     86  C   UNL A   1      38.920  33.825  38.289  1.00  0.00     0.135 A 
ATOM     87  C   UNL A   1      40.250  35.413  37.065  1.00  0.00     0.135 A 
ATOM     88  F   UNL A   1      38.325  32.627  38.401  1.00  0.00    -0.206 F 
ATOM     89  C   UNL A   1      38.766  34.739  39.325  1.00  0.00     0.059 A 
ATOM     90  C   UNL A   1      40.128  36.334  38.100  1.00  0.00     0.059 A 
ATOM     91  F   UNL A   1      40.971  35.762  35.988  1.00  0.00    -0.206 F 
ATOM     92  C   UNL A   1      39.374  35.992  39.221  1.00  0.00     0.060 A 
BRANCH  92  93
ATOM     93  S   UNL A   1      39.195  37.159  40.588  1.00  0.00     0.124 S 
ATOM     94  O   UNL A   1      38.264  38.130  40.024  1.00  0.00    -0.237 OA
ATOM     95  O   UNL A   1      38.664  36.317  41.654  1.00  0.00    -0.237 OA
ATOM     96  O   UNL A   1      40.557  37.643  40.800  1.00  0.00    -0.744 OA
ENDBRANCH  92  93
ENDBRANCH  60  85
ENDBRANCH  34  35
ENDBRANCH  26  29
ENDBRANCH  24  25
ENDBRANCH   1  24
TORSDOF 15
ENDMDL
MODEL 2
REMARK VINA RESULT:     -12.1      6.529     12.143
REMARK SMILES C[C@@H]1CN(S(=O)(=O)c2ccc(C(=O)NCCCNC(=O)c3ccc(-c4c5nc(c(-c6c(F)cc(S(=O)(=O)[O-])cc6F)c6ccc([nH]6)c(-c6c(F)cc(S(=O)(=O)[O-])cc6F)c6nc(c(-c7c(F)cc(S(=O)(=O)[O-])cc7F)c7ccc4[nH]7)C=C6)C=C5)cc3)cc2)[C@H](C)CO1
REMARK SMILES IDX 16 1 15 2 14 3 12 4 13 5 11 7 8 8 9 9 88 10 10 11 87 12 5 13
REMARK SMILES IDX 6 14 7 15 4 16 1 17 2 18 3 19 92 20 91 21 89 22 90 23 17 24
REMARK SMILES IDX 18 25 19 26 20 28 21 29 22 30 86 31 23 32 85 33 24 34 25 35
REMARK SMILES IDX 26 36 79 37 27 38 84 39 78 40 80 41 28 42 83 43 77 44 76 45
REMARK SMILES IDX 29 47 63 48 42 49 62 50 43 51 46 52 61 53 81 54 44 55 45 56
REMARK SMILES IDX 60 58 82 59 47 60 30 61 31 62 40 63 32 64 33 65 39 66 41 67
REMARK SMILES IDX 34 68 35 69 36 70 37 71 38 72 64 73 65 74 74 75 66 76 67 77
REMARK SMILES IDX 73 78 75 79 68 80 69 81 70 82 71 83 72 84 48 85 49 86 58 87
REMARK SMILES IDX 50 88 51 89 57 90 59 91 52 92 53 93 54 94 55 95 56 96
REMARK H PARENT 14 6 18 27 80 46 46 57
REMARK Flexibility Score: inf
ROOT
ATOM      1  C   UNL A   1      34.823  29.699  27.357  1.00  0.00     0.042 C 
ENDROOT
BRANCH   1   2
ATOM      2  C   UNL A   1      33.383  29.972  26.930  1.00  0.00     0.118 C 
BRANCH   2   3
ATOM      3  N   UNL A   1      33.204  29.841  25.492  1.00  0.00    -0.352 N 
ATOM      4  C   UNL A   1      32.862  28.755  24.728  1.00  0.00     0.251 C 
ATOM      5  O   UNL A   1      32.597  28.926  23.539  1.00  0.00    -0.269 OA
ATOM      6  H   UNL A   1      33.353  30.671  24.984  1.00  0.00     0.163 HD
BRANCH   4   7
ATOM      7  C   UNL A   1      32.755  27.391  25.301  1.00  0.00     0.039 A 
ATOM      8  C   UNL A   1      32.423  24.825  26.368  1.00  0.00     0.082 A 
ATOM      9  C   UNL A   1      31.331  25.695  26.304  1.00  0.00     0.022 A 
ATOM     10  C   UNL A   1      33.662  25.207  25.841  1.00  0.00     0.022 A 
ATOM     11  C   UNL A   1      31.500  26.976  25.768  1.00  0.00     0.015 A 
ATOM     12  C   UNL A   1      33.825  26.489  25.311  1.00  0.00     0.015 A 
BRANCH   8  13
ATOM     13  S   UNL A   1      32.194  23.167  26.979  1.00  0.00     0.243 S 
ATOM     14  O   UNL A   1      30.768  22.931  27.101  1.00  0.00    -0.207 OA
ATOM     15  O   UNL A   1      33.070  23.024  28.118  1.00  0.00    -0.207 OA
BRANCH  13  16
ATOM     16  N   UNL A   1      32.776  22.153  25.702  1.00  0.00    -0.190 NA
ATOM     17  C   UNL A   1      32.364  21.022  22.787  1.00  0.00     0.040 C 
ATOM     18  C   UNL A   1      32.280  20.256  24.106  1.00  0.00     0.130 C 
ATOM     19  C   UNL A   1      31.760  21.116  25.269  1.00  0.00     0.134 C 
ATOM     20  O   UNL A   1      33.526  19.630  24.432  1.00  0.00    -0.375 OA
ATOM     21  C   UNL A   1      34.521  20.573  24.836  1.00  0.00     0.180 C 
ATOM     22  C   UNL A   1      34.074  21.422  26.045  1.00  0.00     0.096 C 
ATOM     23  C   UNL A   1      35.218  22.369  26.397  1.00  0.00     0.028 C 
ENDBRANCH  13  16
ENDBRANCH   8  13
ENDBRANCH   4   7
ENDBRANCH   2   3
ENDBRANCH   1   2
BRANCH   1  24
ATOM     24  C   UNL A   1      35.520  30.896  27.999  1.00  0.00     0.118 C 
BRANCH  24  25
ATOM     25  N   UNL A   1      35.444  30.865  29.451  1.00  0.00    -0.352 N 
ATOM     26  C   UNL A   1      36.356  30.410  30.372  1.00  0.00     0.251 C 
ATOM     27  H   UNL A   1      34.612  31.227  29.832  1.00  0.00     0.163 HD
ATOM     28  O   UNL A   1      36.007  30.287  31.544  1.00  0.00    -0.269 OA
BRANCH  26  29
ATOM     29  C   UNL A   1      37.737  30.054  29.972  1.00  0.00     0.039 A 
ATOM     30  C   UNL A   1      38.644  29.663  30.964  1.00  0.00     0.014 A 
ATOM     31  C   UNL A   1      38.162  30.150  28.644  1.00  0.00     0.014 A 
ATOM     32  C   UNL A   1      39.954  29.319  30.617  1.00  0.00     0.010 A 
ATOM     33  C   UNL A   1      39.450  29.746  28.292  1.00  0.00     0.010 A 
ATOM     34  C   UNL A   1      40.361  29.331  29.274  1.00  0.00    -0.014 A 
BRANCH  34  35
ATOM     35  C   UNL A   1      41.734  28.920  28.881  1.00  0.00     0.031 A 
ATOM     36  C   UNL A   1      42.852  29.928  28.863  1.00  0.00     0.074 A 
ATOM     37  C   UNL A   1      41.963  27.652  28.485  1.00  0.00     0.049 A 
ATOM     38  N   UNL A   1      44.093  29.779  28.477  1.00  0.00    -0.248 NA
ATOM     39  C   UNL A   1      42.526  31.288  29.320  1.00  0.00     0.031 C 
ATOM     40  C   UNL A   1      40.956  26.591  28.422  1.00  0.00     0.029 A 
ATOM     41  N   UNL A   1      43.113  27.043  28.050  1.00  0.00    -0.354 N 
ATOM     42  C   UNL A   1      44.691  31.025  28.627  1.00  0.00     0.074 A 
ATOM     43  C   UNL A   1      43.665  31.930  29.100  1.00  0.00     0.031 C 
ATOM     44  C   UNL A   1      41.537  25.458  27.994  1.00  0.00     0.029 A 
ATOM     45  C   UNL A   1      42.945  25.719  27.718  1.00  0.00     0.049 A 
ATOM     46  H   UNL A   1      43.977  27.510  27.981  1.00  0.00     0.167 HD
ATOM     47  C   UNL A   1      45.981  31.378  28.410  1.00  0.00     0.037 A 
ATOM     48  C   UNL A   1      43.826  24.818  27.241  1.00  0.00     0.037 A 
ATOM     49  C   UNL A   1      47.005  30.469  27.966  1.00  0.00     0.049 A 
ATOM     50  C   UNL A   1      45.253  25.233  27.014  1.00  0.00     0.074 A 
ATOM     51  C   UNL A   1      48.352  30.721  27.763  1.00  0.00     0.029 A 
ATOM     52  N   UNL A   1      46.800  29.131  27.663  1.00  0.00    -0.354 N 
ATOM     53  N   UNL A   1      45.809  26.405  27.201  1.00  0.00    -0.248 NA
ATOM     54  C   UNL A   1      46.173  24.202  26.515  1.00  0.00     0.031 C 
ATOM     55  C   UNL A   1      48.953  29.543  27.308  1.00  0.00     0.029 A 
ATOM     56  C   UNL A   1      47.990  28.547  27.263  1.00  0.00     0.049 A 
ATOM     57  H   UNL A   1      45.934  28.665  27.722  1.00  0.00     0.167 HD
ATOM     58  C   UNL A   1      47.150  26.247  26.866  1.00  0.00     0.074 A 
ATOM     59  C   UNL A   1      47.323  24.863  26.474  1.00  0.00     0.031 C 
ATOM     60  C   UNL A   1      48.147  27.166  26.884  1.00  0.00     0.037 A 
BRANCH  47  61
ATOM     61  C   UNL A   1      46.359  32.814  28.656  1.00  0.00     0.058 A 
ATOM     62  C   UNL A   1      46.803  33.249  29.915  1.00  0.00     0.135 A 
ATOM     63  C   UNL A   1      46.310  33.755  27.616  1.00  0.00     0.135 A 
ATOM     64  F   UNL A   1      46.855  32.392  30.946  1.00  0.00    -0.206 F 
ATOM     65  C   UNL A   1      47.156  34.575  30.142  1.00  0.00     0.059 A 
ATOM     66  C   UNL A   1      46.682  35.082  27.815  1.00  0.00     0.059 A 
ATOM     67  F   UNL A   1      45.893  33.392  26.393  1.00  0.00    -0.206 F 
ATOM     68  C   UNL A   1      47.089  35.486  29.087  1.00  0.00     0.060 A 
BRANCH  68  69
ATOM     69  S   UNL A   1      47.551  37.203  29.397  1.00  0.00     0.124 S 
ATOM     70  O   UNL A   1      46.661  37.547  30.501  1.00  0.00    -0.237 OA
ATOM     71  O   UNL A   1      48.967  37.093  29.735  1.00  0.00    -0.237 OA
ATOM     72  O   UNL A   1      47.262  37.867  28.129  1.00  0.00    -0.744 OA
ENDBRANCH  68  69
ENDBRANCH  47  61
BRANCH  48  73
ATOM     73  C   UNL A   1      43.386  23.423  26.974  1.00  0.00     0.058 A 
ATOM     74  C   UNL A   1      43.188  22.974  25.660  1.00  0.00     0.135 A 
ATOM     75  C   UNL A   1      43.175  22.510  28.018  1.00  0.00     0.135 A 
ATOM     76  F   UNL A   1      43.372  23.813  24.630  1.00  0.00    -0.206 F 
ATOM     77  C   UNL A   1      42.785  21.671  25.389  1.00  0.00     0.059 A 
ATOM     78  C   UNL A   1      42.794  21.196  27.771  1.00  0.00     0.059 A 
ATOM     79  F   UNL A   1      43.368  22.888  29.291  1.00  0.00    -0.206 F 
ATOM     80  C   UNL A   1      42.592  20.787  26.453  1.00  0.00     0.060 A 
BRANCH  80  81
ATOM     81  S   UNL A   1      42.127  19.080  26.089  1.00  0.00     0.124 S 
ATOM     82  O   UNL A   1      40.694  19.211  25.855  1.00  0.00    -0.237 OA
ATOM     83  O   UNL A   1      42.942  18.782  24.915  1.00  0.00    -0.237 OA
ATOM     84  O   UNL A   1      42.508  18.365  27.304  1.00  0.00    -0.744 OA
ENDBRANCH  80  81
ENDBRANCH  48  73
BRANCH  60  85
ATOM     85  C   UNL A   1      49.521  26.698  26.497  1.00  0.00     0.058 A 
ATOM     86  C   UNL A   1      50.377  26.083  27.423  1.00  0.00     0.135 A 
ATOM     87  C   UNL A   1      49.968  26.825  25.171  1.00  0.00     0.135 A 
ATOM     88  F   UNL A   1      49.999  25.945  28.704  1.00  0.00    -0.206 F 
ATOM     89  C   UNL A   1      51.637  25.626  27.053  1.00  0.00     0.059 A 
ATOM     90  C   UNL A   1      51.215  26.354  24.774  1.00  0.00     0.059 A 
ATOM     91  F   UNL A   1      49.183  27.397  24.246  1.00  0.00    -0.206 F 
ATOM     92  C   UNL A   1      52.048  25.767  25.725  1.00  0.00     0.060 A 
BRANCH  92  93
ATOM     93  S   UNL A   1      53.673  25.140  25.249  1.00  0.00     0.124 S 
ATOM     94  O   UNL A   1      54.530  25.749  26.259  1.00  0.00    -0.237 OA
ATOM     95  O   UNL A   1      53.497  23.694  25.355  1.00  0.00    -0.237 OA
ATOM     96  O   UNL A   1      53.845  25.645  23.889  1.00  0.00    -0.744 OA
ENDBRANCH  92  93
ENDBRANCH  60  85
ENDBRANCH  34  35
ENDBRANCH  26  29
ENDBRANCH  24  25
ENDBRANCH   1  24
TORSDOF 15
ENDMDL
MODEL 3
REMARK VINA RESULT:     -12.1      1.460      2.271
REMARK SMILES C[C@@H]1CN(S(=O)(=O)c2ccc(C(=O)NCCCNC(=O)c3ccc(-c4c5nc(c(-c6c(F)cc(S(=O)(=O)[O-])cc6F)c6ccc([nH]6)c(-c6c(F)cc(S(=O)(=O)[O-])cc6F)c6nc(c(-c7c(F)cc(S(=O)(=O)[O-])cc7F)c7ccc4[nH]7)C=C6)C=C5)cc3)cc2)[C@H](C)CO1
REMARK SMILES IDX 16 1 15 2 14 3 12 4 13 5 11 7 8 8 9 9 88 10 10 11 87 12 5 13
REMARK SMILES IDX 6 14 7 15 4 16 1 17 2 18 3 19 92 20 91 21 89 22 90 23 17 24
REMARK SMILES IDX 18 25 19 26 20 28 21 29 22 30 86 31 23 32 85 33 24 34 25 35
REMARK SMILES IDX 26 36 79 37 27 38 84 39 78 40 80 41 28 42 83 43 77 44 76 45
REMARK SMILES IDX 29 47 63 48 42 49 62 50 43 51 46 52 61 53 81 54 44 55 45 56
REMARK SMILES IDX 60 58 82 59 47 60 30 61 31 62 40 63 32 64 33 65 39 66 41 67
REMARK SMILES IDX 34 68 35 69 36 70 37 71 38 72 64 73 65 74 74 75 66 76 67 77
REMARK SMILES IDX 73 78 75 79 68 80 69 81 70 82 71 83 72 84 48 85 49 86 58 87
REMARK SMILES IDX 50 88 51 89 57 90 59 91 52 92 53 93 54 94 55 95 56 96
REMARK H PARENT 14 6 18 27 80 46 46 57
REMARK Flexibility Score: inf
ROOT
ATOM      1  C   UNL A   1      38.269  23.528  26.186  1.00  0.00     0.042 C 
ENDROOT
BRANCH   1   2
ATOM      2  C   UNL A   1      37.759  22.272  25.484  1.00  0.00     0.118 C 
BRANCH   2   3
ATOM      3  N   UNL A   1      36.562  21.740  26.116  1.00  0.00    -0.352 N 
ATOM      4  C   UNL A   1      35.237  22.019  25.903  1.00  0.00     0.251 C 
ATOM      5  O   UNL A   1      34.387  21.310  26.440  1.00  0.00    -0.269 OA
ATOM      6  H   UNL A   1      36.734  21.065  26.813  1.00  0.00     0.163 HD
BRANCH   4   7
ATOM      7  C   UNL A   1      34.798  23.119  25.008  1.00  0.00     0.039 A 
ATOM      8  C   UNL A   1      33.905  25.102  23.249  1.00  0.00     0.082 A 
ATOM      9  C   UNL A   1      33.861  23.761  22.859  1.00  0.00     0.022 A 
ATOM     10  C   UNL A   1      34.330  25.451  24.535  1.00  0.00     0.022 A 
ATOM     11  C   UNL A   1      34.305  22.772  23.742  1.00  0.00     0.015 A 
ATOM     12  C   UNL A   1      34.777  24.459  25.411  1.00  0.00     0.015 A 
BRANCH   8  13
ATOM     13  S   UNL A   1      33.268  26.358  22.157  1.00  0.00     0.243 S 
ATOM     14  O   UNL A   1      32.698  25.694  21.000  1.00  0.00    -0.207 OA
ATOM     15  O   UNL A   1      34.315  27.343  22.007  1.00  0.00    -0.207 OA
BRANCH  13  16
ATOM     16  N   UNL A   1      31.959  27.071  23.038  1.00  0.00    -0.190 NA
ATOM     17  C   UNL A   1      29.073  26.748  24.268  1.00  0.00     0.040 C 
ATOM     18  C   UNL A   1      29.493  27.628  23.093  1.00  0.00     0.130 C 
ATOM     19  C   UNL A   1      30.650  27.030  22.276  1.00  0.00     0.134 C 
ATOM     20  O   UNL A   1      29.784  28.966  23.515  1.00  0.00    -0.375 OA
ATOM     21  C   UNL A   1      31.008  29.051  24.249  1.00  0.00     0.180 C 
ATOM     22  C   UNL A   1      32.217  28.521  23.448  1.00  0.00     0.096 C 
ATOM     23  C   UNL A   1      33.459  28.684  24.319  1.00  0.00     0.028 C 
ENDBRANCH  13  16
ENDBRANCH   8  13
ENDBRANCH   4   7
ENDBRANCH   2   3
ENDBRANCH   1   2
BRANCH   1  24
ATOM     24  C   UNL A   1      39.575  23.327  26.951  1.00  0.00     0.118 C 
BRANCH  24  25
ATOM     25  N   UNL A   1      40.740  23.698  26.163  1.00  0.00    -0.352 N 
ATOM     26  C   UNL A   1      41.496  24.844  26.192  1.00  0.00     0.251 C 
ATOM     27  H   UNL A   1      41.031  23.023  25.508  1.00  0.00     0.163 HD
ATOM     28  O   UNL A   1      42.315  25.040  25.296  1.00  0.00    -0.269 OA
BRANCH  26  29
ATOM     29  C   UNL A   1      41.328  25.845  27.271  1.00  0.00     0.039 A 
ATOM     30  C   UNL A   1      40.343  25.628  28.241  1.00  0.00     0.014 A 
ATOM     31  C   UNL A   1      42.092  27.016  27.308  1.00  0.00     0.014 A 
ATOM     32  C   UNL A   1      40.162  26.554  29.273  1.00  0.00     0.010 A 
ATOM     33  C   UNL A   1      41.953  27.906  28.373  1.00  0.00     0.010 A 
ATOM     34  C   UNL A   1      40.984  27.688  29.364  1.00  0.00    -0.014 A 
BRANCH  34  35
ATOM     35  C   UNL A   1      40.840  28.657  30.481  1.00  0.00     0.031 A 
ATOM     36  C   UNL A   1      41.732  28.560  31.690  1.00  0.00     0.074 A 
ATOM     37  C   UNL A   1      39.869  29.590  30.433  1.00  0.00     0.049 A 
ATOM     38  N   UNL A   1      41.707  29.261  32.794  1.00  0.00    -0.248 NA
ATOM     39  C   UNL A   1      42.776  27.523  31.662  1.00  0.00     0.031 C 
ATOM     40  C   UNL A   1      38.916  29.764  29.334  1.00  0.00     0.029 A 
ATOM     41  N   UNL A   1      39.513  30.561  31.336  1.00  0.00    -0.354 N 
ATOM     42  C   UNL A   1      42.715  28.743  33.597  1.00  0.00     0.074 A 
ATOM     43  C   UNL A   1      43.307  27.639  32.872  1.00  0.00     0.031 C 
ATOM     44  C   UNL A   1      38.100  30.792  29.619  1.00  0.00     0.029 A 
ATOM     45  C   UNL A   1      38.445  31.326  30.932  1.00  0.00     0.049 A 
ATOM     46  H   UNL A   1      39.980  30.697  32.192  1.00  0.00     0.167 HD
ATOM     47  C   UNL A   1      43.125  29.160  34.820  1.00  0.00     0.037 A 
ATOM     48  C   UNL A   1      37.811  32.341  31.551  1.00  0.00     0.037 A 
ATOM     49  C   UNL A   1      42.553  30.276  35.528  1.00  0.00     0.049 A 
ATOM     50  C   UNL A   1      38.288  32.790  32.905  1.00  0.00     0.074 A 
ATOM     51  C   UNL A   1      42.931  30.806  36.750  1.00  0.00     0.029 A 
ATOM     52  N   UNL A   1      41.487  31.039  35.075  1.00  0.00    -0.354 N 
ATOM     53  N   UNL A   1      39.269  32.313  33.631  1.00  0.00    -0.248 NA
ATOM     54  C   UNL A   1      37.573  33.915  33.522  1.00  0.00     0.031 C 
ATOM     55  C   UNL A   1      42.073  31.869  37.050  1.00  0.00     0.029 A 
ATOM     56  C   UNL A   1      41.185  32.026  35.997  1.00  0.00     0.049 A 
ATOM     57  H   UNL A   1      41.014  30.898  34.223  1.00  0.00     0.167 HD
ATOM     58  C   UNL A   1      39.307  33.096  34.779  1.00  0.00     0.074 A 
ATOM     59  C   UNL A   1      38.255  34.084  34.647  1.00  0.00     0.031 C 
ATOM     60  C   UNL A   1      40.140  33.006  35.846  1.00  0.00     0.037 A 
BRANCH  47  61
ATOM     61  C   UNL A   1      44.253  28.406  35.470  1.00  0.00     0.058 A 
ATOM     62  C   UNL A   1      44.012  27.322  36.329  1.00  0.00     0.135 A 
ATOM     63  C   UNL A   1      45.589  28.747  35.206  1.00  0.00     0.135 A 
ATOM     64  F   UNL A   1      42.753  26.963  36.627  1.00  0.00    -0.206 F 
ATOM     65  C   UNL A   1      45.054  26.622  36.928  1.00  0.00     0.059 A 
ATOM     66  C   UNL A   1      46.648  28.045  35.774  1.00  0.00     0.059 A 
ATOM     67  F   UNL A   1      45.876  29.775  34.391  1.00  0.00    -0.206 F 
ATOM     68  C   UNL A   1      46.370  26.993  36.647  1.00  0.00     0.060 A 
BRANCH  68  69
ATOM     69  S   UNL A   1      47.713  26.076  37.430  1.00  0.00     0.124 S 
ATOM     70  O   UNL A   1      48.696  27.132  37.647  1.00  0.00    -0.237 OA
ATOM     71  O   UNL A   1      47.074  25.549  38.633  1.00  0.00    -0.237 OA
ATOM     72  O   UNL A   1      48.074  25.079  36.428  1.00  0.00    -0.744 OA
ENDBRANCH  68  69
ENDBRANCH  47  61
BRANCH  48  73
ATOM     73  C   UNL A   1      36.672  33.022  30.881  1.00  0.00     0.058 A 
ATOM     74  C   UNL A   1      35.356  32.816  31.319  1.00  0.00     0.135 A 
ATOM     75  C   UNL A   1      36.875  33.901  29.807  1.00  0.00     0.135 A 
ATOM     76  F   UNL A   1      35.112  31.979  32.339  1.00  0.00    -0.206 F 
ATOM     77  C   UNL A   1      34.278  33.450  30.711  1.00  0.00     0.059 A 
ATOM     78  C   UNL A   1      35.816  34.564  29.196  1.00  0.00     0.059 A 
ATOM     79  F   UNL A   1      38.119  34.143  29.362  1.00  0.00    -0.206 F 
ATOM     80  C   UNL A   1      34.519  34.325  29.650  1.00  0.00     0.060 A 
BRANCH  80  81
ATOM     81  S   UNL A   1      33.119  35.190  28.904  1.00  0.00     0.124 S 
ATOM     82  O   UNL A   1      33.775  36.345  28.303  1.00  0.00    -0.237 OA
ATOM     83  O   UNL A   1      32.602  34.192  27.973  1.00  0.00    -0.237 OA
ATOM     84  O   UNL A   1      32.256  35.474  30.047  1.00  0.00    -0.744 OA
ENDBRANCH  80  81
ENDBRANCH  48  73
BRANCH  60  85
ATOM     85  C   UNL A   1      39.968  34.021  36.941  1.00  0.00     0.058 A 
ATOM     86  C   UNL A   1      40.555  35.293  36.865  1.00  0.00     0.135 A 
ATOM     87  C   UNL A   1      39.166  33.731  38.058  1.00  0.00     0.135 A 
ATOM     88  F   UNL A   1      41.336  35.615  35.822  1.00  0.00    -0.206 F 
ATOM     89  C   UNL A   1      40.369  36.238  37.869  1.00  0.00     0.059 A 
ATOM     90  C   UNL A   1      38.948  34.669  39.061  1.00  0.00     0.059 A 
ATOM     91  F   UNL A   1      38.574  32.532  38.172  1.00  0.00    -0.206 F 
ATOM     92  C   UNL A   1      39.564  35.916  38.964  1.00  0.00     0.060 A 
BRANCH  92  93
ATOM     93  S   UNL A   1      39.302  37.162  40.244  1.00  0.00     0.124 S 
ATOM     94  O   UNL A   1      40.673  37.489  40.619  1.00  0.00    -0.237 OA
ATOM     95  O   UNL A   1      38.576  38.205  39.526  1.00  0.00    -0.237 OA
ATOM     96  O   UNL A   1      38.525  36.450  41.255  1.00  0.00    -0.744 OA
ENDBRANCH  92  93
ENDBRANCH  60  85
ENDBRANCH  34  35
ENDBRANCH  26  29
ENDBRANCH  24  25
ENDBRANCH   1  24
TORSDOF 15
ENDMDL
