MODEL 1
REMARK VINA RESULT:     -12.0      0.000      0.000
REMARK SMILES C=CC[C@@]1(C(=O)NCCCNC(=O)c2ccc(-c3c4nc(c(-c5c(F)cc(S(=O)(=O)[O-])cc5F)c5ccc([nH]5)c(-c5c(F)cc(S(=O)(=O)[O-])cc5F)c5nc(c(-c6c(F)cc(S(=O)(=O)[O-])cc6F)c6ccc3[nH]6)C=C5)C=C4)cc2)CCCN(C(=O)c2ccc3c(c2)OCO3)C1
REMARK SMILES IDX 9 1 8 2 7 3 5 4 6 5 4 7 80 8 95 9 81 10 83 11 82 12 3 13
REMARK SMILES IDX 2 14 1 15 84 16 85 17 86 18 87 19 91 20 88 21 90 22 89 23
REMARK SMILES IDX 92 24 94 25 93 26 10 27 11 28 12 29 13 31 14 32 15 33 79 34
REMARK SMILES IDX 16 35 78 36 17 37 18 38 19 39 72 40 20 41 77 42 71 43 73 44
REMARK SMILES IDX 21 45 76 46 70 47 69 48 22 50 56 51 35 52 55 53 36 54 39 55
REMARK SMILES IDX 54 56 74 57 37 58 38 59 53 61 75 62 40 63 23 64 24 65 33 66
REMARK SMILES IDX 25 67 26 68 32 69 34 70 27 71 28 72 29 73 30 74 31 75 57 76
REMARK SMILES IDX 58 77 67 78 59 79 60 80 66 81 68 82 61 83 62 84 63 85 64 86
REMARK SMILES IDX 65 87 41 88 42 89 51 90 43 91 44 92 50 93 52 94 45 95 46 96
REMARK SMILES IDX 47 97 48 98 49 99
REMARK H PARENT 7 6 11 30 73 49 39 60
REMARK Flexibility Score: inf
ROOT
ATOM      1  C   UNL A   1      33.925  27.910  26.074  1.00  0.00     0.042 C 
ENDROOT
BRANCH   1   2
ATOM      2  C   UNL A   1      33.083  26.978  25.224  1.00  0.00     0.117 C 
BRANCH   2   3
ATOM      3  N   UNL A   1      32.685  25.782  25.927  1.00  0.00    -0.355 N 
ATOM      4  C   UNL A   1      33.212  24.550  26.084  1.00  0.00     0.228 C 
ATOM      5  O   UNL A   1      32.494  23.824  26.786  1.00  0.00    -0.274 OA
ATOM      6  H   UNL A   1      31.830  25.889  26.401  1.00  0.00     0.163 HD
BRANCH   4   7
ATOM      7  C   UNL A   1      34.483  23.990  25.382  1.00  0.00     0.070 C 
ATOM      8  C   UNL A   1      34.562  24.643  23.969  1.00  0.00     0.021 C 
ATOM      9  C   UNL A   1      34.252  22.458  25.232  1.00  0.00     0.137 C 
ATOM     10  C   UNL A   1      33.479  24.170  22.992  1.00  0.00     0.023 C 
ATOM     11  N   UNL A   1      33.242  22.080  24.261  1.00  0.00    -0.338 N 
ATOM     12  C   UNL A   1      33.408  22.649  22.925  1.00  0.00     0.120 C 
BRANCH   7  13
ATOM     13  C   UNL A   1      35.823  24.105  26.195  1.00  0.00     0.045 C 
BRANCH  13  14
ATOM     14  C   UNL A   1      36.977  23.236  25.745  1.00  0.00    -0.034 C 
ATOM     15  C   UNL A   1      38.280  23.544  25.748  1.00  0.00     0.004 C 
ENDBRANCH  13  14
ENDBRANCH   7  13
BRANCH  11  16
ATOM     16  C   UNL A   1      32.207  21.238  24.670  1.00  0.00     0.254 C 
ATOM     17  O   UNL A   1      31.270  21.553  25.397  1.00  0.00    -0.269 OA
BRANCH  16  18
ATOM     18  C   UNL A   1      32.348  19.824  24.310  1.00  0.00     0.043 A 
ATOM     19  C   UNL A   1      32.186  19.393  22.980  1.00  0.00     0.018 A 
ATOM     20  C   UNL A   1      32.819  18.978  25.319  1.00  0.00     0.064 A 
ATOM     21  C   UNL A   1      32.575  18.096  22.631  1.00  0.00     0.051 A 
ATOM     22  C   UNL A   1      33.235  17.735  24.929  1.00  0.00     0.166 A 
ATOM     23  C   UNL A   1      33.130  17.308  23.622  1.00  0.00     0.165 A 
ATOM     24  O   UNL A   1      33.867  16.833  25.726  1.00  0.00    -0.454 OA
ATOM     25  O   UNL A   1      33.696  16.082  23.449  1.00  0.00    -0.454 OA
ATOM     26  C   UNL A   1      34.354  15.922  24.724  1.00  0.00     0.468 C 
ENDBRANCH  16  18
ENDBRANCH  11  16
ENDBRANCH   4   7
ENDBRANCH   2   3
ENDBRANCH   1   2
BRANCH   1  27
ATOM     27  C   UNL A   1      33.259  28.339  27.371  1.00  0.00     0.118 C 
BRANCH  27  28
ATOM     28  N   UNL A   1      33.305  29.780  27.581  1.00  0.00    -0.352 N 
ATOM     29  C   UNL A   1      34.307  30.580  28.075  1.00  0.00     0.251 C 
ATOM     30  H   UNL A   1      32.483  30.259  27.327  1.00  0.00     0.163 HD
ATOM     31  O   UNL A   1      34.060  31.749  28.363  1.00  0.00    -0.269 OA
BRANCH  29  32
ATOM     32  C   UNL A   1      35.664  30.034  28.293  1.00  0.00     0.039 A 
ATOM     33  C   UNL A   1      36.592  30.082  27.250  1.00  0.00     0.014 A 
ATOM     34  C   UNL A   1      36.027  29.477  29.519  1.00  0.00     0.014 A 
ATOM     35  C   UNL A   1      37.906  29.665  27.471  1.00  0.00     0.010 A 
ATOM     36  C   UNL A   1      37.359  29.167  29.773  1.00  0.00     0.010 A 
ATOM     37  C   UNL A   1      38.316  29.259  28.753  1.00  0.00    -0.014 A 
BRANCH  37  38
ATOM     38  C   UNL A   1      39.739  28.954  29.055  1.00  0.00     0.031 A 
ATOM     39  C   UNL A   1      40.638  30.016  29.631  1.00  0.00     0.074 A 
ATOM     40  C   UNL A   1      40.240  27.746  28.730  1.00  0.00     0.049 A 
ATOM     41  N   UNL A   1      41.922  29.966  29.875  1.00  0.00    -0.248 NA
ATOM     42  C   UNL A   1      40.019  31.314  29.947  1.00  0.00     0.031 C 
ATOM     43  C   UNL A   1      39.483  26.653  28.114  1.00  0.00     0.029 A 
ATOM     44  N   UNL A   1      41.508  27.234  28.860  1.00  0.00    -0.354 N 
ATOM     45  C   UNL A   1      42.266  31.223  30.358  1.00  0.00     0.074 A 
ATOM     46  C   UNL A   1      41.068  32.033  30.318  1.00  0.00     0.031 C 
ATOM     47  C   UNL A   1      40.291  25.595  27.944  1.00  0.00     0.029 A 
ATOM     48  C   UNL A   1      41.635  25.947  28.390  1.00  0.00     0.049 A 
ATOM     49  H   UNL A   1      42.256  27.741  29.251  1.00  0.00     0.167 HD
ATOM     50  C   UNL A   1      43.466  31.656  30.815  1.00  0.00     0.037 A 
ATOM     51  C   UNL A   1      42.715  25.144  28.313  1.00  0.00     0.037 A 
ATOM     52  C   UNL A   1      44.648  30.835  30.871  1.00  0.00     0.049 A 
ATOM     53  C   UNL A   1      44.038  25.651  28.816  1.00  0.00     0.074 A 
ATOM     54  C   UNL A   1      45.895  31.159  31.375  1.00  0.00     0.029 A 
ATOM     55  N   UNL A   1      44.733  29.532  30.400  1.00  0.00    -0.354 N 
ATOM     56  N   UNL A   1      44.328  26.821  29.336  1.00  0.00    -0.248 NA
ATOM     57  C   UNL A   1      45.180  24.732  28.725  1.00  0.00     0.031 C 
ATOM     58  C   UNL A   1      46.749  30.072  31.159  1.00  0.00     0.029 A 
ATOM     59  C   UNL A   1      46.020  29.048  30.576  1.00  0.00     0.049 A 
ATOM     60  H   UNL A   1      43.989  29.025  30.002  1.00  0.00     0.167 HD
ATOM     61  C   UNL A   1      45.680  26.768  29.656  1.00  0.00     0.074 A 
ATOM     62  C   UNL A   1      46.145  25.447  29.289  1.00  0.00     0.031 C 
ATOM     63  C   UNL A   1      46.467  27.728  30.203  1.00  0.00     0.037 A 
BRANCH  50  64
ATOM     64  C   UNL A   1      43.562  33.079  31.296  1.00  0.00     0.058 A 
ATOM     65  C   UNL A   1      43.364  33.419  32.645  1.00  0.00     0.135 A 
ATOM     66  C   UNL A   1      43.899  34.112  30.406  1.00  0.00     0.135 A 
ATOM     67  F   UNL A   1      43.024  32.476  33.538  1.00  0.00    -0.206 F 
ATOM     68  C   UNL A   1      43.471  34.733  33.088  1.00  0.00     0.059 A 
ATOM     69  C   UNL A   1      44.043  35.429  30.833  1.00  0.00     0.059 A 
ATOM     70  F   UNL A   1      44.098  33.846  29.105  1.00  0.00    -0.206 F 
ATOM     71  C   UNL A   1      43.814  35.732  32.174  1.00  0.00     0.060 A 
BRANCH  71  72
ATOM     72  S   UNL A   1      43.963  37.429  32.771  1.00  0.00     0.124 S 
ATOM     73  O   UNL A   1      43.721  38.189  31.548  1.00  0.00    -0.237 OA
ATOM     74  O   UNL A   1      42.908  37.498  33.777  1.00  0.00    -0.237 OA
ATOM     75  O   UNL A   1      45.326  37.491  33.288  1.00  0.00    -0.744 OA
ENDBRANCH  71  72
ENDBRANCH  50  64
BRANCH  51  76
ATOM     76  C   UNL A   1      42.585  23.774  27.745  1.00  0.00     0.058 A 
ATOM     77  C   UNL A   1      42.639  23.558  26.361  1.00  0.00     0.135 A 
ATOM     78  C   UNL A   1      42.419  22.653  28.575  1.00  0.00     0.135 A 
ATOM     79  F   UNL A   1      42.791  24.597  25.525  1.00  0.00    -0.206 F 
ATOM     80  C   UNL A   1      42.515  22.284  25.815  1.00  0.00     0.059 A 
ATOM     81  C   UNL A   1      42.322  21.366  28.054  1.00  0.00     0.059 A 
ATOM     82  F   UNL A   1      42.379  22.802  29.908  1.00  0.00    -0.206 F 
ATOM     83  C   UNL A   1      42.360  21.193  26.673  1.00  0.00     0.060 A 
BRANCH  83  84
ATOM     84  S   UNL A   1      42.249  19.539  25.957  1.00  0.00     0.124 S 
ATOM     85  O   UNL A   1      40.825  19.441  25.661  1.00  0.00    -0.237 OA
ATOM     86  O   UNL A   1      43.137  19.644  24.804  1.00  0.00    -0.237 OA
ATOM     87  O   UNL A   1      42.731  18.676  27.032  1.00  0.00    -0.744 OA
ENDBRANCH  83  84
ENDBRANCH  51  76
BRANCH  63  88
ATOM     88  C   UNL A   1      47.908  27.378  30.462  1.00  0.00     0.058 A 
ATOM     89  C   UNL A   1      48.299  26.657  31.600  1.00  0.00     0.135 A 
ATOM     90  C   UNL A   1      48.902  27.730  29.534  1.00  0.00     0.135 A 
ATOM     91  F   UNL A   1      47.390  26.303  32.523  1.00  0.00    -0.206 F 
ATOM     92  C   UNL A   1      49.629  26.318  31.823  1.00  0.00     0.059 A 
ATOM     93  C   UNL A   1      50.234  27.374  29.721  1.00  0.00     0.059 A 
ATOM     94  F   UNL A   1      48.581  28.412  28.423  1.00  0.00    -0.206 F 
ATOM     95  C   UNL A   1      50.589  26.679  30.876  1.00  0.00     0.060 A 
BRANCH  95  96
ATOM     96  S   UNL A   1      52.307  26.205  31.163  1.00  0.00     0.124 S 
ATOM     97  O   UNL A   1      52.794  27.329  31.957  1.00  0.00    -0.237 OA
ATOM     98  O   UNL A   1      52.166  24.939  31.876  1.00  0.00    -0.237 OA
ATOM     99  O   UNL A   1      52.863  26.101  29.817  1.00  0.00    -0.744 OA
ENDBRANCH  95  96
ENDBRANCH  63  88
ENDBRANCH  37  38
ENDBRANCH  29  32
ENDBRANCH  27  28
ENDBRANCH   1  27
TORSDOF 17
ENDMDL
MODEL 2
REMARK VINA RESULT:     -11.9      1.942      3.790
REMARK SMILES C=CC[C@@]1(C(=O)NCCCNC(=O)c2ccc(-c3c4nc(c(-c5c(F)cc(S(=O)(=O)[O-])cc5F)c5ccc([nH]5)c(-c5c(F)cc(S(=O)(=O)[O-])cc5F)c5nc(c(-c6c(F)cc(S(=O)(=O)[O-])cc6F)c6ccc3[nH]6)C=C5)C=C4)cc2)CCCN(C(=O)c2ccc3c(c2)OCO3)C1
REMARK SMILES IDX 9 1 8 2 7 3 5 4 6 5 4 7 80 8 95 9 81 10 83 11 82 12 3 13
REMARK SMILES IDX 2 14 1 15 84 16 85 17 86 18 87 19 91 20 88 21 90 22 89 23
REMARK SMILES IDX 92 24 94 25 93 26 10 27 11 28 12 29 13 31 14 32 15 33 79 34
REMARK SMILES IDX 16 35 78 36 17 37 18 38 19 39 72 40 20 41 77 42 71 43 73 44
REMARK SMILES IDX 21 45 76 46 70 47 69 48 22 50 56 51 35 52 55 53 36 54 39 55
REMARK SMILES IDX 54 56 74 57 37 58 38 59 53 61 75 62 40 63 23 64 24 65 33 66
REMARK SMILES IDX 25 67 26 68 32 69 34 70 27 71 28 72 29 73 30 74 31 75 57 76
REMARK SMILES IDX 58 77 67 78 59 79 60 80 66 81 68 82 61 83 62 84 63 85 64 86
REMARK SMILES IDX 65 87 41 88 42 89 51 90 43 91 44 92 50 93 52 94 45 95 46 96
REMARK SMILES IDX 47 97 48 98 49 99
REMARK H PARENT 7 6 11 30 73 49 39 60
REMARK Flexibility Score: inf
ROOT
ATOM      1  C   UNL A   1      33.764  28.169  25.923  1.00  0.00     0.042 C 
ENDROOT
BRANCH   1   2
ATOM      2  C   UNL A   1      34.070  26.693  25.757  1.00  0.00     0.117 C 
BRANCH   2   3
ATOM      3  N   UNL A   1      34.166  26.291  24.373  1.00  0.00    -0.355 N 
ATOM      4  C   UNL A   1      33.953  25.144  23.697  1.00  0.00     0.228 C 
ATOM      5  O   UNL A   1      34.179  25.270  22.485  1.00  0.00    -0.274 OA
ATOM      6  H   UNL A   1      34.455  27.026  23.787  1.00  0.00     0.163 HD
BRANCH   4   7
ATOM      7  C   UNL A   1      33.610  23.756  24.313  1.00  0.00     0.070 C 
ATOM      8  C   UNL A   1      33.024  22.871  23.172  1.00  0.00     0.021 C 
ATOM      9  C   UNL A   1      32.511  24.019  25.382  1.00  0.00     0.137 C 
ATOM     10  C   UNL A   1      31.636  23.303  22.686  1.00  0.00     0.023 C 
ATOM     11  N   UNL A   1      31.211  24.384  24.852  1.00  0.00    -0.338 N 
ATOM     12  C   UNL A   1      30.662  23.475  23.847  1.00  0.00     0.120 C 
BRANCH   7  13
ATOM     13  C   UNL A   1      34.770  23.055  25.109  1.00  0.00     0.045 C 
BRANCH  13  14
ATOM     14  C   UNL A   1      35.695  22.150  24.324  1.00  0.00    -0.034 C 
ATOM     15  C   UNL A   1      36.929  22.426  23.887  1.00  0.00     0.004 C 
ENDBRANCH  13  14
ENDBRANCH   7  13
BRANCH  11  16
ATOM     16  C   UNL A   1      30.606  25.553  25.315  1.00  0.00     0.254 C 
ATOM     17  O   UNL A   1      30.448  25.861  26.492  1.00  0.00    -0.269 OA
BRANCH  16  18
ATOM     18  C   UNL A   1      29.981  26.401  24.297  1.00  0.00     0.043 A 
ATOM     19  C   UNL A   1      28.581  26.505  24.197  1.00  0.00     0.018 A 
ATOM     20  C   UNL A   1      30.846  27.219  23.564  1.00  0.00     0.064 A 
ATOM     21  C   UNL A   1      28.026  27.506  23.394  1.00  0.00     0.051 A 
ATOM     22  C   UNL A   1      30.267  28.217  22.829  1.00  0.00     0.166 A 
ATOM     23  C   UNL A   1      28.899  28.368  22.756  1.00  0.00     0.165 A 
ATOM     24  O   UNL A   1      30.939  29.207  22.183  1.00  0.00    -0.454 OA
ATOM     25  O   UNL A   1      28.554  29.482  22.053  1.00  0.00    -0.454 OA
ATOM     26  C   UNL A   1      29.849  30.108  21.916  1.00  0.00     0.468 C 
ENDBRANCH  16  18
ENDBRANCH  11  16
ENDBRANCH   4   7
ENDBRANCH   2   3
ENDBRANCH   1   2
BRANCH   1  27
ATOM     27  C   UNL A   1      33.279  28.549  27.313  1.00  0.00     0.118 C 
BRANCH  27  28
ATOM     28  N   UNL A   1      33.337  29.983  27.560  1.00  0.00    -0.352 N 
ATOM     29  C   UNL A   1      34.335  30.759  28.099  1.00  0.00     0.251 C 
ATOM     30  H   UNL A   1      32.528  30.479  27.296  1.00  0.00     0.163 HD
ATOM     31  O   UNL A   1      34.095  31.923  28.410  1.00  0.00    -0.269 OA
BRANCH  29  32
ATOM     32  C   UNL A   1      35.680  30.190  28.340  1.00  0.00     0.039 A 
ATOM     33  C   UNL A   1      36.616  30.197  27.302  1.00  0.00     0.014 A 
ATOM     34  C   UNL A   1      36.023  29.652  29.580  1.00  0.00     0.014 A 
ATOM     35  C   UNL A   1      37.919  29.759  27.543  1.00  0.00     0.010 A 
ATOM     36  C   UNL A   1      37.346  29.321  29.851  1.00  0.00     0.010 A 
ATOM     37  C   UNL A   1      38.312  29.372  28.836  1.00  0.00    -0.014 A 
BRANCH  37  38
ATOM     38  C   UNL A   1      39.726  29.046  29.155  1.00  0.00     0.031 A 
ATOM     39  C   UNL A   1      40.633  30.092  29.747  1.00  0.00     0.074 A 
ATOM     40  C   UNL A   1      40.214  27.831  28.833  1.00  0.00     0.049 A 
ATOM     41  N   UNL A   1      41.913  30.022  30.007  1.00  0.00    -0.248 NA
ATOM     42  C   UNL A   1      40.029  31.398  30.059  1.00  0.00     0.031 C 
ATOM     43  C   UNL A   1      39.449  26.751  28.202  1.00  0.00     0.029 A 
ATOM     44  N   UNL A   1      41.472  27.300  28.977  1.00  0.00    -0.354 N 
ATOM     45  C   UNL A   1      42.269  31.273  30.499  1.00  0.00     0.074 A 
ATOM     46  C   UNL A   1      41.084  32.100  30.446  1.00  0.00     0.031 C 
ATOM     47  C   UNL A   1      40.244  25.683  28.039  1.00  0.00     0.029 A 
ATOM     48  C   UNL A   1      41.587  26.013  28.504  1.00  0.00     0.049 A 
ATOM     49  H   UNL A   1      42.222  27.795  29.379  1.00  0.00     0.167 HD
ATOM     50  C   UNL A   1      43.469  31.686  30.973  1.00  0.00     0.037 A 
ATOM     51  C   UNL A   1      42.655  25.194  28.438  1.00  0.00     0.037 A 
ATOM     52  C   UNL A   1      44.638  30.848  31.041  1.00  0.00     0.049 A 
ATOM     53  C   UNL A   1      43.979  25.681  28.960  1.00  0.00     0.074 A 
ATOM     54  C   UNL A   1      45.883  31.151  31.562  1.00  0.00     0.029 A 
ATOM     55  N   UNL A   1      44.710  29.545  30.567  1.00  0.00    -0.354 N 
ATOM     56  N   UNL A   1      44.280  26.844  29.488  1.00  0.00    -0.248 NA
ATOM     57  C   UNL A   1      45.108  24.745  28.880  1.00  0.00     0.031 C 
ATOM     58  C   UNL A   1      46.724  30.053  31.354  1.00  0.00     0.029 A 
ATOM     59  C   UNL A   1      45.987  29.042  30.757  1.00  0.00     0.049 A 
ATOM     60  H   UNL A   1      43.964  29.051  30.157  1.00  0.00     0.167 HD
ATOM     61  C   UNL A   1      45.627  26.771  29.825  1.00  0.00     0.074 A 
ATOM     62  C   UNL A   1      46.077  25.443  29.459  1.00  0.00     0.031 C 
ATOM     63  C   UNL A   1      46.420  27.717  30.386  1.00  0.00     0.037 A 
BRANCH  50  64
ATOM     64  C   UNL A   1      43.580  33.106  31.460  1.00  0.00     0.058 A 
ATOM     65  C   UNL A   1      43.330  33.450  32.799  1.00  0.00     0.135 A 
ATOM     66  C   UNL A   1      43.983  34.131  30.588  1.00  0.00     0.135 A 
ATOM     67  F   UNL A   1      42.925  32.516  33.675  1.00  0.00    -0.206 F 
ATOM     68  C   UNL A   1      43.450  34.761  33.249  1.00  0.00     0.059 A 
ATOM     69  C   UNL A   1      44.141  35.443  31.024  1.00  0.00     0.059 A 
ATOM     70  F   UNL A   1      44.234  33.860  29.298  1.00  0.00    -0.206 F 
ATOM     71  C   UNL A   1      43.860  35.751  32.354  1.00  0.00     0.060 A 
BRANCH  71  72
ATOM     72  S   UNL A   1      44.025  37.444  32.960  1.00  0.00     0.124 S 
ATOM     73  O   UNL A   1      42.882  37.541  33.863  1.00  0.00    -0.237 OA
ATOM     74  O   UNL A   1      45.337  37.418  33.599  1.00  0.00    -0.237 OA
ATOM     75  O   UNL A   1      43.937  38.250  31.746  1.00  0.00    -0.744 OA
ENDBRANCH  71  72
ENDBRANCH  50  64
BRANCH  51  76
ATOM     76  C   UNL A   1      42.512  23.828  27.864  1.00  0.00     0.058 A 
ATOM     77  C   UNL A   1      42.474  23.628  26.476  1.00  0.00     0.135 A 
ATOM     78  C   UNL A   1      42.426  22.696  28.689  1.00  0.00     0.135 A 
ATOM     79  F   UNL A   1      42.547  24.679  25.644  1.00  0.00    -0.206 F 
ATOM     80  C   UNL A   1      42.338  22.359  25.925  1.00  0.00     0.059 A 
ATOM     81  C   UNL A   1      42.318  21.413  28.160  1.00  0.00     0.059 A 
ATOM     82  F   UNL A   1      42.476  22.829  30.023  1.00  0.00    -0.206 F 
ATOM     83  C   UNL A   1      42.263  21.255  26.777  1.00  0.00     0.060 A 
BRANCH  83  84
ATOM     84  S   UNL A   1      42.135  19.607  26.051  1.00  0.00     0.124 S 
ATOM     85  O   UNL A   1      43.061  19.708  24.929  1.00  0.00    -0.237 OA
ATOM     86  O   UNL A   1      42.559  18.752  27.155  1.00  0.00    -0.237 OA
ATOM     87  O   UNL A   1      40.723  19.506  25.696  1.00  0.00    -0.744 OA
ENDBRANCH  83  84
ENDBRANCH  51  76
BRANCH  63  88
ATOM     88  C   UNL A   1      47.852  27.345  30.662  1.00  0.00     0.058 A 
ATOM     89  C   UNL A   1      48.253  26.824  31.902  1.00  0.00     0.135 A 
ATOM     90  C   UNL A   1      48.825  27.468  29.656  1.00  0.00     0.135 A 
ATOM     91  F   UNL A   1      47.365  26.693  32.900  1.00  0.00    -0.206 F 
ATOM     92  C   UNL A   1      49.575  26.463  32.144  1.00  0.00     0.059 A 
ATOM     93  C   UNL A   1      50.145  27.083  29.866  1.00  0.00     0.059 A 
ATOM     94  F   UNL A   1      48.493  27.950  28.447  1.00  0.00    -0.206 F 
ATOM     95  C   UNL A   1      50.512  26.593  31.118  1.00  0.00     0.060 A 
BRANCH  95  96
ATOM     96  S   UNL A   1      52.216  26.090  31.437  1.00  0.00     0.124 S 
ATOM     97  O   UNL A   1      52.058  24.662  31.693  1.00  0.00    -0.237 OA
ATOM     98  O   UNL A   1      52.884  26.440  30.187  1.00  0.00    -0.237 OA
ATOM     99  O   UNL A   1      52.600  26.896  32.592  1.00  0.00    -0.744 OA
ENDBRANCH  95  96
ENDBRANCH  63  88
ENDBRANCH  37  38
ENDBRANCH  29  32
ENDBRANCH  27  28
ENDBRANCH   1  27
TORSDOF 17
ENDMDL
MODEL 3
REMARK VINA RESULT:     -11.7      4.857     10.548
REMARK SMILES C=CC[C@@]1(C(=O)NCCCNC(=O)c2ccc(-c3c4nc(c(-c5c(F)cc(S(=O)(=O)[O-])cc5F)c5ccc([nH]5)c(-c5c(F)cc(S(=O)(=O)[O-])cc5F)c5nc(c(-c6c(F)cc(S(=O)(=O)[O-])cc6F)c6ccc3[nH]6)C=C5)C=C4)cc2)CCCN(C(=O)c2ccc3c(c2)OCO3)C1
REMARK SMILES IDX 9 1 8 2 7 3 5 4 6 5 4 7 80 8 95 9 81 10 83 11 82 12 3 13
REMARK SMILES IDX 2 14 1 15 84 16 85 17 86 18 87 19 91 20 88 21 90 22 89 23
REMARK SMILES IDX 92 24 94 25 93 26 10 27 11 28 12 29 13 31 14 32 15 33 79 34
REMARK SMILES IDX 16 35 78 36 17 37 18 38 19 39 72 40 20 41 77 42 71 43 73 44
REMARK SMILES IDX 21 45 76 46 70 47 69 48 22 50 56 51 35 52 55 53 36 54 39 55
REMARK SMILES IDX 54 56 74 57 37 58 38 59 53 61 75 62 40 63 23 64 24 65 33 66
REMARK SMILES IDX 25 67 26 68 32 69 34 70 27 71 28 72 29 73 30 74 31 75 57 76
REMARK SMILES IDX 58 77 67 78 59 79 60 80 66 81 68 82 61 83 62 84 63 85 64 86
REMARK SMILES IDX 65 87 41 88 42 89 51 90 43 91 44 92 50 93 52 94 45 95 46 96
REMARK SMILES IDX 47 97 48 98 49 99
REMARK H PARENT 7 6 11 30 73 49 39 60
REMARK Flexibility Score: inf
ROOT
ATOM      1  C   UNL A   1      37.657  22.843  26.023  1.00  0.00     0.042 C 
ENDROOT
BRANCH   1   2
ATOM      2  C   UNL A   1      36.163  23.081  26.138  1.00  0.00     0.117 C 
BRANCH   2   3
ATOM      3  N   UNL A   1      35.620  23.800  25.010  1.00  0.00    -0.355 N 
ATOM      4  C   UNL A   1      34.576  23.616  24.177  1.00  0.00     0.228 C 
ATOM      5  O   UNL A   1      34.499  24.511  23.323  1.00  0.00    -0.274 OA
ATOM      6  H   UNL A   1      36.131  24.614  24.800  1.00  0.00     0.163 HD
BRANCH   4   7
ATOM      7  C   UNL A   1      33.632  22.379  24.134  1.00  0.00     0.070 C 
ATOM      8  C   UNL A   1      32.843  22.440  22.791  1.00  0.00     0.021 C 
ATOM      9  C   UNL A   1      32.644  22.551  25.324  1.00  0.00     0.137 C 
ATOM     10  C   UNL A   1      31.812  23.573  22.714  1.00  0.00     0.023 C 
ATOM     11  N   UNL A   1      31.670  23.615  25.167  1.00  0.00    -0.338 N 
ATOM     12  C   UNL A   1      30.892  23.579  23.930  1.00  0.00     0.120 C 
BRANCH   7  13
ATOM     13  C   UNL A   1      34.314  20.987  24.390  1.00  0.00     0.045 C 
BRANCH  13  14
ATOM     14  C   UNL A   1      33.398  19.809  24.646  1.00  0.00    -0.034 C 
ATOM     15  C   UNL A   1      32.567  19.218  23.778  1.00  0.00     0.004 C 
ENDBRANCH  13  14
ENDBRANCH   7  13
BRANCH  11  16
ATOM     16  C   UNL A   1      31.563  24.575  26.174  1.00  0.00     0.254 C 
ATOM     17  O   UNL A   1      31.082  24.396  27.288  1.00  0.00    -0.269 OA
BRANCH  16  18
ATOM     18  C   UNL A   1      31.926  25.944  25.797  1.00  0.00     0.043 A 
ATOM     19  C   UNL A   1      31.006  26.786  25.143  1.00  0.00     0.018 A 
ATOM     20  C   UNL A   1      33.154  26.408  26.278  1.00  0.00     0.064 A 
ATOM     21  C   UNL A   1      31.291  28.150  25.029  1.00  0.00     0.051 A 
ATOM     22  C   UNL A   1      33.374  27.755  26.192  1.00  0.00     0.166 A 
ATOM     23  C   UNL A   1      32.466  28.606  25.599  1.00  0.00     0.165 A 
ATOM     24  O   UNL A   1      34.427  28.415  26.744  1.00  0.00    -0.454 OA
ATOM     25  O   UNL A   1      32.847  29.907  25.717  1.00  0.00    -0.454 OA
ATOM     26  C   UNL A   1      33.948  29.768  26.641  1.00  0.00     0.468 C 
ENDBRANCH  16  18
ENDBRANCH  11  16
ENDBRANCH   4   7
ENDBRANCH   2   3
ENDBRANCH   1   2
BRANCH   1  27
ATOM     27  C   UNL A   1      38.501  24.090  26.232  1.00  0.00     0.118 C 
BRANCH  27  28
ATOM     28  N   UNL A   1      39.932  23.815  26.208  1.00  0.00    -0.352 N 
ATOM     29  C   UNL A   1      40.986  24.519  26.737  1.00  0.00     0.251 C 
ATOM     30  H   UNL A   1      40.184  22.989  25.735  1.00  0.00     0.163 HD
ATOM     31  O   UNL A   1      42.134  24.217  26.420  1.00  0.00    -0.269 OA
BRANCH  29  32
ATOM     32  C   UNL A   1      40.745  25.657  27.652  1.00  0.00     0.039 A 
ATOM     33  C   UNL A   1      39.710  25.569  28.586  1.00  0.00     0.014 A 
ATOM     34  C   UNL A   1      41.534  26.806  27.595  1.00  0.00     0.014 A 
ATOM     35  C   UNL A   1      39.535  26.590  29.523  1.00  0.00     0.010 A 
ATOM     36  C   UNL A   1      41.432  27.767  28.595  1.00  0.00     0.010 A 
ATOM     37  C   UNL A   1      40.433  27.670  29.574  1.00  0.00    -0.014 A 
BRANCH  37  38
ATOM     38  C   UNL A   1      40.363  28.690  30.652  1.00  0.00     0.031 A 
ATOM     39  C   UNL A   1      41.229  28.562  31.877  1.00  0.00     0.074 A 
ATOM     40  C   UNL A   1      39.457  29.685  30.564  1.00  0.00     0.049 A 
ATOM     41  N   UNL A   1      41.243  29.300  32.957  1.00  0.00    -0.248 NA
ATOM     42  C   UNL A   1      42.183  27.442  31.904  1.00  0.00     0.031 C 
ATOM     43  C   UNL A   1      38.521  29.883  29.453  1.00  0.00     0.029 A 
ATOM     44  N   UNL A   1      39.163  30.712  31.427  1.00  0.00    -0.354 N 
ATOM     45  C   UNL A   1      42.193  28.727  33.795  1.00  0.00     0.074 A 
ATOM     46  C   UNL A   1      42.692  27.547  33.123  1.00  0.00     0.031 C 
ATOM     47  C   UNL A   1      37.779  30.975  29.689  1.00  0.00     0.029 A 
ATOM     48  C   UNL A   1      38.146  31.529  30.988  1.00  0.00     0.049 A 
ATOM     49  H   UNL A   1      39.634  30.850  32.280  1.00  0.00     0.167 HD
ATOM     50  C   UNL A   1      42.627  29.158  35.004  1.00  0.00     0.037 A 
ATOM     51  C   UNL A   1      37.563  32.594  31.571  1.00  0.00     0.037 A 
ATOM     52  C   UNL A   1      42.138  30.345  35.655  1.00  0.00     0.049 A 
ATOM     53  C   UNL A   1      38.053  33.047  32.920  1.00  0.00     0.074 A 
ATOM     54  C   UNL A   1      42.556  30.903  36.851  1.00  0.00     0.029 A 
ATOM     55  N   UNL A   1      41.119  31.154  35.173  1.00  0.00    -0.354 N 
ATOM     56  N   UNL A   1      39.004  32.533  33.665  1.00  0.00    -0.248 NA
ATOM     57  C   UNL A   1      37.397  34.223  33.505  1.00  0.00     0.031 C 
ATOM     58  C   UNL A   1      41.754  32.017  37.118  1.00  0.00     0.029 A 
ATOM     59  C   UNL A   1      40.875  32.190  36.061  1.00  0.00     0.049 A 
ATOM     60  H   UNL A   1      40.640  31.015  34.324  1.00  0.00     0.167 HD
ATOM     61  C   UNL A   1      39.074  33.338  34.797  1.00  0.00     0.074 A 
ATOM     62  C   UNL A   1      38.085  34.382  34.628  1.00  0.00     0.031 C 
ATOM     63  C   UNL A   1      39.884  33.223  35.878  1.00  0.00     0.037 A 
BRANCH  50  64
ATOM     64  C   UNL A   1      43.684  28.345  35.701  1.00  0.00     0.058 A 
ATOM     65  C   UNL A   1      45.054  28.590  35.505  1.00  0.00     0.135 A 
ATOM     66  C   UNL A   1      43.326  27.336  36.611  1.00  0.00     0.135 A 
ATOM     67  F   UNL A   1      45.456  29.531  34.636  1.00  0.00    -0.206 F 
ATOM     68  C   UNL A   1      46.028  27.848  36.165  1.00  0.00     0.059 A 
ATOM     69  C   UNL A   1      44.284  26.603  37.306  1.00  0.00     0.059 A 
ATOM     70  F   UNL A   1      42.032  27.058  36.836  1.00  0.00    -0.206 F 
ATOM     71  C   UNL A   1      45.633  26.858  37.067  1.00  0.00     0.060 A 
BRANCH  71  72
ATOM     72  S   UNL A   1      46.912  25.915  37.924  1.00  0.00     0.124 S 
ATOM     73  O   UNL A   1      47.273  24.928  36.911  1.00  0.00    -0.237 OA
ATOM     74  O   UNL A   1      47.917  26.936  38.200  1.00  0.00    -0.237 OA
ATOM     75  O   UNL A   1      46.219  25.387  39.095  1.00  0.00    -0.744 OA
ENDBRANCH  71  72
ENDBRANCH  50  64
BRANCH  51  76
ATOM     76  C   UNL A   1      36.457  33.311  30.878  1.00  0.00     0.058 A 
ATOM     77  C   UNL A   1      35.131  33.192  31.319  1.00  0.00     0.135 A 
ATOM     78  C   UNL A   1      36.705  34.139  29.772  1.00  0.00     0.135 A 
ATOM     79  F   UNL A   1      34.840  32.407  32.368  1.00  0.00    -0.206 F 
ATOM     80  C   UNL A   1      34.087  33.852  30.679  1.00  0.00     0.059 A 
ATOM     81  C   UNL A   1      35.682  34.833  29.134  1.00  0.00     0.059 A 
ATOM     82  F   UNL A   1      37.959  34.303  29.321  1.00  0.00    -0.206 F 
ATOM     83  C   UNL A   1      34.374  34.674  29.588  1.00  0.00     0.060 A 
BRANCH  83  84
ATOM     84  S   UNL A   1      33.019  35.565  28.795  1.00  0.00     0.124 S 
ATOM     85  O   UNL A   1      32.275  36.056  29.949  1.00  0.00    -0.237 OA
ATOM     86  O   UNL A   1      33.729  36.573  28.016  1.00  0.00    -0.237 OA
ATOM     87  O   UNL A   1      32.353  34.531  28.008  1.00  0.00    -0.744 OA
ENDBRANCH  83  84
ENDBRANCH  51  76
BRANCH  63  88
ATOM     88  C   UNL A   1      39.753  34.266  36.955  1.00  0.00     0.058 A 
ATOM     89  C   UNL A   1      39.053  34.014  38.145  1.00  0.00     0.135 A 
ATOM     90  C   UNL A   1      40.378  35.516  36.814  1.00  0.00     0.135 A 
ATOM     91  F   UNL A   1      38.431  32.838  38.328  1.00  0.00    -0.206 F 
ATOM     92  C   UNL A   1      38.953  34.975  39.146  1.00  0.00     0.059 A 
ATOM     93  C   UNL A   1      40.318  36.480  37.815  1.00  0.00     0.059 A 
ATOM     94  F   UNL A   1      41.070  35.805  35.700  1.00  0.00    -0.206 F 
ATOM     95  C   UNL A   1      39.592  36.204  38.972  1.00  0.00     0.060 A 
BRANCH  95  96
ATOM     96  S   UNL A   1      39.481  37.429  40.294  1.00  0.00     0.124 S 
ATOM     97  O   UNL A   1      40.887  37.742  40.524  1.00  0.00    -0.237 OA
ATOM     98  O   UNL A   1      38.689  38.486  39.673  1.00  0.00    -0.237 OA
ATOM     99  O   UNL A   1      38.814  36.707  41.373  1.00  0.00    -0.744 OA
ENDBRANCH  95  96
ENDBRANCH  63  88
ENDBRANCH  37  38
ENDBRANCH  29  32
ENDBRANCH  27  28
ENDBRANCH   1  27
TORSDOF 17
ENDMDL
