MODEL 1
REMARK VINA RESULT:     -12.4      0.000      0.000
REMARK SMILES O=C(NCCCNC(=O)c1ccc(-c2c3nc(c(-c4c(F)cc(S(=O)(=O)[O-])cc4F)c4ccc([nH]4)c(-c4c(F)cc(S(=O)(=O)[O-])cc4F)c4nc(c(-c5c(F)cc(S(=O)(=O)[O-])cc5F)c5ccc2[nH]5)C=C4)C=C3)cc1)C1=Cc2c(ccc(Cl)c2Cl)O[C@H]1C(F)(F)F
REMARK SMILES IDX 6 1 5 2 4 3 3 4 1 5 2 6 76 8 77 9 87 10 78 11 86 12 79 13
REMARK SMILES IDX 84 14 80 15 82 16 85 17 81 18 83 19 88 20 89 21 90 22 91 23
REMARK SMILES IDX 7 24 8 25 9 27 10 28 11 29 75 30 12 31 74 32 13 33 14 34
REMARK SMILES IDX 15 35 68 36 16 37 73 38 67 39 69 40 17 41 72 42 66 43 65 44
REMARK SMILES IDX 18 46 52 47 31 48 51 49 32 50 35 51 50 52 70 53 33 54 34 55
REMARK SMILES IDX 49 57 71 58 36 59 19 60 20 61 29 62 21 63 22 64 28 65 30 66
REMARK SMILES IDX 23 67 24 68 25 69 26 70 27 71 53 72 54 73 63 74 55 75 56 76
REMARK SMILES IDX 62 77 64 78 57 79 58 80 59 81 60 82 61 83 37 84 38 85 47 86
REMARK SMILES IDX 39 87 40 88 46 89 48 90 41 91 42 92 43 93 44 94 45 95
REMARK H PARENT 3 7 7 26 69 45 35 56
REMARK Flexibility Score: inf
ROOT
ATOM      1  C   UNL A   1      33.255  28.769  27.137  1.00  0.00     0.118 C 
ENDROOT
BRANCH   1   2
ATOM      2  C   UNL A   1      33.740  28.602  25.707  1.00  0.00     0.042 C 
BRANCH   2   3
ATOM      3  C   UNL A   1      32.733  27.933  24.791  1.00  0.00     0.118 C 
BRANCH   3   4
ATOM      4  N   UNL A   1      33.277  27.108  23.729  1.00  0.00    -0.352 N 
ATOM      5  O   UNL A   1      34.066  25.204  22.799  1.00  0.00    -0.270 OA
ATOM      6  C   UNL A   1      33.587  25.772  23.776  1.00  0.00     0.251 C 
ATOM      7  H   UNL A   1      33.443  27.560  22.871  1.00  0.00     0.163 HD
BRANCH   6   8
ATOM      8  C   UNL A   1      33.378  25.006  25.035  1.00  0.00     0.067 C 
ATOM      9  C   UNL A   1      34.481  24.649  25.716  1.00  0.00     0.027 C 
ATOM     10  C   UNL A   1      32.118  24.180  25.086  1.00  0.00     0.314 C 
ATOM     11  C   UNL A   1      34.744  23.191  25.622  1.00  0.00     0.037 A 
ATOM     12  O   UNL A   1      32.355  22.765  25.356  1.00  0.00    -0.475 OA
ATOM     13  C   UNL A   1      33.657  22.335  25.375  1.00  0.00     0.129 A 
ATOM     14  C   UNL A   1      36.059  22.689  25.568  1.00  0.00     0.070 A 
ATOM     15  C   UNL A   1      33.875  21.005  25.021  1.00  0.00     0.049 A 
ATOM     16  C   UNL A   1      36.270  21.358  25.183  1.00  0.00     0.060 A 
ATOM     17  Cl  UNL A   1      37.397  23.750  25.884  1.00  0.00    -0.082 Cl
ATOM     18  C   UNL A   1      35.180  20.528  24.893  1.00  0.00     0.026 A 
ATOM     19  Cl  UNL A   1      37.852  20.692  24.987  1.00  0.00    -0.083 Cl
BRANCH  10  20
ATOM     20  C   UNL A   1      31.100  24.755  26.092  1.00  0.00     0.429 C 
ATOM     21  F   UNL A   1      30.655  23.835  26.980  1.00  0.00    -0.167 F 
ATOM     22  F   UNL A   1      31.644  25.768  26.809  1.00  0.00    -0.167 F 
ATOM     23  F   UNL A   1      30.001  25.253  25.475  1.00  0.00    -0.167 F 
ENDBRANCH  10  20
ENDBRANCH   6   8
ENDBRANCH   3   4
ENDBRANCH   2   3
ENDBRANCH   1   2
BRANCH   1  24
ATOM     24  N   UNL A   1      33.405  30.128  27.662  1.00  0.00    -0.352 N 
ATOM     25  C   UNL A   1      34.466  30.783  28.251  1.00  0.00     0.251 C 
ATOM     26  H   UNL A   1      32.593  30.678  27.580  1.00  0.00     0.163 HD
ATOM     27  O   UNL A   1      34.295  31.915  28.700  1.00  0.00    -0.269 OA
BRANCH  25  28
ATOM     28  C   UNL A   1      35.788  30.133  28.394  1.00  0.00     0.039 A 
ATOM     29  C   UNL A   1      36.665  30.102  27.302  1.00  0.00     0.014 A 
ATOM     30  C   UNL A   1      36.179  29.559  29.599  1.00  0.00     0.014 A 
ATOM     31  C   UNL A   1      37.970  29.624  27.467  1.00  0.00     0.010 A 
ATOM     32  C   UNL A   1      37.508  29.214  29.798  1.00  0.00     0.010 A 
ATOM     33  C   UNL A   1      38.426  29.246  28.737  1.00  0.00    -0.014 A 
BRANCH  33  34
ATOM     34  C   UNL A   1      39.838  28.868  29.022  1.00  0.00     0.031 A 
ATOM     35  C   UNL A   1      40.788  29.915  29.543  1.00  0.00     0.074 A 
ATOM     36  C   UNL A   1      40.302  27.651  28.674  1.00  0.00     0.049 A 
ATOM     37  N   UNL A   1      42.094  29.907  29.579  1.00  0.00    -0.248 NA
ATOM     38  C   UNL A   1      40.181  31.165  30.031  1.00  0.00     0.031 C 
ATOM     39  C   UNL A   1      39.500  26.554  28.129  1.00  0.00     0.029 A 
ATOM     40  N   UNL A   1      41.576  27.140  28.705  1.00  0.00    -0.354 N 
ATOM     41  C   UNL A   1      42.466  31.168  30.033  1.00  0.00     0.074 A 
ATOM     42  C   UNL A   1      41.247  31.929  30.210  1.00  0.00     0.031 C 
ATOM     43  C   UNL A   1      40.294  25.496  27.900  1.00  0.00     0.029 A 
ATOM     44  C   UNL A   1      41.669  25.855  28.223  1.00  0.00     0.049 A 
ATOM     45  H   UNL A   1      42.351  27.648  29.039  1.00  0.00     0.167 HD
ATOM     46  C   UNL A   1      43.705  31.645  30.298  1.00  0.00     0.037 A 
ATOM     47  C   UNL A   1      42.745  25.064  28.044  1.00  0.00     0.037 A 
ATOM     48  C   UNL A   1      44.904  30.858  30.185  1.00  0.00     0.049 A 
ATOM     49  C   UNL A   1      44.111  25.595  28.382  1.00  0.00     0.074 A 
ATOM     50  C   UNL A   1      46.206  31.220  30.484  1.00  0.00     0.029 A 
ATOM     51  N   UNL A   1      44.943  29.537  29.757  1.00  0.00    -0.354 N 
ATOM     52  N   UNL A   1      44.445  26.786  28.816  1.00  0.00    -0.248 NA
ATOM     53  C   UNL A   1      45.244  24.677  28.205  1.00  0.00     0.031 C 
ATOM     54  C   UNL A   1      47.034  30.123  30.218  1.00  0.00     0.029 A 
ATOM     55  C   UNL A   1      46.244  29.068  29.789  1.00  0.00     0.049 A 
ATOM     56  H   UNL A   1      44.159  29.013  29.473  1.00  0.00     0.167 HD
ATOM     57  C   UNL A   1      45.823  26.752  28.997  1.00  0.00     0.074 A 
ATOM     58  C   UNL A   1      46.260  25.422  28.623  1.00  0.00     0.031 C 
ATOM     59  C   UNL A   1      46.651  27.731  29.437  1.00  0.00     0.037 A 
BRANCH  46  60
ATOM     60  C   UNL A   1      43.813  33.079  30.740  1.00  0.00     0.058 A 
ATOM     61  C   UNL A   1      43.889  34.133  29.814  1.00  0.00     0.135 A 
ATOM     62  C   UNL A   1      43.861  33.406  32.105  1.00  0.00     0.135 A 
ATOM     63  F   UNL A   1      43.863  33.878  28.497  1.00  0.00    -0.206 F 
ATOM     64  C   UNL A   1      44.071  35.450  30.223  1.00  0.00     0.059 A 
ATOM     65  C   UNL A   1      44.009  34.720  32.538  1.00  0.00     0.059 A 
ATOM     66  F   UNL A   1      43.786  32.439  33.035  1.00  0.00    -0.206 F 
ATOM     67  C   UNL A   1      44.140  35.732  31.588  1.00  0.00     0.060 A 
BRANCH  67  68
ATOM     68  S   UNL A   1      44.419  37.438  32.105  1.00  0.00     0.124 S 
ATOM     69  O   UNL A   1      44.104  38.167  30.880  1.00  0.00    -0.237 OA
ATOM     70  O   UNL A   1      43.465  37.597  33.198  1.00  0.00    -0.237 OA
ATOM     71  O   UNL A   1      45.825  37.448  32.499  1.00  0.00    -0.744 OA
ENDBRANCH  67  68
ENDBRANCH  46  60
BRANCH  47  72
ATOM     72  C   UNL A   1      42.565  23.670  27.557  1.00  0.00     0.058 A 
ATOM     73  C   UNL A   1      42.565  23.393  26.182  1.00  0.00     0.135 A 
ATOM     74  C   UNL A   1      42.428  22.589  28.441  1.00  0.00     0.135 A 
ATOM     75  F   UNL A   1      42.688  24.395  25.298  1.00  0.00    -0.206 F 
ATOM     76  C   UNL A   1      42.431  22.096  25.698  1.00  0.00     0.059 A 
ATOM     77  C   UNL A   1      42.313  21.279  27.982  1.00  0.00     0.059 A 
ATOM     78  F   UNL A   1      42.440  22.798  29.767  1.00  0.00    -0.206 F 
ATOM     79  C   UNL A   1      42.312  21.045  26.607  1.00  0.00     0.060 A 
BRANCH  79  80
ATOM     80  S   UNL A   1      42.210  19.358  25.967  1.00  0.00     0.124 S 
ATOM     81  O   UNL A   1      43.096  19.428  24.811  1.00  0.00    -0.237 OA
ATOM     82  O   UNL A   1      42.695  18.572  27.098  1.00  0.00    -0.237 OA
ATOM     83  O   UNL A   1      40.790  19.199  25.668  1.00  0.00    -0.744 OA
ENDBRANCH  79  80
ENDBRANCH  47  72
BRANCH  59  84
ATOM     84  C   UNL A   1      48.104  27.389  29.599  1.00  0.00     0.058 A 
ATOM     85  C   UNL A   1      49.039  27.636  28.583  1.00  0.00     0.135 A 
ATOM     86  C   UNL A   1      48.576  26.881  30.820  1.00  0.00     0.135 A 
ATOM     87  F   UNL A   1      48.636  28.113  27.396  1.00  0.00    -0.206 F 
ATOM     88  C   UNL A   1      50.394  27.383  28.770  1.00  0.00     0.059 A 
ATOM     89  C   UNL A   1      49.928  26.642  31.037  1.00  0.00     0.059 A 
ATOM     90  F   UNL A   1      47.720  26.635  31.826  1.00  0.00    -0.206 F 
ATOM     91  C   UNL A   1      50.829  26.891  30.003  1.00  0.00     0.060 A 
BRANCH  91  92
ATOM     92  S   UNL A   1      52.598  26.625  30.254  1.00  0.00     0.124 S 
ATOM     93  O   UNL A   1      52.596  25.522  31.208  1.00  0.00    -0.237 OA
ATOM     94  O   UNL A   1      53.060  26.300  28.909  1.00  0.00    -0.237 OA
ATOM     95  O   UNL A   1      53.062  27.907  30.776  1.00  0.00    -0.744 OA
ENDBRANCH  91  92
ENDBRANCH  59  84
ENDBRANCH  33  34
ENDBRANCH  25  28
ENDBRANCH   1  24
TORSDOF 14
ENDMDL
MODEL 2
REMARK VINA RESULT:     -12.1      3.888      6.456
REMARK SMILES O=C(NCCCNC(=O)c1ccc(-c2c3nc(c(-c4c(F)cc(S(=O)(=O)[O-])cc4F)c4ccc([nH]4)c(-c4c(F)cc(S(=O)(=O)[O-])cc4F)c4nc(c(-c5c(F)cc(S(=O)(=O)[O-])cc5F)c5ccc2[nH]5)C=C4)C=C3)cc1)C1=Cc2c(ccc(Cl)c2Cl)O[C@H]1C(F)(F)F
REMARK SMILES IDX 6 1 5 2 4 3 3 4 1 5 2 6 76 8 77 9 87 10 78 11 86 12 79 13
REMARK SMILES IDX 84 14 80 15 82 16 85 17 81 18 83 19 88 20 89 21 90 22 91 23
REMARK SMILES IDX 7 24 8 25 9 27 10 28 11 29 75 30 12 31 74 32 13 33 14 34
REMARK SMILES IDX 15 35 68 36 16 37 73 38 67 39 69 40 17 41 72 42 66 43 65 44
REMARK SMILES IDX 18 46 52 47 31 48 51 49 32 50 35 51 50 52 70 53 33 54 34 55
REMARK SMILES IDX 49 57 71 58 36 59 19 60 20 61 29 62 21 63 22 64 28 65 30 66
REMARK SMILES IDX 23 67 24 68 25 69 26 70 27 71 53 72 54 73 63 74 55 75 56 76
REMARK SMILES IDX 62 77 64 78 57 79 58 80 59 81 60 82 61 83 37 84 38 85 47 86
REMARK SMILES IDX 39 87 40 88 46 89 48 90 41 91 42 92 43 93 44 94 45 95
REMARK H PARENT 3 7 7 26 69 45 35 56
REMARK Flexibility Score: inf
ROOT
ATOM      1  C   UNL A   1      34.447  32.476  28.109  1.00  0.00     0.118 C 
ENDROOT
BRANCH   1   2
ATOM      2  C   UNL A   1      34.119  33.115  29.448  1.00  0.00     0.042 C 
BRANCH   2   3
ATOM      3  C   UNL A   1      34.723  32.394  30.637  1.00  0.00     0.118 C 
BRANCH   3   4
ATOM      4  N   UNL A   1      34.893  33.177  31.847  1.00  0.00    -0.352 N 
ATOM      5  O   UNL A   1      36.062  34.212  33.481  1.00  0.00    -0.270 OA
ATOM      6  C   UNL A   1      36.069  33.566  32.438  1.00  0.00     0.251 C 
ATOM      7  H   UNL A   1      34.067  33.465  32.297  1.00  0.00     0.163 HD
BRANCH   6   8
ATOM      8  C   UNL A   1      37.370  33.172  31.833  1.00  0.00     0.067 C 
ATOM      9  C   UNL A   1      38.065  32.210  32.467  1.00  0.00     0.027 C 
ATOM     10  C   UNL A   1      38.061  34.244  31.030  1.00  0.00     0.314 C 
ATOM     11  C   UNL A   1      39.269  32.751  33.144  1.00  0.00     0.037 A 
ATOM     12  O   UNL A   1      39.417  34.535  31.485  1.00  0.00    -0.475 OA
ATOM     13  C   UNL A   1      39.836  33.935  32.645  1.00  0.00     0.129 A 
ATOM     14  C   UNL A   1      39.713  32.225  34.373  1.00  0.00     0.070 A 
ATOM     15  C   UNL A   1      40.795  34.623  33.386  1.00  0.00     0.049 A 
ATOM     16  C   UNL A   1      40.656  32.938  35.125  1.00  0.00     0.060 A 
ATOM     17  Cl  UNL A   1      39.015  30.754  34.980  1.00  0.00    -0.082 Cl
ATOM     18  C   UNL A   1      41.179  34.142  34.638  1.00  0.00     0.026 A 
ATOM     19  Cl  UNL A   1      41.175  32.420  36.690  1.00  0.00    -0.083 Cl
BRANCH  10  20
ATOM     20  C   UNL A   1      38.059  33.917  29.523  1.00  0.00     0.429 C 
ATOM     21  F   UNL A   1      37.045  34.513  28.852  1.00  0.00    -0.167 F 
ATOM     22  F   UNL A   1      39.213  34.317  28.936  1.00  0.00    -0.167 F 
ATOM     23  F   UNL A   1      37.940  32.587  29.292  1.00  0.00    -0.167 F 
ENDBRANCH  10  20
ENDBRANCH   6   8
ENDBRANCH   3   4
ENDBRANCH   2   3
ENDBRANCH   1   2
BRANCH   1  24
ATOM     24  N   UNL A   1      33.964  31.100  27.971  1.00  0.00    -0.352 N 
ATOM     25  C   UNL A   1      34.604  29.880  28.042  1.00  0.00     0.251 C 
ATOM     26  H   UNL A   1      32.998  31.033  27.793  1.00  0.00     0.163 HD
ATOM     27  O   UNL A   1      33.972  28.858  27.787  1.00  0.00    -0.269 OA
BRANCH  25  28
ATOM     28  C   UNL A   1      36.044  29.786  28.371  1.00  0.00     0.039 A 
ATOM     29  C   UNL A   1      36.435  29.384  29.655  1.00  0.00     0.014 A 
ATOM     30  C   UNL A   1      37.018  30.079  27.423  1.00  0.00     0.014 A 
ATOM     31  C   UNL A   1      37.787  29.149  29.933  1.00  0.00     0.010 A 
ATOM     32  C   UNL A   1      38.337  29.716  27.655  1.00  0.00     0.010 A 
ATOM     33  C   UNL A   1      38.741  29.240  28.911  1.00  0.00    -0.014 A 
BRANCH  33  34
ATOM     34  C   UNL A   1      40.171  28.863  29.089  1.00  0.00     0.031 A 
ATOM     35  C   UNL A   1      41.157  29.912  29.535  1.00  0.00     0.074 A 
ATOM     36  C   UNL A   1      40.608  27.646  28.710  1.00  0.00     0.049 A 
ATOM     37  N   UNL A   1      42.463  29.904  29.473  1.00  0.00    -0.248 NA
ATOM     38  C   UNL A   1      40.588  31.162  30.065  1.00  0.00     0.031 C 
ATOM     39  C   UNL A   1      39.768  26.547  28.228  1.00  0.00     0.029 A 
ATOM     40  N   UNL A   1      41.882  27.136  28.645  1.00  0.00    -0.354 N 
ATOM     41  C   UNL A   1      42.867  31.166  29.895  1.00  0.00     0.074 A 
ATOM     42  C   UNL A   1      41.664  31.926  30.162  1.00  0.00     0.031 C 
ATOM     43  C   UNL A   1      40.543  25.489  27.941  1.00  0.00     0.029 A 
ATOM     44  C   UNL A   1      41.939  25.850  28.160  1.00  0.00     0.049 A 
ATOM     45  H   UNL A   1      42.679  27.644  28.919  1.00  0.00     0.167 HD
ATOM     46  C   UNL A   1      44.123  31.644  30.065  1.00  0.00     0.037 A 
ATOM     47  C   UNL A   1      42.998  25.058  27.901  1.00  0.00     0.037 A 
ATOM     48  C   UNL A   1      45.310  30.857  29.864  1.00  0.00     0.049 A 
ATOM     49  C   UNL A   1      44.385  25.590  28.135  1.00  0.00     0.074 A 
ATOM     50  C   UNL A   1      46.630  31.220  30.063  1.00  0.00     0.029 A 
ATOM     51  N   UNL A   1      45.316  29.536  29.436  1.00  0.00    -0.354 N 
ATOM     52  N   UNL A   1      44.750  26.783  28.539  1.00  0.00    -0.248 NA
ATOM     53  C   UNL A   1      45.502  24.673  27.874  1.00  0.00     0.031 C 
ATOM     54  C   UNL A   1      47.436  30.123  29.737  1.00  0.00     0.029 A 
ATOM     55  C   UNL A   1      46.617  29.067  29.370  1.00  0.00     0.049 A 
ATOM     56  H   UNL A   1      44.514  29.010  29.213  1.00  0.00     0.167 HD
ATOM     57  C   UNL A   1      46.138  26.749  28.617  1.00  0.00     0.074 A 
ATOM     58  C   UNL A   1      46.546  25.418  28.213  1.00  0.00     0.031 C 
ATOM     59  C   UNL A   1      46.997  27.729  28.991  1.00  0.00     0.037 A 
BRANCH  46  60
ATOM     60  C   UNL A   1      44.263  33.079  30.495  1.00  0.00     0.058 A 
ATOM     61  C   UNL A   1      44.329  33.440  31.850  1.00  0.00     0.135 A 
ATOM     62  C   UNL A   1      44.311  34.110  29.542  1.00  0.00     0.135 A 
ATOM     63  F   UNL A   1      44.273  32.498  32.804  1.00  0.00    -0.206 F 
ATOM     64  C   UNL A   1      44.377  34.773  32.248  1.00  0.00     0.059 A 
ATOM     65  C   UNL A   1      44.393  35.448  29.916  1.00  0.00     0.059 A 
ATOM     66  F   UNL A   1      44.258  33.822  28.231  1.00  0.00    -0.206 F 
ATOM     67  C   UNL A   1      44.397  35.770  31.272  1.00  0.00     0.060 A 
BRANCH  67  68
ATOM     68  S   UNL A   1      44.416  37.495  31.800  1.00  0.00     0.124 S 
ATOM     69  O   UNL A   1      43.485  37.463  32.925  1.00  0.00    -0.237 OA
ATOM     70  O   UNL A   1      45.818  37.705  32.145  1.00  0.00    -0.237 OA
ATOM     71  O   UNL A   1      43.950  38.216  30.619  1.00  0.00    -0.744 OA
ENDBRANCH  67  68
ENDBRANCH  46  60
BRANCH  47  72
ATOM     72  C   UNL A   1      42.782  23.663  27.431  1.00  0.00     0.058 A 
ATOM     73  C   UNL A   1      42.889  23.349  26.069  1.00  0.00     0.135 A 
ATOM     74  C   UNL A   1      42.506  22.617  28.324  1.00  0.00     0.135 A 
ATOM     75  F   UNL A   1      43.146  24.318  25.177  1.00  0.00    -0.206 F 
ATOM     76  C   UNL A   1      42.724  22.049  25.604  1.00  0.00     0.059 A 
ATOM     77  C   UNL A   1      42.358  21.303  27.885  1.00  0.00     0.059 A 
ATOM     78  F   UNL A   1      42.412  22.861  29.640  1.00  0.00    -0.206 F 
ATOM     79  C   UNL A   1      42.465  21.031  26.522  1.00  0.00     0.060 A 
BRANCH  79  80
ATOM     80  S   UNL A   1      42.324  19.336  25.914  1.00  0.00     0.124 S 
ATOM     81  O   UNL A   1      42.882  18.577  27.027  1.00  0.00    -0.237 OA
ATOM     82  O   UNL A   1      40.885  19.203  25.707  1.00  0.00    -0.237 OA
ATOM     83  O   UNL A   1      43.125  19.351  24.694  1.00  0.00    -0.744 OA
ENDBRANCH  79  80
ENDBRANCH  47  72
BRANCH  59  84
ATOM     84  C   UNL A   1      48.458  27.388  29.043  1.00  0.00     0.058 A 
ATOM     85  C   UNL A   1      49.298  27.565  27.935  1.00  0.00     0.135 A 
ATOM     86  C   UNL A   1      49.037  26.953  30.247  1.00  0.00     0.135 A 
ATOM     87  F   UNL A   1      48.792  27.971  26.761  1.00  0.00    -0.206 F 
ATOM     88  C   UNL A   1      50.664  27.315  28.016  1.00  0.00     0.059 A 
ATOM     89  C   UNL A   1      50.402  26.719  30.356  1.00  0.00     0.059 A 
ATOM     90  F   UNL A   1      48.274  26.776  31.338  1.00  0.00    -0.206 F 
ATOM     91  C   UNL A   1      51.208  26.898  29.233  1.00  0.00     0.060 A 
BRANCH  91  92
ATOM     92  S   UNL A   1      52.991  26.636  29.341  1.00  0.00     0.124 S 
ATOM     93  O   UNL A   1      53.098  25.850  30.566  1.00  0.00    -0.237 OA
ATOM     94  O   UNL A   1      53.279  25.921  28.102  1.00  0.00    -0.237 OA
ATOM     95  O   UNL A   1      53.529  27.991  29.415  1.00  0.00    -0.744 OA
ENDBRANCH  91  92
ENDBRANCH  59  84
ENDBRANCH  33  34
ENDBRANCH  25  28
ENDBRANCH   1  24
TORSDOF 14
ENDMDL
MODEL 3
REMARK VINA RESULT:     -12.0      3.551      9.563
REMARK SMILES O=C(NCCCNC(=O)c1ccc(-c2c3nc(c(-c4c(F)cc(S(=O)(=O)[O-])cc4F)c4ccc([nH]4)c(-c4c(F)cc(S(=O)(=O)[O-])cc4F)c4nc(c(-c5c(F)cc(S(=O)(=O)[O-])cc5F)c5ccc2[nH]5)C=C4)C=C3)cc1)C1=Cc2c(ccc(Cl)c2Cl)O[C@H]1C(F)(F)F
REMARK SMILES IDX 6 1 5 2 4 3 3 4 1 5 2 6 76 8 77 9 87 10 78 11 86 12 79 13
REMARK SMILES IDX 84 14 80 15 82 16 85 17 81 18 83 19 88 20 89 21 90 22 91 23
REMARK SMILES IDX 7 24 8 25 9 27 10 28 11 29 75 30 12 31 74 32 13 33 14 34
REMARK SMILES IDX 15 35 68 36 16 37 73 38 67 39 69 40 17 41 72 42 66 43 65 44
REMARK SMILES IDX 18 46 52 47 31 48 51 49 32 50 35 51 50 52 70 53 33 54 34 55
REMARK SMILES IDX 49 57 71 58 36 59 19 60 20 61 29 62 21 63 22 64 28 65 30 66
REMARK SMILES IDX 23 67 24 68 25 69 26 70 27 71 53 72 54 73 63 74 55 75 56 76
REMARK SMILES IDX 62 77 64 78 57 79 58 80 59 81 60 82 61 83 37 84 38 85 47 86
REMARK SMILES IDX 39 87 40 88 46 89 48 90 41 91 42 92 43 93 44 94 45 95
REMARK H PARENT 3 7 7 26 69 45 35 56
REMARK Flexibility Score: inf
ROOT
ATOM      1  C   UNL A   1      36.982  23.249  25.070  1.00  0.00     0.118 C 
ENDROOT
BRANCH   1   2
ATOM      2  C   UNL A   1      35.951  23.174  26.184  1.00  0.00     0.042 C 
BRANCH   2   3
ATOM      3  C   UNL A   1      34.585  22.704  25.726  1.00  0.00     0.118 C 
BRANCH   3   4
ATOM      4  N   UNL A   1      33.442  23.280  26.412  1.00  0.00    -0.352 N 
ATOM      5  O   UNL A   1      31.846  24.831  26.807  1.00  0.00    -0.270 OA
ATOM      6  C   UNL A   1      32.791  24.452  26.122  1.00  0.00     0.251 C 
ATOM      7  H   UNL A   1      33.091  22.768  27.175  1.00  0.00     0.163 HD
BRANCH   6   8
ATOM      8  C   UNL A   1      33.255  25.299  24.989  1.00  0.00     0.067 C 
ATOM      9  C   UNL A   1      33.893  26.440  25.307  1.00  0.00     0.027 C 
ATOM     10  C   UNL A   1      32.454  25.172  23.718  1.00  0.00     0.314 C 
ATOM     11  C   UNL A   1      33.061  27.637  25.028  1.00  0.00     0.037 A 
ATOM     12  O   UNL A   1      31.919  26.441  23.233  1.00  0.00    -0.475 OA
ATOM     13  C   UNL A   1      32.065  27.538  24.042  1.00  0.00     0.129 A 
ATOM     14  C   UNL A   1      33.114  28.772  25.861  1.00  0.00     0.070 A 
ATOM     15  C   UNL A   1      31.095  28.531  23.920  1.00  0.00     0.049 A 
ATOM     16  C   UNL A   1      32.118  29.751  25.751  1.00  0.00     0.060 A 
ATOM     17  Cl  UNL A   1      34.354  28.891  27.072  1.00  0.00    -0.082 Cl
ATOM     18  C   UNL A   1      31.103  29.618  24.795  1.00  0.00     0.026 A 
ATOM     19  Cl  UNL A   1      32.045  31.119  26.804  1.00  0.00    -0.083 Cl
BRANCH  10  20
ATOM     20  C   UNL A   1      33.259  24.469  22.606  1.00  0.00     0.429 C 
ATOM     21  F   UNL A   1      34.587  24.415  22.866  1.00  0.00    -0.167 F 
ATOM     22  F   UNL A   1      32.837  23.194  22.429  1.00  0.00    -0.167 F 
ATOM     23  F   UNL A   1      33.130  25.097  21.411  1.00  0.00    -0.167 F 
ENDBRANCH  10  20
ENDBRANCH   6   8
ENDBRANCH   3   4
ENDBRANCH   2   3
ENDBRANCH   1   2
BRANCH   1  24
ATOM     24  N   UNL A   1      38.218  22.516  25.352  1.00  0.00    -0.352 N 
ATOM     25  C   UNL A   1      39.363  22.858  26.040  1.00  0.00     0.251 C 
ATOM     26  H   UNL A   1      38.236  21.605  24.979  1.00  0.00     0.163 HD
ATOM     27  O   UNL A   1      40.313  22.078  26.046  1.00  0.00    -0.269 OA
BRANCH  25  28
ATOM     28  C   UNL A   1      39.486  24.163  26.728  1.00  0.00     0.039 A 
ATOM     29  C   UNL A   1      38.929  24.328  28.003  1.00  0.00     0.014 A 
ATOM     30  C   UNL A   1      40.155  25.227  26.133  1.00  0.00     0.014 A 
ATOM     31  C   UNL A   1      39.165  25.505  28.723  1.00  0.00     0.010 A 
ATOM     32  C   UNL A   1      40.504  26.333  26.895  1.00  0.00     0.010 A 
ATOM     33  C   UNL A   1      40.019  26.488  28.203  1.00  0.00    -0.014 A 
BRANCH  33  34
ATOM     34  C   UNL A   1      40.438  27.696  28.966  1.00  0.00     0.031 A 
ATOM     35  C   UNL A   1      41.735  27.669  29.732  1.00  0.00     0.074 A 
ATOM     36  C   UNL A   1      39.599  28.744  29.100  1.00  0.00     0.049 A 
ATOM     37  N   UNL A   1      42.154  28.460  30.685  1.00  0.00    -0.248 NA
ATOM     38  C   UNL A   1      42.654  26.560  29.424  1.00  0.00     0.031 C 
ATOM     39  C   UNL A   1      38.299  28.887  28.441  1.00  0.00     0.029 A 
ATOM     40  N   UNL A   1      39.707  29.881  29.861  1.00  0.00    -0.354 N 
ATOM     41  C   UNL A   1      43.352  27.911  31.130  1.00  0.00     0.074 A 
ATOM     42  C   UNL A   1      43.564  26.693  30.376  1.00  0.00     0.031 C 
ATOM     43  C   UNL A   1      37.743  30.053  28.807  1.00  0.00     0.029 A 
ATOM     44  C   UNL A   1      38.616  30.713  29.771  1.00  0.00     0.049 A 
ATOM     45  H   UNL A   1      40.493  30.082  30.420  1.00  0.00     0.167 HD
ATOM     46  C   UNL A   1      44.209  28.385  32.065  1.00  0.00     0.037 A 
ATOM     47  C   UNL A   1      38.340  31.868  30.408  1.00  0.00     0.037 A 
ATOM     48  C   UNL A   1      44.023  29.632  32.758  1.00  0.00     0.049 A 
ATOM     49  C   UNL A   1      39.322  32.402  31.414  1.00  0.00     0.074 A 
ATOM     50  C   UNL A   1      44.856  30.238  33.682  1.00  0.00     0.029 A 
ATOM     51  N   UNL A   1      42.934  30.475  32.585  1.00  0.00    -0.354 N 
ATOM     52  N   UNL A   1      40.452  31.875  31.820  1.00  0.00    -0.248 NA
ATOM     53  C   UNL A   1      38.991  33.684  32.051  1.00  0.00     0.031 C 
ATOM     54  C   UNL A   1      44.260  31.440  34.081  1.00  0.00     0.029 A 
ATOM     55  C   UNL A   1      43.075  31.600  33.379  1.00  0.00     0.049 A 
ATOM     56  H   UNL A   1      42.173  30.300  31.984  1.00  0.00     0.167 HD
ATOM     57  C   UNL A   1      40.986  32.777  32.733  1.00  0.00     0.074 A 
ATOM     58  C   UNL A   1      40.053  33.882  32.822  1.00  0.00     0.031 C 
ATOM     59  C   UNL A   1      42.146  32.700  33.431  1.00  0.00     0.037 A 
BRANCH  46  60
ATOM     60  C   UNL A   1      45.420  27.549  32.379  1.00  0.00     0.058 A 
ATOM     61  C   UNL A   1      45.411  26.594  33.409  1.00  0.00     0.135 A 
ATOM     62  C   UNL A   1      46.612  27.717  31.656  1.00  0.00     0.135 A 
ATOM     63  F   UNL A   1      44.303  26.401  34.142  1.00  0.00    -0.206 F 
ATOM     64  C   UNL A   1      46.555  25.880  33.751  1.00  0.00     0.059 A 
ATOM     65  C   UNL A   1      47.760  26.990  31.958  1.00  0.00     0.059 A 
ATOM     66  F   UNL A   1      46.676  28.612  30.656  1.00  0.00    -0.206 F 
ATOM     67  C   UNL A   1      47.728  26.094  33.025  1.00  0.00     0.060 A 
BRANCH  67  68
ATOM     68  S   UNL A   1      49.217  25.194  33.506  1.00  0.00     0.124 S 
ATOM     69  O   UNL A   1      49.897  25.055  32.222  1.00  0.00    -0.237 OA
ATOM     70  O   UNL A   1      49.843  26.105  34.458  1.00  0.00    -0.237 OA
ATOM     71  O   UNL A   1      48.695  23.956  34.077  1.00  0.00    -0.744 OA
ENDBRANCH  67  68
ENDBRANCH  46  60
BRANCH  47  72
ATOM     72  C   UNL A   1      37.097  32.616  30.080  1.00  0.00     0.058 A 
ATOM     73  C   UNL A   1      35.904  32.346  30.766  1.00  0.00     0.135 A 
ATOM     74  C   UNL A   1      37.079  33.633  29.113  1.00  0.00     0.135 A 
ATOM     75  F   UNL A   1      35.871  31.378  31.695  1.00  0.00    -0.206 F 
ATOM     76  C   UNL A   1      34.735  33.050  30.503  1.00  0.00     0.059 A 
ATOM     77  C   UNL A   1      35.926  34.367  28.847  1.00  0.00     0.059 A 
ATOM     78  F   UNL A   1      38.199  33.944  28.442  1.00  0.00    -0.206 F 
ATOM     79  C   UNL A   1      34.757  34.064  29.545  1.00  0.00     0.060 A 
BRANCH  79  80
ATOM     80  S   UNL A   1      33.251  35.021  29.264  1.00  0.00     0.124 S 
ATOM     81  O   UNL A   1      32.565  34.205  28.269  1.00  0.00    -0.237 OA
ATOM     82  O   UNL A   1      32.651  35.045  30.595  1.00  0.00    -0.237 OA
ATOM     83  O   UNL A   1      33.755  36.307  28.790  1.00  0.00    -0.744 OA
ENDBRANCH  79  80
ENDBRANCH  47  72
BRANCH  59  84
ATOM     84  C   UNL A   1      42.506  33.864  34.308  1.00  0.00     0.058 A 
ATOM     85  C   UNL A   1      42.193  33.884  35.675  1.00  0.00     0.135 A 
ATOM     86  C   UNL A   1      43.245  34.937  33.784  1.00  0.00     0.135 A 
ATOM     87  F   UNL A   1      41.482  32.886  36.221  1.00  0.00    -0.206 F 
ATOM     88  C   UNL A   1      42.596  34.935  36.493  1.00  0.00     0.059 A 
ATOM     89  C   UNL A   1      43.676  35.986  34.588  1.00  0.00     0.059 A 
ATOM     90  F   UNL A   1      43.574  34.959  32.482  1.00  0.00    -0.206 F 
ATOM     91  C   UNL A   1      43.341  35.979  35.941  1.00  0.00     0.060 A 
BRANCH  91  92
ATOM     92  S   UNL A   1      43.910  37.306  37.026  1.00  0.00     0.124 S 
ATOM     93  O   UNL A   1      42.802  37.410  37.969  1.00  0.00    -0.237 OA
ATOM     94  O   UNL A   1      45.153  36.760  37.564  1.00  0.00    -0.237 OA
ATOM     95  O   UNL A   1      44.073  38.438  36.119  1.00  0.00    -0.744 OA
ENDBRANCH  91  92
ENDBRANCH  59  84
ENDBRANCH  33  34
ENDBRANCH  25  28
ENDBRANCH   1  24
TORSDOF 14
ENDMDL
