MODEL 1
REMARK VINA RESULT:     -11.7      0.000      0.000
REMARK SMILES COc1cccc(-c2ccc(=O)n(CC(=O)N[C@@H](C(=O)NCCCNC(=O)c3ccc(-c4c5nc(c(-c6c(F)cc(S(=O)(=O)[O-])cc6F)c6ccc([nH]6)c(-c6c(F)cc(S(=O)(=O)[O-])cc6F)c6nc(c(-c7c(F)cc(S(=O)(=O)[O-])cc7F)c7ccc4[nH]7)C=C6)C=C5)cc3)C(C)C)n2)c1
REMARK SMILES IDX 22 1 21 2 19 3 20 4 18 6 17 7 15 8 16 9 14 11 13 12 8 13
REMARK SMILES IDX 9 14 97 15 10 16 11 17 12 18 7 19 3 20 4 21 98 22 5 23 6 24
REMARK SMILES IDX 2 25 1 26 94 27 95 28 96 29 23 30 24 31 25 32 26 33 27 35
REMARK SMILES IDX 28 36 29 37 93 38 30 39 92 40 31 41 32 42 33 43 86 44 34 45
REMARK SMILES IDX 91 46 85 47 87 48 35 49 90 50 84 51 83 52 36 54 70 55 49 56
REMARK SMILES IDX 69 57 50 58 53 59 68 60 88 61 51 62 52 63 67 65 89 66 54 67
REMARK SMILES IDX 37 68 38 69 47 70 39 71 40 72 46 73 48 74 41 75 42 76 43 77
REMARK SMILES IDX 44 78 45 79 71 80 72 81 81 82 73 83 74 84 80 85 82 86 75 87
REMARK SMILES IDX 76 88 77 89 78 90 79 91 55 92 56 93 65 94 57 95 58 96 64 97
REMARK SMILES IDX 66 98 59 99 60 100 61 101 62 102 63 103
REMARK H PARENT 21 5 17 10 25 34 87 53 53 64
REMARK Flexibility Score: inf
ROOT
ATOM      1  C   UNL A   1      31.844  29.534  25.585  1.00  0.00     0.117 C 
ENDROOT
BRANCH   1   2
ATOM      2  N   UNL A   1      32.085  29.429  24.169  1.00  0.00    -0.354 N 
ATOM      3  C   UNL A   1      31.192  29.058  23.200  1.00  0.00     0.242 C 
ATOM      4  O   UNL A   1      31.538  29.238  22.031  1.00  0.00    -0.273 OA
ATOM      5  H   UNL A   1      32.995  29.651  23.863  1.00  0.00     0.163 HD
BRANCH   3   6
ATOM      6  C   UNL A   1      29.774  28.523  23.597  1.00  0.00     0.173 C 
BRANCH   6   7
ATOM      7  N   UNL A   1      29.694  27.104  23.219  1.00  0.00    -0.342 N 
ATOM      8  C   UNL A   1      30.038  25.964  23.891  1.00  0.00     0.242 C 
ATOM      9  O   UNL A   1      29.791  24.900  23.315  1.00  0.00    -0.273 OA
ATOM     10  H   UNL A   1      29.326  26.947  22.320  1.00  0.00     0.164 HD
BRANCH   8  11
ATOM     11  C   UNL A   1      30.599  25.969  25.322  1.00  0.00     0.248 C 
BRANCH  11  12
ATOM     12  N   UNL A   1      31.299  24.751  25.726  1.00  0.00    -0.220 N 
ATOM     13  C   UNL A   1      33.185  23.481  25.526  1.00  0.00     0.091 A 
ATOM     14  C   UNL A   1      32.628  22.378  26.327  1.00  0.00     0.036 A 
ATOM     15  N   UNL A   1      32.576  24.583  25.236  1.00  0.00    -0.169 NA
ATOM     16  C   UNL A   1      31.426  22.599  26.865  1.00  0.00     0.075 A 
ATOM     17  C   UNL A   1      30.695  23.865  26.614  1.00  0.00     0.267 A 
ATOM     18  O   UNL A   1      29.601  24.032  27.139  1.00  0.00    -0.268 OA
BRANCH  13  19
ATOM     19  C   UNL A   1      34.566  23.302  25.062  1.00  0.00     0.006 A 
ATOM     20  C   UNL A   1      36.914  23.507  25.559  1.00  0.00     0.119 A 
ATOM     21  C   UNL A   1      37.199  23.147  24.238  1.00  0.00     0.046 A 
ATOM     22  C   UNL A   1      35.588  23.597  25.968  1.00  0.00     0.056 A 
ATOM     23  C   UNL A   1      36.169  22.856  23.334  1.00  0.00     0.005 A 
ATOM     24  C   UNL A   1      34.840  22.933  23.745  1.00  0.00     0.011 A 
BRANCH  20  25
ATOM     25  O   UNL A   1      38.001  23.773  26.345  1.00  0.00    -0.497 OA
ATOM     26  C   UNL A   1      39.008  22.766  26.379  1.00  0.00     0.278 C 
ENDBRANCH  20  25
ENDBRANCH  13  19
ENDBRANCH  11  12
ENDBRANCH   8  11
ENDBRANCH   6   7
BRANCH   6  27
ATOM     27  C   UNL A   1      28.670  29.374  22.913  1.00  0.00     0.015 C 
ATOM     28  C   UNL A   1      27.257  28.815  23.091  1.00  0.00     0.010 C 
ATOM     29  C   UNL A   1      28.698  30.814  23.451  1.00  0.00     0.010 C 
ENDBRANCH   6  27
ENDBRANCH   3   6
ENDBRANCH   1   2
BRANCH   1  30
ATOM     30  C   UNL A   1      32.413  28.381  26.390  1.00  0.00     0.042 C 
BRANCH  30  31
ATOM     31  C   UNL A   1      33.682  28.764  27.131  1.00  0.00     0.118 C 
BRANCH  31  32
ATOM     32  N   UNL A   1      33.657  30.149  27.603  1.00  0.00    -0.352 N 
ATOM     33  C   UNL A   1      34.601  30.862  28.307  1.00  0.00     0.251 C 
ATOM     34  H   UNL A   1      32.837  30.648  27.383  1.00  0.00     0.163 HD
ATOM     35  O   UNL A   1      34.304  31.951  28.773  1.00  0.00    -0.269 OA
BRANCH  33  36
ATOM     36  C   UNL A   1      35.952  30.290  28.506  1.00  0.00     0.039 A 
ATOM     37  C   UNL A   1      36.876  30.336  27.459  1.00  0.00     0.014 A 
ATOM     38  C   UNL A   1      36.314  29.734  29.733  1.00  0.00     0.014 A 
ATOM     39  C   UNL A   1      38.186  29.902  27.676  1.00  0.00     0.010 A 
ATOM     40  C   UNL A   1      37.641  29.410  29.981  1.00  0.00     0.010 A 
ATOM     41  C   UNL A   1      38.592  29.484  28.954  1.00  0.00    -0.014 A 
BRANCH  41  42
ATOM     42  C   UNL A   1      39.999  29.113  29.254  1.00  0.00     0.031 A 
ATOM     43  C   UNL A   1      40.930  30.135  29.854  1.00  0.00     0.074 A 
ATOM     44  C   UNL A   1      40.464  27.900  28.894  1.00  0.00     0.049 A 
ATOM     45  N   UNL A   1      42.218  30.058  30.066  1.00  0.00    -0.248 NA
ATOM     46  C   UNL A   1      40.341  31.434  30.223  1.00  0.00     0.031 C 
ATOM     47  C   UNL A   1      39.677  26.848  28.244  1.00  0.00     0.029 A 
ATOM     48  N   UNL A   1      41.715  27.351  29.009  1.00  0.00    -0.354 N 
ATOM     49  C   UNL A   1      42.596  31.300  30.561  1.00  0.00     0.074 A 
ATOM     50  C   UNL A   1      41.413  32.133  30.563  1.00  0.00     0.031 C 
ATOM     51  C   UNL A   1      40.458  25.774  28.044  1.00  0.00     0.029 A 
ATOM     52  C   UNL A   1      41.807  26.073  28.511  1.00  0.00     0.049 A 
ATOM     53  H   UNL A   1      42.478  27.828  29.411  1.00  0.00     0.167 HD
ATOM     54  C   UNL A   1      43.810  31.702  31.003  1.00  0.00     0.037 A 
ATOM     55  C   UNL A   1      42.861  25.238  28.433  1.00  0.00     0.037 A 
ATOM     56  C   UNL A   1      44.971  30.852  31.044  1.00  0.00     0.049 A 
ATOM     57  C   UNL A   1      44.194  25.695  28.960  1.00  0.00     0.074 A 
ATOM     58  C   UNL A   1      46.230  31.136  31.541  1.00  0.00     0.029 A 
ATOM     59  N   UNL A   1      45.010  29.547  30.575  1.00  0.00    -0.354 N 
ATOM     60  N   UNL A   1      44.519  26.854  29.484  1.00  0.00    -0.248 NA
ATOM     61  C   UNL A   1      45.301  24.733  28.892  1.00  0.00     0.031 C 
ATOM     62  C   UNL A   1      47.040  30.014  31.341  1.00  0.00     0.029 A 
ATOM     63  C   UNL A   1      46.274  29.016  30.760  1.00  0.00     0.049 A 
ATOM     64  H   UNL A   1      44.250  29.068  30.171  1.00  0.00     0.167 HD
ATOM     65  C   UNL A   1      45.861  26.750  29.832  1.00  0.00     0.074 A 
ATOM     66  C   UNL A   1      46.284  25.412  29.469  1.00  0.00     0.031 C 
ATOM     67  C   UNL A   1      46.672  27.677  30.401  1.00  0.00     0.037 A 
BRANCH  54  68
ATOM     68  C   UNL A   1      43.939  33.120  31.491  1.00  0.00     0.058 A 
ATOM     69  C   UNL A   1      44.244  34.176  30.616  1.00  0.00     0.135 A 
ATOM     70  C   UNL A   1      43.738  33.432  32.845  1.00  0.00     0.135 A 
ATOM     71  F   UNL A   1      44.463  33.933  29.314  1.00  0.00    -0.206 F 
ATOM     72  C   UNL A   1      44.381  35.483  31.071  1.00  0.00     0.059 A 
ATOM     73  C   UNL A   1      43.841  34.739  33.318  1.00  0.00     0.059 A 
ATOM     74  F   UNL A   1      43.444  32.464  33.726  1.00  0.00    -0.206 F 
ATOM     75  C   UNL A   1      44.180  35.753  32.426  1.00  0.00     0.060 A 
BRANCH  75  76
ATOM     76  S   UNL A   1      44.368  37.454  33.000  1.00  0.00     0.124 S 
ATOM     77  O   UNL A   1      43.131  37.646  33.750  1.00  0.00    -0.237 OA
ATOM     78  O   UNL A   1      45.588  37.383  33.798  1.00  0.00    -0.237 OA
ATOM     79  O   UNL A   1      44.477  38.221  31.763  1.00  0.00    -0.744 OA
ENDBRANCH  75  76
ENDBRANCH  54  68
BRANCH  55  80
ATOM     80  C   UNL A   1      42.689  23.874  27.864  1.00  0.00     0.058 A 
ATOM     81  C   UNL A   1      42.716  23.668  26.477  1.00  0.00     0.135 A 
ATOM     82  C   UNL A   1      42.516  22.752  28.688  1.00  0.00     0.135 A 
ATOM     83  F   UNL A   1      42.874  24.711  25.647  1.00  0.00    -0.206 F 
ATOM     84  C   UNL A   1      42.561  22.401  25.924  1.00  0.00     0.059 A 
ATOM     85  C   UNL A   1      42.383  21.471  28.160  1.00  0.00     0.059 A 
ATOM     86  F   UNL A   1      42.500  22.894  30.022  1.00  0.00    -0.206 F 
ATOM     87  C   UNL A   1      42.397  21.308  26.775  1.00  0.00     0.060 A 
BRANCH  87  88
ATOM     88  S   UNL A   1      42.243  19.662  26.046  1.00  0.00     0.124 S 
ATOM     89  O   UNL A   1      40.834  19.637  25.674  1.00  0.00    -0.237 OA
ATOM     90  O   UNL A   1      43.193  19.725  24.940  1.00  0.00    -0.237 OA
ATOM     91  O   UNL A   1      42.624  18.773  27.140  1.00  0.00    -0.744 OA
ENDBRANCH  87  88
ENDBRANCH  55  80
BRANCH  67  92
ATOM     92  C   UNL A   1      48.085  27.268  30.701  1.00  0.00     0.058 A 
ATOM     93  C   UNL A   1      48.445  26.708  31.935  1.00  0.00     0.135 A 
ATOM     94  C   UNL A   1      49.081  27.386  29.717  1.00  0.00     0.135 A 
ATOM     95  F   UNL A   1      47.532  26.578  32.912  1.00  0.00    -0.206 F 
ATOM     96  C   UNL A   1      49.749  26.297  32.193  1.00  0.00     0.059 A 
ATOM     97  C   UNL A   1      50.384  26.959  29.943  1.00  0.00     0.059 A 
ATOM     98  F   UNL A   1      48.785  27.906  28.514  1.00  0.00    -0.206 F 
ATOM     99  C   UNL A   1      50.712  26.425  31.189  1.00  0.00     0.060 A 
BRANCH  99 100
ATOM    100  S   UNL A   1      52.391  25.853  31.522  1.00  0.00     0.124 S 
ATOM    101  O   UNL A   1      52.156  24.470  31.923  1.00  0.00    -0.237 OA
ATOM    102  O   UNL A   1      53.046  26.036  30.231  1.00  0.00    -0.237 OA
ATOM    103  O   UNL A   1      52.849  26.745  32.582  1.00  0.00    -0.744 OA
ENDBRANCH  99 100
ENDBRANCH  67  92
ENDBRANCH  41  42
ENDBRANCH  33  36
ENDBRANCH  31  32
ENDBRANCH  30  31
ENDBRANCH   1  30
TORSDOF 19
ENDMDL
MODEL 2
REMARK VINA RESULT:     -11.5      3.126      3.975
REMARK SMILES COc1cccc(-c2ccc(=O)n(CC(=O)N[C@@H](C(=O)NCCCNC(=O)c3ccc(-c4c5nc(c(-c6c(F)cc(S(=O)(=O)[O-])cc6F)c6ccc([nH]6)c(-c6c(F)cc(S(=O)(=O)[O-])cc6F)c6nc(c(-c7c(F)cc(S(=O)(=O)[O-])cc7F)c7ccc4[nH]7)C=C6)C=C5)cc3)C(C)C)n2)c1
REMARK SMILES IDX 22 1 21 2 19 3 20 4 18 6 17 7 15 8 16 9 14 11 13 12 8 13
REMARK SMILES IDX 9 14 97 15 10 16 11 17 12 18 7 19 3 20 4 21 98 22 5 23 6 24
REMARK SMILES IDX 2 25 1 26 94 27 95 28 96 29 23 30 24 31 25 32 26 33 27 35
REMARK SMILES IDX 28 36 29 37 93 38 30 39 92 40 31 41 32 42 33 43 86 44 34 45
REMARK SMILES IDX 91 46 85 47 87 48 35 49 90 50 84 51 83 52 36 54 70 55 49 56
REMARK SMILES IDX 69 57 50 58 53 59 68 60 88 61 51 62 52 63 67 65 89 66 54 67
REMARK SMILES IDX 37 68 38 69 47 70 39 71 40 72 46 73 48 74 41 75 42 76 43 77
REMARK SMILES IDX 44 78 45 79 71 80 72 81 81 82 73 83 74 84 80 85 82 86 75 87
REMARK SMILES IDX 76 88 77 89 78 90 79 91 55 92 56 93 65 94 57 95 58 96 64 97
REMARK SMILES IDX 66 98 59 99 60 100 61 101 62 102 63 103
REMARK H PARENT 21 5 17 10 25 34 87 53 53 64
REMARK Flexibility Score: inf
ROOT
ATOM      1  C   UNL A   1      34.075  28.471  26.359  1.00  0.00     0.117 C 
ENDROOT
BRANCH   1   2
ATOM      2  N   UNL A   1      34.262  28.829  24.977  1.00  0.00    -0.354 N 
ATOM      3  C   UNL A   1      33.468  28.485  23.917  1.00  0.00     0.242 C 
ATOM      4  O   UNL A   1      33.684  29.067  22.852  1.00  0.00    -0.273 OA
ATOM      5  H   UNL A   1      35.049  29.383  24.771  1.00  0.00     0.163 HD
BRANCH   3   6
ATOM      6  C   UNL A   1      32.292  27.468  24.107  1.00  0.00     0.173 C 
BRANCH   6   7
ATOM      7  N   UNL A   1      32.432  26.406  23.100  1.00  0.00    -0.342 N 
ATOM      8  C   UNL A   1      32.097  25.081  23.124  1.00  0.00     0.242 C 
ATOM      9  O   UNL A   1      32.292  24.453  22.079  1.00  0.00    -0.273 OA
ATOM     10  H   UNL A   1      32.841  26.703  22.256  1.00  0.00     0.164 HD
BRANCH   8  11
ATOM     11  C   UNL A   1      31.413  24.409  24.326  1.00  0.00     0.248 C 
BRANCH  11  12
ATOM     12  N   UNL A   1      32.207  23.389  25.009  1.00  0.00    -0.220 N 
ATOM     13  C   UNL A   1      32.726  21.172  25.174  1.00  0.00     0.091 A 
ATOM     14  C   UNL A   1      33.570  21.372  26.364  1.00  0.00     0.036 A 
ATOM     15  N   UNL A   1      32.085  22.098  24.541  1.00  0.00    -0.169 NA
ATOM     16  C   UNL A   1      33.744  22.639  26.747  1.00  0.00     0.075 A 
ATOM     17  C   UNL A   1      33.079  23.755  26.031  1.00  0.00     0.267 A 
ATOM     18  O   UNL A   1      33.277  24.904  26.407  1.00  0.00    -0.268 OA
BRANCH  13  19
ATOM     19  C   UNL A   1      32.657  19.798  24.662  1.00  0.00     0.006 A 
ATOM     20  C   UNL A   1      32.832  17.444  25.144  1.00  0.00     0.119 A 
ATOM     21  C   UNL A   1      32.699  17.180  23.777  1.00  0.00     0.046 A 
ATOM     22  C   UNL A   1      32.824  18.763  25.586  1.00  0.00     0.056 A 
ATOM     23  C   UNL A   1      32.535  18.223  22.856  1.00  0.00     0.005 A 
ATOM     24  C   UNL A   1      32.514  19.544  23.298  1.00  0.00     0.011 A 
BRANCH  20  25
ATOM     25  O   UNL A   1      32.992  16.346  25.943  1.00  0.00    -0.497 OA
ATOM     26  C   UNL A   1      32.685  15.090  25.347  1.00  0.00     0.278 C 
ENDBRANCH  20  25
ENDBRANCH  13  19
ENDBRANCH  11  12
ENDBRANCH   8  11
ENDBRANCH   6   7
BRANCH   6  27
ATOM     27  C   UNL A   1      30.927  28.201  24.000  1.00  0.00     0.015 C 
ATOM     28  C   UNL A   1      30.934  29.613  24.589  1.00  0.00     0.010 C 
ATOM     29  C   UNL A   1      30.482  28.285  22.531  1.00  0.00     0.010 C 
ENDBRANCH   6  27
ENDBRANCH   3   6
ENDBRANCH   1   2
BRANCH   1  30
ATOM     30  C   UNL A   1      34.165  29.647  27.314  1.00  0.00     0.042 C 
BRANCH  30  31
ATOM     31  C   UNL A   1      35.499  29.704  28.037  1.00  0.00     0.118 C 
BRANCH  31  32
ATOM     32  N   UNL A   1      35.391  30.312  29.362  1.00  0.00    -0.352 N 
ATOM     33  C   UNL A   1      36.354  30.515  30.325  1.00  0.00     0.251 C 
ATOM     34  H   UNL A   1      34.489  30.624  29.604  1.00  0.00     0.163 HD
ATOM     35  O   UNL A   1      36.016  30.866  31.446  1.00  0.00    -0.269 OA
BRANCH  33  36
ATOM     36  C   UNL A   1      37.779  30.286  29.994  1.00  0.00     0.039 A 
ATOM     37  C   UNL A   1      38.670  29.934  31.011  1.00  0.00     0.014 A 
ATOM     38  C   UNL A   1      38.227  30.391  28.677  1.00  0.00     0.014 A 
ATOM     39  C   UNL A   1      39.989  29.604  30.688  1.00  0.00     0.010 A 
ATOM     40  C   UNL A   1      39.503  29.956  28.345  1.00  0.00     0.010 A 
ATOM     41  C   UNL A   1      40.402  29.563  29.346  1.00  0.00    -0.014 A 
BRANCH  41  42
ATOM     42  C   UNL A   1      41.763  29.119  28.953  1.00  0.00     0.031 A 
ATOM     43  C   UNL A   1      42.889  30.119  28.896  1.00  0.00     0.074 A 
ATOM     44  C   UNL A   1      41.964  27.848  28.550  1.00  0.00     0.049 A 
ATOM     45  N   UNL A   1      44.109  29.968  28.452  1.00  0.00    -0.248 NA
ATOM     46  C   UNL A   1      42.587  31.485  29.358  1.00  0.00     0.031 C 
ATOM     47  C   UNL A   1      40.938  26.803  28.496  1.00  0.00     0.029 A 
ATOM     48  N   UNL A   1      43.096  27.222  28.094  1.00  0.00    -0.354 N 
ATOM     49  C   UNL A   1      44.707  31.218  28.552  1.00  0.00     0.074 A 
ATOM     50  C   UNL A   1      43.699  32.131  29.043  1.00  0.00     0.031 C 
ATOM     51  C   UNL A   1      41.494  25.661  28.060  1.00  0.00     0.029 A 
ATOM     52  C   UNL A   1      42.902  25.901  27.763  1.00  0.00     0.049 A 
ATOM     53  H   UNL A   1      43.966  27.676  28.011  1.00  0.00     0.167 HD
ATOM     54  C   UNL A   1      45.988  31.569  28.289  1.00  0.00     0.037 A 
ATOM     55  C   UNL A   1      43.761  24.989  27.270  1.00  0.00     0.037 A 
ATOM     56  C   UNL A   1      46.998  30.643  27.847  1.00  0.00     0.049 A 
ATOM     57  C   UNL A   1      45.188  25.392  27.016  1.00  0.00     0.074 A 
ATOM     58  C   UNL A   1      48.342  30.878  27.623  1.00  0.00     0.029 A 
ATOM     59  N   UNL A   1      46.773  29.302  27.571  1.00  0.00    -0.354 N 
ATOM     60  N   UNL A   1      45.754  26.566  27.177  1.00  0.00    -0.248 NA
ATOM     61  C   UNL A   1      46.096  24.350  26.519  1.00  0.00     0.031 C 
ATOM     62  C   UNL A   1      48.924  29.686  27.178  1.00  0.00     0.029 A 
ATOM     63  C   UNL A   1      47.952  28.699  27.167  1.00  0.00     0.049 A 
ATOM     64  H   UNL A   1      45.904  28.846  27.652  1.00  0.00     0.167 HD
ATOM     65  C   UNL A   1      47.088  26.396  26.826  1.00  0.00     0.074 A 
ATOM     66  C   UNL A   1      47.248  25.004  26.456  1.00  0.00     0.031 C 
ATOM     67  C   UNL A   1      48.092  27.308  26.813  1.00  0.00     0.037 A 
BRANCH  54  68
ATOM     68  C   UNL A   1      46.370  33.011  28.486  1.00  0.00     0.058 A 
ATOM     69  C   UNL A   1      46.830  33.488  29.725  1.00  0.00     0.135 A 
ATOM     70  C   UNL A   1      46.292  33.924  27.422  1.00  0.00     0.135 A 
ATOM     71  F   UNL A   1      46.909  32.664  30.781  1.00  0.00    -0.206 F 
ATOM     72  C   UNL A   1      47.164  34.826  29.911  1.00  0.00     0.059 A 
ATOM     73  C   UNL A   1      46.650  35.261  27.578  1.00  0.00     0.059 A 
ATOM     74  F   UNL A   1      45.859  33.523  26.217  1.00  0.00    -0.206 F 
ATOM     75  C   UNL A   1      47.068  35.705  28.831  1.00  0.00     0.060 A 
BRANCH  75  76
ATOM     76  S   UNL A   1      47.500  37.438  29.093  1.00  0.00     0.124 S 
ATOM     77  O   UNL A   1      48.277  37.361  30.326  1.00  0.00    -0.237 OA
ATOM     78  O   UNL A   1      48.256  37.757  27.886  1.00  0.00    -0.237 OA
ATOM     79  O   UNL A   1      46.203  38.099  29.208  1.00  0.00    -0.744 OA
ENDBRANCH  75  76
ENDBRANCH  54  68
BRANCH  55  80
ATOM     80  C   UNL A   1      43.303  23.596  27.019  1.00  0.00     0.058 A 
ATOM     81  C   UNL A   1      42.963  23.177  25.724  1.00  0.00     0.135 A 
ATOM     82  C   UNL A   1      43.215  22.654  28.054  1.00  0.00     0.135 A 
ATOM     83  F   UNL A   1      43.026  24.043  24.700  1.00  0.00    -0.206 F 
ATOM     84  C   UNL A   1      42.536  21.878  25.465  1.00  0.00     0.059 A 
ATOM     85  C   UNL A   1      42.813  21.342  27.817  1.00  0.00     0.059 A 
ATOM     86  F   UNL A   1      43.545  23.000  29.308  1.00  0.00    -0.206 F 
ATOM     87  C   UNL A   1      42.466  20.967  26.519  1.00  0.00     0.060 A 
BRANCH  87  88
ATOM     88  S   UNL A   1      41.954  19.272  26.163  1.00  0.00     0.124 S 
ATOM     89  O   UNL A   1      42.734  18.975  24.968  1.00  0.00    -0.237 OA
ATOM     90  O   UNL A   1      42.354  18.568  27.378  1.00  0.00    -0.237 OA
ATOM     91  O   UNL A   1      40.512  19.392  25.963  1.00  0.00    -0.744 OA
ENDBRANCH  87  88
ENDBRANCH  55  80
BRANCH  67  92
ATOM     92  C   UNL A   1      49.459  26.826  26.420  1.00  0.00     0.058 A 
ATOM     93  C   UNL A   1      50.280  26.127  27.317  1.00  0.00     0.135 A 
ATOM     94  C   UNL A   1      49.928  27.016  25.110  1.00  0.00     0.135 A 
ATOM     95  F   UNL A   1      49.881  25.924  28.583  1.00  0.00    -0.206 F 
ATOM     96  C   UNL A   1      51.530  25.651  26.935  1.00  0.00     0.059 A 
ATOM     97  C   UNL A   1      51.162  26.527  24.699  1.00  0.00     0.059 A 
ATOM     98  F   UNL A   1      49.174  27.669  24.210  1.00  0.00    -0.206 F 
ATOM     99  C   UNL A   1      51.962  25.854  25.622  1.00  0.00     0.060 A 
BRANCH  99 100
ATOM    100  S   UNL A   1      53.569  25.198  25.128  1.00  0.00     0.124 S 
ATOM    101  O   UNL A   1      54.463  25.884  26.054  1.00  0.00    -0.237 OA
ATOM    102  O   UNL A   1      53.404  23.765  25.349  1.00  0.00    -0.237 OA
ATOM    103  O   UNL A   1      53.684  25.600  23.730  1.00  0.00    -0.744 OA
ENDBRANCH  99 100
ENDBRANCH  67  92
ENDBRANCH  41  42
ENDBRANCH  33  36
ENDBRANCH  31  32
ENDBRANCH  30  31
ENDBRANCH   1  30
TORSDOF 19
ENDMDL
MODEL 3
REMARK VINA RESULT:     -11.3      1.804      2.244
REMARK SMILES COc1cccc(-c2ccc(=O)n(CC(=O)N[C@@H](C(=O)NCCCNC(=O)c3ccc(-c4c5nc(c(-c6c(F)cc(S(=O)(=O)[O-])cc6F)c6ccc([nH]6)c(-c6c(F)cc(S(=O)(=O)[O-])cc6F)c6nc(c(-c7c(F)cc(S(=O)(=O)[O-])cc7F)c7ccc4[nH]7)C=C6)C=C5)cc3)C(C)C)n2)c1
REMARK SMILES IDX 22 1 21 2 19 3 20 4 18 6 17 7 15 8 16 9 14 11 13 12 8 13
REMARK SMILES IDX 9 14 97 15 10 16 11 17 12 18 7 19 3 20 4 21 98 22 5 23 6 24
REMARK SMILES IDX 2 25 1 26 94 27 95 28 96 29 23 30 24 31 25 32 26 33 27 35
REMARK SMILES IDX 28 36 29 37 93 38 30 39 92 40 31 41 32 42 33 43 86 44 34 45
REMARK SMILES IDX 91 46 85 47 87 48 35 49 90 50 84 51 83 52 36 54 70 55 49 56
REMARK SMILES IDX 69 57 50 58 53 59 68 60 88 61 51 62 52 63 67 65 89 66 54 67
REMARK SMILES IDX 37 68 38 69 47 70 39 71 40 72 46 73 48 74 41 75 42 76 43 77
REMARK SMILES IDX 44 78 45 79 71 80 72 81 81 82 73 83 74 84 80 85 82 86 75 87
REMARK SMILES IDX 76 88 77 89 78 90 79 91 55 92 56 93 65 94 57 95 58 96 64 97
REMARK SMILES IDX 66 98 59 99 60 100 61 101 62 102 63 103
REMARK H PARENT 21 5 17 10 25 34 87 53 53 64
REMARK Flexibility Score: inf
ROOT
ATOM      1  C   UNL A   1      31.577  29.170  25.917  1.00  0.00     0.117 C 
ENDROOT
BRANCH   1   2
ATOM      2  N   UNL A   1      32.149  29.381  24.612  1.00  0.00    -0.354 N 
ATOM      3  C   UNL A   1      31.929  28.643  23.481  1.00  0.00     0.242 C 
ATOM      4  O   UNL A   1      32.347  29.115  22.422  1.00  0.00    -0.273 OA
ATOM      5  H   UNL A   1      32.767  30.142  24.524  1.00  0.00     0.163 HD
BRANCH   3   6
ATOM      6  C   UNL A   1      31.101  27.314  23.553  1.00  0.00     0.173 C 
BRANCH   6   7
ATOM      7  N   UNL A   1      31.827  26.277  22.806  1.00  0.00    -0.342 N 
ATOM      8  C   UNL A   1      31.962  24.933  23.014  1.00  0.00     0.242 C 
ATOM      9  O   UNL A   1      32.601  24.312  22.159  1.00  0.00    -0.273 OA
ATOM     10  H   UNL A   1      32.302  26.611  22.011  1.00  0.00     0.164 HD
BRANCH   8  11
ATOM     11  C   UNL A   1      31.278  24.190  24.174  1.00  0.00     0.248 C 
BRANCH  11  12
ATOM     12  N   UNL A   1      32.104  23.193  24.853  1.00  0.00    -0.220 N 
ATOM     13  C   UNL A   1      32.734  21.002  24.973  1.00  0.00     0.091 A 
ATOM     14  C   UNL A   1      33.529  21.211  26.195  1.00  0.00     0.036 A 
ATOM     15  N   UNL A   1      32.065  21.912  24.346  1.00  0.00    -0.169 NA
ATOM     16  C   UNL A   1      33.625  22.474  26.617  1.00  0.00     0.075 A 
ATOM     17  C   UNL A   1      32.924  23.574  25.912  1.00  0.00     0.267 A 
ATOM     18  O   UNL A   1      33.050  24.720  26.325  1.00  0.00    -0.268 OA
BRANCH  13  19
ATOM     19  C   UNL A   1      32.752  19.642  24.421  1.00  0.00     0.006 A 
ATOM     20  C   UNL A   1      33.332  17.327  24.754  1.00  0.00     0.119 A 
ATOM     21  C   UNL A   1      32.975  17.073  23.427  1.00  0.00     0.046 A 
ATOM     22  C   UNL A   1      33.232  18.624  25.249  1.00  0.00     0.056 A 
ATOM     23  C   UNL A   1      32.498  18.100  22.601  1.00  0.00     0.005 A 
ATOM     24  C   UNL A   1      32.385  19.397  23.099  1.00  0.00     0.011 A 
BRANCH  20  25
ATOM     25  O   UNL A   1      33.789  16.248  25.459  1.00  0.00    -0.497 OA
ATOM     26  C   UNL A   1      35.165  15.924  25.280  1.00  0.00     0.278 C 
ENDBRANCH  20  25
ENDBRANCH  13  19
ENDBRANCH  11  12
ENDBRANCH   8  11
ENDBRANCH   6   7
BRANCH   6  27
ATOM     27  C   UNL A   1      29.670  27.544  22.997  1.00  0.00     0.015 C 
ATOM     28  C   UNL A   1      28.583  26.763  23.738  1.00  0.00     0.010 C 
ATOM     29  C   UNL A   1      29.315  29.039  23.041  1.00  0.00     0.010 C 
ENDBRANCH   6  27
ENDBRANCH   3   6
ENDBRANCH   1   2
BRANCH   1  30
ATOM     30  C   UNL A   1      32.286  28.105  26.733  1.00  0.00     0.042 C 
BRANCH  30  31
ATOM     31  C   UNL A   1      33.631  28.577  27.254  1.00  0.00     0.118 C 
BRANCH  31  32
ATOM     32  N   UNL A   1      33.616  29.987  27.645  1.00  0.00    -0.352 N 
ATOM     33  C   UNL A   1      34.574  30.739  28.287  1.00  0.00     0.251 C 
ATOM     34  H   UNL A   1      32.792  30.473  27.413  1.00  0.00     0.163 HD
ATOM     35  O   UNL A   1      34.286  31.854  28.694  1.00  0.00    -0.269 OA
BRANCH  33  36
ATOM     36  C   UNL A   1      35.929  30.178  28.491  1.00  0.00     0.039 A 
ATOM     37  C   UNL A   1      36.850  30.214  27.441  1.00  0.00     0.014 A 
ATOM     38  C   UNL A   1      36.297  29.644  29.726  1.00  0.00     0.014 A 
ATOM     39  C   UNL A   1      38.164  29.791  27.661  1.00  0.00     0.010 A 
ATOM     40  C   UNL A   1      37.627  29.331  29.975  1.00  0.00     0.010 A 
ATOM     41  C   UNL A   1      38.575  29.395  28.945  1.00  0.00    -0.014 A 
BRANCH  41  42
ATOM     42  C   UNL A   1      39.985  29.037  29.246  1.00  0.00     0.031 A 
ATOM     43  C   UNL A   1      40.900  30.062  29.865  1.00  0.00     0.074 A 
ATOM     44  C   UNL A   1      40.466  27.835  28.872  1.00  0.00     0.049 A 
ATOM     45  N   UNL A   1      42.188  29.997  30.082  1.00  0.00    -0.248 NA
ATOM     46  C   UNL A   1      40.294  31.348  30.249  1.00  0.00     0.031 C 
ATOM     47  C   UNL A   1      39.696  26.782  28.203  1.00  0.00     0.029 A 
ATOM     48  N   UNL A   1      41.724  27.300  28.986  1.00  0.00    -0.354 N 
ATOM     49  C   UNL A   1      42.548  31.237  30.597  1.00  0.00     0.074 A 
ATOM     50  C   UNL A   1      41.356  32.055  30.604  1.00  0.00     0.031 C 
ATOM     51  C   UNL A   1      40.490  25.720  27.992  1.00  0.00     0.029 A 
ATOM     52  C   UNL A   1      41.833  26.029  28.470  1.00  0.00     0.049 A 
ATOM     53  H   UNL A   1      42.479  27.781  29.398  1.00  0.00     0.167 HD
ATOM     54  C   UNL A   1      43.756  31.648  31.050  1.00  0.00     0.037 A 
ATOM     55  C   UNL A   1      42.898  25.209  28.386  1.00  0.00     0.037 A 
ATOM     56  C   UNL A   1      44.926  30.812  31.085  1.00  0.00     0.049 A 
ATOM     57  C   UNL A   1      44.223  25.675  28.926  1.00  0.00     0.074 A 
ATOM     58  C   UNL A   1      46.179  31.104  31.593  1.00  0.00     0.029 A 
ATOM     59  N   UNL A   1      44.983  29.513  30.599  1.00  0.00    -0.354 N 
ATOM     60  N   UNL A   1      44.532  26.830  29.468  1.00  0.00    -0.248 NA
ATOM     61  C   UNL A   1      45.342  24.727  28.851  1.00  0.00     0.031 C 
ATOM     62  C   UNL A   1      47.004  29.994  31.381  1.00  0.00     0.029 A 
ATOM     63  C   UNL A   1      46.253  28.995  30.783  1.00  0.00     0.049 A 
ATOM     64  H   UNL A   1      44.231  29.031  30.184  1.00  0.00     0.167 HD
ATOM     65  C   UNL A   1      45.872  26.737  29.821  1.00  0.00     0.074 A 
ATOM     66  C   UNL A   1      46.313  25.410  29.442  1.00  0.00     0.031 C 
ATOM     67  C   UNL A   1      46.669  27.666  30.408  1.00  0.00     0.037 A 
BRANCH  54  68
ATOM     68  C   UNL A   1      43.864  33.060  31.558  1.00  0.00     0.058 A 
ATOM     69  C   UNL A   1      44.094  34.140  30.690  1.00  0.00     0.135 A 
ATOM     70  C   UNL A   1      43.720  33.342  32.926  1.00  0.00     0.135 A 
ATOM     71  F   UNL A   1      44.256  33.928  29.374  1.00  0.00    -0.206 F 
ATOM     72  C   UNL A   1      44.214  35.443  31.163  1.00  0.00     0.059 A 
ATOM     73  C   UNL A   1      43.806  34.643  33.418  1.00  0.00     0.059 A 
ATOM     74  F   UNL A   1      43.500  32.349  33.802  1.00  0.00    -0.206 F 
ATOM     75  C   UNL A   1      44.071  35.683  32.530  1.00  0.00     0.060 A 
BRANCH  75  76
ATOM     76  S   UNL A   1      44.234  37.379  33.127  1.00  0.00     0.124 S 
ATOM     77  O   UNL A   1      44.369  38.116  31.875  1.00  0.00    -0.237 OA
ATOM     78  O   UNL A   1      42.982  37.579  33.849  1.00  0.00    -0.237 OA
ATOM     79  O   UNL A   1      45.433  37.332  33.960  1.00  0.00    -0.744 OA
ENDBRANCH  75  76
ENDBRANCH  54  68
BRANCH  55  80
ATOM     80  C   UNL A   1      42.746  23.851  27.798  1.00  0.00     0.058 A 
ATOM     81  C   UNL A   1      42.855  23.654  26.413  1.00  0.00     0.135 A 
ATOM     82  C   UNL A   1      42.510  22.726  28.601  1.00  0.00     0.135 A 
ATOM     83  F   UNL A   1      43.074  24.701  25.602  1.00  0.00    -0.206 F 
ATOM     84  C   UNL A   1      42.720  22.393  25.842  1.00  0.00     0.059 A 
ATOM     85  C   UNL A   1      42.395  21.449  28.057  1.00  0.00     0.059 A 
ATOM     86  F   UNL A   1      42.414  22.858  29.933  1.00  0.00    -0.206 F 
ATOM     87  C   UNL A   1      42.492  21.296  26.673  1.00  0.00     0.060 A 
BRANCH  87  88
ATOM     88  S   UNL A   1      42.363  19.657  25.924  1.00  0.00     0.124 S 
ATOM     89  O   UNL A   1      42.703  18.793  27.048  1.00  0.00    -0.237 OA
ATOM     90  O   UNL A   1      40.969  19.625  25.493  1.00  0.00    -0.237 OA
ATOM     91  O   UNL A   1      43.344  19.703  24.844  1.00  0.00    -0.744 OA
ENDBRANCH  87  88
ENDBRANCH  55  80
BRANCH  67  92
ATOM     92  C   UNL A   1      48.086  27.270  30.709  1.00  0.00     0.058 A 
ATOM     93  C   UNL A   1      48.421  26.552  31.866  1.00  0.00     0.135 A 
ATOM     94  C   UNL A   1      49.113  27.565  29.797  1.00  0.00     0.135 A 
ATOM     95  F   UNL A   1      47.477  26.251  32.773  1.00  0.00    -0.206 F 
ATOM     96  C   UNL A   1      49.731  26.157  32.121  1.00  0.00     0.059 A 
ATOM     97  C   UNL A   1      50.424  27.157  30.018  1.00  0.00     0.059 A 
ATOM     98  F   UNL A   1      48.842  28.240  28.668  1.00  0.00    -0.206 F 
ATOM     99  C   UNL A   1      50.725  26.463  31.188  1.00  0.00     0.060 A 
BRANCH  99 100
ATOM    100  S   UNL A   1      52.413  25.910  31.511  1.00  0.00     0.124 S 
ATOM    101  O   UNL A   1      53.003  25.976  30.178  1.00  0.00    -0.237 OA
ATOM    102  O   UNL A   1      52.891  26.904  32.466  1.00  0.00    -0.237 OA
ATOM    103  O   UNL A   1      52.233  24.567  32.052  1.00  0.00    -0.744 OA
ENDBRANCH  99 100
ENDBRANCH  67  92
ENDBRANCH  41  42
ENDBRANCH  33  36
ENDBRANCH  31  32
ENDBRANCH  30  31
ENDBRANCH   1  30
TORSDOF 19
ENDMDL
