MODEL 1
REMARK VINA RESULT:     -11.2      0.000      0.000
REMARK SMILES C[C@@H](CC(=O)NCCCNC(=O)c1ccc(-c2c3nc(c(-c4c(F)cc(S(=O)(=O)[O-])cc4F)c4ccc([nH]4)c(-c4c(F)cc(S(=O)(=O)[O-])cc4F)c4nc(c(-c5c(F)cc(S(=O)(=O)[O-])cc5F)c5ccc2[nH]5)C=C4)C=C3)cc1)NC(=O)CCCN1C(=O)CN(C)C1=O
REMARK SMILES IDX 4 1 5 2 6 3 3 5 2 6 1 7 79 8 80 9 81 11 82 12 83 13 84 14
REMARK SMILES IDX 85 15 86 16 91 17 87 18 88 19 89 20 92 21 90 22 7 23 8 24
REMARK SMILES IDX 9 25 10 26 11 27 12 29 13 30 14 31 78 32 15 33 77 34 16 35
REMARK SMILES IDX 17 36 18 37 71 38 19 39 76 40 70 41 72 42 20 43 75 44 69 45
REMARK SMILES IDX 68 46 21 48 55 49 34 50 54 51 35 52 38 53 53 54 73 55 36 56
REMARK SMILES IDX 37 57 52 59 74 60 39 61 22 62 23 63 32 64 24 65 25 66 31 67
REMARK SMILES IDX 33 68 26 69 27 70 28 71 29 72 30 73 56 74 57 75 66 76 58 77
REMARK SMILES IDX 59 78 65 79 67 80 60 81 61 82 62 83 63 84 64 85 40 86 41 87
REMARK SMILES IDX 50 88 42 89 43 90 49 91 51 92 44 93 45 94 46 95 47 96 48 97
REMARK H PARENT 6 4 79 10 10 28 72 47 38 58
REMARK Flexibility Score: inf
ROOT
ATOM      1  C   UNL A   1      31.820  28.635  27.224  1.00  0.00     0.222 C 
ATOM      2  O   UNL A   1      31.392  27.852  28.074  1.00  0.00    -0.275 OA
ATOM      3  N   UNL A   1      32.749  29.557  27.601  1.00  0.00    -0.356 N 
ATOM      4  H   UNL A   1      33.028  29.485  28.542  1.00  0.00     0.163 HD
ENDROOT
BRANCH   1   5
ATOM      5  C   UNL A   1      31.349  28.547  25.794  1.00  0.00     0.124 C 
BRANCH   5   6
ATOM      6  C   UNL A   1      31.069  27.140  25.262  1.00  0.00     0.088 C 
ATOM      7  C   UNL A   1      30.311  27.071  23.950  1.00  0.00     0.031 C 
BRANCH   6   8
ATOM      8  N   UNL A   1      30.442  26.227  26.197  1.00  0.00    -0.353 N 
ATOM      9  C   UNL A   1      30.766  24.902  26.340  1.00  0.00     0.220 C 
ATOM     10  H   UNL A   1      29.731  26.586  26.774  1.00  0.00     0.163 HD
ATOM     11  O   UNL A   1      29.950  24.136  26.851  1.00  0.00    -0.275 OA
BRANCH   9  12
ATOM     12  C   UNL A   1      32.165  24.423  25.954  1.00  0.00     0.102 C 
BRANCH  12  13
ATOM     13  C   UNL A   1      32.310  22.992  25.407  1.00  0.00     0.032 C 
BRANCH  13  14
ATOM     14  C   UNL A   1      32.989  21.918  26.294  1.00  0.00     0.131 C 
BRANCH  14  15
ATOM     15  N   UNL A   1      33.810  20.958  25.577  1.00  0.00    -0.263 N 
ATOM     16  C   UNL A   1      33.367  19.767  25.075  1.00  0.00     0.250 C 
ATOM     17  C   UNL A   1      35.158  21.088  25.378  1.00  0.00     0.326 C 
ATOM     18  O   UNL A   1      32.209  19.378  25.024  1.00  0.00    -0.272 OA
ATOM     19  C   UNL A   1      34.572  18.946  24.647  1.00  0.00     0.221 C 
ATOM     20  N   UNL A   1      35.638  19.882  24.905  1.00  0.00    -0.318 N 
ATOM     21  O   UNL A   1      35.846  22.064  25.640  1.00  0.00    -0.248 OA
ATOM     22  C   UNL A   1      37.029  19.500  24.884  1.00  0.00     0.149 C 
ENDBRANCH  14  15
ENDBRANCH  13  14
ENDBRANCH  12  13
ENDBRANCH   9  12
ENDBRANCH   6   8
ENDBRANCH   5   6
ENDBRANCH   1   5
BRANCH   3  23
ATOM     23  C   UNL A   1      33.408  30.632  26.865  1.00  0.00     0.117 C 
BRANCH  23  24
ATOM     24  C   UNL A   1      34.397  31.431  27.721  1.00  0.00     0.042 C 
BRANCH  24  25
ATOM     25  C   UNL A   1      35.473  30.611  28.414  1.00  0.00     0.118 C 
BRANCH  25  26
ATOM     26  N   UNL A   1      35.604  30.956  29.814  1.00  0.00    -0.352 N 
ATOM     27  C   UNL A   1      36.662  30.719  30.659  1.00  0.00     0.251 C 
ATOM     28  H   UNL A   1      34.834  31.422  30.214  1.00  0.00     0.163 HD
ATOM     29  O   UNL A   1      36.507  30.869  31.867  1.00  0.00    -0.269 OA
BRANCH  27  30
ATOM     30  C   UNL A   1      37.975  30.269  30.127  1.00  0.00     0.039 A 
ATOM     31  C   UNL A   1      38.995  29.972  31.035  1.00  0.00     0.014 A 
ATOM     32  C   UNL A   1      38.227  30.183  28.753  1.00  0.00     0.014 A 
ATOM     33  C   UNL A   1      40.252  29.577  30.570  1.00  0.00     0.010 A 
ATOM     34  C   UNL A   1      39.460  29.717  28.291  1.00  0.00     0.010 A 
ATOM     35  C   UNL A   1      40.494  29.434  29.194  1.00  0.00    -0.014 A 
BRANCH  35  36
ATOM     36  C   UNL A   1      41.836  29.016  28.703  1.00  0.00     0.031 A 
ATOM     37  C   UNL A   1      42.961  30.011  28.605  1.00  0.00     0.074 A 
ATOM     38  C   UNL A   1      42.036  27.740  28.320  1.00  0.00     0.049 A 
ATOM     39  N   UNL A   1      44.206  29.820  28.244  1.00  0.00    -0.248 NA
ATOM     40  C   UNL A   1      42.644  31.411  28.926  1.00  0.00     0.031 C 
ATOM     41  C   UNL A   1      41.010  26.698  28.286  1.00  0.00     0.029 A 
ATOM     42  N   UNL A   1      43.171  27.104  27.881  1.00  0.00    -0.354 N 
ATOM     43  C   UNL A   1      44.811  31.071  28.277  1.00  0.00     0.074 A 
ATOM     44  C   UNL A   1      43.786  32.022  28.645  1.00  0.00     0.031 C 
ATOM     45  C   UNL A   1      41.565  25.548  27.872  1.00  0.00     0.029 A 
ATOM     46  C   UNL A   1      42.982  25.773  27.596  1.00  0.00     0.049 A 
ATOM     47  H   UNL A   1      44.038  27.559  27.780  1.00  0.00     0.167 HD
ATOM     48  C   UNL A   1      46.107  31.396  28.045  1.00  0.00     0.037 A 
ATOM     49  C   UNL A   1      43.850  24.837  27.169  1.00  0.00     0.037 A 
ATOM     50  C   UNL A   1      47.132  30.442  27.710  1.00  0.00     0.049 A 
ATOM     51  C   UNL A   1      45.296  25.202  26.988  1.00  0.00     0.074 A 
ATOM     52  C   UNL A   1      48.490  30.655  27.552  1.00  0.00     0.029 A 
ATOM     53  N   UNL A   1      46.912  29.092  27.475  1.00  0.00    -0.354 N 
ATOM     54  N   UNL A   1      45.874  26.371  27.128  1.00  0.00    -0.248 NA
ATOM     55  C   UNL A   1      46.213  24.116  26.612  1.00  0.00     0.031 C 
ATOM     56  C   UNL A   1      49.085  29.442  27.182  1.00  0.00     0.029 A 
ATOM     57  C   UNL A   1      48.103  28.464  27.151  1.00  0.00     0.049 A 
ATOM     58  H   UNL A   1      46.036  28.647  27.531  1.00  0.00     0.167 HD
ATOM     59  C   UNL A   1      47.223  26.162  26.863  1.00  0.00     0.074 A 
ATOM     60  C   UNL A   1      47.378  24.749  26.582  1.00  0.00     0.031 C 
ATOM     61  C   UNL A   1      48.240  27.060  26.851  1.00  0.00     0.037 A 
BRANCH  48  62
ATOM     62  C   UNL A   1      46.483  32.850  28.148  1.00  0.00     0.058 A 
ATOM     63  C   UNL A   1      47.051  33.386  29.316  1.00  0.00     0.135 A 
ATOM     64  C   UNL A   1      46.278  33.718  27.064  1.00  0.00     0.135 A 
ATOM     65  F   UNL A   1      47.258  32.604  30.387  1.00  0.00    -0.206 F 
ATOM     66  C   UNL A   1      47.360  34.739  29.421  1.00  0.00     0.059 A 
ATOM     67  C   UNL A   1      46.604  35.070  27.138  1.00  0.00     0.059 A 
ATOM     68  F   UNL A   1      45.743  33.259  25.922  1.00  0.00    -0.206 F 
ATOM     69  C   UNL A   1      47.125  35.574  28.329  1.00  0.00     0.060 A 
BRANCH  69  70
ATOM     70  S   UNL A   1      47.507  37.332  28.487  1.00  0.00     0.124 S 
ATOM     71  O   UNL A   1      47.017  37.616  29.832  1.00  0.00    -0.237 OA
ATOM     72  O   UNL A   1      48.957  37.355  28.324  1.00  0.00    -0.237 OA
ATOM     73  O   UNL A   1      46.749  37.943  27.399  1.00  0.00    -0.744 OA
ENDBRANCH  69  70
ENDBRANCH  48  62
BRANCH  49  74
ATOM     74  C   UNL A   1      43.368  23.452  26.927  1.00  0.00     0.058 A 
ATOM     75  C   UNL A   1      43.237  22.947  25.626  1.00  0.00     0.135 A 
ATOM     76  C   UNL A   1      43.088  22.588  27.998  1.00  0.00     0.135 A 
ATOM     77  F   UNL A   1      43.489  23.737  24.572  1.00  0.00    -0.206 F 
ATOM     78  C   UNL A   1      42.846  21.632  25.392  1.00  0.00     0.059 A 
ATOM     79  C   UNL A   1      42.714  21.264  27.789  1.00  0.00     0.059 A 
ATOM     80  F   UNL A   1      43.216  23.021  29.262  1.00  0.00    -0.206 F 
ATOM     81  C   UNL A   1      42.595  20.796  26.481  1.00  0.00     0.060 A 
BRANCH  81  82
ATOM     82  S   UNL A   1      42.182  19.065  26.169  1.00  0.00     0.124 S 
ATOM     83  O   UNL A   1      40.770  19.157  25.822  1.00  0.00    -0.237 OA
ATOM     84  O   UNL A   1      43.089  18.724  25.077  1.00  0.00    -0.237 OA
ATOM     85  O   UNL A   1      42.481  18.417  27.443  1.00  0.00    -0.744 OA
ENDBRANCH  81  82
ENDBRANCH  49  74
BRANCH  61  86
ATOM     86  C   UNL A   1      49.609  26.535  26.520  1.00  0.00     0.058 A 
ATOM     87  C   UNL A   1      50.056  26.440  25.193  1.00  0.00     0.135 A 
ATOM     88  C   UNL A   1      50.487  26.130  27.538  1.00  0.00     0.135 A 
ATOM     89  F   UNL A   1      49.254  26.810  24.181  1.00  0.00    -0.206 F 
ATOM     90  C   UNL A   1      51.311  25.925  24.883  1.00  0.00     0.059 A 
ATOM     91  C   UNL A   1      51.755  25.634  27.253  1.00  0.00     0.059 A 
ATOM     92  F   UNL A   1      50.113  26.211  28.825  1.00  0.00    -0.206 F 
ATOM     93  C   UNL A   1      52.150  25.517  25.920  1.00  0.00     0.060 A 
BRANCH  93  94
ATOM     94  S   UNL A   1      53.774  24.840  25.512  1.00  0.00     0.124 S 
ATOM     95  O   UNL A   1      54.475  24.975  26.784  1.00  0.00    -0.237 OA
ATOM     96  O   UNL A   1      53.455  23.474  25.107  1.00  0.00    -0.237 OA
ATOM     97  O   UNL A   1      54.243  25.712  24.439  1.00  0.00    -0.744 OA
ENDBRANCH  93  94
ENDBRANCH  61  86
ENDBRANCH  35  36
ENDBRANCH  27  30
ENDBRANCH  25  26
ENDBRANCH  24  25
ENDBRANCH  23  24
ENDBRANCH   3  23
TORSDOF 19
ENDMDL
MODEL 2
REMARK VINA RESULT:     -11.1      3.915      6.637
REMARK SMILES C[C@@H](CC(=O)NCCCNC(=O)c1ccc(-c2c3nc(c(-c4c(F)cc(S(=O)(=O)[O-])cc4F)c4ccc([nH]4)c(-c4c(F)cc(S(=O)(=O)[O-])cc4F)c4nc(c(-c5c(F)cc(S(=O)(=O)[O-])cc5F)c5ccc2[nH]5)C=C4)C=C3)cc1)NC(=O)CCCN1C(=O)CN(C)C1=O
REMARK SMILES IDX 4 1 5 2 6 3 3 5 2 6 1 7 79 8 80 9 81 11 82 12 83 13 84 14
REMARK SMILES IDX 85 15 86 16 91 17 87 18 88 19 89 20 92 21 90 22 7 23 8 24
REMARK SMILES IDX 9 25 10 26 11 27 12 29 13 30 14 31 78 32 15 33 77 34 16 35
REMARK SMILES IDX 17 36 18 37 71 38 19 39 76 40 70 41 72 42 20 43 75 44 69 45
REMARK SMILES IDX 68 46 21 48 55 49 34 50 54 51 35 52 38 53 53 54 73 55 36 56
REMARK SMILES IDX 37 57 52 59 74 60 39 61 22 62 23 63 32 64 24 65 25 66 31 67
REMARK SMILES IDX 33 68 26 69 27 70 28 71 29 72 30 73 56 74 57 75 66 76 58 77
REMARK SMILES IDX 59 78 65 79 67 80 60 81 61 82 62 83 63 84 64 85 40 86 41 87
REMARK SMILES IDX 50 88 42 89 43 90 49 91 51 92 44 93 45 94 46 95 47 96 48 97
REMARK H PARENT 6 4 79 10 10 28 72 47 38 58
REMARK Flexibility Score: inf
ROOT
ATOM      1  C   UNL A   1      33.168  35.848  29.109  1.00  0.00     0.222 C 
ATOM      2  O   UNL A   1      32.145  36.432  28.747  1.00  0.00    -0.275 OA
ATOM      3  N   UNL A   1      33.736  34.949  28.259  1.00  0.00    -0.356 N 
ATOM      4  H   UNL A   1      33.280  34.874  27.389  1.00  0.00     0.163 HD
ENDROOT
BRANCH   1   5
ATOM      5  C   UNL A   1      33.791  36.151  30.448  1.00  0.00     0.124 C 
BRANCH   5   6
ATOM      6  C   UNL A   1      32.890  35.957  31.670  1.00  0.00     0.088 C 
ATOM      7  C   UNL A   1      32.977  37.039  32.730  1.00  0.00     0.031 C 
BRANCH   6   8
ATOM      8  N   UNL A   1      32.991  34.669  32.327  1.00  0.00    -0.353 N 
ATOM      9  C   UNL A   1      34.165  34.059  32.688  1.00  0.00     0.220 C 
ATOM     10  H   UNL A   1      32.152  34.197  32.530  1.00  0.00     0.163 HD
ATOM     11  O   UNL A   1      34.179  32.843  32.871  1.00  0.00    -0.275 OA
BRANCH   9  12
ATOM     12  C   UNL A   1      35.405  34.912  32.951  1.00  0.00     0.102 C 
BRANCH  12  13
ATOM     13  C   UNL A   1      36.716  34.511  32.252  1.00  0.00     0.032 C 
BRANCH  13  14
ATOM     14  C   UNL A   1      37.649  33.484  32.944  1.00  0.00     0.131 C 
BRANCH  14  15
ATOM     15  N   UNL A   1      39.017  33.929  33.137  1.00  0.00    -0.263 N 
ATOM     16  C   UNL A   1      39.444  34.738  34.153  1.00  0.00     0.250 C 
ATOM     17  C   UNL A   1      40.048  33.658  32.279  1.00  0.00     0.326 C 
ATOM     18  O   UNL A   1      38.793  35.103  35.121  1.00  0.00    -0.272 OA
ATOM     19  C   UNL A   1      40.863  35.187  33.848  1.00  0.00     0.221 C 
ATOM     20  N   UNL A   1      41.121  34.452  32.635  1.00  0.00    -0.318 N 
ATOM     21  O   UNL A   1      40.020  32.907  31.314  1.00  0.00    -0.248 OA
ATOM     22  C   UNL A   1      42.268  34.711  31.799  1.00  0.00     0.149 C 
ENDBRANCH  14  15
ENDBRANCH  13  14
ENDBRANCH  12  13
ENDBRANCH   9  12
ENDBRANCH   6   8
ENDBRANCH   5   6
ENDBRANCH   1   5
BRANCH   3  23
ATOM     23  C   UNL A   1      34.897  34.075  28.399  1.00  0.00     0.117 C 
BRANCH  23  24
ATOM     24  C   UNL A   1      34.548  32.690  28.954  1.00  0.00     0.042 C 
BRANCH  24  25
ATOM     25  C   UNL A   1      35.735  31.811  29.315  1.00  0.00     0.118 C 
BRANCH  25  26
ATOM     26  N   UNL A   1      35.694  31.382  30.697  1.00  0.00    -0.352 N 
ATOM     27  C   UNL A   1      36.552  30.532  31.354  1.00  0.00     0.251 C 
ATOM     28  H   UNL A   1      34.956  31.746  31.237  1.00  0.00     0.163 HD
ATOM     29  O   UNL A   1      36.231  30.095  32.456  1.00  0.00    -0.269 OA
BRANCH  27  30
ATOM     30  C   UNL A   1      37.842  30.128  30.739  1.00  0.00     0.039 A 
ATOM     31  C   UNL A   1      38.878  29.709  31.580  1.00  0.00     0.014 A 
ATOM     32  C   UNL A   1      38.060  30.201  29.359  1.00  0.00     0.014 A 
ATOM     33  C   UNL A   1      40.116  29.351  31.039  1.00  0.00     0.010 A 
ATOM     34  C   UNL A   1      39.274  29.775  28.814  1.00  0.00     0.010 A 
ATOM     35  C   UNL A   1      40.323  29.370  29.650  1.00  0.00    -0.014 A 
BRANCH  35  36
ATOM     36  C   UNL A   1      41.645  28.991  29.079  1.00  0.00     0.031 A 
ATOM     37  C   UNL A   1      42.750  30.007  28.965  1.00  0.00     0.074 A 
ATOM     38  C   UNL A   1      41.844  27.734  28.637  1.00  0.00     0.049 A 
ATOM     39  N   UNL A   1      43.978  29.849  28.538  1.00  0.00    -0.248 NA
ATOM     40  C   UNL A   1      42.430  31.389  29.355  1.00  0.00     0.031 C 
ATOM     41  C   UNL A   1      40.831  26.678  28.612  1.00  0.00     0.029 A 
ATOM     42  N   UNL A   1      42.964  27.133  28.120  1.00  0.00    -0.354 N 
ATOM     43  C   UNL A   1      44.567  31.107  28.590  1.00  0.00     0.074 A 
ATOM     44  C   UNL A   1      43.549  32.027  29.044  1.00  0.00     0.031 C 
ATOM     45  C   UNL A   1      41.381  25.554  28.127  1.00  0.00     0.029 A 
ATOM     46  C   UNL A   1      42.779  25.812  27.792  1.00  0.00     0.049 A 
ATOM     47  H   UNL A   1      43.819  27.605  27.995  1.00  0.00     0.167 HD
ATOM     48  C   UNL A   1      45.846  31.461  28.309  1.00  0.00     0.037 A 
ATOM     49  C   UNL A   1      43.638  24.906  27.288  1.00  0.00     0.037 A 
ATOM     50  C   UNL A   1      46.866  30.537  27.887  1.00  0.00     0.049 A 
ATOM     51  C   UNL A   1      45.069  25.300  27.051  1.00  0.00     0.074 A 
ATOM     52  C   UNL A   1      48.212  30.777  27.672  1.00  0.00     0.029 A 
ATOM     53  N   UNL A   1      46.653  29.193  27.611  1.00  0.00    -0.354 N 
ATOM     54  N   UNL A   1      45.637  26.472  27.208  1.00  0.00    -0.248 NA
ATOM     55  C   UNL A   1      45.981  24.244  26.589  1.00  0.00     0.031 C 
ATOM     56  C   UNL A   1      48.804  29.587  27.227  1.00  0.00     0.029 A 
ATOM     57  C   UNL A   1      47.836  28.597  27.205  1.00  0.00     0.049 A 
ATOM     58  H   UNL A   1      45.787  28.732  27.692  1.00  0.00     0.167 HD
ATOM     59  C   UNL A   1      46.974  26.294  26.871  1.00  0.00     0.074 A 
ATOM     60  C   UNL A   1      47.134  24.895  26.527  1.00  0.00     0.031 C 
ATOM     61  C   UNL A   1      47.977  27.208  26.844  1.00  0.00     0.037 A 
BRANCH  48  62
ATOM     62  C   UNL A   1      46.207  32.916  28.449  1.00  0.00     0.058 A 
ATOM     63  C   UNL A   1      46.688  33.444  29.659  1.00  0.00     0.135 A 
ATOM     64  C   UNL A   1      46.075  33.792  27.361  1.00  0.00     0.135 A 
ATOM     65  F   UNL A   1      46.822  32.654  30.736  1.00  0.00    -0.206 F 
ATOM     66  C   UNL A   1      46.982  34.797  29.797  1.00  0.00     0.059 A 
ATOM     67  C   UNL A   1      46.388  35.144  27.469  1.00  0.00     0.059 A 
ATOM     68  F   UNL A   1      45.624  33.340  26.180  1.00  0.00    -0.206 F 
ATOM     69  C   UNL A   1      46.821  35.641  28.698  1.00  0.00     0.060 A 
BRANCH  69  70
ATOM     70  S   UNL A   1      47.183  37.399  28.896  1.00  0.00     0.124 S 
ATOM     71  O   UNL A   1      47.326  37.824  27.507  1.00  0.00    -0.237 OA
ATOM     72  O   UNL A   1      45.995  37.888  29.588  1.00  0.00    -0.237 OA
ATOM     73  O   UNL A   1      48.411  37.405  29.686  1.00  0.00    -0.744 OA
ENDBRANCH  69  70
ENDBRANCH  48  62
BRANCH  49  74
ATOM     74  C   UNL A   1      43.164  23.524  27.015  1.00  0.00     0.058 A 
ATOM     75  C   UNL A   1      42.899  23.093  25.708  1.00  0.00     0.135 A 
ATOM     76  C   UNL A   1      43.026  22.590  28.055  1.00  0.00     0.135 A 
ATOM     77  F   UNL A   1      43.012  23.950  24.683  1.00  0.00    -0.206 F 
ATOM     78  C   UNL A   1      42.514  21.783  25.438  1.00  0.00     0.059 A 
ATOM     79  C   UNL A   1      42.662  21.271  27.807  1.00  0.00     0.059 A 
ATOM     80  F   UNL A   1      43.286  22.952  29.322  1.00  0.00    -0.206 F 
ATOM     81  C   UNL A   1      42.406  20.877  26.495  1.00  0.00     0.060 A 
BRANCH  81  82
ATOM     82  S   UNL A   1      42.001  19.156  26.124  1.00  0.00     0.124 S 
ATOM     83  O   UNL A   1      42.880  18.884  24.993  1.00  0.00    -0.237 OA
ATOM     84  O   UNL A   1      42.340  18.483  27.374  1.00  0.00    -0.237 OA
ATOM     85  O   UNL A   1      40.574  19.208  25.820  1.00  0.00    -0.744 OA
ENDBRANCH  81  82
ENDBRANCH  49  74
BRANCH  61  86
ATOM     86  C   UNL A   1      49.335  26.717  26.428  1.00  0.00     0.058 A 
ATOM     87  C   UNL A   1      50.189  26.068  27.334  1.00  0.00     0.135 A 
ATOM     88  C   UNL A   1      49.785  26.887  25.109  1.00  0.00     0.135 A 
ATOM     89  F   UNL A   1      49.809  25.885  28.608  1.00  0.00    -0.206 F 
ATOM     90  C   UNL A   1      51.459  25.641  26.958  1.00  0.00     0.059 A 
ATOM     91  C   UNL A   1      51.042  26.445  24.705  1.00  0.00     0.059 A 
ATOM     92  F   UNL A   1      49.003  27.489  24.199  1.00  0.00    -0.206 F 
ATOM     93  C   UNL A   1      51.879  25.841  25.643  1.00  0.00     0.060 A 
BRANCH  93  94
ATOM     94  S   UNL A   1      53.531  25.293  25.164  1.00  0.00     0.124 S 
ATOM     95  O   UNL A   1      53.569  25.675  23.756  1.00  0.00    -0.237 OA
ATOM     96  O   UNL A   1      54.392  26.067  26.053  1.00  0.00    -0.237 OA
ATOM     97  O   UNL A   1      53.500  23.857  25.425  1.00  0.00    -0.744 OA
ENDBRANCH  93  94
ENDBRANCH  61  86
ENDBRANCH  35  36
ENDBRANCH  27  30
ENDBRANCH  25  26
ENDBRANCH  24  25
ENDBRANCH  23  24
ENDBRANCH   3  23
TORSDOF 19
ENDMDL
MODEL 3
REMARK VINA RESULT:     -11.0      6.452     12.307
REMARK SMILES C[C@@H](CC(=O)NCCCNC(=O)c1ccc(-c2c3nc(c(-c4c(F)cc(S(=O)(=O)[O-])cc4F)c4ccc([nH]4)c(-c4c(F)cc(S(=O)(=O)[O-])cc4F)c4nc(c(-c5c(F)cc(S(=O)(=O)[O-])cc5F)c5ccc2[nH]5)C=C4)C=C3)cc1)NC(=O)CCCN1C(=O)CN(C)C1=O
REMARK SMILES IDX 4 1 5 2 6 3 3 5 2 6 1 7 79 8 80 9 81 11 82 12 83 13 84 14
REMARK SMILES IDX 85 15 86 16 91 17 87 18 88 19 89 20 92 21 90 22 7 23 8 24
REMARK SMILES IDX 9 25 10 26 11 27 12 29 13 30 14 31 78 32 15 33 77 34 16 35
REMARK SMILES IDX 17 36 18 37 71 38 19 39 76 40 70 41 72 42 20 43 75 44 69 45
REMARK SMILES IDX 68 46 21 48 55 49 34 50 54 51 35 52 38 53 53 54 73 55 36 56
REMARK SMILES IDX 37 57 52 59 74 60 39 61 22 62 23 63 32 64 24 65 25 66 31 67
REMARK SMILES IDX 33 68 26 69 27 70 28 71 29 72 30 73 56 74 57 75 66 76 58 77
REMARK SMILES IDX 59 78 65 79 67 80 60 81 61 82 62 83 63 84 64 85 40 86 41 87
REMARK SMILES IDX 50 88 42 89 43 90 49 91 51 92 44 93 45 94 46 95 47 96 48 97
REMARK H PARENT 6 4 79 10 10 28 72 47 38 58
REMARK Flexibility Score: inf
ROOT
ATOM      1  C   UNL A   1      36.524  23.278  25.655  1.00  0.00     0.222 C 
ATOM      2  O   UNL A   1      36.165  24.426  25.386  1.00  0.00    -0.275 OA
ATOM      3  N   UNL A   1      37.847  22.973  25.553  1.00  0.00    -0.356 N 
ATOM      4  H   UNL A   1      38.418  23.734  25.301  1.00  0.00     0.163 HD
ENDROOT
BRANCH   1   5
ATOM      5  C   UNL A   1      35.523  22.250  26.118  1.00  0.00     0.124 C 
BRANCH   5   6
ATOM      6  C   UNL A   1      34.453  21.846  25.101  1.00  0.00     0.088 C 
ATOM      7  C   UNL A   1      34.169  20.359  25.001  1.00  0.00     0.031 C 
BRANCH   6   8
ATOM      8  N   UNL A   1      34.631  22.365  23.760  1.00  0.00    -0.353 N 
ATOM      9  C   UNL A   1      33.793  23.259  23.144  1.00  0.00     0.220 C 
ATOM     10  H   UNL A   1      35.415  22.053  23.253  1.00  0.00     0.163 HD
ATOM     11  O   UNL A   1      33.796  23.338  21.916  1.00  0.00    -0.275 OA
BRANCH   9  12
ATOM     12  C   UNL A   1      32.945  24.204  23.994  1.00  0.00     0.102 C 
BRANCH  12  13
ATOM     13  C   UNL A   1      32.919  25.693  23.607  1.00  0.00     0.032 C 
BRANCH  13  14
ATOM     14  C   UNL A   1      31.680  26.543  23.988  1.00  0.00     0.131 C 
BRANCH  14  15
ATOM     15  N   UNL A   1      31.829  27.344  25.190  1.00  0.00    -0.263 N 
ATOM     16  C   UNL A   1      31.461  26.952  26.446  1.00  0.00     0.250 C 
ATOM     17  C   UNL A   1      32.290  28.633  25.208  1.00  0.00     0.326 C 
ATOM     18  O   UNL A   1      31.080  25.840  26.784  1.00  0.00    -0.272 OA
ATOM     19  C   UNL A   1      31.526  28.159  27.367  1.00  0.00     0.221 C 
ATOM     20  N   UNL A   1      32.045  29.155  26.463  1.00  0.00    -0.318 N 
ATOM     21  O   UNL A   1      32.766  29.254  24.269  1.00  0.00    -0.248 OA
ATOM     22  C   UNL A   1      32.074  30.560  26.790  1.00  0.00     0.149 C 
ENDBRANCH  14  15
ENDBRANCH  13  14
ENDBRANCH  12  13
ENDBRANCH   9  12
ENDBRANCH   6   8
ENDBRANCH   5   6
ENDBRANCH   1   5
BRANCH   3  23
ATOM     23  C   UNL A   1      38.576  21.723  25.750  1.00  0.00     0.117 C 
BRANCH  23  24
ATOM     24  C   UNL A   1      39.896  21.906  26.507  1.00  0.00     0.042 C 
BRANCH  24  25
ATOM     25  C   UNL A   1      40.225  23.334  26.913  1.00  0.00     0.118 C 
BRANCH  25  26
ATOM     26  N   UNL A   1      41.290  23.896  26.110  1.00  0.00    -0.352 N 
ATOM     27  C   UNL A   1      41.833  25.157  26.173  1.00  0.00     0.251 C 
ATOM     28  H   UNL A   1      41.675  23.298  25.430  1.00  0.00     0.163 HD
ATOM     29  O   UNL A   1      42.564  25.539  25.263  1.00  0.00    -0.269 OA
BRANCH  27  30
ATOM     30  C   UNL A   1      41.532  26.060  27.314  1.00  0.00     0.039 A 
ATOM     31  C   UNL A   1      42.388  27.139  27.553  1.00  0.00     0.014 A 
ATOM     32  C   UNL A   1      40.453  25.831  28.175  1.00  0.00     0.014 A 
ATOM     33  C   UNL A   1      42.154  27.991  28.636  1.00  0.00     0.010 A 
ATOM     34  C   UNL A   1      40.178  26.725  29.213  1.00  0.00     0.010 A 
ATOM     35  C   UNL A   1      41.040  27.799  29.471  1.00  0.00    -0.014 A 
BRANCH  35  36
ATOM     36  C   UNL A   1      40.797  28.707  30.625  1.00  0.00     0.031 A 
ATOM     37  C   UNL A   1      41.596  28.566  31.893  1.00  0.00     0.074 A 
ATOM     38  C   UNL A   1      39.834  29.647  30.542  1.00  0.00     0.049 A 
ATOM     39  N   UNL A   1      41.555  29.293  32.982  1.00  0.00    -0.248 NA
ATOM     40  C   UNL A   1      42.547  27.446  31.961  1.00  0.00     0.031 C 
ATOM     41  C   UNL A   1      38.934  29.833  29.404  1.00  0.00     0.029 A 
ATOM     42  N   UNL A   1      39.451  30.617  31.433  1.00  0.00    -0.354 N 
ATOM     43  C   UNL A   1      42.455  28.711  33.866  1.00  0.00     0.074 A 
ATOM     44  C   UNL A   1      42.993  27.541  33.206  1.00  0.00     0.031 C 
ATOM     45  C   UNL A   1      38.118  30.869  29.656  1.00  0.00     0.029 A 
ATOM     46  C   UNL A   1      38.425  31.410  30.977  1.00  0.00     0.049 A 
ATOM     47  H   UNL A   1      39.871  30.734  32.315  1.00  0.00     0.167 HD
ATOM     48  C   UNL A   1      42.820  29.123  35.105  1.00  0.00     0.037 A 
ATOM     49  C   UNL A   1      37.807  32.459  31.552  1.00  0.00     0.037 A 
ATOM     50  C   UNL A   1      42.307  30.305  35.747  1.00  0.00     0.049 A 
ATOM     51  C   UNL A   1      38.275  32.945  32.894  1.00  0.00     0.074 A 
ATOM     52  C   UNL A   1      42.683  30.862  36.957  1.00  0.00     0.029 A 
ATOM     53  N   UNL A   1      41.301  31.112  35.233  1.00  0.00    -0.354 N 
ATOM     54  N   UNL A   1      39.205  32.444  33.672  1.00  0.00    -0.248 NA
ATOM     55  C   UNL A   1      37.626  34.150  33.428  1.00  0.00     0.031 C 
ATOM     56  C   UNL A   1      41.877  31.984  37.193  1.00  0.00     0.029 A 
ATOM     57  C   UNL A   1      41.027  32.148  36.111  1.00  0.00     0.049 A 
ATOM     58  H   UNL A   1      40.849  30.968  34.371  1.00  0.00     0.167 HD
ATOM     59  C   UNL A   1      39.258  33.276  34.785  1.00  0.00     0.074 A 
ATOM     60  C   UNL A   1      38.285  34.327  34.565  1.00  0.00     0.031 C 
ATOM     61  C   UNL A   1      40.039  33.176  35.891  1.00  0.00     0.037 A 
BRANCH  48  62
ATOM     62  C   UNL A   1      43.826  28.282  35.845  1.00  0.00     0.058 A 
ATOM     63  C   UNL A   1      43.430  27.260  36.724  1.00  0.00     0.135 A 
ATOM     64  C   UNL A   1      45.202  28.497  35.671  1.00  0.00     0.135 A 
ATOM     65  F   UNL A   1      42.127  27.019  36.939  1.00  0.00    -0.206 F 
ATOM     66  C   UNL A   1      44.362  26.512  37.438  1.00  0.00     0.059 A 
ATOM     67  C   UNL A   1      46.152  27.742  36.354  1.00  0.00     0.059 A 
ATOM     68  F   UNL A   1      45.636  29.457  34.839  1.00  0.00    -0.206 F 
ATOM     69  C   UNL A   1      45.721  26.766  37.252  1.00  0.00     0.060 A 
BRANCH  69  70
ATOM     70  S   UNL A   1      46.919  25.805  38.201  1.00  0.00     0.124 S 
ATOM     71  O   UNL A   1      46.101  24.681  38.646  1.00  0.00    -0.237 OA
ATOM     72  O   UNL A   1      47.935  25.493  37.202  1.00  0.00    -0.237 OA
ATOM     73  O   UNL A   1      47.340  26.730  39.249  1.00  0.00    -0.744 OA
ENDBRANCH  69  70
ENDBRANCH  48  62
BRANCH  49  74
ATOM     74  C   UNL A   1      36.703  33.141  30.827  1.00  0.00     0.058 A 
ATOM     75  C   UNL A   1      36.968  34.075  29.816  1.00  0.00     0.135 A 
ATOM     76  C   UNL A   1      35.361  32.825  31.095  1.00  0.00     0.135 A 
ATOM     77  F   UNL A   1      38.234  34.412  29.529  1.00  0.00    -0.206 F 
ATOM     78  C   UNL A   1      35.941  34.672  29.091  1.00  0.00     0.059 A 
ATOM     79  C   UNL A   1      34.320  33.395  30.370  1.00  0.00     0.059 A 
ATOM     80  F   UNL A   1      35.060  31.924  32.043  1.00  0.00    -0.206 F 
ATOM     81  C   UNL A   1      34.619  34.319  29.370  1.00  0.00     0.060 A 
BRANCH  81  82
ATOM     82  S   UNL A   1      33.300  35.026  28.359  1.00  0.00     0.124 S 
ATOM     83  O   UNL A   1      34.059  35.671  27.294  1.00  0.00    -0.237 OA
ATOM     84  O   UNL A   1      32.537  33.841  27.975  1.00  0.00    -0.237 OA
ATOM     85  O   UNL A   1      32.617  35.925  29.285  1.00  0.00    -0.744 OA
ENDBRANCH  81  82
ENDBRANCH  49  74
BRANCH  61  86
ATOM     86  C   UNL A   1      39.867  34.234  36.944  1.00  0.00     0.058 A 
ATOM     87  C   UNL A   1      40.511  35.478  36.845  1.00  0.00     0.135 A 
ATOM     88  C   UNL A   1      39.046  34.008  38.060  1.00  0.00     0.135 A 
ATOM     89  F   UNL A   1      41.311  35.743  35.800  1.00  0.00    -0.206 F 
ATOM     90  C   UNL A   1      40.378  36.447  37.835  1.00  0.00     0.059 A 
ATOM     91  C   UNL A   1      38.879  34.972  39.049  1.00  0.00     0.059 A 
ATOM     92  F   UNL A   1      38.398  32.840  38.197  1.00  0.00    -0.206 F 
ATOM     93  C   UNL A   1      39.565  36.180  38.937  1.00  0.00     0.060 A 
BRANCH  93  94
ATOM     94  S   UNL A   1      39.404  37.438  40.223  1.00  0.00     0.124 S 
ATOM     95  O   UNL A   1      40.786  37.877  40.378  1.00  0.00    -0.237 OA
ATOM     96  O   UNL A   1      38.498  38.404  39.609  1.00  0.00    -0.237 OA
ATOM     97  O   UNL A   1      38.849  36.698  41.353  1.00  0.00    -0.744 OA
ENDBRANCH  93  94
ENDBRANCH  61  86
ENDBRANCH  35  36
ENDBRANCH  27  30
ENDBRANCH  25  26
ENDBRANCH  24  25
ENDBRANCH  23  24
ENDBRANCH   3  23
TORSDOF 19
ENDMDL
