MODEL 1
REMARK VINA RESULT:     -11.2      0.000      0.000
REMARK SMILES COc1ncccc1C[N@@H+]1CCC[C@H]1C(=O)NCCCNC(=O)c1ccc(-c2c3nc(c(-c4c(F)cc(S(=O)(=O)[O-])cc4F)c4ccc([nH]4)c(-c4c(F)cc(S(=O)(=O)[O-])cc4F)c4nc(c(-c5c(F)cc(S(=O)(=O)[O-])cc5F)c5ccc2[nH]5)C=C4)C=C3)cc1
REMARK SMILES IDX 19 1 18 2 17 3 15 4 16 5 14 7 10 8 11 9 12 11 13 12 9 13
REMARK SMILES IDX 8 14 3 15 4 16 5 17 7 18 6 19 2 20 1 21 20 22 21 23 22 24
REMARK SMILES IDX 23 26 24 27 25 28 89 29 26 30 88 31 27 32 28 33 29 34 82 35
REMARK SMILES IDX 30 36 87 37 81 38 83 39 31 40 86 41 80 42 79 43 32 45 66 46
REMARK SMILES IDX 45 47 65 48 46 49 49 50 64 51 84 52 47 53 48 54 63 56 85 57
REMARK SMILES IDX 50 58 33 59 34 60 43 61 35 62 36 63 42 64 44 65 37 66 38 67
REMARK SMILES IDX 39 68 40 69 41 70 67 71 68 72 77 73 69 74 70 75 76 76 78 77
REMARK SMILES IDX 71 78 72 79 73 80 74 81 75 82 51 83 52 84 61 85 53 86 54 87
REMARK SMILES IDX 60 88 62 89 55 90 56 91 57 92 58 93 59 94
REMARK H PARENT 17 6 10 10 21 25 83 44 49 55
REMARK Flexibility Score: inf
ROOT
ATOM      1  C   UNL A   1      35.199  33.246  28.079  1.00  0.00     0.042 C 
ENDROOT
BRANCH   1   2
ATOM      2  C   UNL A   1      34.329  33.631  29.260  1.00  0.00     0.118 C 
BRANCH   2   3
ATOM      3  N   UNL A   1      33.818  34.982  29.129  1.00  0.00    -0.351 N 
ATOM      4  C   UNL A   1      33.160  35.751  30.044  1.00  0.00     0.278 C 
ATOM      5  O   UNL A   1      32.742  36.848  29.664  1.00  0.00    -0.268 OA
ATOM      6  H   UNL A   1      33.968  35.404  28.252  1.00  0.00     0.163 HD
BRANCH   4   7
ATOM      7  C   UNL A   1      32.946  35.216  31.486  1.00  0.00     0.274 C 
ATOM      8  N   UNL A   1      34.237  35.276  32.199  1.00  0.00    -0.321 N 
ATOM      9  C   UNL A   1      34.328  36.627  32.734  1.00  0.00     0.263 C 
ATOM     10  H   UNL A   1      35.010  35.113  31.555  1.00  0.00     0.349 HD
ATOM     11  C   UNL A   1      32.919  36.976  33.175  1.00  0.00     0.068 C 
ATOM     12  C   UNL A   1      32.009  36.138  32.280  1.00  0.00     0.081 C 
BRANCH   8  13
ATOM     13  C   UNL A   1      34.542  34.162  33.106  1.00  0.00     0.305 C 
BRANCH  13  14
ATOM     14  C   UNL A   1      35.934  34.056  33.657  1.00  0.00     0.068 A 
ATOM     15  C   UNL A   1      37.050  34.163  32.830  1.00  0.00     0.221 A 
ATOM     16  N   UNL A   1      38.327  34.169  33.269  1.00  0.00    -0.222 NA
ATOM     17  C   UNL A   1      38.499  34.022  34.603  1.00  0.00     0.115 A 
ATOM     18  C   UNL A   1      36.161  33.863  35.023  1.00  0.00     0.017 A 
ATOM     19  C   UNL A   1      37.463  33.844  35.507  1.00  0.00     0.021 A 
BRANCH  15  20
ATOM     20  O   UNL A   1      36.839  34.128  31.470  1.00  0.00    -0.481 OA
ATOM     21  C   UNL A   1      38.042  33.917  30.747  1.00  0.00     0.280 C 
ENDBRANCH  15  20
ENDBRANCH  13  14
ENDBRANCH   8  13
ENDBRANCH   4   7
ENDBRANCH   2   3
ENDBRANCH   1   2
BRANCH   1  22
ATOM     22  C   UNL A   1      35.857  31.890  28.255  1.00  0.00     0.118 C 
BRANCH  22  23
ATOM     23  N   UNL A   1      35.619  31.328  29.579  1.00  0.00    -0.352 N 
ATOM     24  C   UNL A   1      36.422  30.515  30.342  1.00  0.00     0.251 C 
ATOM     25  H   UNL A   1      34.755  31.567  29.987  1.00  0.00     0.163 HD
ATOM     26  O   UNL A   1      35.969  29.967  31.337  1.00  0.00    -0.269 OA
BRANCH  24  27
ATOM     27  C   UNL A   1      37.824  30.294  29.932  1.00  0.00     0.039 A 
ATOM     28  C   UNL A   1      38.817  30.260  30.911  1.00  0.00     0.014 A 
ATOM     29  C   UNL A   1      38.149  30.093  28.589  1.00  0.00     0.014 A 
ATOM     30  C   UNL A   1      40.128  29.947  30.548  1.00  0.00     0.010 A 
ATOM     31  C   UNL A   1      39.429  29.679  28.243  1.00  0.00     0.010 A 
ATOM     32  C   UNL A   1      40.435  29.607  29.218  1.00  0.00    -0.014 A 
BRANCH  32  33
ATOM     33  C   UNL A   1      41.797  29.167  28.829  1.00  0.00     0.031 A 
ATOM     34  C   UNL A   1      42.917  30.169  28.741  1.00  0.00     0.074 A 
ATOM     35  C   UNL A   1      42.004  27.879  28.485  1.00  0.00     0.049 A 
ATOM     36  N   UNL A   1      44.152  29.990  28.351  1.00  0.00    -0.248 NA
ATOM     37  C   UNL A   1      42.602  31.560  29.110  1.00  0.00     0.031 C 
ATOM     38  C   UNL A   1      40.979  26.831  28.469  1.00  0.00     0.029 A 
ATOM     39  N   UNL A   1      43.141  27.233  28.068  1.00  0.00    -0.354 N 
ATOM     40  C   UNL A   1      44.753  31.242  28.408  1.00  0.00     0.074 A 
ATOM     41  C   UNL A   1      43.737  32.182  28.825  1.00  0.00     0.031 C 
ATOM     42  C   UNL A   1      41.538  25.673  28.081  1.00  0.00     0.029 A 
ATOM     43  C   UNL A   1      42.947  25.902  27.778  1.00  0.00     0.049 A 
ATOM     44  H   UNL A   1      44.014  27.680  27.984  1.00  0.00     0.167 HD
ATOM     45  C   UNL A   1      46.041  31.571  28.157  1.00  0.00     0.037 A 
ATOM     46  C   UNL A   1      43.801  24.975  27.302  1.00  0.00     0.037 A 
ATOM     47  C   UNL A   1      47.053  30.620  27.781  1.00  0.00     0.049 A 
ATOM     48  C   UNL A   1      45.232  25.368  27.044  1.00  0.00     0.074 A 
ATOM     49  C   UNL A   1      48.406  30.839  27.591  1.00  0.00     0.029 A 
ATOM     50  N   UNL A   1      46.827  29.274  27.530  1.00  0.00    -0.354 N 
ATOM     51  N   UNL A   1      45.804  26.539  27.196  1.00  0.00    -0.248 NA
ATOM     52  C   UNL A   1      46.135  24.316  26.560  1.00  0.00     0.031 C 
ATOM     53  C   UNL A   1      48.987  29.641  27.166  1.00  0.00     0.029 A 
ATOM     54  C   UNL A   1      48.008  28.659  27.154  1.00  0.00     0.049 A 
ATOM     55  H   UNL A   1      45.955  28.824  27.609  1.00  0.00     0.167 HD
ATOM     56  C   UNL A   1      47.138  26.357  26.849  1.00  0.00     0.074 A 
ATOM     57  C   UNL A   1      47.292  24.960  26.501  1.00  0.00     0.031 C 
ATOM     58  C   UNL A   1      48.146  27.264  26.819  1.00  0.00     0.037 A 
BRANCH  45  59
ATOM     59  C   UNL A   1      46.444  33.014  28.284  1.00  0.00     0.058 A 
ATOM     60  C   UNL A   1      47.025  33.522  29.457  1.00  0.00     0.135 A 
ATOM     61  C   UNL A   1      46.327  33.881  27.185  1.00  0.00     0.135 A 
ATOM     62  F   UNL A   1      47.143  32.744  30.545  1.00  0.00    -0.206 F 
ATOM     63  C   UNL A   1      47.470  34.837  29.538  1.00  0.00     0.059 A 
ATOM     64  C   UNL A   1      46.791  35.191  27.233  1.00  0.00     0.059 A 
ATOM     65  F   UNL A   1      45.773  33.449  26.040  1.00  0.00    -0.206 F 
ATOM     66  C   UNL A   1      47.357  35.662  28.416  1.00  0.00     0.060 A 
BRANCH  66  67
ATOM     67  S   UNL A   1      47.990  37.348  28.524  1.00  0.00     0.124 S 
ATOM     68  O   UNL A   1      48.725  37.466  27.268  1.00  0.00    -0.237 OA
ATOM     69  O   UNL A   1      46.764  38.135  28.615  1.00  0.00    -0.237 OA
ATOM     70  O   UNL A   1      48.811  37.328  29.731  1.00  0.00    -0.744 OA
ENDBRANCH  66  67
ENDBRANCH  45  59
BRANCH  46  71
ATOM     71  C   UNL A   1      43.329  23.590  27.028  1.00  0.00     0.058 A 
ATOM     72  C   UNL A   1      43.148  22.663  28.065  1.00  0.00     0.135 A 
ATOM     73  C   UNL A   1      43.067  23.160  25.718  1.00  0.00     0.135 A 
ATOM     74  F   UNL A   1      43.387  23.023  29.337  1.00  0.00    -0.206 F 
ATOM     75  C   UNL A   1      42.757  21.351  27.813  1.00  0.00     0.059 A 
ATOM     76  C   UNL A   1      42.645  21.863  25.443  1.00  0.00     0.059 A 
ATOM     77  F   UNL A   1      43.204  24.011  24.689  1.00  0.00    -0.206 F 
ATOM     78  C   UNL A   1      42.510  20.961  26.496  1.00  0.00     0.060 A 
BRANCH  78  79
ATOM     79  S   UNL A   1      41.988  19.262  26.178  1.00  0.00     0.124 S 
ATOM     80  O   UNL A   1      42.360  18.603  27.425  1.00  0.00    -0.237 OA
ATOM     81  O   UNL A   1      40.558  19.419  25.940  1.00  0.00    -0.237 OA
ATOM     82  O   UNL A   1      42.774  18.885  25.006  1.00  0.00    -0.744 OA
ENDBRANCH  78  79
ENDBRANCH  46  71
BRANCH  58  83
ATOM     83  C   UNL A   1      49.513  26.772  26.429  1.00  0.00     0.058 A 
ATOM     84  C   UNL A   1      50.318  26.044  27.319  1.00  0.00     0.135 A 
ATOM     85  C   UNL A   1      50.001  26.988  25.129  1.00  0.00     0.135 A 
ATOM     86  F   UNL A   1      49.903  25.815  28.574  1.00  0.00    -0.206 F 
ATOM     87  C   UNL A   1      51.569  25.566  26.940  1.00  0.00     0.059 A 
ATOM     88  C   UNL A   1      51.233  26.492  24.720  1.00  0.00     0.059 A 
ATOM     89  F   UNL A   1      49.265  27.670  24.236  1.00  0.00    -0.206 F 
ATOM     90  C   UNL A   1      52.016  25.793  25.637  1.00  0.00     0.060 A 
BRANCH  90  91
ATOM     91  S   UNL A   1      53.626  25.138  25.151  1.00  0.00     0.124 S 
ATOM     92  O   UNL A   1      53.677  25.504  23.739  1.00  0.00    -0.237 OA
ATOM     93  O   UNL A   1      54.537  25.866  26.028  1.00  0.00    -0.237 OA
ATOM     94  O   UNL A   1      53.509  23.708  25.424  1.00  0.00    -0.744 OA
ENDBRANCH  90  91
ENDBRANCH  58  83
ENDBRANCH  32  33
ENDBRANCH  24  27
ENDBRANCH  22  23
ENDBRANCH   1  22
TORSDOF 16
ENDMDL
MODEL 2
REMARK VINA RESULT:     -10.9      3.532      5.602
REMARK SMILES COc1ncccc1C[N@@H+]1CCC[C@H]1C(=O)NCCCNC(=O)c1ccc(-c2c3nc(c(-c4c(F)cc(S(=O)(=O)[O-])cc4F)c4ccc([nH]4)c(-c4c(F)cc(S(=O)(=O)[O-])cc4F)c4nc(c(-c5c(F)cc(S(=O)(=O)[O-])cc5F)c5ccc2[nH]5)C=C4)C=C3)cc1
REMARK SMILES IDX 19 1 18 2 17 3 15 4 16 5 14 7 10 8 11 9 12 11 13 12 9 13
REMARK SMILES IDX 8 14 3 15 4 16 5 17 7 18 6 19 2 20 1 21 20 22 21 23 22 24
REMARK SMILES IDX 23 26 24 27 25 28 89 29 26 30 88 31 27 32 28 33 29 34 82 35
REMARK SMILES IDX 30 36 87 37 81 38 83 39 31 40 86 41 80 42 79 43 32 45 66 46
REMARK SMILES IDX 45 47 65 48 46 49 49 50 64 51 84 52 47 53 48 54 63 56 85 57
REMARK SMILES IDX 50 58 33 59 34 60 43 61 35 62 36 63 42 64 44 65 37 66 38 67
REMARK SMILES IDX 39 68 40 69 41 70 67 71 68 72 77 73 69 74 70 75 76 76 78 77
REMARK SMILES IDX 71 78 72 79 73 80 74 81 75 82 51 83 52 84 61 85 53 86 54 87
REMARK SMILES IDX 60 88 62 89 55 90 56 91 57 92 58 93 59 94
REMARK H PARENT 17 6 10 10 21 25 83 44 49 55
REMARK Flexibility Score: inf
ROOT
ATOM      1  C   UNL A   1      34.648  30.848  27.464  1.00  0.00     0.042 C 
ENDROOT
BRANCH   1   2
ATOM      2  C   UNL A   1      34.663  29.335  27.570  1.00  0.00     0.118 C 
BRANCH   2   3
ATOM      3  N   UNL A   1      33.346  28.809  27.875  1.00  0.00    -0.351 N 
ATOM      4  C   UNL A   1      32.320  28.500  27.029  1.00  0.00     0.278 C 
ATOM      5  O   UNL A   1      31.254  28.148  27.540  1.00  0.00    -0.268 OA
ATOM      6  H   UNL A   1      33.167  28.652  28.830  1.00  0.00     0.163 HD
BRANCH   4   7
ATOM      7  C   UNL A   1      32.524  28.629  25.495  1.00  0.00     0.274 C 
ATOM      8  N   UNL A   1      32.445  27.279  24.903  1.00  0.00    -0.321 N 
ATOM      9  C   UNL A   1      31.028  27.031  24.676  1.00  0.00     0.263 C 
ATOM     10  H   UNL A   1      32.812  26.582  25.550  1.00  0.00     0.349 HD
ATOM     11  C   UNL A   1      30.459  28.362  24.222  1.00  0.00     0.068 C 
ATOM     12  C   UNL A   1      31.370  29.413  24.852  1.00  0.00     0.081 C 
BRANCH   8  13
ATOM     13  C   UNL A   1      33.373  26.986  23.803  1.00  0.00     0.305 C 
BRANCH  13  14
ATOM     14  C   UNL A   1      33.660  25.549  23.480  1.00  0.00     0.068 A 
ATOM     15  C   UNL A   1      33.201  24.967  22.301  1.00  0.00     0.221 A 
ATOM     16  N   UNL A   1      33.498  23.710  21.904  1.00  0.00    -0.222 NA
ATOM     17  C   UNL A   1      34.264  22.984  22.751  1.00  0.00     0.115 A 
ATOM     18  C   UNL A   1      34.412  24.746  24.344  1.00  0.00     0.017 A 
ATOM     19  C   UNL A   1      34.720  23.442  23.977  1.00  0.00     0.021 A 
BRANCH  15  20
ATOM     20  O   UNL A   1      32.281  25.673  21.559  1.00  0.00    -0.481 OA
ATOM     21  C   UNL A   1      32.527  25.574  20.165  1.00  0.00     0.280 C 
ENDBRANCH  15  20
ENDBRANCH  13  14
ENDBRANCH   8  13
ENDBRANCH   4   7
ENDBRANCH   2   3
ENDBRANCH   1   2
BRANCH   1  22
ATOM     22  C   UNL A   1      35.691  31.506  28.349  1.00  0.00     0.118 C 
BRANCH  22  23
ATOM     23  N   UNL A   1      35.533  31.142  29.752  1.00  0.00    -0.352 N 
ATOM     24  C   UNL A   1      36.405  30.491  30.590  1.00  0.00     0.251 C 
ATOM     25  H   UNL A   1      34.674  31.401  30.158  1.00  0.00     0.163 HD
ATOM     26  O   UNL A   1      36.019  30.081  31.676  1.00  0.00    -0.269 OA
BRANCH  24  27
ATOM     27  C   UNL A   1      37.800  30.274  30.155  1.00  0.00     0.039 A 
ATOM     28  C   UNL A   1      38.810  30.235  31.117  1.00  0.00     0.014 A 
ATOM     29  C   UNL A   1      38.102  30.081  28.805  1.00  0.00     0.014 A 
ATOM     30  C   UNL A   1      40.114  29.926  30.729  1.00  0.00     0.010 A 
ATOM     31  C   UNL A   1      39.376  29.671  28.435  1.00  0.00     0.010 A 
ATOM     32  C   UNL A   1      40.399  29.594  29.392  1.00  0.00    -0.014 A 
BRANCH  32  33
ATOM     33  C   UNL A   1      41.754  29.157  28.977  1.00  0.00     0.031 A 
ATOM     34  C   UNL A   1      42.874  30.159  28.885  1.00  0.00     0.074 A 
ATOM     35  C   UNL A   1      41.954  27.874  28.613  1.00  0.00     0.049 A 
ATOM     36  N   UNL A   1      44.103  29.984  28.475  1.00  0.00    -0.248 NA
ATOM     37  C   UNL A   1      42.567  31.545  29.278  1.00  0.00     0.031 C 
ATOM     38  C   UNL A   1      40.928  26.827  28.598  1.00  0.00     0.029 A 
ATOM     39  N   UNL A   1      43.084  27.232  28.170  1.00  0.00    -0.354 N 
ATOM     40  C   UNL A   1      44.706  31.234  28.540  1.00  0.00     0.074 A 
ATOM     41  C   UNL A   1      43.698  32.170  28.984  1.00  0.00     0.031 C 
ATOM     42  C   UNL A   1      41.480  25.674  28.186  1.00  0.00     0.029 A 
ATOM     43  C   UNL A   1      42.883  25.905  27.865  1.00  0.00     0.049 A 
ATOM     44  H   UNL A   1      43.956  27.679  28.079  1.00  0.00     0.167 HD
ATOM     45  C   UNL A   1      45.991  31.565  28.274  1.00  0.00     0.037 A 
ATOM     46  C   UNL A   1      43.729  24.984  27.364  1.00  0.00     0.037 A 
ATOM     47  C   UNL A   1      46.996  30.617  27.870  1.00  0.00     0.049 A 
ATOM     48  C   UNL A   1      45.157  25.379  27.091  1.00  0.00     0.074 A 
ATOM     49  C   UNL A   1      48.347  30.837  27.663  1.00  0.00     0.029 A 
ATOM     50  N   UNL A   1      46.764  29.276  27.605  1.00  0.00    -0.354 N 
ATOM     51  N   UNL A   1      45.733  26.547  27.249  1.00  0.00    -0.248 NA
ATOM     52  C   UNL A   1      46.051  24.332  26.579  1.00  0.00     0.031 C 
ATOM     53  C   UNL A   1      48.919  29.645  27.213  1.00  0.00     0.029 A 
ATOM     54  C   UNL A   1      47.939  28.665  27.203  1.00  0.00     0.049 A 
ATOM     55  H   UNL A   1      45.893  28.826  27.690  1.00  0.00     0.167 HD
ATOM     56  C   UNL A   1      47.061  26.367  26.880  1.00  0.00     0.074 A 
ATOM     57  C   UNL A   1      47.208  24.975  26.511  1.00  0.00     0.031 C 
ATOM     58  C   UNL A   1      48.070  27.273  26.847  1.00  0.00     0.037 A 
BRANCH  45  59
ATOM     59  C   UNL A   1      46.398  33.005  28.414  1.00  0.00     0.058 A 
ATOM     60  C   UNL A   1      46.832  33.539  29.638  1.00  0.00     0.135 A 
ATOM     61  C   UNL A   1      46.438  33.842  27.286  1.00  0.00     0.135 A 
ATOM     62  F   UNL A   1      46.797  32.790  30.752  1.00  0.00    -0.206 F 
ATOM     63  C   UNL A   1      47.284  34.849  29.741  1.00  0.00     0.059 A 
ATOM     64  C   UNL A   1      46.912  35.148  27.360  1.00  0.00     0.059 A 
ATOM     65  F   UNL A   1      46.028  33.386  26.091  1.00  0.00    -0.206 F 
ATOM     66  C   UNL A   1      47.330  35.644  28.593  1.00  0.00     0.060 A 
BRANCH  66  67
ATOM     67  S   UNL A   1      47.971  37.325  28.737  1.00  0.00     0.124 S 
ATOM     68  O   UNL A   1      49.394  37.078  28.949  1.00  0.00    -0.237 OA
ATOM     69  O   UNL A   1      47.614  37.905  27.447  1.00  0.00    -0.237 OA
ATOM     70  O   UNL A   1      47.251  37.867  29.886  1.00  0.00    -0.744 OA
ENDBRANCH  66  67
ENDBRANCH  45  59
BRANCH  46  71
ATOM     71  C   UNL A   1      43.252  23.603  27.079  1.00  0.00     0.058 A 
ATOM     72  C   UNL A   1      43.045  22.675  28.111  1.00  0.00     0.135 A 
ATOM     73  C   UNL A   1      43.008  23.178  25.763  1.00  0.00     0.135 A 
ATOM     74  F   UNL A   1      43.266  23.030  29.387  1.00  0.00    -0.206 F 
ATOM     75  C   UNL A   1      42.649  21.367  27.849  1.00  0.00     0.059 A 
ATOM     76  C   UNL A   1      42.581  21.885  25.478  1.00  0.00     0.059 A 
ATOM     77  F   UNL A   1      43.170  24.030  24.740  1.00  0.00    -0.206 F 
ATOM     78  C   UNL A   1      42.421  20.982  26.526  1.00  0.00     0.060 A 
BRANCH  78  79
ATOM     79  S   UNL A   1      41.892  19.287  26.196  1.00  0.00     0.124 S 
ATOM     80  O   UNL A   1      42.291  18.611  27.425  1.00  0.00    -0.237 OA
ATOM     81  O   UNL A   1      40.456  19.448  25.992  1.00  0.00    -0.237 OA
ATOM     82  O   UNL A   1      42.651  18.927  25.002  1.00  0.00    -0.744 OA
ENDBRANCH  78  79
ENDBRANCH  46  71
BRANCH  58  83
ATOM     83  C   UNL A   1      49.430  26.786  26.430  1.00  0.00     0.058 A 
ATOM     84  C   UNL A   1      50.330  26.228  27.352  1.00  0.00     0.135 A 
ATOM     85  C   UNL A   1      49.817  26.829  25.080  1.00  0.00     0.135 A 
ATOM     86  F   UNL A   1      50.013  26.168  28.655  1.00  0.00    -0.206 F 
ATOM     87  C   UNL A   1      51.575  25.750  26.953  1.00  0.00     0.059 A 
ATOM     88  C   UNL A   1      51.042  26.328  24.655  1.00  0.00     0.059 A 
ATOM     89  F   UNL A   1      48.989  27.343  24.156  1.00  0.00    -0.206 F 
ATOM     90  C   UNL A   1      51.920  25.802  25.602  1.00  0.00     0.060 A 
BRANCH  90  91
ATOM     91  S   UNL A   1      53.524  25.148  25.095  1.00  0.00     0.124 S 
ATOM     92  O   UNL A   1      53.292  23.710  25.174  1.00  0.00    -0.237 OA
ATOM     93  O   UNL A   1      53.671  25.694  23.749  1.00  0.00    -0.237 OA
ATOM     94  O   UNL A   1      54.444  25.691  26.090  1.00  0.00    -0.744 OA
ENDBRANCH  90  91
ENDBRANCH  58  83
ENDBRANCH  32  33
ENDBRANCH  24  27
ENDBRANCH  22  23
ENDBRANCH   1  22
TORSDOF 16
ENDMDL
MODEL 3
REMARK VINA RESULT:     -10.9      6.910     13.299
REMARK SMILES COc1ncccc1C[N@@H+]1CCC[C@H]1C(=O)NCCCNC(=O)c1ccc(-c2c3nc(c(-c4c(F)cc(S(=O)(=O)[O-])cc4F)c4ccc([nH]4)c(-c4c(F)cc(S(=O)(=O)[O-])cc4F)c4nc(c(-c5c(F)cc(S(=O)(=O)[O-])cc5F)c5ccc2[nH]5)C=C4)C=C3)cc1
REMARK SMILES IDX 19 1 18 2 17 3 15 4 16 5 14 7 10 8 11 9 12 11 13 12 9 13
REMARK SMILES IDX 8 14 3 15 4 16 5 17 7 18 6 19 2 20 1 21 20 22 21 23 22 24
REMARK SMILES IDX 23 26 24 27 25 28 89 29 26 30 88 31 27 32 28 33 29 34 82 35
REMARK SMILES IDX 30 36 87 37 81 38 83 39 31 40 86 41 80 42 79 43 32 45 66 46
REMARK SMILES IDX 45 47 65 48 46 49 49 50 64 51 84 52 47 53 48 54 63 56 85 57
REMARK SMILES IDX 50 58 33 59 34 60 43 61 35 62 36 63 42 64 44 65 37 66 38 67
REMARK SMILES IDX 39 68 40 69 41 70 67 71 68 72 77 73 69 74 70 75 76 76 78 77
REMARK SMILES IDX 71 78 72 79 73 80 74 81 75 82 51 83 52 84 61 85 53 86 54 87
REMARK SMILES IDX 60 88 62 89 55 90 56 91 57 92 58 93 59 94
REMARK H PARENT 17 6 10 10 21 25 83 44 49 55
REMARK Flexibility Score: inf
ROOT
ATOM      1  C   UNL A   1      37.444  23.104  25.756  1.00  0.00     0.042 C 
ENDROOT
BRANCH   1   2
ATOM      2  C   UNL A   1      35.980  23.489  25.684  1.00  0.00     0.118 C 
BRANCH   2   3
ATOM      3  N   UNL A   1      35.587  23.845  24.334  1.00  0.00    -0.351 N 
ATOM      4  C   UNL A   1      34.383  24.294  23.873  1.00  0.00     0.278 C 
ATOM      5  O   UNL A   1      34.268  24.445  22.654  1.00  0.00    -0.268 OA
ATOM      6  H   UNL A   1      36.291  23.748  23.652  1.00  0.00     0.163 HD
BRANCH   4   7
ATOM      7  C   UNL A   1      33.229  24.564  24.874  1.00  0.00     0.274 C 
ATOM      8  N   UNL A   1      32.029  24.950  24.105  1.00  0.00    -0.321 N 
ATOM      9  C   UNL A   1      31.385  23.700  23.728  1.00  0.00     0.263 C 
ATOM     10  H   UNL A   1      32.292  25.463  23.264  1.00  0.00     0.349 HD
ATOM     11  C   UNL A   1      31.559  22.785  24.925  1.00  0.00     0.068 C 
ATOM     12  C   UNL A   1      32.831  23.278  25.613  1.00  0.00     0.081 C 
BRANCH   8  13
ATOM     13  C   UNL A   1      31.186  26.004  24.683  1.00  0.00     0.305 C 
BRANCH  13  14
ATOM     14  C   UNL A   1      31.858  27.142  25.393  1.00  0.00     0.068 A 
ATOM     15  C   UNL A   1      32.661  28.051  24.706  1.00  0.00     0.221 A 
ATOM     16  N   UNL A   1      33.221  29.147  25.262  1.00  0.00    -0.222 NA
ATOM     17  C   UNL A   1      32.997  29.323  26.585  1.00  0.00     0.115 A 
ATOM     18  C   UNL A   1      31.691  27.342  26.767  1.00  0.00     0.017 A 
ATOM     19  C   UNL A   1      32.270  28.448  27.376  1.00  0.00     0.021 A 
BRANCH  15  20
ATOM     20  O   UNL A   1      33.010  27.738  23.412  1.00  0.00    -0.481 OA
ATOM     21  C   UNL A   1      33.904  28.689  22.854  1.00  0.00     0.280 C 
ENDBRANCH  15  20
ENDBRANCH  13  14
ENDBRANCH   8  13
ENDBRANCH   4   7
ENDBRANCH   2   3
ENDBRANCH   1   2
BRANCH   1  22
ATOM     22  C   UNL A   1      38.317  24.223  26.294  1.00  0.00     0.118 C 
BRANCH  22  23
ATOM     23  N   UNL A   1      39.738  23.912  26.192  1.00  0.00    -0.352 N 
ATOM     24  C   UNL A   1      40.821  24.603  26.679  1.00  0.00     0.251 C 
ATOM     25  H   UNL A   1      39.952  23.086  25.701  1.00  0.00     0.163 HD
ATOM     26  O   UNL A   1      41.950  24.306  26.313  1.00  0.00    -0.269 OA
BRANCH  24  27
ATOM     27  C   UNL A   1      40.604  25.716  27.625  1.00  0.00     0.039 A 
ATOM     28  C   UNL A   1      39.607  25.595  28.594  1.00  0.00     0.014 A 
ATOM     29  C   UNL A   1      41.403  26.860  27.572  1.00  0.00     0.014 A 
ATOM     30  C   UNL A   1      39.464  26.594  29.557  1.00  0.00     0.010 A 
ATOM     31  C   UNL A   1      41.329  27.800  28.591  1.00  0.00     0.010 A 
ATOM     32  C   UNL A   1      40.355  27.681  29.593  1.00  0.00    -0.014 A 
BRANCH  32  33
ATOM     33  C   UNL A   1      40.289  28.697  30.672  1.00  0.00     0.031 A 
ATOM     34  C   UNL A   1      41.149  28.551  31.899  1.00  0.00     0.074 A 
ATOM     35  C   UNL A   1      39.402  29.709  30.575  1.00  0.00     0.049 A 
ATOM     36  N   UNL A   1      41.180  29.294  32.974  1.00  0.00    -0.248 NA
ATOM     37  C   UNL A   1      42.074  27.406  31.937  1.00  0.00     0.031 C 
ATOM     38  C   UNL A   1      38.470  29.916  29.463  1.00  0.00     0.029 A 
ATOM     39  N   UNL A   1      39.126  30.746  31.432  1.00  0.00    -0.354 N 
ATOM     40  C   UNL A   1      42.106  28.697  33.821  1.00  0.00     0.074 A 
ATOM     41  C   UNL A   1      42.582  27.504  33.157  1.00  0.00     0.031 C 
ATOM     42  C   UNL A   1      37.741  31.019  29.697  1.00  0.00     0.029 A 
ATOM     43  C   UNL A   1      38.118  31.573  30.993  1.00  0.00     0.049 A 
ATOM     44  H   UNL A   1      39.604  30.884  32.281  1.00  0.00     0.167 HD
ATOM     45  C   UNL A   1      42.536  29.119  35.033  1.00  0.00     0.037 A 
ATOM     46  C   UNL A   1      37.548  32.645  31.577  1.00  0.00     0.037 A 
ATOM     47  C   UNL A   1      42.084  30.329  35.667  1.00  0.00     0.049 A 
ATOM     48  C   UNL A   1      38.057  33.099  32.920  1.00  0.00     0.074 A 
ATOM     49  C   UNL A   1      42.524  30.890  36.853  1.00  0.00     0.029 A 
ATOM     50  N   UNL A   1      41.087  31.160  35.177  1.00  0.00    -0.354 N 
ATOM     51  N   UNL A   1      39.002  32.574  33.663  1.00  0.00    -0.248 NA
ATOM     52  C   UNL A   1      37.429  34.293  33.501  1.00  0.00     0.031 C 
ATOM     53  C   UNL A   1      41.752  32.026  37.111  1.00  0.00     0.029 A 
ATOM     54  C   UNL A   1      40.875  32.210  36.053  1.00  0.00     0.049 A 
ATOM     55  H   UNL A   1      40.604  31.023  34.330  1.00  0.00     0.167 HD
ATOM     56  C   UNL A   1      39.098  33.388  34.786  1.00  0.00     0.074 A 
ATOM     57  C   UNL A   1      38.131  34.451  34.615  1.00  0.00     0.031 C 
ATOM     58  C   UNL A   1      39.912  33.266  35.863  1.00  0.00     0.037 A 
BRANCH  45  59
ATOM     59  C   UNL A   1      43.550  28.281  35.759  1.00  0.00     0.058 A 
ATOM     60  C   UNL A   1      44.931  28.477  35.594  1.00  0.00     0.135 A 
ATOM     61  C   UNL A   1      43.135  27.324  36.701  1.00  0.00     0.135 A 
ATOM     62  F   UNL A   1      45.384  29.364  34.693  1.00  0.00    -0.206 F 
ATOM     63  C   UNL A   1      45.862  27.753  36.330  1.00  0.00     0.059 A 
ATOM     64  C   UNL A   1      44.047  26.609  37.469  1.00  0.00     0.059 A 
ATOM     65  F   UNL A   1      41.826  27.091  36.894  1.00  0.00    -0.206 F 
ATOM     66  C   UNL A   1      45.410  26.827  37.274  1.00  0.00     0.060 A 
BRANCH  66  67
ATOM     67  S   UNL A   1      46.633  25.937  38.258  1.00  0.00     0.124 S 
ATOM     68  O   UNL A   1      47.861  26.643  37.906  1.00  0.00    -0.237 OA
ATOM     69  O   UNL A   1      46.149  26.148  39.618  1.00  0.00    -0.237 OA
ATOM     70  O   UNL A   1      46.534  24.566  37.765  1.00  0.00    -0.744 OA
ENDBRANCH  66  67
ENDBRANCH  45  59
BRANCH  46  71
ATOM     71  C   UNL A   1      36.428  33.358  30.905  1.00  0.00     0.058 A 
ATOM     72  C   UNL A   1      36.650  34.173  29.784  1.00  0.00     0.135 A 
ATOM     73  C   UNL A   1      35.112  33.254  31.382  1.00  0.00     0.135 A 
ATOM     74  F   UNL A   1      37.890  34.309  29.288  1.00  0.00    -0.206 F 
ATOM     75  C   UNL A   1      35.617  34.884  29.181  1.00  0.00     0.059 A 
ATOM     76  C   UNL A   1      34.057  33.931  30.778  1.00  0.00     0.059 A 
ATOM     77  F   UNL A   1      34.839  32.473  32.439  1.00  0.00    -0.206 F 
ATOM     78  C   UNL A   1      34.323  34.757  29.689  1.00  0.00     0.060 A 
BRANCH  78  79
ATOM     79  S   UNL A   1      32.985  35.671  28.891  1.00  0.00     0.124 S 
ATOM     80  O   UNL A   1      32.200  36.105  30.042  1.00  0.00    -0.237 OA
ATOM     81  O   UNL A   1      33.710  36.718  28.180  1.00  0.00    -0.237 OA
ATOM     82  O   UNL A   1      32.354  34.666  28.040  1.00  0.00    -0.744 OA
ENDBRANCH  78  79
ENDBRANCH  46  71
BRANCH  58  83
ATOM     83  C   UNL A   1      39.820  34.325  36.928  1.00  0.00     0.058 A 
ATOM     84  C   UNL A   1      40.480  35.557  36.804  1.00  0.00     0.135 A 
ATOM     85  C   UNL A   1      39.017  34.122  38.063  1.00  0.00     0.135 A 
ATOM     86  F   UNL A   1      41.266  35.801  35.743  1.00  0.00    -0.206 F 
ATOM     87  C   UNL A   1      40.365  36.543  37.779  1.00  0.00     0.059 A 
ATOM     88  C   UNL A   1      38.862  35.106  39.033  1.00  0.00     0.059 A 
ATOM     89  F   UNL A   1      38.355  32.964  38.225  1.00  0.00    -0.206 F 
ATOM     90  C   UNL A   1      39.551  36.309  38.888  1.00  0.00     0.060 A 
BRANCH  90  91
ATOM     91  S   UNL A   1      39.384  37.610  40.128  1.00  0.00     0.124 S 
ATOM     92  O   UNL A   1      39.051  36.838  41.321  1.00  0.00    -0.237 OA
ATOM     93  O   UNL A   1      40.709  38.221  40.118  1.00  0.00    -0.237 OA
ATOM     94  O   UNL A   1      38.309  38.447  39.601  1.00  0.00    -0.744 OA
ENDBRANCH  90  91
ENDBRANCH  58  83
ENDBRANCH  32  33
ENDBRANCH  24  27
ENDBRANCH  22  23
ENDBRANCH   1  22
TORSDOF 16
ENDMDL
