MODEL 1
REMARK VINA RESULT:     -13.8      0.000      0.000
REMARK SMILES O=C(NCCCNC(=O)[C@H]1[C@H]2CC[C@H](CC2)[C@@H]1C(=O)Nc1sc2c(c1C(=O)N1CCCCC1)CCCC2)c1ccc(-c2c3nc(c(-c4c(F)cc(S(=O)(=O)[O-])cc4F)c4ccc([nH]4)c(-c4c(F)cc(S(=O)(=O)[O-])cc4F)c4nc(c(-c5c(F)cc(S(=O)(=O)[O-])cc5F)c5ccc2[nH]5)C=C4)C=C3)cc1
REMARK SMILES IDX 5 1 4 2 3 3 1 4 2 5 38 7 39 8 103 9 40 10 102 11 41 12 42 13
REMARK SMILES IDX 43 14 96 15 44 16 101 17 95 18 97 19 45 20 100 21 94 22
REMARK SMILES IDX 93 23 46 25 80 26 59 27 79 28 60 29 63 30 78 31 98 32 61 33
REMARK SMILES IDX 62 34 77 36 99 37 64 38 47 39 48 40 57 41 49 42 50 43 56 44
REMARK SMILES IDX 58 45 51 46 52 47 53 48 54 49 55 50 81 51 82 52 91 53 83 54
REMARK SMILES IDX 84 55 90 56 92 57 85 58 86 59 87 60 88 61 89 62 65 63 66 64
REMARK SMILES IDX 75 65 67 66 68 67 74 68 76 69 69 70 70 71 71 72 72 73 73 74
REMARK SMILES IDX 6 75 7 76 8 77 9 79 10 80 11 81 17 82 12 83 16 84 14 85
REMARK SMILES IDX 13 86 15 87 18 88 19 89 20 90 21 92 22 93 25 94 23 95 24 96
REMARK SMILES IDX 37 97 34 98 36 99 35 100 26 101 27 102 28 103 29 104 33 105
REMARK SMILES IDX 30 106 32 107 31 108
REMARK H PARENT 3 6 97 24 63 35 7 78 20 91
REMARK Flexibility Score: inf
ROOT
ATOM      1  C   UNL A   1      33.748  29.183  27.253  1.00  0.00     0.042 C 
ENDROOT
BRANCH   1   2
ATOM      2  C   UNL A   1      35.170  29.538  27.667  1.00  0.00     0.118 C 
BRANCH   2   3
ATOM      3  N   UNL A   1      35.233  30.324  28.892  1.00  0.00    -0.352 N 
ATOM      4  O   UNL A   1      36.011  31.095  30.848  1.00  0.00    -0.269 OA
ATOM      5  C   UNL A   1      36.256  30.532  29.784  1.00  0.00     0.251 C 
ATOM      6  H   UNL A   1      34.395  30.787  29.120  1.00  0.00     0.163 HD
BRANCH   5   7
ATOM      7  C   UNL A   1      37.632  30.077  29.489  1.00  0.00     0.039 A 
ATOM      8  C   UNL A   1      38.125  30.071  28.184  1.00  0.00     0.014 A 
ATOM      9  C   UNL A   1      38.470  29.711  30.548  1.00  0.00     0.014 A 
ATOM     10  C   UNL A   1      39.392  29.563  27.920  1.00  0.00     0.010 A 
ATOM     11  C   UNL A   1      39.780  29.297  30.292  1.00  0.00     0.010 A 
ATOM     12  C   UNL A   1      40.247  29.201  28.971  1.00  0.00    -0.014 A 
BRANCH  12  13
ATOM     13  C   UNL A   1      41.656  28.843  28.673  1.00  0.00     0.031 A 
ATOM     14  C   UNL A   1      42.748  29.874  28.701  1.00  0.00     0.074 A 
ATOM     15  C   UNL A   1      41.935  27.559  28.365  1.00  0.00     0.049 A 
ATOM     16  N   UNL A   1      44.020  29.727  28.434  1.00  0.00    -0.248 NA
ATOM     17  C   UNL A   1      42.369  31.248  29.067  1.00  0.00     0.031 C 
ATOM     18  C   UNL A   1      40.946  26.478  28.289  1.00  0.00     0.029 A 
ATOM     19  N   UNL A   1      43.120  26.941  28.059  1.00  0.00    -0.354 N 
ATOM     20  C   UNL A   1      44.591  30.986  28.573  1.00  0.00     0.074 A 
ATOM     21  C   UNL A   1      43.523  31.892  28.939  1.00  0.00     0.031 C 
ATOM     22  C   UNL A   1      41.566  25.331  27.983  1.00  0.00     0.029 A 
ATOM     23  C   UNL A   1      42.982  25.604  27.767  1.00  0.00     0.049 A 
ATOM     24  H   UNL A   1      43.986  27.408  28.049  1.00  0.00     0.167 HD
ATOM     25  C   UNL A   1      45.886  31.345  28.409  1.00  0.00     0.037 A 
ATOM     26  C   UNL A   1      43.882  24.702  27.332  1.00  0.00     0.037 A 
ATOM     27  C   UNL A   1      46.941  30.424  28.067  1.00  0.00     0.049 A 
ATOM     28  C   UNL A   1      45.304  25.139  27.130  1.00  0.00     0.074 A 
ATOM     29  C   UNL A   1      48.298  30.675  27.957  1.00  0.00     0.029 A 
ATOM     30  N   UNL A   1      46.759  29.081  27.763  1.00  0.00    -0.354 N 
ATOM     31  N   UNL A   1      45.838  26.318  27.341  1.00  0.00    -0.248 NA
ATOM     32  C   UNL A   1      46.244  24.132  26.623  1.00  0.00     0.031 C 
ATOM     33  C   UNL A   1      48.926  29.505  27.524  1.00  0.00     0.029 A 
ATOM     34  C   UNL A   1      47.971  28.506  27.420  1.00  0.00     0.049 A 
ATOM     35  H   UNL A   1      45.895  28.610  27.787  1.00  0.00     0.167 HD
ATOM     36  C   UNL A   1      47.179  26.192  27.003  1.00  0.00     0.074 A 
ATOM     37  C   UNL A   1      47.380  24.816  26.598  1.00  0.00     0.031 C 
ATOM     38  C   UNL A   1      48.154  27.133  27.019  1.00  0.00     0.037 A 
BRANCH  25  39
ATOM     39  C   UNL A   1      46.254  32.796  28.570  1.00  0.00     0.058 A 
ATOM     40  C   UNL A   1      46.659  33.329  29.803  1.00  0.00     0.135 A 
ATOM     41  C   UNL A   1      46.292  33.641  27.448  1.00  0.00     0.135 A 
ATOM     42  F   UNL A   1      46.631  32.571  30.911  1.00  0.00    -0.206 F 
ATOM     43  C   UNL A   1      47.080  34.651  29.920  1.00  0.00     0.059 A 
ATOM     44  C   UNL A   1      46.732  34.958  27.537  1.00  0.00     0.059 A 
ATOM     45  F   UNL A   1      45.916  33.182  26.244  1.00  0.00    -0.206 F 
ATOM     46  C   UNL A   1      47.119  35.456  28.780  1.00  0.00     0.060 A 
BRANCH  46  47
ATOM     47  S   UNL A   1      47.702  37.157  28.944  1.00  0.00     0.124 S 
ATOM     48  O   UNL A   1      46.808  37.861  28.030  1.00  0.00    -0.237 OA
ATOM     49  O   UNL A   1      47.492  37.422  30.364  1.00  0.00    -0.237 OA
ATOM     50  O   UNL A   1      49.097  37.084  28.522  1.00  0.00    -0.744 OA
ENDBRANCH  46  47
ENDBRANCH  25  39
BRANCH  26  51
ATOM     51  C   UNL A   1      43.448  23.315  27.014  1.00  0.00     0.058 A 
ATOM     52  C   UNL A   1      43.290  22.887  25.689  1.00  0.00     0.135 A 
ATOM     53  C   UNL A   1      43.188  22.388  28.037  1.00  0.00     0.135 A 
ATOM     54  F   UNL A   1      43.524  23.736  24.678  1.00  0.00    -0.206 F 
ATOM     55  C   UNL A   1      42.867  21.597  25.388  1.00  0.00     0.059 A 
ATOM     56  C   UNL A   1      42.795  21.084  27.760  1.00  0.00     0.059 A 
ATOM     57  F   UNL A   1      43.343  22.741  29.323  1.00  0.00    -0.206 F 
ATOM     58  C   UNL A   1      42.622  20.702  26.432  1.00  0.00     0.060 A 
BRANCH  58  59
ATOM     59  S   UNL A   1      42.097  19.022  26.030  1.00  0.00     0.124 S 
ATOM     60  O   UNL A   1      40.688  19.226  25.711  1.00  0.00    -0.237 OA
ATOM     61  O   UNL A   1      42.966  18.690  24.906  1.00  0.00    -0.237 OA
ATOM     62  O   UNL A   1      42.366  18.284  27.260  1.00  0.00    -0.744 OA
ENDBRANCH  58  59
ENDBRANCH  26  51
BRANCH  38  63
ATOM     63  C   UNL A   1      49.532  26.705  26.600  1.00  0.00     0.058 A 
ATOM     64  C   UNL A   1      50.429  26.128  27.512  1.00  0.00     0.135 A 
ATOM     65  C   UNL A   1      49.935  26.811  25.259  1.00  0.00     0.135 A 
ATOM     66  F   UNL A   1      50.098  26.017  28.808  1.00  0.00    -0.206 F 
ATOM     67  C   UNL A   1      51.682  25.679  27.111  1.00  0.00     0.059 A 
ATOM     68  C   UNL A   1      51.172  26.342  24.830  1.00  0.00     0.059 A 
ATOM     69  F   UNL A   1      49.112  27.351  24.346  1.00  0.00    -0.206 F 
ATOM     70  C   UNL A   1      52.041  25.783  25.766  1.00  0.00     0.060 A 
BRANCH  70  71
ATOM     71  S   UNL A   1      53.647  25.140  25.249  1.00  0.00     0.124 S 
ATOM     72  O   UNL A   1      53.417  23.699  25.294  1.00  0.00    -0.237 OA
ATOM     73  O   UNL A   1      53.799  25.717  23.917  1.00  0.00    -0.237 OA
ATOM     74  O   UNL A   1      54.563  25.661  26.260  1.00  0.00    -0.744 OA
ENDBRANCH  70  71
ENDBRANCH  38  63
ENDBRANCH  12  13
ENDBRANCH   5   7
ENDBRANCH   2   3
ENDBRANCH   1   2
BRANCH   1  75
ATOM     75  C   UNL A   1      33.554  28.946  25.765  1.00  0.00     0.117 C 
BRANCH  75  76
ATOM     76  N   UNL A   1      34.193  27.748  25.258  1.00  0.00    -0.356 N 
ATOM     77  C   UNL A   1      33.656  26.580  24.808  1.00  0.00     0.224 C 
ATOM     78  H   UNL A   1      35.176  27.783  25.235  1.00  0.00     0.163 HD
ATOM     79  O   UNL A   1      34.407  25.820  24.192  1.00  0.00    -0.275 OA
BRANCH  77  80
ATOM     80  C   UNL A   1      32.177  26.264  25.055  1.00  0.00     0.094 C 
ATOM     81  C   UNL A   1      31.324  27.107  24.065  1.00  0.00     0.002 C 
ATOM     82  C   UNL A   1      31.877  24.745  24.851  1.00  0.00     0.094 C 
ATOM     83  C   UNL A   1      31.656  26.721  22.609  1.00  0.00     0.005 C 
ATOM     84  C   UNL A   1      29.842  26.805  24.328  1.00  0.00     0.005 C 
ATOM     85  C   UNL A   1      30.849  24.589  23.676  1.00  0.00     0.002 C 
ATOM     86  C   UNL A   1      31.482  25.211  22.411  1.00  0.00     0.005 C 
ATOM     87  C   UNL A   1      29.534  25.362  23.927  1.00  0.00     0.005 C 
BRANCH  82  88
ATOM     88  C   UNL A   1      31.373  24.011  26.121  1.00  0.00     0.229 C 
ATOM     89  O   UNL A   1      30.394  24.420  26.751  1.00  0.00    -0.274 OA
ATOM     90  N   UNL A   1      31.897  22.791  26.481  1.00  0.00    -0.317 N 
ATOM     91  H   UNL A   1      31.282  22.196  26.969  1.00  0.00     0.170 HD
BRANCH  90  92
ATOM     92  C   UNL A   1      33.159  22.283  26.255  1.00  0.00     0.108 A 
ATOM     93  S   UNL A   1      34.454  23.030  27.050  1.00  0.00    -0.122 S 
ATOM     94  C   UNL A   1      33.540  21.101  25.615  1.00  0.00     0.078 A 
ATOM     95  C   UNL A   1      35.573  22.178  26.123  1.00  0.00     0.011 A 
ATOM     96  C   UNL A   1      34.999  21.087  25.495  1.00  0.00    -0.019 A 
ATOM     97  C   UNL A   1      37.014  22.580  26.072  1.00  0.00     0.047 C 
ATOM     98  C   UNL A   1      35.871  20.128  24.741  1.00  0.00     0.037 C 
ATOM     99  C   UNL A   1      37.723  21.863  24.916  1.00  0.00     0.006 C 
ATOM    100  C   UNL A   1      37.377  20.376  24.916  1.00  0.00     0.005 C 
BRANCH  94 101
ATOM    101  C   UNL A   1      32.519  20.196  25.040  1.00  0.00     0.257 C 
ATOM    102  O   UNL A   1      31.413  20.614  24.695  1.00  0.00    -0.269 OA
ATOM    103  N   UNL A   1      32.889  18.880  24.765  1.00  0.00    -0.339 N 
ATOM    104  C   UNL A   1      32.499  18.353  23.467  1.00  0.00     0.120 C 
ATOM    105  C   UNL A   1      32.898  17.876  25.824  1.00  0.00     0.120 C 
ATOM    106  C   UNL A   1      33.506  17.303  23.024  1.00  0.00     0.022 C 
ATOM    107  C   UNL A   1      33.826  16.704  25.473  1.00  0.00     0.022 C 
ATOM    108  C   UNL A   1      33.611  16.176  24.053  1.00  0.00     0.004 C 
ENDBRANCH  94 101
ENDBRANCH  90  92
ENDBRANCH  82  88
ENDBRANCH  77  80
ENDBRANCH  75  76
ENDBRANCH   1  75
TORSDOF 16
ENDMDL
MODEL 2
REMARK VINA RESULT:     -13.6      6.345     11.992
REMARK SMILES O=C(NCCCNC(=O)[C@H]1[C@H]2CC[C@H](CC2)[C@@H]1C(=O)Nc1sc2c(c1C(=O)N1CCCCC1)CCCC2)c1ccc(-c2c3nc(c(-c4c(F)cc(S(=O)(=O)[O-])cc4F)c4ccc([nH]4)c(-c4c(F)cc(S(=O)(=O)[O-])cc4F)c4nc(c(-c5c(F)cc(S(=O)(=O)[O-])cc5F)c5ccc2[nH]5)C=C4)C=C3)cc1
REMARK SMILES IDX 5 1 4 2 3 3 1 4 2 5 38 7 39 8 103 9 40 10 102 11 41 12 42 13
REMARK SMILES IDX 43 14 96 15 44 16 101 17 95 18 97 19 45 20 100 21 94 22
REMARK SMILES IDX 93 23 46 25 80 26 59 27 79 28 60 29 63 30 78 31 98 32 61 33
REMARK SMILES IDX 62 34 77 36 99 37 64 38 47 39 48 40 57 41 49 42 50 43 56 44
REMARK SMILES IDX 58 45 51 46 52 47 53 48 54 49 55 50 81 51 82 52 91 53 83 54
REMARK SMILES IDX 84 55 90 56 92 57 85 58 86 59 87 60 88 61 89 62 65 63 66 64
REMARK SMILES IDX 75 65 67 66 68 67 74 68 76 69 69 70 70 71 71 72 72 73 73 74
REMARK SMILES IDX 6 75 7 76 8 77 9 79 10 80 11 81 17 82 12 83 16 84 14 85
REMARK SMILES IDX 13 86 15 87 18 88 19 89 20 90 21 92 22 93 25 94 23 95 24 96
REMARK SMILES IDX 37 97 34 98 36 99 35 100 26 101 27 102 28 103 29 104 33 105
REMARK SMILES IDX 30 106 32 107 31 108
REMARK H PARENT 3 6 97 24 63 35 7 78 20 91
REMARK Flexibility Score: inf
ROOT
ATOM      1  C   UNL A   1      37.786  22.820  26.017  1.00  0.00     0.042 C 
ENDROOT
BRANCH   1   2
ATOM      2  C   UNL A   1      38.605  24.035  26.431  1.00  0.00     0.118 C 
BRANCH   2   3
ATOM      3  N   UNL A   1      40.021  23.910  26.117  1.00  0.00    -0.352 N 
ATOM      4  O   UNL A   1      42.189  24.460  25.959  1.00  0.00    -0.269 OA
ATOM      5  C   UNL A   1      41.108  24.655  26.505  1.00  0.00     0.251 C 
ATOM      6  H   UNL A   1      40.239  23.157  25.520  1.00  0.00     0.163 HD
BRANCH   5   7
ATOM      7  C   UNL A   1      40.986  25.692  27.553  1.00  0.00     0.039 A 
ATOM      8  C   UNL A   1      40.038  25.582  28.571  1.00  0.00     0.014 A 
ATOM      9  C   UNL A   1      41.885  26.766  27.557  1.00  0.00     0.014 A 
ATOM     10  C   UNL A   1      39.888  26.607  29.497  1.00  0.00     0.010 A 
ATOM     11  C   UNL A   1      41.799  27.745  28.550  1.00  0.00     0.010 A 
ATOM     12  C   UNL A   1      40.786  27.684  29.519  1.00  0.00    -0.014 A 
BRANCH  12  13
ATOM     13  C   UNL A   1      40.720  28.664  30.632  1.00  0.00     0.031 A 
ATOM     14  C   UNL A   1      41.617  28.547  31.831  1.00  0.00     0.074 A 
ATOM     15  C   UNL A   1      39.823  29.667  30.544  1.00  0.00     0.049 A 
ATOM     16  N   UNL A   1      41.660  29.302  32.898  1.00  0.00    -0.248 NA
ATOM     17  C   UNL A   1      42.586  27.439  31.844  1.00  0.00     0.031 C 
ATOM     18  C   UNL A   1      38.887  29.864  29.432  1.00  0.00     0.029 A 
ATOM     19  N   UNL A   1      39.543  30.706  31.395  1.00  0.00    -0.354 N 
ATOM     20  C   UNL A   1      42.637  28.753  33.720  1.00  0.00     0.074 A 
ATOM     21  C   UNL A   1      43.157  27.590  33.033  1.00  0.00     0.031 C 
ATOM     22  C   UNL A   1      38.158  30.966  29.656  1.00  0.00     0.029 A 
ATOM     23  C   UNL A   1      38.518  31.512  30.958  1.00  0.00     0.049 A 
ATOM     24  H   UNL A   1      40.030  30.861  32.236  1.00  0.00     0.167 HD
ATOM     25  C   UNL A   1      43.054  29.184  34.934  1.00  0.00     0.037 A 
ATOM     26  C   UNL A   1      37.902  32.551  31.554  1.00  0.00     0.037 A 
ATOM     27  C   UNL A   1      42.541  30.358  35.593  1.00  0.00     0.049 A 
ATOM     28  C   UNL A   1      38.368  32.984  32.913  1.00  0.00     0.074 A 
ATOM     29  C   UNL A   1      42.955  30.923  36.787  1.00  0.00     0.029 A 
ATOM     30  N   UNL A   1      41.491  31.138  35.127  1.00  0.00    -0.354 N 
ATOM     31  N   UNL A   1      39.345  32.497  33.641  1.00  0.00    -0.248 NA
ATOM     32  C   UNL A   1      37.647  34.100  33.540  1.00  0.00     0.031 C 
ATOM     33  C   UNL A   1      42.116  32.002  37.076  1.00  0.00     0.029 A 
ATOM     34  C   UNL A   1      41.215  32.149  36.033  1.00  0.00     0.049 A 
ATOM     35  H   UNL A   1      41.014  30.993  34.279  1.00  0.00     0.167 HD
ATOM     36  C   UNL A   1      39.363  33.253  34.806  1.00  0.00     0.074 A 
ATOM     37  C   UNL A   1      38.316  34.246  34.676  1.00  0.00     0.031 C 
ATOM     38  C   UNL A   1      40.168  33.131  35.888  1.00  0.00     0.037 A 
BRANCH  25  39
ATOM     39  C   UNL A   1      44.103  28.382  35.657  1.00  0.00     0.058 A 
ATOM     40  C   UNL A   1      45.474  28.630  35.493  1.00  0.00     0.135 A 
ATOM     41  C   UNL A   1      43.722  27.415  36.602  1.00  0.00     0.135 A 
ATOM     42  F   UNL A   1      45.896  29.535  34.596  1.00  0.00    -0.206 F 
ATOM     43  C   UNL A   1      46.431  27.941  36.234  1.00  0.00     0.059 A 
ATOM     44  C   UNL A   1      44.660  26.730  37.370  1.00  0.00     0.059 A 
ATOM     45  F   UNL A   1      42.423  27.138  36.800  1.00  0.00    -0.206 F 
ATOM     46  C   UNL A   1      46.014  26.997  37.175  1.00  0.00     0.060 A 
BRANCH  46  47
ATOM     47  S   UNL A   1      47.267  26.139  38.151  1.00  0.00     0.124 S 
ATOM     48  O   UNL A   1      47.743  27.210  39.021  1.00  0.00    -0.237 OA
ATOM     49  O   UNL A   1      46.489  25.091  38.803  1.00  0.00    -0.237 OA
ATOM     50  O   UNL A   1      48.223  25.675  37.150  1.00  0.00    -0.744 OA
ENDBRANCH  46  47
ENDBRANCH  25  39
BRANCH  26  51
ATOM     51  C   UNL A   1      36.751  33.213  30.886  1.00  0.00     0.058 A 
ATOM     52  C   UNL A   1      35.432  32.957  31.284  1.00  0.00     0.135 A 
ATOM     53  C   UNL A   1      36.952  34.122  29.834  1.00  0.00     0.135 A 
ATOM     54  F   UNL A   1      35.188  32.094  32.282  1.00  0.00    -0.206 F 
ATOM     55  C   UNL A   1      34.351  33.560  30.649  1.00  0.00     0.059 A 
ATOM     56  C   UNL A   1      35.889  34.762  29.205  1.00  0.00     0.059 A 
ATOM     57  F   UNL A   1      38.196  34.418  29.426  1.00  0.00    -0.206 F 
ATOM     58  C   UNL A   1      34.590  34.462  29.610  1.00  0.00     0.060 A 
BRANCH  58  59
ATOM     59  S   UNL A   1      33.182  35.257  28.809  1.00  0.00     0.124 S 
ATOM     60  O   UNL A   1      33.842  36.276  28.002  1.00  0.00    -0.237 OA
ATOM     61  O   UNL A   1      32.580  34.148  28.075  1.00  0.00    -0.237 OA
ATOM     62  O   UNL A   1      32.394  35.753  29.934  1.00  0.00    -0.744 OA
ENDBRANCH  58  59
ENDBRANCH  26  51
BRANCH  38  63
ATOM     63  C   UNL A   1      39.961  34.102  37.016  1.00  0.00     0.058 A 
ATOM     64  C   UNL A   1      40.497  35.399  36.973  1.00  0.00     0.135 A 
ATOM     65  C   UNL A   1      39.161  33.757  38.117  1.00  0.00     0.135 A 
ATOM     66  F   UNL A   1      41.279  35.774  35.949  1.00  0.00    -0.206 F 
ATOM     67  C   UNL A   1      40.255  36.316  37.990  1.00  0.00     0.059 A 
ATOM     68  C   UNL A   1      38.883  34.667  39.130  1.00  0.00     0.059 A 
ATOM     69  F   UNL A   1      38.621  32.530  38.203  1.00  0.00    -0.206 F 
ATOM     70  C   UNL A   1      39.440  35.944  39.060  1.00  0.00     0.060 A 
BRANCH  70  71
ATOM     71  S   UNL A   1      39.087  37.166  40.341  1.00  0.00     0.124 S 
ATOM     72  O   UNL A   1      38.495  38.248  39.561  1.00  0.00    -0.237 OA
ATOM     73  O   UNL A   1      38.171  36.442  41.217  1.00  0.00    -0.237 OA
ATOM     74  O   UNL A   1      40.400  37.450  40.912  1.00  0.00    -0.744 OA
ENDBRANCH  70  71
ENDBRANCH  38  63
ENDBRANCH  12  13
ENDBRANCH   5   7
ENDBRANCH   2   3
ENDBRANCH   1   2
BRANCH   1  75
ATOM     75  C   UNL A   1      36.582  23.126  25.144  1.00  0.00     0.117 C 
BRANCH  75  76
ATOM     76  N   UNL A   1      35.657  24.088  25.710  1.00  0.00    -0.356 N 
ATOM     77  C   UNL A   1      34.369  24.380  25.378  1.00  0.00     0.224 C 
ATOM     78  H   UNL A   1      36.018  24.618  26.456  1.00  0.00     0.163 HD
ATOM     79  O   UNL A   1      33.724  25.057  26.182  1.00  0.00    -0.275 OA
BRANCH  77  80
ATOM     80  C   UNL A   1      33.772  23.858  24.066  1.00  0.00     0.094 C 
ATOM     81  C   UNL A   1      33.383  22.366  24.264  1.00  0.00     0.002 C 
ATOM     82  C   UNL A   1      32.513  24.682  23.646  1.00  0.00     0.094 C 
ATOM     83  C   UNL A   1      32.308  22.233  25.361  1.00  0.00     0.005 C 
ATOM     84  C   UNL A   1      32.806  21.839  22.943  1.00  0.00     0.005 C 
ATOM     85  C   UNL A   1      31.272  23.722  23.616  1.00  0.00     0.002 C 
ATOM     86  C   UNL A   1      31.105  23.124  25.031  1.00  0.00     0.005 C 
ATOM     87  C   UNL A   1      31.468  22.523  22.660  1.00  0.00     0.005 C 
BRANCH  82  88
ATOM     88  C   UNL A   1      32.656  25.435  22.298  1.00  0.00     0.229 C 
ATOM     89  O   UNL A   1      32.918  24.833  21.252  1.00  0.00    -0.274 OA
ATOM     90  N   UNL A   1      32.325  26.766  22.199  1.00  0.00    -0.317 N 
ATOM     91  H   UNL A   1      32.004  27.057  21.314  1.00  0.00     0.170 HD
BRANCH  90  92
ATOM     92  C   UNL A   1      32.378  27.751  23.163  1.00  0.00     0.108 A 
ATOM     93  S   UNL A   1      33.908  28.220  23.716  1.00  0.00    -0.122 S 
ATOM     94  C   UNL A   1      31.364  28.589  23.634  1.00  0.00     0.078 A 
ATOM     95  C   UNL A   1      33.230  29.110  24.975  1.00  0.00     0.011 A 
ATOM     96  C   UNL A   1      31.885  29.359  24.766  1.00  0.00    -0.019 A 
ATOM     97  C   UNL A   1      34.056  29.589  26.128  1.00  0.00     0.047 C 
ATOM     98  C   UNL A   1      31.147  30.259  25.710  1.00  0.00     0.037 C 
ATOM     99  C   UNL A   1      33.148  30.064  27.268  1.00  0.00     0.006 C 
ATOM    100  C   UNL A   1      32.045  30.973  26.731  1.00  0.00     0.005 C 
BRANCH  94 101
ATOM    101  C   UNL A   1      29.987  28.475  23.102  1.00  0.00     0.257 C 
ATOM    102  O   UNL A   1      29.423  27.383  23.015  1.00  0.00    -0.269 OA
ATOM    103  N   UNL A   1      29.287  29.650  22.833  1.00  0.00    -0.339 N 
ATOM    104  C   UNL A   1      27.918  29.716  23.317  1.00  0.00     0.120 C 
ATOM    105  C   UNL A   1      29.500  30.369  21.581  1.00  0.00     0.120 C 
ATOM    106  C   UNL A   1      27.554  31.164  23.612  1.00  0.00     0.022 C 
ATOM    107  C   UNL A   1      29.098  31.845  21.711  1.00  0.00     0.022 C 
ATOM    108  C   UNL A   1      27.728  32.036  22.368  1.00  0.00     0.004 C 
ENDBRANCH  94 101
ENDBRANCH  90  92
ENDBRANCH  82  88
ENDBRANCH  77  80
ENDBRANCH  75  76
ENDBRANCH   1  75
TORSDOF 16
ENDMDL
MODEL 3
REMARK VINA RESULT:     -13.5      0.393      7.815
REMARK SMILES O=C(NCCCNC(=O)[C@H]1[C@H]2CC[C@H](CC2)[C@@H]1C(=O)Nc1sc2c(c1C(=O)N1CCCCC1)CCCC2)c1ccc(-c2c3nc(c(-c4c(F)cc(S(=O)(=O)[O-])cc4F)c4ccc([nH]4)c(-c4c(F)cc(S(=O)(=O)[O-])cc4F)c4nc(c(-c5c(F)cc(S(=O)(=O)[O-])cc5F)c5ccc2[nH]5)C=C4)C=C3)cc1
REMARK SMILES IDX 5 1 4 2 3 3 1 4 2 5 38 7 39 8 103 9 40 10 102 11 41 12 42 13
REMARK SMILES IDX 43 14 96 15 44 16 101 17 95 18 97 19 45 20 100 21 94 22
REMARK SMILES IDX 93 23 46 25 80 26 59 27 79 28 60 29 63 30 78 31 98 32 61 33
REMARK SMILES IDX 62 34 77 36 99 37 64 38 47 39 48 40 57 41 49 42 50 43 56 44
REMARK SMILES IDX 58 45 51 46 52 47 53 48 54 49 55 50 81 51 82 52 91 53 83 54
REMARK SMILES IDX 84 55 90 56 92 57 85 58 86 59 87 60 88 61 89 62 65 63 66 64
REMARK SMILES IDX 75 65 67 66 68 67 74 68 76 69 69 70 70 71 71 72 72 73 73 74
REMARK SMILES IDX 6 75 7 76 8 77 9 79 10 80 11 81 17 82 12 83 16 84 14 85
REMARK SMILES IDX 13 86 15 87 18 88 19 89 20 90 21 92 22 93 25 94 23 95 24 96
REMARK SMILES IDX 37 97 34 98 36 99 35 100 26 101 27 102 28 103 29 104 33 105
REMARK SMILES IDX 30 106 32 107 31 108
REMARK H PARENT 3 6 97 24 63 35 7 78 20 91
REMARK Flexibility Score: inf
ROOT
ATOM      1  C   UNL A   1      33.604  29.396  27.248  1.00  0.00     0.042 C 
ENDROOT
BRANCH   1   2
ATOM      2  C   UNL A   1      35.052  29.626  27.661  1.00  0.00     0.118 C 
BRANCH   2   3
ATOM      3  N   UNL A   1      35.183  30.341  28.923  1.00  0.00    -0.352 N 
ATOM      4  O   UNL A   1      36.061  30.990  30.882  1.00  0.00    -0.269 OA
ATOM      5  C   UNL A   1      36.249  30.485  29.778  1.00  0.00     0.251 C 
ATOM      6  H   UNL A   1      34.364  30.803  29.215  1.00  0.00     0.163 HD
BRANCH   5   7
ATOM      7  C   UNL A   1      37.602  30.027  29.395  1.00  0.00     0.039 A 
ATOM      8  C   UNL A   1      38.021  30.047  28.065  1.00  0.00     0.014 A 
ATOM      9  C   UNL A   1      38.496  29.631  30.397  1.00  0.00     0.014 A 
ATOM     10  C   UNL A   1      39.266  29.537  27.718  1.00  0.00     0.010 A 
ATOM     11  C   UNL A   1      39.786  29.214  30.058  1.00  0.00     0.010 A 
ATOM     12  C   UNL A   1      40.176  29.146  28.711  1.00  0.00    -0.014 A 
BRANCH  12  13
ATOM     13  C   UNL A   1      41.564  28.785  28.325  1.00  0.00     0.031 A 
ATOM     14  C   UNL A   1      41.918  27.389  27.898  1.00  0.00     0.074 A 
ATOM     15  C   UNL A   1      42.509  29.746  28.375  1.00  0.00     0.049 A 
ATOM     16  N   UNL A   1      43.086  26.908  27.562  1.00  0.00    -0.248 NA
ATOM     17  C   UNL A   1      40.827  26.402  27.847  1.00  0.00     0.031 C 
ATOM     18  C   UNL A   1      42.279  31.132  28.795  1.00  0.00     0.029 A 
ATOM     19  N   UNL A   1      43.847  29.713  28.075  1.00  0.00    -0.354 N 
ATOM     20  C   UNL A   1      42.883  25.561  27.284  1.00  0.00     0.074 A 
ATOM     21  C   UNL A   1      41.476  25.297  27.501  1.00  0.00     0.031 C 
ATOM     22  C   UNL A   1      43.425  31.819  28.704  1.00  0.00     0.029 A 
ATOM     23  C   UNL A   1      44.487  30.911  28.291  1.00  0.00     0.049 A 
ATOM     24  H   UNL A   1      44.305  28.911  27.737  1.00  0.00     0.167 HD
ATOM     25  C   UNL A   1      43.790  24.638  26.885  1.00  0.00     0.037 A 
ATOM     26  C   UNL A   1      45.791  31.238  28.209  1.00  0.00     0.037 A 
ATOM     27  C   UNL A   1      45.182  24.926  26.650  1.00  0.00     0.049 A 
ATOM     28  C   UNL A   1      46.775  30.183  27.795  1.00  0.00     0.074 A 
ATOM     29  C   UNL A   1      46.165  24.078  26.167  1.00  0.00     0.029 A 
ATOM     30  N   UNL A   1      45.796  26.147  26.896  1.00  0.00    -0.354 N 
ATOM     31  N   UNL A   1      46.550  28.934  27.463  1.00  0.00    -0.248 NA
ATOM     32  C   UNL A   1      48.190  30.574  27.751  1.00  0.00     0.031 C 
ATOM     33  C   UNL A   1      47.382  24.764  26.184  1.00  0.00     0.029 A 
ATOM     34  C   UNL A   1      47.151  26.059  26.620  1.00  0.00     0.049 A 
ATOM     35  H   UNL A   1      45.336  26.954  27.220  1.00  0.00     0.167 HD
ATOM     36  C   UNL A   1      47.793  28.393  27.161  1.00  0.00     0.074 A 
ATOM     37  C   UNL A   1      48.763  29.456  27.325  1.00  0.00     0.031 C 
ATOM     38  C   UNL A   1      48.104  27.128  26.789  1.00  0.00     0.037 A 
BRANCH  25  39
ATOM     39  C   UNL A   1      43.330  23.218  26.693  1.00  0.00     0.058 A 
ATOM     40  C   UNL A   1      43.246  22.627  25.423  1.00  0.00     0.135 A 
ATOM     41  C   UNL A   1      43.062  22.408  27.809  1.00  0.00     0.135 A 
ATOM     42  F   UNL A   1      43.480  23.357  24.320  1.00  0.00    -0.206 F 
ATOM     43  C   UNL A   1      42.905  21.287  25.266  1.00  0.00     0.059 A 
ATOM     44  C   UNL A   1      42.742  21.060  27.677  1.00  0.00     0.059 A 
ATOM     45  F   UNL A   1      43.128  22.922  29.048  1.00  0.00    -0.206 F 
ATOM     46  C   UNL A   1      42.660  20.509  26.399  1.00  0.00     0.060 A 
BRANCH  46  47
ATOM     47  S   UNL A   1      42.252  18.764  26.178  1.00  0.00     0.124 S 
ATOM     48  O   UNL A   1      42.483  18.239  27.520  1.00  0.00    -0.237 OA
ATOM     49  O   UNL A   1      40.858  18.822  25.751  1.00  0.00    -0.237 OA
ATOM     50  O   UNL A   1      43.198  18.318  25.160  1.00  0.00    -0.744 OA
ENDBRANCH  46  47
ENDBRANCH  25  39
BRANCH  26  51
ATOM     51  C   UNL A   1      46.236  32.608  28.576  1.00  0.00     0.058 A 
ATOM     52  C   UNL A   1      46.585  32.933  29.893  1.00  0.00     0.135 A 
ATOM     53  C   UNL A   1      46.326  33.621  27.606  1.00  0.00     0.135 A 
ATOM     54  F   UNL A   1      46.513  32.001  30.855  1.00  0.00    -0.206 F 
ATOM     55  C   UNL A   1      46.985  34.219  30.244  1.00  0.00     0.059 A 
ATOM     56  C   UNL A   1      46.754  34.905  27.926  1.00  0.00     0.059 A 
ATOM     57  F   UNL A   1      46.022  33.358  26.325  1.00  0.00    -0.206 F 
ATOM     58  C   UNL A   1      47.066  35.198  29.251  1.00  0.00     0.060 A 
BRANCH  58  59
ATOM     59  S   UNL A   1      47.608  36.857  29.712  1.00  0.00     0.124 S 
ATOM     60  O   UNL A   1      46.485  37.668  29.257  1.00  0.00    -0.237 OA
ATOM     61  O   UNL A   1      47.768  36.737  31.158  1.00  0.00    -0.237 OA
ATOM     62  O   UNL A   1      48.852  37.022  28.964  1.00  0.00    -0.744 OA
ENDBRANCH  58  59
ENDBRANCH  26  51
BRANCH  38  63
ATOM     63  C   UNL A   1      49.550  26.823  26.518  1.00  0.00     0.058 A 
ATOM     64  C   UNL A   1      50.387  26.296  27.514  1.00  0.00     0.135 A 
ATOM     65  C   UNL A   1      50.087  26.996  25.232  1.00  0.00     0.135 A 
ATOM     66  F   UNL A   1      49.926  26.125  28.763  1.00  0.00    -0.206 F 
ATOM     67  C   UNL A   1      51.709  25.960  27.247  1.00  0.00     0.059 A 
ATOM     68  C   UNL A   1      51.398  26.640  24.936  1.00  0.00     0.059 A 
ATOM     69  F   UNL A   1      49.328  27.493  24.243  1.00  0.00    -0.206 F 
ATOM     70  C   UNL A   1      52.203  26.127  25.953  1.00  0.00     0.060 A 
BRANCH  70  71
ATOM     71  S   UNL A   1      53.904  25.629  25.607  1.00  0.00     0.124 S 
ATOM     72  O   UNL A   1      54.444  25.471  26.954  1.00  0.00    -0.237 OA
ATOM     73  O   UNL A   1      53.718  24.396  24.850  1.00  0.00    -0.237 OA
ATOM     74  O   UNL A   1      54.439  26.753  24.844  1.00  0.00    -0.744 OA
ENDBRANCH  70  71
ENDBRANCH  38  63
ENDBRANCH  12  13
ENDBRANCH   5   7
ENDBRANCH   2   3
ENDBRANCH   1   2
BRANCH   1  75
ATOM     75  C   UNL A   1      33.403  29.047  25.784  1.00  0.00     0.117 C 
BRANCH  75  76
ATOM     76  N   UNL A   1      34.106  27.856  25.347  1.00  0.00    -0.356 N 
ATOM     77  C   UNL A   1      33.632  26.657  24.910  1.00  0.00     0.224 C 
ATOM     78  H   UNL A   1      35.088  27.926  25.370  1.00  0.00     0.163 HD
ATOM     79  O   UNL A   1      34.437  25.906  24.355  1.00  0.00    -0.275 OA
BRANCH  77  80
ATOM     80  C   UNL A   1      32.154  26.297  25.096  1.00  0.00     0.094 C 
ATOM     81  C   UNL A   1      31.316  27.123  24.079  1.00  0.00     0.002 C 
ATOM     82  C   UNL A   1      31.906  24.771  24.869  1.00  0.00     0.094 C 
ATOM     83  C   UNL A   1      31.716  26.760  22.635  1.00  0.00     0.005 C 
ATOM     84  C   UNL A   1      29.834  26.777  24.282  1.00  0.00     0.005 C 
ATOM     85  C   UNL A   1      30.930  24.596  23.653  1.00  0.00     0.002 C 
ATOM     86  C   UNL A   1      31.594  25.247  22.419  1.00  0.00     0.005 C 
ATOM     87  C   UNL A   1      29.585  25.330  23.858  1.00  0.00     0.005 C 
BRANCH  82  88
ATOM     88  C   UNL A   1      31.375  24.013  26.113  1.00  0.00     0.229 C 
ATOM     89  O   UNL A   1      30.387  24.414  26.735  1.00  0.00    -0.274 OA
ATOM     90  N   UNL A   1      31.883  22.781  26.453  1.00  0.00    -0.317 N 
ATOM     91  H   UNL A   1      31.256  22.179  26.916  1.00  0.00     0.170 HD
BRANCH  90  92
ATOM     92  C   UNL A   1      33.146  22.269  26.238  1.00  0.00     0.108 A 
ATOM     93  S   UNL A   1      34.437  23.013  27.043  1.00  0.00    -0.122 S 
ATOM     94  C   UNL A   1      33.529  21.085  25.602  1.00  0.00     0.078 A 
ATOM     95  C   UNL A   1      35.561  22.156  26.126  1.00  0.00     0.011 A 
ATOM     96  C   UNL A   1      34.989  21.066  25.494  1.00  0.00    -0.019 A 
ATOM     97  C   UNL A   1      37.003  22.554  26.087  1.00  0.00     0.047 C 
ATOM     98  C   UNL A   1      35.864  20.104  24.749  1.00  0.00     0.037 C 
ATOM     99  C   UNL A   1      37.720  21.834  24.937  1.00  0.00     0.006 C 
ATOM    100  C   UNL A   1      37.369  20.348  24.935  1.00  0.00     0.005 C 
BRANCH  94 101
ATOM    101  C   UNL A   1      32.510  20.182  25.021  1.00  0.00     0.257 C 
ATOM    102  O   UNL A   1      31.405  20.602  24.673  1.00  0.00    -0.269 OA
ATOM    103  N   UNL A   1      32.880  18.867  24.742  1.00  0.00    -0.339 N 
ATOM    104  C   UNL A   1      32.496  18.345  23.441  1.00  0.00     0.120 C 
ATOM    105  C   UNL A   1      32.886  17.859  25.797  1.00  0.00     0.120 C 
ATOM    106  C   UNL A   1      33.504  17.296  22.997  1.00  0.00     0.022 C 
ATOM    107  C   UNL A   1      33.815  16.689  25.445  1.00  0.00     0.022 C 
ATOM    108  C   UNL A   1      33.604  16.166  24.022  1.00  0.00     0.004 C 
ENDBRANCH  94 101
ENDBRANCH  90  92
ENDBRANCH  82  88
ENDBRANCH  77  80
ENDBRANCH  75  76
ENDBRANCH   1  75
TORSDOF 16
ENDMDL
