MODEL 1
REMARK VINA RESULT:     -11.7      0.000      0.000
REMARK SMILES C/C=C/C[C@]1(C(=O)NCCCNC(=O)c2ccc(-c3c4nc(c(-c5c(F)cc(S(=O)(=O)[O-])cc5F)c5ccc([nH]5)c(-c5c(F)cc(S(=O)(=O)[O-])cc5F)c5nc(c(-c6c(F)cc(S(=O)(=O)[O-])cc6F)c6ccc3[nH]6)C=C5)C=C4)cc2)CCN(C(=O)OC(C)(C)C)C1
REMARK SMILES IDX 10 1 9 2 8 3 6 4 7 5 5 7 81 8 91 9 82 10 83 11 4 12 3 13
REMARK SMILES IDX 1 14 2 15 84 16 85 17 86 18 87 19 88 20 89 21 90 22 11 23
REMARK SMILES IDX 12 24 13 25 14 27 15 28 16 29 80 30 17 31 79 32 18 33 19 34
REMARK SMILES IDX 20 35 73 36 21 37 78 38 72 39 74 40 22 41 77 42 71 43 70 44
REMARK SMILES IDX 23 46 57 47 36 48 56 49 37 50 40 51 55 52 75 53 38 54 39 55
REMARK SMILES IDX 54 57 76 58 41 59 24 60 25 61 34 62 26 63 27 64 33 65 35 66
REMARK SMILES IDX 28 67 29 68 30 69 31 70 32 71 58 72 59 73 68 74 60 75 61 76
REMARK SMILES IDX 67 77 69 78 62 79 63 80 64 81 65 82 66 83 42 84 43 85 52 86
REMARK SMILES IDX 44 87 45 88 51 89 53 90 46 91 47 92 48 93 49 94 50 95
REMARK H PARENT 8 6 12 26 74 45 40 56
REMARK Flexibility Score: inf
ROOT
ATOM      1  C   UNL A   1      38.914  22.290  26.301  1.00  0.00     0.042 C 
ENDROOT
BRANCH   1   2
ATOM      2  C   UNL A   1      37.715  23.124  25.865  1.00  0.00     0.117 C 
BRANCH   2   3
ATOM      3  N   UNL A   1      37.498  23.087  24.427  1.00  0.00    -0.355 N 
ATOM      4  C   UNL A   1      36.387  23.024  23.646  1.00  0.00     0.228 C 
ATOM      5  O   UNL A   1      36.615  22.925  22.435  1.00  0.00    -0.274 OA
ATOM      6  H   UNL A   1      38.335  23.113  23.909  1.00  0.00     0.163 HD
BRANCH   4   7
ATOM      7  C   UNL A   1      34.947  23.037  24.204  1.00  0.00     0.072 C 
ATOM      8  C   UNL A   1      33.921  22.965  23.044  1.00  0.00     0.041 C 
ATOM      9  C   UNL A   1      34.673  21.792  25.058  1.00  0.00     0.140 C 
ATOM     10  C   UNL A   1      32.915  21.884  23.424  1.00  0.00     0.124 C 
ATOM     11  N   UNL A   1      33.570  21.093  24.439  1.00  0.00    -0.307 N 
BRANCH   7  12
ATOM     12  C   UNL A   1      34.709  24.349  25.019  1.00  0.00     0.046 C 
BRANCH  12  13
ATOM     13  C   UNL A   1      34.050  25.475  24.258  1.00  0.00    -0.030 C 
ATOM     14  C   UNL A   1      33.243  27.812  23.909  1.00  0.00     0.035 C 
ATOM     15  C   UNL A   1      33.982  26.752  24.661  1.00  0.00    -0.035 C 
ENDBRANCH  12  13
ENDBRANCH   7  12
BRANCH  11  16
ATOM     16  C   UNL A   1      33.190  19.860  24.903  1.00  0.00     0.410 C 
ATOM     17  O   UNL A   1      32.271  19.716  25.704  1.00  0.00    -0.224 OA
BRANCH  16  18
ATOM     18  O   UNL A   1      33.942  18.851  24.398  1.00  0.00    -0.444 OA
BRANCH  18  19
ATOM     19  C   UNL A   1      33.288  17.701  23.796  1.00  0.00     0.106 C 
ATOM     20  C   UNL A   1      32.595  16.819  24.846  1.00  0.00     0.056 C 
ATOM     21  C   UNL A   1      32.320  18.143  22.692  1.00  0.00     0.056 C 
ATOM     22  C   UNL A   1      34.415  16.878  23.156  1.00  0.00     0.056 C 
ENDBRANCH  18  19
ENDBRANCH  16  18
ENDBRANCH  11  16
ENDBRANCH   4   7
ENDBRANCH   2   3
ENDBRANCH   1   2
BRANCH   1  23
ATOM     23  C   UNL A   1      39.987  23.081  27.039  1.00  0.00     0.118 C 
BRANCH  23  24
ATOM     24  N   UNL A   1      41.044  23.545  26.152  1.00  0.00    -0.352 N 
ATOM     25  C   UNL A   1      41.760  24.717  26.178  1.00  0.00     0.251 C 
ATOM     26  H   UNL A   1      41.282  22.926  25.424  1.00  0.00     0.163 HD
ATOM     27  O   UNL A   1      42.458  25.024  25.216  1.00  0.00    -0.269 OA
BRANCH  25  28
ATOM     28  C   UNL A   1      41.674  25.615  27.351  1.00  0.00     0.039 A 
ATOM     29  C   UNL A   1      42.738  26.478  27.625  1.00  0.00     0.014 A 
ATOM     30  C   UNL A   1      40.553  25.599  28.184  1.00  0.00     0.014 A 
ATOM     31  C   UNL A   1      42.646  27.375  28.692  1.00  0.00     0.010 A 
ATOM     32  C   UNL A   1      40.426  26.551  29.193  1.00  0.00     0.010 A 
ATOM     33  C   UNL A   1      41.472  27.448  29.460  1.00  0.00    -0.014 A 
BRANCH  33  34
ATOM     34  C   UNL A   1      41.311  28.451  30.545  1.00  0.00     0.031 A 
ATOM     35  C   UNL A   1      42.145  28.349  31.795  1.00  0.00     0.074 A 
ATOM     36  C   UNL A   1      40.357  29.399  30.443  1.00  0.00     0.049 A 
ATOM     37  N   UNL A   1      42.072  29.052  32.896  1.00  0.00    -0.248 NA
ATOM     38  C   UNL A   1      43.178  27.300  31.823  1.00  0.00     0.031 C 
ATOM     39  C   UNL A   1      39.453  29.571  29.303  1.00  0.00     0.029 A 
ATOM     40  N   UNL A   1      39.969  30.383  31.321  1.00  0.00    -0.354 N 
ATOM     41  C   UNL A   1      43.027  28.516  33.752  1.00  0.00     0.074 A 
ATOM     42  C   UNL A   1      43.641  27.404  33.062  1.00  0.00     0.031 C 
ATOM     43  C   UNL A   1      38.624  30.598  29.548  1.00  0.00     0.029 A 
ATOM     44  C   UNL A   1      38.901  31.129  30.879  1.00  0.00     0.049 A 
ATOM     45  H   UNL A   1      40.414  30.539  32.185  1.00  0.00     0.167 HD
ATOM     46  C   UNL A   1      43.370  28.926  34.997  1.00  0.00     0.037 A 
ATOM     47  C   UNL A   1      38.204  32.111  31.485  1.00  0.00     0.037 A 
ATOM     48  C   UNL A   1      42.778  30.056  35.664  1.00  0.00     0.049 A 
ATOM     49  C   UNL A   1      38.610  32.549  32.868  1.00  0.00     0.074 A 
ATOM     50  C   UNL A   1      43.115  30.601  36.890  1.00  0.00     0.029 A 
ATOM     51  N   UNL A   1      41.725  30.810  35.166  1.00  0.00    -0.354 N 
ATOM     52  N   UNL A   1      39.570  32.082  33.632  1.00  0.00    -0.248 NA
ATOM     53  C   UNL A   1      37.843  33.647  33.474  1.00  0.00     0.031 C 
ATOM     54  C   UNL A   1      42.225  31.643  37.164  1.00  0.00     0.029 A 
ATOM     55  C   UNL A   1      41.379  31.794  36.078  1.00  0.00     0.049 A 
ATOM     56  H   UNL A   1      41.288  30.667  34.295  1.00  0.00     0.167 HD
ATOM     57  C   UNL A   1      39.543  32.851  34.791  1.00  0.00     0.074 A 
ATOM     58  C   UNL A   1      38.480  33.819  34.624  1.00  0.00     0.031 C 
ATOM     59  C   UNL A   1      40.328  32.764  35.893  1.00  0.00     0.037 A 
BRANCH  46  60
ATOM     60  C   UNL A   1      44.433  28.155  35.732  1.00  0.00     0.058 A 
ATOM     61  C   UNL A   1      45.793  28.482  35.630  1.00  0.00     0.135 A 
ATOM     62  C   UNL A   1      44.073  27.122  36.616  1.00  0.00     0.135 A 
ATOM     63  F   UNL A   1      46.195  29.448  34.788  1.00  0.00    -0.206 F 
ATOM     64  C   UNL A   1      46.761  27.808  36.367  1.00  0.00     0.059 A 
ATOM     65  C   UNL A   1      45.021  26.455  37.385  1.00  0.00     0.059 A 
ATOM     66  F   UNL A   1      42.786  26.765  36.750  1.00  0.00    -0.206 F 
ATOM     67  C   UNL A   1      46.365  26.802  37.249  1.00  0.00     0.060 A 
BRANCH  67  68
ATOM     68  S   UNL A   1      47.630  25.968  38.229  1.00  0.00     0.124 S 
ATOM     69  O   UNL A   1      48.792  26.819  37.990  1.00  0.00    -0.237 OA
ATOM     70  O   UNL A   1      47.067  26.025  39.574  1.00  0.00    -0.237 OA
ATOM     71  O   UNL A   1      47.698  24.635  37.637  1.00  0.00    -0.744 OA
ENDBRANCH  67  68
ENDBRANCH  46  60
BRANCH  47  72
ATOM     72  C   UNL A   1      37.043  32.741  30.798  1.00  0.00     0.058 A 
ATOM     73  C   UNL A   1      35.727  32.335  31.072  1.00  0.00     0.135 A 
ATOM     74  C   UNL A   1      37.225  33.753  29.844  1.00  0.00     0.135 A 
ATOM     75  F   UNL A   1      35.498  31.367  31.972  1.00  0.00    -0.206 F 
ATOM     76  C   UNL A   1      34.639  32.887  30.403  1.00  0.00     0.059 A 
ATOM     77  C   UNL A   1      36.151  34.343  29.185  1.00  0.00     0.059 A 
ATOM     78  F   UNL A   1      38.460  34.194  29.558  1.00  0.00    -0.206 F 
ATOM     79  C   UNL A   1      34.862  33.892  29.461  1.00  0.00     0.060 A 
BRANCH  79  80
ATOM     80  S   UNL A   1      33.442  34.619  28.615  1.00  0.00     0.124 S 
ATOM     81  O   UNL A   1      34.048  35.775  27.965  1.00  0.00    -0.237 OA
ATOM     82  O   UNL A   1      33.024  33.534  27.732  1.00  0.00    -0.237 OA
ATOM     83  O   UNL A   1      32.520  34.918  29.707  1.00  0.00    -0.744 OA
ENDBRANCH  79  80
ENDBRANCH  47  72
BRANCH  59  84
ATOM     84  C   UNL A   1      40.110  33.768  36.992  1.00  0.00     0.058 A 
ATOM     85  C   UNL A   1      40.754  35.013  36.997  1.00  0.00     0.135 A 
ATOM     86  C   UNL A   1      39.181  33.505  38.013  1.00  0.00     0.135 A 
ATOM     87  F   UNL A   1      41.656  35.312  36.049  1.00  0.00    -0.206 F 
ATOM     88  C   UNL A   1      40.498  35.959  37.984  1.00  0.00     0.059 A 
ATOM     89  C   UNL A   1      38.886  34.447  38.992  1.00  0.00     0.059 A 
ATOM     90  F   UNL A   1      38.529  32.332  38.049  1.00  0.00    -0.206 F 
ATOM     91  C   UNL A   1      39.556  35.670  38.973  1.00  0.00     0.060 A 
BRANCH  91  92
ATOM     92  S   UNL A   1      39.194  36.927  40.217  1.00  0.00     0.124 S 
ATOM     93  O   UNL A   1      40.528  37.231  40.725  1.00  0.00    -0.237 OA
ATOM     94  O   UNL A   1      38.564  37.977  39.424  1.00  0.00    -0.237 OA
ATOM     95  O   UNL A   1      38.309  36.238  41.152  1.00  0.00    -0.744 OA
ENDBRANCH  91  92
ENDBRANCH  59  84
ENDBRANCH  33  34
ENDBRANCH  25  28
ENDBRANCH  23  24
ENDBRANCH   1  23
TORSDOF 18
ENDMDL
MODEL 2
REMARK VINA RESULT:     -11.6      4.873     10.151
REMARK SMILES C/C=C/C[C@]1(C(=O)NCCCNC(=O)c2ccc(-c3c4nc(c(-c5c(F)cc(S(=O)(=O)[O-])cc5F)c5ccc([nH]5)c(-c5c(F)cc(S(=O)(=O)[O-])cc5F)c5nc(c(-c6c(F)cc(S(=O)(=O)[O-])cc6F)c6ccc3[nH]6)C=C5)C=C4)cc2)CCN(C(=O)OC(C)(C)C)C1
REMARK SMILES IDX 10 1 9 2 8 3 6 4 7 5 5 7 81 8 91 9 82 10 83 11 4 12 3 13
REMARK SMILES IDX 1 14 2 15 84 16 85 17 86 18 87 19 88 20 89 21 90 22 11 23
REMARK SMILES IDX 12 24 13 25 14 27 15 28 16 29 80 30 17 31 79 32 18 33 19 34
REMARK SMILES IDX 20 35 73 36 21 37 78 38 72 39 74 40 22 41 77 42 71 43 70 44
REMARK SMILES IDX 23 46 57 47 36 48 56 49 37 50 40 51 55 52 75 53 38 54 39 55
REMARK SMILES IDX 54 57 76 58 41 59 24 60 25 61 34 62 26 63 27 64 33 65 35 66
REMARK SMILES IDX 28 67 29 68 30 69 31 70 32 71 58 72 59 73 68 74 60 75 61 76
REMARK SMILES IDX 67 77 69 78 62 79 63 80 64 81 65 82 66 83 42 84 43 85 52 86
REMARK SMILES IDX 44 87 45 88 51 89 53 90 46 91 47 92 48 93 49 94 50 95
REMARK H PARENT 8 6 12 26 74 45 40 56
REMARK Flexibility Score: inf
ROOT
ATOM      1  C   UNL A   1      32.156  27.615  27.112  1.00  0.00     0.042 C 
ENDROOT
BRANCH   1   2
ATOM      2  C   UNL A   1      32.017  26.451  26.137  1.00  0.00     0.117 C 
BRANCH   2   3
ATOM      3  N   UNL A   1      31.341  25.304  26.725  1.00  0.00    -0.355 N 
ATOM      4  C   UNL A   1      31.663  23.989  26.855  1.00  0.00     0.228 C 
ATOM      5  O   UNL A   1      30.773  23.290  27.352  1.00  0.00    -0.274 OA
ATOM      6  H   UNL A   1      30.463  25.528  27.109  1.00  0.00     0.163 HD
BRANCH   4   7
ATOM      7  C   UNL A   1      33.008  23.388  26.395  1.00  0.00     0.072 C 
ATOM      8  C   UNL A   1      33.496  22.322  27.410  1.00  0.00     0.041 C 
ATOM      9  C   UNL A   1      32.853  22.636  25.067  1.00  0.00     0.140 C 
ATOM     10  C   UNL A   1      33.893  21.098  26.592  1.00  0.00     0.124 C 
ATOM     11  N   UNL A   1      33.243  21.266  25.313  1.00  0.00    -0.307 N 
BRANCH   7  12
ATOM     12  C   UNL A   1      34.082  24.520  26.285  1.00  0.00     0.046 C 
BRANCH  12  13
ATOM     13  C   UNL A   1      35.326  24.161  25.509  1.00  0.00    -0.030 C 
ATOM     14  C   UNL A   1      37.723  23.518  25.233  1.00  0.00     0.035 C 
ATOM     15  C   UNL A   1      36.495  23.781  26.044  1.00  0.00    -0.035 C 
ENDBRANCH  12  13
ENDBRANCH   7  12
BRANCH  11  16
ATOM     16  C   UNL A   1      33.073  20.317  24.339  1.00  0.00     0.410 C 
ATOM     17  O   UNL A   1      32.136  20.350  23.548  1.00  0.00    -0.224 OA
BRANCH  16  18
ATOM     18  O   UNL A   1      34.029  19.355  24.367  1.00  0.00    -0.444 OA
BRANCH  18  19
ATOM     19  C   UNL A   1      33.639  17.955  24.347  1.00  0.00     0.106 C 
ATOM     20  C   UNL A   1      32.949  17.569  23.029  1.00  0.00     0.056 C 
ATOM     21  C   UNL A   1      34.839  17.052  24.651  1.00  0.00     0.056 C 
ATOM     22  C   UNL A   1      32.614  17.801  25.481  1.00  0.00     0.056 C 
ENDBRANCH  18  19
ENDBRANCH  16  18
ENDBRANCH  11  16
ENDBRANCH   4   7
ENDBRANCH   2   3
ENDBRANCH   1   2
BRANCH   1  23
ATOM     23  C   UNL A   1      33.501  28.327  27.043  1.00  0.00     0.118 C 
BRANCH  23  24
ATOM     24  N   UNL A   1      33.397  29.742  27.363  1.00  0.00    -0.352 N 
ATOM     25  C   UNL A   1      34.290  30.565  28.006  1.00  0.00     0.251 C 
ATOM     26  H   UNL A   1      32.562  30.177  27.075  1.00  0.00     0.163 HD
ATOM     27  O   UNL A   1      33.932  31.679  28.377  1.00  0.00    -0.269 OA
BRANCH  25  28
ATOM     28  C   UNL A   1      35.671  30.103  28.268  1.00  0.00     0.039 A 
ATOM     29  C   UNL A   1      36.596  30.097  27.220  1.00  0.00     0.014 A 
ATOM     30  C   UNL A   1      36.052  29.668  29.539  1.00  0.00     0.014 A 
ATOM     31  C   UNL A   1      37.919  29.723  27.465  1.00  0.00     0.010 A 
ATOM     32  C   UNL A   1      37.388  29.377  29.801  1.00  0.00     0.010 A 
ATOM     33  C   UNL A   1      38.337  29.399  28.766  1.00  0.00    -0.014 A 
BRANCH  33  34
ATOM     34  C   UNL A   1      39.756  29.082  29.074  1.00  0.00     0.031 A 
ATOM     35  C   UNL A   1      40.671  30.157  29.599  1.00  0.00     0.074 A 
ATOM     36  C   UNL A   1      40.242  27.854  28.798  1.00  0.00     0.049 A 
ATOM     37  N   UNL A   1      41.960  30.110  29.816  1.00  0.00    -0.248 NA
ATOM     38  C   UNL A   1      40.062  31.465  29.893  1.00  0.00     0.031 C 
ATOM     39  C   UNL A   1      39.467  26.742  28.242  1.00  0.00     0.029 A 
ATOM     40  N   UNL A   1      41.510  27.340  28.925  1.00  0.00    -0.354 N 
ATOM     41  C   UNL A   1      42.319  31.383  30.245  1.00  0.00     0.074 A 
ATOM     42  C   UNL A   1      41.121  32.193  30.221  1.00  0.00     0.031 C 
ATOM     43  C   UNL A   1      40.271  25.680  28.082  1.00  0.00     0.029 A 
ATOM     44  C   UNL A   1      41.629  26.044  28.477  1.00  0.00     0.049 A 
ATOM     45  H   UNL A   1      42.263  27.850  29.302  1.00  0.00     0.167 HD
ATOM     46  C   UNL A   1      43.535  31.830  30.639  1.00  0.00     0.037 A 
ATOM     47  C   UNL A   1      42.711  25.247  28.370  1.00  0.00     0.037 A 
ATOM     48  C   UNL A   1      44.715  31.007  30.693  1.00  0.00     0.049 A 
ATOM     49  C   UNL A   1      44.051  25.769  28.817  1.00  0.00     0.074 A 
ATOM     50  C   UNL A   1      45.975  31.345  31.156  1.00  0.00     0.029 A 
ATOM     51  N   UNL A   1      44.786  29.688  30.267  1.00  0.00    -0.354 N 
ATOM     52  N   UNL A   1      44.356  26.952  29.297  1.00  0.00    -0.248 NA
ATOM     53  C   UNL A   1      45.194  24.851  28.714  1.00  0.00     0.031 C 
ATOM     54  C   UNL A   1      46.822  30.253  30.951  1.00  0.00     0.029 A 
ATOM     55  C   UNL A   1      46.076  29.211  30.425  1.00  0.00     0.049 A 
ATOM     56  H   UNL A   1      44.031  29.170  29.905  1.00  0.00     0.167 HD
ATOM     57  C   UNL A   1      45.716  26.908  29.583  1.00  0.00     0.074 A 
ATOM     58  C   UNL A   1      46.173  25.580  29.233  1.00  0.00     0.031 C 
ATOM     59  C   UNL A   1      46.515  27.880  30.089  1.00  0.00     0.037 A 
BRANCH  46  60
ATOM     60  C   UNL A   1      43.666  33.274  31.041  1.00  0.00     0.058 A 
ATOM     61  C   UNL A   1      43.413  33.705  32.352  1.00  0.00     0.135 A 
ATOM     62  C   UNL A   1      44.132  34.226  30.118  1.00  0.00     0.135 A 
ATOM     63  F   UNL A   1      42.950  32.842  33.271  1.00  0.00    -0.206 F 
ATOM     64  C   UNL A   1      43.605  35.030  32.732  1.00  0.00     0.059 A 
ATOM     65  C   UNL A   1      44.359  35.549  30.484  1.00  0.00     0.059 A 
ATOM     66  F   UNL A   1      44.387  33.869  28.850  1.00  0.00    -0.206 F 
ATOM     67  C   UNL A   1      44.086  35.943  31.793  1.00  0.00     0.060 A 
BRANCH  67  68
ATOM     68  S   UNL A   1      44.369  37.647  32.315  1.00  0.00     0.124 S 
ATOM     69  O   UNL A   1      45.823  37.675  32.443  1.00  0.00    -0.237 OA
ATOM     70  O   UNL A   1      43.816  38.408  31.200  1.00  0.00    -0.237 OA
ATOM     71  O   UNL A   1      43.629  37.748  33.569  1.00  0.00    -0.744 OA
ENDBRANCH  67  68
ENDBRANCH  46  60
BRANCH  47  72
ATOM     72  C   UNL A   1      42.579  23.876  27.803  1.00  0.00     0.058 A 
ATOM     73  C   UNL A   1      42.554  23.660  26.416  1.00  0.00     0.135 A 
ATOM     74  C   UNL A   1      42.464  22.754  28.637  1.00  0.00     0.135 A 
ATOM     75  F   UNL A   1      42.655  24.701  25.574  1.00  0.00    -0.206 F 
ATOM     76  C   UNL A   1      42.387  22.388  25.878  1.00  0.00     0.059 A 
ATOM     77  C   UNL A   1      42.328  21.468  28.124  1.00  0.00     0.059 A 
ATOM     78  F   UNL A   1      42.502  22.900  29.971  1.00  0.00    -0.206 F 
ATOM     79  C   UNL A   1      42.275  21.297  26.742  1.00  0.00     0.060 A 
BRANCH  79  80
ATOM     80  S   UNL A   1      42.083  19.647  26.034  1.00  0.00     0.124 S 
ATOM     81  O   UNL A   1      42.496  18.800  27.147  1.00  0.00    -0.237 OA
ATOM     82  O   UNL A   1      40.662  19.620  25.702  1.00  0.00    -0.237 OA
ATOM     83  O   UNL A   1      42.987  19.668  24.887  1.00  0.00    -0.744 OA
ENDBRANCH  79  80
ENDBRANCH  47  72
BRANCH  59  84
ATOM     84  C   UNL A   1      47.957  27.539  30.348  1.00  0.00     0.058 A 
ATOM     85  C   UNL A   1      48.360  26.839  31.495  1.00  0.00     0.135 A 
ATOM     86  C   UNL A   1      48.939  27.852  29.392  1.00  0.00     0.135 A 
ATOM     87  F   UNL A   1      47.464  26.521  32.443  1.00  0.00    -0.206 F 
ATOM     88  C   UNL A   1      49.687  26.474  31.694  1.00  0.00     0.059 A 
ATOM     89  C   UNL A   1      50.266  27.470  29.556  1.00  0.00     0.059 A 
ATOM     90  F   UNL A   1      48.606  28.513  28.272  1.00  0.00    -0.206 F 
ATOM     91  C   UNL A   1      50.632  26.788  30.715  1.00  0.00     0.060 A 
BRANCH  91  92
ATOM     92  S   UNL A   1      52.341  26.261  30.962  1.00  0.00     0.124 S 
ATOM     93  O   UNL A   1      52.766  25.989  29.592  1.00  0.00    -0.237 OA
ATOM     94  O   UNL A   1      52.940  27.434  31.589  1.00  0.00    -0.237 OA
ATOM     95  O   UNL A   1      52.216  25.090  31.824  1.00  0.00    -0.744 OA
ENDBRANCH  91  92
ENDBRANCH  59  84
ENDBRANCH  33  34
ENDBRANCH  25  28
ENDBRANCH  23  24
ENDBRANCH   1  23
TORSDOF 18
ENDMDL
MODEL 3
REMARK VINA RESULT:     -11.2      6.524     11.760
REMARK SMILES C/C=C/C[C@]1(C(=O)NCCCNC(=O)c2ccc(-c3c4nc(c(-c5c(F)cc(S(=O)(=O)[O-])cc5F)c5ccc([nH]5)c(-c5c(F)cc(S(=O)(=O)[O-])cc5F)c5nc(c(-c6c(F)cc(S(=O)(=O)[O-])cc6F)c6ccc3[nH]6)C=C5)C=C4)cc2)CCN(C(=O)OC(C)(C)C)C1
REMARK SMILES IDX 10 1 9 2 8 3 6 4 7 5 5 7 81 8 91 9 82 10 83 11 4 12 3 13
REMARK SMILES IDX 1 14 2 15 84 16 85 17 86 18 87 19 88 20 89 21 90 22 11 23
REMARK SMILES IDX 12 24 13 25 14 27 15 28 16 29 80 30 17 31 79 32 18 33 19 34
REMARK SMILES IDX 20 35 73 36 21 37 78 38 72 39 74 40 22 41 77 42 71 43 70 44
REMARK SMILES IDX 23 46 57 47 36 48 56 49 37 50 40 51 55 52 75 53 38 54 39 55
REMARK SMILES IDX 54 57 76 58 41 59 24 60 25 61 34 62 26 63 27 64 33 65 35 66
REMARK SMILES IDX 28 67 29 68 30 69 31 70 32 71 58 72 59 73 68 74 60 75 61 76
REMARK SMILES IDX 67 77 69 78 62 79 63 80 64 81 65 82 66 83 42 84 43 85 52 86
REMARK SMILES IDX 44 87 45 88 51 89 53 90 46 91 47 92 48 93 49 94 50 95
REMARK H PARENT 8 6 12 26 74 45 40 56
REMARK Flexibility Score: inf
ROOT
ATOM      1  C   UNL A   1      34.333  29.905  27.297  1.00  0.00     0.042 C 
ENDROOT
BRANCH   1   2
ATOM      2  C   UNL A   1      33.913  28.729  26.422  1.00  0.00     0.117 C 
BRANCH   2   3
ATOM      3  N   UNL A   1      34.038  29.014  25.001  1.00  0.00    -0.355 N 
ATOM      4  C   UNL A   1      33.713  28.327  23.873  1.00  0.00     0.228 C 
ATOM      5  O   UNL A   1      34.057  28.877  22.821  1.00  0.00    -0.274 OA
ATOM      6  H   UNL A   1      34.445  29.892  24.817  1.00  0.00     0.163 HD
BRANCH   4   7
ATOM      7  C   UNL A   1      33.006  26.955  23.881  1.00  0.00     0.072 C 
ATOM      8  C   UNL A   1      32.733  26.483  22.429  1.00  0.00     0.041 C 
ATOM      9  C   UNL A   1      33.904  25.872  24.492  1.00  0.00     0.140 C 
ATOM     10  C   UNL A   1      33.210  25.037  22.350  1.00  0.00     0.124 C 
ATOM     11  N   UNL A   1      34.101  24.866  23.474  1.00  0.00    -0.307 N 
BRANCH   7  12
ATOM     12  C   UNL A   1      31.647  27.066  24.647  1.00  0.00     0.046 C 
BRANCH  12  13
ATOM     13  C   UNL A   1      30.454  27.444  23.801  1.00  0.00    -0.030 C 
ATOM     14  C   UNL A   1      28.835  29.018  22.735  1.00  0.00     0.035 C 
ATOM     15  C   UNL A   1      30.075  28.696  23.506  1.00  0.00    -0.035 C 
ENDBRANCH  12  13
ENDBRANCH   7  12
BRANCH  11  16
ATOM     16  C   UNL A   1      34.981  23.837  23.685  1.00  0.00     0.410 C 
ATOM     17  O   UNL A   1      35.449  23.176  22.762  1.00  0.00    -0.224 OA
BRANCH  16  18
ATOM     18  O   UNL A   1      35.250  23.633  24.998  1.00  0.00    -0.444 OA
BRANCH  18  19
ATOM     19  C   UNL A   1      34.746  22.440  25.656  1.00  0.00     0.106 C 
ATOM     20  C   UNL A   1      35.791  21.313  25.685  1.00  0.00     0.056 C 
ATOM     21  C   UNL A   1      34.224  22.771  27.059  1.00  0.00     0.056 C 
ATOM     22  C   UNL A   1      33.564  21.967  24.796  1.00  0.00     0.056 C 
ENDBRANCH  18  19
ENDBRANCH  16  18
ENDBRANCH  11  16
ENDBRANCH   4   7
ENDBRANCH   2   3
ENDBRANCH   1   2
BRANCH   1  23
ATOM     23  C   UNL A   1      35.542  29.622  28.180  1.00  0.00     0.118 C 
BRANCH  23  24
ATOM     24  N   UNL A   1      35.507  30.372  29.427  1.00  0.00    -0.352 N 
ATOM     25  C   UNL A   1      36.512  30.621  30.330  1.00  0.00     0.251 C 
ATOM     26  H   UNL A   1      34.631  30.759  29.659  1.00  0.00     0.163 HD
ATOM     27  O   UNL A   1      36.237  31.088  31.432  1.00  0.00    -0.269 OA
BRANCH  25  28
ATOM     28  C   UNL A   1      37.916  30.310  29.984  1.00  0.00     0.039 A 
ATOM     29  C   UNL A   1      38.807  29.963  31.004  1.00  0.00     0.014 A 
ATOM     30  C   UNL A   1      38.357  30.369  28.660  1.00  0.00     0.014 A 
ATOM     31  C   UNL A   1      40.119  29.606  30.686  1.00  0.00     0.010 A 
ATOM     32  C   UNL A   1      39.639  29.931  28.337  1.00  0.00     0.010 A 
ATOM     33  C   UNL A   1      40.536  29.548  29.347  1.00  0.00    -0.014 A 
BRANCH  33  34
ATOM     34  C   UNL A   1      41.899  29.088  28.973  1.00  0.00     0.031 A 
ATOM     35  C   UNL A   1      43.030  30.078  28.887  1.00  0.00     0.074 A 
ATOM     36  C   UNL A   1      42.099  27.800  28.626  1.00  0.00     0.049 A 
ATOM     37  N   UNL A   1      44.257  29.896  28.469  1.00  0.00    -0.248 NA
ATOM     38  C   UNL A   1      42.738  31.460  29.301  1.00  0.00     0.031 C 
ATOM     39  C   UNL A   1      41.071  26.755  28.622  1.00  0.00     0.029 A 
ATOM     40  N   UNL A   1      43.227  27.151  28.186  1.00  0.00    -0.354 N 
ATOM     41  C   UNL A   1      44.871  31.141  28.544  1.00  0.00     0.074 A 
ATOM     42  C   UNL A   1      43.875  32.079  29.010  1.00  0.00     0.031 C 
ATOM     43  C   UNL A   1      41.617  25.600  28.208  1.00  0.00     0.029 A 
ATOM     44  C   UNL A   1      43.018  25.828  27.871  1.00  0.00     0.049 A 
ATOM     45  H   UNL A   1      44.104  27.592  28.106  1.00  0.00     0.167 HD
ATOM     46  C   UNL A   1      46.156  31.466  28.264  1.00  0.00     0.037 A 
ATOM     47  C   UNL A   1      43.852  24.908  27.344  1.00  0.00     0.037 A 
ATOM     48  C   UNL A   1      47.151  30.518  27.834  1.00  0.00     0.049 A 
ATOM     49  C   UNL A   1      45.275  25.297  27.044  1.00  0.00     0.074 A 
ATOM     50  C   UNL A   1      48.498  30.735  27.605  1.00  0.00     0.029 A 
ATOM     51  N   UNL A   1      46.908  29.179  27.563  1.00  0.00    -0.354 N 
ATOM     52  N   UNL A   1      45.861  26.462  27.198  1.00  0.00    -0.248 NA
ATOM     53  C   UNL A   1      46.155  24.251  26.504  1.00  0.00     0.031 C 
ATOM     54  C   UNL A   1      49.057  29.544  27.135  1.00  0.00     0.029 A 
ATOM     55  C   UNL A   1      48.075  28.567  27.136  1.00  0.00     0.049 A 
ATOM     56  H   UNL A   1      46.037  28.732  27.658  1.00  0.00     0.167 HD
ATOM     57  C   UNL A   1      47.183  26.279  26.805  1.00  0.00     0.074 A 
ATOM     58  C   UNL A   1      47.314  24.890  26.418  1.00  0.00     0.031 C 
ATOM     59  C   UNL A   1      48.197  27.178  26.770  1.00  0.00     0.037 A 
BRANCH  46  60
ATOM     60  C   UNL A   1      46.572  32.905  28.407  1.00  0.00     0.058 A 
ATOM     61  C   UNL A   1      46.467  33.817  27.346  1.00  0.00     0.135 A 
ATOM     62  C   UNL A   1      47.008  33.395  29.650  1.00  0.00     0.135 A 
ATOM     63  F   UNL A   1      46.073  33.401  26.132  1.00  0.00    -0.206 F 
ATOM     64  C   UNL A   1      46.788  35.161  27.507  1.00  0.00     0.059 A 
ATOM     65  C   UNL A   1      47.305  34.741  29.842  1.00  0.00     0.059 A 
ATOM     66  F   UNL A   1      47.130  32.566  30.698  1.00  0.00    -0.206 F 
ATOM     67  C   UNL A   1      47.199  35.615  28.762  1.00  0.00     0.060 A 
BRANCH  67  68
ATOM     68  S   UNL A   1      47.570  37.370  28.963  1.00  0.00     0.124 S 
ATOM     69  O   UNL A   1      46.728  37.967  27.930  1.00  0.00    -0.237 OA
ATOM     70  O   UNL A   1      47.156  37.618  30.340  1.00  0.00    -0.237 OA
ATOM     71  O   UNL A   1      49.008  37.445  28.720  1.00  0.00    -0.744 OA
ENDBRANCH  67  68
ENDBRANCH  46  60
BRANCH  47  72
ATOM     72  C   UNL A   1      43.361  23.533  27.050  1.00  0.00     0.058 A 
ATOM     73  C   UNL A   1      43.214  22.579  28.069  1.00  0.00     0.135 A 
ATOM     74  C   UNL A   1      43.040  23.141  25.742  1.00  0.00     0.135 A 
ATOM     75  F   UNL A   1      43.512  22.902  29.337  1.00  0.00    -0.206 F 
ATOM     76  C   UNL A   1      42.798  21.279  27.798  1.00  0.00     0.059 A 
ATOM     77  C   UNL A   1      42.592  21.856  25.450  1.00  0.00     0.059 A 
ATOM     78  F   UNL A   1      43.144  24.018  24.731  1.00  0.00    -0.206 F 
ATOM     79  C   UNL A   1      42.489  20.928  26.484  1.00  0.00     0.060 A 
BRANCH  79  80
ATOM     80  S   UNL A   1      41.928  19.245  26.145  1.00  0.00     0.124 S 
ATOM     81  O   UNL A   1      42.688  18.918  24.944  1.00  0.00    -0.237 OA
ATOM     82  O   UNL A   1      42.320  18.541  27.362  1.00  0.00    -0.237 OA
ATOM     83  O   UNL A   1      40.488  19.404  25.959  1.00  0.00    -0.744 OA
ENDBRANCH  79  80
ENDBRANCH  47  72
BRANCH  59  84
ATOM     84  C   UNL A   1      49.554  26.689  26.345  1.00  0.00     0.058 A 
ATOM     85  C   UNL A   1      50.006  26.811  25.022  1.00  0.00     0.135 A 
ATOM     86  C   UNL A   1      50.444  26.162  27.296  1.00  0.00     0.135 A 
ATOM     87  F   UNL A   1      49.193  27.301  24.073  1.00  0.00    -0.206 F 
ATOM     88  C   UNL A   1      51.286  26.413  24.653  1.00  0.00     0.059 A 
ATOM     89  C   UNL A   1      51.739  25.787  26.956  1.00  0.00     0.059 A 
ATOM     90  F   UNL A   1      50.066  26.033  28.578  1.00  0.00    -0.206 F 
ATOM     91  C   UNL A   1      52.149  25.909  25.629  1.00  0.00     0.060 A 
BRANCH  91  92
ATOM     92  S   UNL A   1      53.826  25.447  25.145  1.00  0.00     0.124 S 
ATOM     93  O   UNL A   1      53.773  23.992  25.255  1.00  0.00    -0.237 OA
ATOM     94  O   UNL A   1      53.915  25.976  23.789  1.00  0.00    -0.237 OA
ATOM     95  O   UNL A   1      54.664  26.120  26.133  1.00  0.00    -0.744 OA
ENDBRANCH  91  92
ENDBRANCH  59  84
ENDBRANCH  33  34
ENDBRANCH  25  28
ENDBRANCH  23  24
ENDBRANCH   1  23
TORSDOF 18
ENDMDL
