MODEL 1
REMARK VINA RESULT:     -12.4      0.000      0.000
REMARK SMILES Cc1nn(C)c(C)c1C[C@@H](C)C(=O)N[C@@H](C(=O)NCCCNC(=O)c1ccc(-c2c3nc(c(-c4c(F)cc(S(=O)(=O)[O-])cc4F)c4ccc([nH]4)c(-c4c(F)cc(S(=O)(=O)[O-])cc4F)c4nc(c(-c5c(F)cc(S(=O)(=O)[O-])cc5F)c5ccc2[nH]5)C=C4)C=C3)cc1)c1ccccc1Cl
REMARK SMILES IDX 19 1 18 2 16 3 17 4 15 6 14 7 12 8 13 9 10 11 11 12 9 13
REMARK SMILES IDX 8 14 1 15 2 16 3 17 4 18 6 19 5 20 7 21 91 22 92 23 96 24
REMARK SMILES IDX 93 25 95 26 97 27 94 28 20 29 21 30 22 31 23 32 24 34 25 35
REMARK SMILES IDX 26 36 90 37 27 38 89 39 28 40 29 41 30 42 83 43 31 44 88 45
REMARK SMILES IDX 82 46 84 47 32 48 87 49 81 50 80 51 33 53 67 54 46 55 66 56
REMARK SMILES IDX 47 57 50 58 65 59 85 60 48 61 49 62 64 64 86 65 51 66 34 67
REMARK SMILES IDX 35 68 44 69 36 70 37 71 43 72 45 73 38 74 39 75 40 76 41 77
REMARK SMILES IDX 42 78 68 79 69 80 78 81 70 82 71 83 77 84 79 85 72 86 73 87
REMARK SMILES IDX 74 88 75 89 76 90 52 91 53 92 62 93 54 94 55 95 61 96 63 97
REMARK SMILES IDX 56 98 57 99 58 100 59 101 60 102
REMARK H PARENT 18 5 14 10 22 33 84 52 50 63
REMARK Flexibility Score: inf
ROOT
ATOM      1  C   UNL A   1      31.746  28.932  25.715  1.00  0.00     0.117 C 
ENDROOT
BRANCH   1   2
ATOM      2  N   UNL A   1      32.779  29.074  24.720  1.00  0.00    -0.354 N 
ATOM      3  C   UNL A   1      32.766  28.663  23.413  1.00  0.00     0.247 C 
ATOM      4  O   UNL A   1      33.555  29.247  22.662  1.00  0.00    -0.272 OA
ATOM      5  H   UNL A   1      33.602  29.525  25.019  1.00  0.00     0.163 HD
BRANCH   3   6
ATOM      6  C   UNL A   1      31.682  27.659  22.860  1.00  0.00     0.203 C 
BRANCH   6   7
ATOM      7  N   UNL A   1      32.046  26.955  21.623  1.00  0.00    -0.340 N 
ATOM      8  C   UNL A   1      32.630  25.759  21.348  1.00  0.00     0.224 C 
ATOM      9  O   UNL A   1      32.868  25.528  20.158  1.00  0.00    -0.275 OA
ATOM     10  H   UNL A   1      31.814  27.464  20.812  1.00  0.00     0.164 HD
BRANCH   8  11
ATOM     11  C   UNL A   1      32.990  24.706  22.408  1.00  0.00     0.080 C 
ATOM     12  C   UNL A   1      31.714  24.066  22.928  1.00  0.00     0.018 C 
BRANCH  11  13
ATOM     13  C   UNL A   1      33.996  25.236  23.438  1.00  0.00     0.052 C 
BRANCH  13  14
ATOM     14  C   UNL A   1      34.614  24.306  24.428  1.00  0.00    -0.003 A 
ATOM     15  C   UNL A   1      32.863  24.415  26.404  1.00  0.00     0.069 C 
ATOM     16  C   UNL A   1      34.110  23.969  25.722  1.00  0.00     0.063 A 
ATOM     17  N   UNL A   1      34.872  23.048  26.320  1.00  0.00    -0.178 NA
ATOM     18  N   UNL A   1      35.807  22.745  25.410  1.00  0.00    -0.272 N 
ATOM     19  C   UNL A   1      35.634  23.388  24.214  1.00  0.00     0.038 A 
ATOM     20  C   UNL A   1      36.794  21.750  25.755  1.00  0.00     0.174 C 
ATOM     21  C   UNL A   1      36.399  23.042  22.991  1.00  0.00     0.066 C 
ENDBRANCH  13  14
ENDBRANCH  11  13
ENDBRANCH   8  11
ENDBRANCH   6   7
BRANCH   6  22
ATOM     22  C   UNL A   1      30.332  28.348  22.697  1.00  0.00     0.002 A 
ATOM     23  C   UNL A   1      30.267  29.545  21.954  1.00  0.00     0.008 A 
ATOM     24  C   UNL A   1      29.135  27.826  23.217  1.00  0.00     0.046 A 
ATOM     25  C   UNL A   1      29.053  30.201  21.746  1.00  0.00     0.000 A 
ATOM     26  C   UNL A   1      27.918  28.481  22.994  1.00  0.00     0.021 A 
ATOM     27  Cl  UNL A   1      29.092  26.369  24.146  1.00  0.00    -0.084 Cl
ATOM     28  C   UNL A   1      27.879  29.668  22.263  1.00  0.00     0.002 A 
ENDBRANCH   6  22
ENDBRANCH   3   6
ENDBRANCH   1   2
BRANCH   1  29
ATOM     29  C   UNL A   1      32.125  28.120  26.931  1.00  0.00     0.042 C 
BRANCH  29  30
ATOM     30  C   UNL A   1      33.429  28.558  27.563  1.00  0.00     0.118 C 
BRANCH  30  31
ATOM     31  N   UNL A   1      33.462  29.984  27.874  1.00  0.00    -0.352 N 
ATOM     32  C   UNL A   1      34.475  30.767  28.375  1.00  0.00     0.251 C 
ATOM     33  H   UNL A   1      32.621  30.465  27.695  1.00  0.00     0.163 HD
ATOM     34  O   UNL A   1      34.230  31.922  28.714  1.00  0.00    -0.269 OA
BRANCH  32  35
ATOM     35  C   UNL A   1      35.839  30.217  28.536  1.00  0.00     0.039 A 
ATOM     36  C   UNL A   1      36.705  30.211  27.440  1.00  0.00     0.014 A 
ATOM     37  C   UNL A   1      36.272  29.719  29.766  1.00  0.00     0.014 A 
ATOM     38  C   UNL A   1      38.027  29.790  27.605  1.00  0.00     0.010 A 
ATOM     39  C   UNL A   1      37.614  29.416  29.957  1.00  0.00     0.010 A 
ATOM     40  C   UNL A   1      38.507  29.440  28.878  1.00  0.00    -0.014 A 
BRANCH  40  41
ATOM     41  C   UNL A   1      39.931  29.087  29.105  1.00  0.00     0.031 A 
ATOM     42  C   UNL A   1      40.883  30.115  29.660  1.00  0.00     0.074 A 
ATOM     43  C   UNL A   1      40.383  27.868  28.742  1.00  0.00     0.049 A 
ATOM     44  N   UNL A   1      42.174  30.028  29.849  1.00  0.00    -0.248 NA
ATOM     45  C   UNL A   1      40.315  31.427  30.017  1.00  0.00     0.031 C 
ATOM     46  C   UNL A   1      39.573  26.811  28.129  1.00  0.00     0.029 A 
ATOM     47  N   UNL A   1      41.635  27.315  28.827  1.00  0.00    -0.354 N 
ATOM     48  C   UNL A   1      42.572  31.271  30.328  1.00  0.00     0.074 A 
ATOM     49  C   UNL A   1      41.399  32.116  30.340  1.00  0.00     0.031 C 
ATOM     50  C   UNL A   1      40.342  25.730  27.924  1.00  0.00     0.029 A 
ATOM     51  C   UNL A   1      41.704  26.026  28.352  1.00  0.00     0.049 A 
ATOM     52  H   UNL A   1      42.412  27.796  29.193  1.00  0.00     0.167 HD
ATOM     53  C   UNL A   1      43.797  31.663  30.750  1.00  0.00     0.037 A 
ATOM     54  C   UNL A   1      42.750  25.181  28.266  1.00  0.00     0.037 A 
ATOM     55  C   UNL A   1      44.951  30.805  30.774  1.00  0.00     0.049 A 
ATOM     56  C   UNL A   1      44.096  25.636  28.761  1.00  0.00     0.074 A 
ATOM     57  C   UNL A   1      46.223  31.086  31.242  1.00  0.00     0.029 A 
ATOM     58  N   UNL A   1      44.972  29.494  30.320  1.00  0.00    -0.354 N 
ATOM     59  N   UNL A   1      44.438  26.796  29.272  1.00  0.00    -0.248 NA
ATOM     60  C   UNL A   1      45.197  24.668  28.676  1.00  0.00     0.031 C 
ATOM     61  C   UNL A   1      47.022  29.956  31.037  1.00  0.00     0.029 A 
ATOM     62  C   UNL A   1      46.238  28.958  30.483  1.00  0.00     0.049 A 
ATOM     63  H   UNL A   1      44.200  29.016  29.937  1.00  0.00     0.167 HD
ATOM     64  C   UNL A   1      45.787  26.686  29.591  1.00  0.00     0.074 A 
ATOM     65  C   UNL A   1      46.193  25.342  29.235  1.00  0.00     0.031 C 
ATOM     66  C   UNL A   1      46.617  27.613  30.130  1.00  0.00     0.037 A 
BRANCH  53  67
ATOM     67  C   UNL A   1      43.947  33.076  31.246  1.00  0.00     0.058 A 
ATOM     68  C   UNL A   1      44.310  34.122  30.382  1.00  0.00     0.135 A 
ATOM     69  C   UNL A   1      43.679  33.399  32.586  1.00  0.00     0.135 A 
ATOM     70  F   UNL A   1      44.597  33.866  29.094  1.00  0.00    -0.206 F 
ATOM     71  C   UNL A   1      44.421  35.432  30.831  1.00  0.00     0.059 A 
ATOM     72  C   UNL A   1      43.758  34.708  33.051  1.00  0.00     0.059 A 
ATOM     73  F   UNL A   1      43.332  32.438  33.457  1.00  0.00    -0.206 F 
ATOM     74  C   UNL A   1      44.140  35.716  32.168  1.00  0.00     0.060 A 
BRANCH  74  75
ATOM     75  S   UNL A   1      44.264  37.428  32.727  1.00  0.00     0.124 S 
ATOM     76  O   UNL A   1      43.237  37.471  33.764  1.00  0.00    -0.237 OA
ATOM     77  O   UNL A   1      45.642  37.504  33.199  1.00  0.00    -0.237 OA
ATOM     78  O   UNL A   1      43.972  38.201  31.524  1.00  0.00    -0.744 OA
ENDBRANCH  74  75
ENDBRANCH  53  67
BRANCH  54  79
ATOM     79  C   UNL A   1      42.566  23.813  27.712  1.00  0.00     0.058 A 
ATOM     80  C   UNL A   1      42.395  22.708  28.560  1.00  0.00     0.135 A 
ATOM     81  C   UNL A   1      42.569  23.577  26.328  1.00  0.00     0.135 A 
ATOM     82  F   UNL A   1      42.388  22.881  29.891  1.00  0.00    -0.206 F 
ATOM     83  C   UNL A   1      42.266  21.417  28.060  1.00  0.00     0.059 A 
ATOM     84  C   UNL A   1      42.415  22.299  25.803  1.00  0.00     0.059 A 
ATOM     85  F   UNL A   1      42.710  24.602  25.472  1.00  0.00    -0.206 F 
ATOM     86  C   UNL A   1      42.281  21.221  26.679  1.00  0.00     0.060 A 
BRANCH  86  87
ATOM     87  S   UNL A   1      42.094  19.543  26.039  1.00  0.00     0.124 S 
ATOM     88  O   UNL A   1      42.592  18.747  27.155  1.00  0.00    -0.237 OA
ATOM     89  O   UNL A   1      40.658  19.466  25.789  1.00  0.00    -0.237 OA
ATOM     90  O   UNL A   1      42.931  19.545  24.842  1.00  0.00    -0.744 OA
ENDBRANCH  86  87
ENDBRANCH  54  79
BRANCH  66  91
ATOM     91  C   UNL A   1      48.036  27.194  30.395  1.00  0.00     0.058 A 
ATOM     92  C   UNL A   1      49.089  27.587  29.555  1.00  0.00     0.135 A 
ATOM     93  C   UNL A   1      48.349  26.425  31.527  1.00  0.00     0.135 A 
ATOM     94  F   UNL A   1      48.841  28.319  28.457  1.00  0.00    -0.206 F 
ATOM     95  C   UNL A   1      50.401  27.206  29.812  1.00  0.00     0.059 A 
ATOM     96  C   UNL A   1      49.658  26.057  31.819  1.00  0.00     0.059 A 
ATOM     97  F   UNL A   1      47.380  26.034  32.370  1.00  0.00    -0.206 F 
ATOM     98  C   UNL A   1      50.676  26.440  30.946  1.00  0.00     0.060 A 
BRANCH  98  99
ATOM     99  S   UNL A   1      52.387  25.971  31.281  1.00  0.00     0.124 S 
ATOM    100  O   UNL A   1      52.923  25.835  29.931  1.00  0.00    -0.237 OA
ATOM    101  O   UNL A   1      52.880  27.111  32.047  1.00  0.00    -0.237 OA
ATOM    102  O   UNL A   1      52.256  24.727  32.034  1.00  0.00    -0.744 OA
ENDBRANCH  98  99
ENDBRANCH  66  91
ENDBRANCH  40  41
ENDBRANCH  32  35
ENDBRANCH  30  31
ENDBRANCH  29  30
ENDBRANCH   1  29
TORSDOF 18
ENDMDL
MODEL 2
REMARK VINA RESULT:     -11.9      0.587      8.033
REMARK SMILES Cc1nn(C)c(C)c1C[C@@H](C)C(=O)N[C@@H](C(=O)NCCCNC(=O)c1ccc(-c2c3nc(c(-c4c(F)cc(S(=O)(=O)[O-])cc4F)c4ccc([nH]4)c(-c4c(F)cc(S(=O)(=O)[O-])cc4F)c4nc(c(-c5c(F)cc(S(=O)(=O)[O-])cc5F)c5ccc2[nH]5)C=C4)C=C3)cc1)c1ccccc1Cl
REMARK SMILES IDX 19 1 18 2 16 3 17 4 15 6 14 7 12 8 13 9 10 11 11 12 9 13
REMARK SMILES IDX 8 14 1 15 2 16 3 17 4 18 6 19 5 20 7 21 91 22 92 23 96 24
REMARK SMILES IDX 93 25 95 26 97 27 94 28 20 29 21 30 22 31 23 32 24 34 25 35
REMARK SMILES IDX 26 36 90 37 27 38 89 39 28 40 29 41 30 42 83 43 31 44 88 45
REMARK SMILES IDX 82 46 84 47 32 48 87 49 81 50 80 51 33 53 67 54 46 55 66 56
REMARK SMILES IDX 47 57 50 58 65 59 85 60 48 61 49 62 64 64 86 65 51 66 34 67
REMARK SMILES IDX 35 68 44 69 36 70 37 71 43 72 45 73 38 74 39 75 40 76 41 77
REMARK SMILES IDX 42 78 68 79 69 80 78 81 70 82 71 83 77 84 79 85 72 86 73 87
REMARK SMILES IDX 74 88 75 89 76 90 52 91 53 92 62 93 54 94 55 95 61 96 63 97
REMARK SMILES IDX 56 98 57 99 58 100 59 101 60 102
REMARK H PARENT 18 5 14 10 22 33 84 52 50 63
REMARK Flexibility Score: inf
ROOT
ATOM      1  C   UNL A   1      32.452  29.098  25.489  1.00  0.00     0.117 C 
ENDROOT
BRANCH   1   2
ATOM      2  N   UNL A   1      33.373  29.157  24.382  1.00  0.00    -0.354 N 
ATOM      3  C   UNL A   1      33.229  28.636  23.123  1.00  0.00     0.247 C 
ATOM      4  O   UNL A   1      33.928  29.156  22.246  1.00  0.00    -0.272 OA
ATOM      5  H   UNL A   1      34.218  29.634  24.553  1.00  0.00     0.163 HD
BRANCH   3   6
ATOM      6  C   UNL A   1      32.105  27.585  22.775  1.00  0.00     0.203 C 
BRANCH   6   7
ATOM      7  N   UNL A   1      32.345  26.778  21.571  1.00  0.00    -0.340 N 
ATOM      8  C   UNL A   1      32.818  25.523  21.349  1.00  0.00     0.224 C 
ATOM      9  O   UNL A   1      32.975  25.199  20.167  1.00  0.00    -0.275 OA
ATOM     10  H   UNL A   1      32.111  27.252  20.740  1.00  0.00     0.164 HD
BRANCH   8  11
ATOM     11  C   UNL A   1      33.150  24.513  22.458  1.00  0.00     0.080 C 
ATOM     12  C   UNL A   1      31.859  23.903  22.980  1.00  0.00     0.018 C 
BRANCH  11  13
ATOM     13  C   UNL A   1      34.140  25.077  23.486  1.00  0.00     0.052 C 
BRANCH  13  14
ATOM     14  C   UNL A   1      34.822  24.165  24.449  1.00  0.00    -0.003 A 
ATOM     15  C   UNL A   1      33.105  24.156  26.457  1.00  0.00     0.069 C 
ATOM     16  C   UNL A   1      34.359  23.783  25.747  1.00  0.00     0.063 A 
ATOM     17  N   UNL A   1      35.177  22.893  26.316  1.00  0.00    -0.178 NA
ATOM     18  N   UNL A   1      36.109  22.651  25.385  1.00  0.00    -0.272 N 
ATOM     19  C   UNL A   1      35.882  23.303  24.203  1.00  0.00     0.038 A 
ATOM     20  C   UNL A   1      37.152  21.702  25.697  1.00  0.00     0.174 C 
ATOM     21  C   UNL A   1      36.642  23.014  22.962  1.00  0.00     0.066 C 
ENDBRANCH  13  14
ENDBRANCH  11  13
ENDBRANCH   8  11
ENDBRANCH   6   7
BRANCH   6  22
ATOM     22  C   UNL A   1      30.737  28.255  22.695  1.00  0.00     0.002 A 
ATOM     23  C   UNL A   1      30.619  29.474  21.998  1.00  0.00     0.008 A 
ATOM     24  C   UNL A   1      29.573  27.693  23.248  1.00  0.00     0.046 A 
ATOM     25  C   UNL A   1      29.386  30.115  21.866  1.00  0.00     0.000 A 
ATOM     26  C   UNL A   1      28.337  28.333  23.102  1.00  0.00     0.021 A 
ATOM     27  Cl  UNL A   1      29.596  26.205  24.127  1.00  0.00    -0.084 Cl
ATOM     28  C   UNL A   1      28.245  29.543  22.415  1.00  0.00     0.002 A 
ENDBRANCH   6  22
ENDBRANCH   3   6
ENDBRANCH   1   2
BRANCH   1  29
ATOM     29  C   UNL A   1      32.712  27.997  26.490  1.00  0.00     0.042 C 
BRANCH  29  30
ATOM     30  C   UNL A   1      33.779  28.349  27.506  1.00  0.00     0.118 C 
BRANCH  30  31
ATOM     31  N   UNL A   1      33.732  29.747  27.922  1.00  0.00    -0.352 N 
ATOM     32  C   UNL A   1      34.704  30.550  28.470  1.00  0.00     0.251 C 
ATOM     33  H   UNL A   1      32.861  30.188  27.790  1.00  0.00     0.163 HD
ATOM     34  O   UNL A   1      34.396  31.660  28.897  1.00  0.00    -0.269 OA
BRANCH  32  35
ATOM     35  C   UNL A   1      36.101  30.073  28.574  1.00  0.00     0.039 A 
ATOM     36  C   UNL A   1      36.919  30.110  27.441  1.00  0.00     0.014 A 
ATOM     37  C   UNL A   1      36.611  29.602  29.784  1.00  0.00     0.014 A 
ATOM     38  C   UNL A   1      38.268  29.760  27.551  1.00  0.00     0.010 A 
ATOM     39  C   UNL A   1      37.974  29.371  29.918  1.00  0.00     0.010 A 
ATOM     40  C   UNL A   1      38.818  29.439  28.802  1.00  0.00    -0.014 A 
BRANCH  40  41
ATOM     41  C   UNL A   1      40.267  29.162  28.969  1.00  0.00     0.031 A 
ATOM     42  C   UNL A   1      40.822  27.806  28.616  1.00  0.00     0.074 A 
ATOM     43  C   UNL A   1      41.069  30.105  29.508  1.00  0.00     0.049 A 
ATOM     44  N   UNL A   1      42.035  27.344  28.770  1.00  0.00    -0.248 NA
ATOM     45  C   UNL A   1      39.879  26.826  28.047  1.00  0.00     0.031 C 
ATOM     46  C   UNL A   1      40.636  31.432  29.955  1.00  0.00     0.029 A 
ATOM     47  N   UNL A   1      42.413  30.089  29.780  1.00  0.00    -0.354 N 
ATOM     48  C   UNL A   1      41.997  26.024  28.336  1.00  0.00     0.074 A 
ATOM     49  C   UNL A   1      40.628  25.737  27.973  1.00  0.00     0.031 C 
ATOM     50  C   UNL A   1      41.699  32.111  30.415  1.00  0.00     0.029 A 
ATOM     51  C   UNL A   1      42.880  31.259  30.333  1.00  0.00     0.049 A 
ATOM     52  H   UNL A   1      42.990  29.313  29.597  1.00  0.00     0.167 HD
ATOM     53  C   UNL A   1      43.017  25.141  28.219  1.00  0.00     0.037 A 
ATOM     54  C   UNL A   1      44.119  31.602  30.735  1.00  0.00     0.037 A 
ATOM     55  C   UNL A   1      44.385  25.447  28.543  1.00  0.00     0.049 A 
ATOM     56  C   UNL A   1      45.238  30.609  30.575  1.00  0.00     0.074 A 
ATOM     57  C   UNL A   1      45.503  24.644  28.401  1.00  0.00     0.029 A 
ATOM     58  N   UNL A   1      44.823  26.655  29.065  1.00  0.00    -0.354 N 
ATOM     59  N   UNL A   1      45.193  29.386  30.101  1.00  0.00    -0.248 NA
ATOM     60  C   UNL A   1      46.576  31.042  30.997  1.00  0.00     0.031 C 
ATOM     61  C   UNL A   1      46.612  25.354  28.871  1.00  0.00     0.029 A 
ATOM     62  C   UNL A   1      46.192  26.614  29.265  1.00  0.00     0.049 A 
ATOM     63  H   UNL A   1      44.245  27.427  29.265  1.00  0.00     0.167 HD
ATOM     64  C   UNL A   1      46.500  28.914  30.145  1.00  0.00     0.074 A 
ATOM     65  C   UNL A   1      47.314  29.989  30.674  1.00  0.00     0.031 C 
ATOM     66  C   UNL A   1      46.985  27.701  29.783  1.00  0.00     0.037 A 
BRANCH  53  67
ATOM     67  C   UNL A   1      42.696  23.768  27.695  1.00  0.00     0.058 A 
ATOM     68  C   UNL A   1      42.648  23.501  26.317  1.00  0.00     0.135 A 
ATOM     69  C   UNL A   1      42.484  22.695  28.576  1.00  0.00     0.135 A 
ATOM     70  F   UNL A   1      42.826  24.494  25.430  1.00  0.00    -0.206 F 
ATOM     71  C   UNL A   1      42.382  22.227  25.831  1.00  0.00     0.059 A 
ATOM     72  C   UNL A   1      42.242  21.406  28.112  1.00  0.00     0.059 A 
ATOM     73  F   UNL A   1      42.514  22.894  29.903  1.00  0.00    -0.206 F 
ATOM     74  C   UNL A   1      42.182  21.184  26.737  1.00  0.00     0.060 A 
BRANCH  74  75
ATOM     75  S   UNL A   1      41.864  19.530  26.087  1.00  0.00     0.124 S 
ATOM     76  O   UNL A   1      42.236  18.694  27.223  1.00  0.00    -0.237 OA
ATOM     77  O   UNL A   1      40.438  19.584  25.781  1.00  0.00    -0.237 OA
ATOM     78  O   UNL A   1      42.747  19.444  24.928  1.00  0.00    -0.744 OA
ENDBRANCH  74  75
ENDBRANCH  53  67
BRANCH  54  79
ATOM     79  C   UNL A   1      44.376  32.952  31.304  1.00  0.00     0.058 A 
ATOM     80  C   UNL A   1      44.751  34.023  30.479  1.00  0.00     0.135 A 
ATOM     81  C   UNL A   1      44.266  33.198  32.682  1.00  0.00     0.135 A 
ATOM     82  F   UNL A   1      44.873  33.839  29.156  1.00  0.00    -0.206 F 
ATOM     83  C   UNL A   1      45.038  35.281  31.000  1.00  0.00     0.059 A 
ATOM     84  C   UNL A   1      44.522  34.454  33.224  1.00  0.00     0.059 A 
ATOM     85  F   UNL A   1      43.893  32.213  33.513  1.00  0.00    -0.206 F 
ATOM     86  C   UNL A   1      44.925  35.486  32.375  1.00  0.00     0.060 A 
BRANCH  86  87
ATOM     87  S   UNL A   1      45.282  37.127  33.040  1.00  0.00     0.124 S 
ATOM     88  O   UNL A   1      46.436  37.520  32.241  1.00  0.00    -0.237 OA
ATOM     89  O   UNL A   1      44.041  37.846  32.769  1.00  0.00    -0.237 OA
ATOM     90  O   UNL A   1      45.550  36.865  34.452  1.00  0.00    -0.744 OA
ENDBRANCH  86  87
ENDBRANCH  54  79
BRANCH  66  91
ATOM     91  C   UNL A   1      48.466  27.484  29.916  1.00  0.00     0.058 A 
ATOM     92  C   UNL A   1      49.364  27.902  28.921  1.00  0.00     0.135 A 
ATOM     93  C   UNL A   1      48.996  26.888  31.071  1.00  0.00     0.135 A 
ATOM     94  F   UNL A   1      48.907  28.474  27.796  1.00  0.00    -0.206 F 
ATOM     95  C   UNL A   1      50.734  27.709  29.055  1.00  0.00     0.059 A 
ATOM     96  C   UNL A   1      50.365  26.711  31.238  1.00  0.00     0.059 A 
ATOM     97  F   UNL A   1      48.181  26.481  32.058  1.00  0.00    -0.206 F 
ATOM     98  C   UNL A   1      51.226  27.111  30.217  1.00  0.00     0.060 A 
BRANCH  98  99
ATOM     99  S   UNL A   1      53.008  26.887  30.389  1.00  0.00     0.124 S 
ATOM    100  O   UNL A   1      53.085  26.063  31.590  1.00  0.00    -0.237 OA
ATOM    101  O   UNL A   1      53.362  26.220  29.139  1.00  0.00    -0.237 OA
ATOM    102  O   UNL A   1      53.510  28.251  30.528  1.00  0.00    -0.744 OA
ENDBRANCH  98  99
ENDBRANCH  66  91
ENDBRANCH  40  41
ENDBRANCH  32  35
ENDBRANCH  30  31
ENDBRANCH  29  30
ENDBRANCH   1  29
TORSDOF 18
ENDMDL
MODEL 3
REMARK VINA RESULT:     -11.8      2.359      2.958
REMARK SMILES Cc1nn(C)c(C)c1C[C@@H](C)C(=O)N[C@@H](C(=O)NCCCNC(=O)c1ccc(-c2c3nc(c(-c4c(F)cc(S(=O)(=O)[O-])cc4F)c4ccc([nH]4)c(-c4c(F)cc(S(=O)(=O)[O-])cc4F)c4nc(c(-c5c(F)cc(S(=O)(=O)[O-])cc5F)c5ccc2[nH]5)C=C4)C=C3)cc1)c1ccccc1Cl
REMARK SMILES IDX 19 1 18 2 16 3 17 4 15 6 14 7 12 8 13 9 10 11 11 12 9 13
REMARK SMILES IDX 8 14 1 15 2 16 3 17 4 18 6 19 5 20 7 21 91 22 92 23 96 24
REMARK SMILES IDX 93 25 95 26 97 27 94 28 20 29 21 30 22 31 23 32 24 34 25 35
REMARK SMILES IDX 26 36 90 37 27 38 89 39 28 40 29 41 30 42 83 43 31 44 88 45
REMARK SMILES IDX 82 46 84 47 32 48 87 49 81 50 80 51 33 53 67 54 46 55 66 56
REMARK SMILES IDX 47 57 50 58 65 59 85 60 48 61 49 62 64 64 86 65 51 66 34 67
REMARK SMILES IDX 35 68 44 69 36 70 37 71 43 72 45 73 38 74 39 75 40 76 41 77
REMARK SMILES IDX 42 78 68 79 69 80 78 81 70 82 71 83 77 84 79 85 72 86 73 87
REMARK SMILES IDX 74 88 75 89 76 90 52 91 53 92 62 93 54 94 55 95 61 96 63 97
REMARK SMILES IDX 56 98 57 99 58 100 59 101 60 102
REMARK H PARENT 18 5 14 10 22 33 84 52 50 63
REMARK Flexibility Score: inf
ROOT
ATOM      1  C   UNL A   1      32.818  28.549  25.868  1.00  0.00     0.117 C 
ENDROOT
BRANCH   1   2
ATOM      2  N   UNL A   1      33.631  28.875  24.724  1.00  0.00    -0.354 N 
ATOM      3  C   UNL A   1      33.395  28.597  23.403  1.00  0.00     0.247 C 
ATOM      4  O   UNL A   1      33.987  29.318  22.592  1.00  0.00    -0.272 OA
ATOM      5  H   UNL A   1      34.466  29.360  24.916  1.00  0.00     0.163 HD
BRANCH   3   6
ATOM      6  C   UNL A   1      32.291  27.566  22.947  1.00  0.00     0.203 C 
BRANCH   6   7
ATOM      7  N   UNL A   1      32.557  26.876  21.678  1.00  0.00    -0.340 N 
ATOM      8  C   UNL A   1      32.917  25.608  21.345  1.00  0.00     0.224 C 
ATOM      9  O   UNL A   1      33.147  25.402  20.149  1.00  0.00    -0.275 OA
ATOM     10  H   UNL A   1      32.449  27.463  20.894  1.00  0.00     0.164 HD
BRANCH   8  11
ATOM     11  C   UNL A   1      33.041  24.451  22.348  1.00  0.00     0.080 C 
ATOM     12  C   UNL A   1      31.650  23.983  22.743  1.00  0.00     0.018 C 
BRANCH  11  13
ATOM     13  C   UNL A   1      34.039  24.756  23.472  1.00  0.00     0.052 C 
BRANCH  13  14
ATOM     14  C   UNL A   1      34.339  23.726  24.509  1.00  0.00    -0.003 A 
ATOM     15  C   UNL A   1      36.628  22.748  23.622  1.00  0.00     0.069 C 
ATOM     16  C   UNL A   1      35.469  22.851  24.551  1.00  0.00     0.063 A 
ATOM     17  N   UNL A   1      35.467  22.102  25.657  1.00  0.00    -0.178 NA
ATOM     18  N   UNL A   1      34.402  22.527  26.348  1.00  0.00    -0.272 N 
ATOM     19  C   UNL A   1      33.752  23.578  25.758  1.00  0.00     0.038 A 
ATOM     20  C   UNL A   1      34.127  21.910  27.624  1.00  0.00     0.174 C 
ATOM     21  C   UNL A   1      32.694  24.362  26.442  1.00  0.00     0.066 C 
ENDBRANCH  13  14
ENDBRANCH  11  13
ENDBRANCH   8  11
ENDBRANCH   6   7
BRANCH   6  22
ATOM     22  C   UNL A   1      30.914  28.221  22.912  1.00  0.00     0.002 A 
ATOM     23  C   UNL A   1      30.741  29.397  22.153  1.00  0.00     0.008 A 
ATOM     24  C   UNL A   1      29.791  27.685  23.567  1.00  0.00     0.046 A 
ATOM     25  C   UNL A   1      29.496  30.020  22.059  1.00  0.00     0.000 A 
ATOM     26  C   UNL A   1      28.542  28.307  23.460  1.00  0.00     0.021 A 
ATOM     27  Cl  UNL A   1      29.883  26.252  24.528  1.00  0.00    -0.084 Cl
ATOM     28  C   UNL A   1      28.396  29.473  22.710  1.00  0.00     0.002 A 
ENDBRANCH   6  22
ENDBRANCH   3   6
ENDBRANCH   1   2
BRANCH   1  29
ATOM     29  C   UNL A   1      33.558  28.451  27.182  1.00  0.00     0.042 C 
BRANCH  29  30
ATOM     30  C   UNL A   1      34.816  29.293  27.226  1.00  0.00     0.118 C 
BRANCH  30  31
ATOM     31  N   UNL A   1      34.925  30.092  28.443  1.00  0.00    -0.352 N 
ATOM     32  C   UNL A   1      35.977  30.256  29.313  1.00  0.00     0.251 C 
ATOM     33  H   UNL A   1      34.113  30.596  28.680  1.00  0.00     0.163 HD
ATOM     34  O   UNL A   1      35.794  30.854  30.370  1.00  0.00    -0.269 OA
BRANCH  32  35
ATOM     35  C   UNL A   1      37.308  29.692  28.997  1.00  0.00     0.039 A 
ATOM     36  C   UNL A   1      37.791  29.777  27.688  1.00  0.00     0.014 A 
ATOM     37  C   UNL A   1      38.087  29.091  29.986  1.00  0.00     0.014 A 
ATOM     38  C   UNL A   1      39.087  29.342  27.400  1.00  0.00     0.010 A 
ATOM     39  C   UNL A   1      39.412  28.771  29.725  1.00  0.00     0.010 A 
ATOM     40  C   UNL A   1      39.927  28.884  28.427  1.00  0.00    -0.014 A 
BRANCH  40  41
ATOM     41  C   UNL A   1      41.341  28.511  28.171  1.00  0.00     0.031 A 
ATOM     42  C   UNL A   1      42.412  29.571  28.169  1.00  0.00     0.074 A 
ATOM     43  C   UNL A   1      41.649  27.233  27.866  1.00  0.00     0.049 A 
ATOM     44  N   UNL A   1      43.684  29.460  27.884  1.00  0.00    -0.248 NA
ATOM     45  C   UNL A   1      41.993  30.945  28.497  1.00  0.00     0.031 C 
ATOM     46  C   UNL A   1      40.690  26.130  27.766  1.00  0.00     0.029 A 
ATOM     47  N   UNL A   1      42.854  26.647  27.573  1.00  0.00    -0.354 N 
ATOM     48  C   UNL A   1      44.207  30.744  27.981  1.00  0.00     0.074 A 
ATOM     49  C   UNL A   1      43.107  31.630  28.288  1.00  0.00     0.031 C 
ATOM     50  C   UNL A   1      41.348  24.998  27.469  1.00  0.00     0.029 A 
ATOM     51  C   UNL A   1      42.767  25.299  27.316  1.00  0.00     0.049 A 
ATOM     52  H   UNL A   1      43.703  27.146  27.549  1.00  0.00     0.167 HD
ATOM     53  C   UNL A   1      45.495  31.145  27.859  1.00  0.00     0.037 A 
ATOM     54  C   UNL A   1      43.722  24.407  26.988  1.00  0.00     0.037 A 
ATOM     55  C   UNL A   1      46.592  30.252  27.594  1.00  0.00     0.049 A 
ATOM     56  C   UNL A   1      45.148  24.876  26.879  1.00  0.00     0.074 A 
ATOM     57  C   UNL A   1      47.942  30.548  27.514  1.00  0.00     0.029 A 
ATOM     58  N   UNL A   1      46.467  28.888  27.377  1.00  0.00    -0.354 N 
ATOM     59  N   UNL A   1      45.634  26.085  27.038  1.00  0.00    -0.248 NA
ATOM     60  C   UNL A   1      46.158  23.861  26.551  1.00  0.00     0.031 C 
ATOM     61  C   UNL A   1      48.629  29.367  27.212  1.00  0.00     0.029 A 
ATOM     62  C   UNL A   1      47.713  28.330  27.149  1.00  0.00     0.049 A 
ATOM     63  H   UNL A   1      45.618  28.390  27.384  1.00  0.00     0.167 HD
ATOM     64  C   UNL A   1      47.007  25.969  26.856  1.00  0.00     0.074 A 
ATOM     65  C   UNL A   1      47.277  24.571  26.593  1.00  0.00     0.031 C 
ATOM     66  C   UNL A   1      47.960  26.932  26.899  1.00  0.00     0.037 A 
BRANCH  53  67
ATOM     67  C   UNL A   1      45.792  32.609  28.035  1.00  0.00     0.058 A 
ATOM     68  C   UNL A   1      45.687  33.512  26.965  1.00  0.00     0.135 A 
ATOM     69  C   UNL A   1      46.137  33.125  29.294  1.00  0.00     0.135 A 
ATOM     70  F   UNL A   1      45.378  33.070  25.734  1.00  0.00    -0.206 F 
ATOM     71  C   UNL A   1      45.933  34.870  27.131  1.00  0.00     0.059 A 
ATOM     72  C   UNL A   1      46.362  34.484  29.490  1.00  0.00     0.059 A 
ATOM     73  F   UNL A   1      46.256  32.306  30.351  1.00  0.00    -0.206 F 
ATOM     74  C   UNL A   1      46.267  35.348  28.400  1.00  0.00     0.060 A 
BRANCH  74  75
ATOM     75  S   UNL A   1      46.556  37.118  28.603  1.00  0.00     0.124 S 
ATOM     76  O   UNL A   1      46.371  37.280  30.041  1.00  0.00    -0.237 OA
ATOM     77  O   UNL A   1      47.925  37.268  28.120  1.00  0.00    -0.237 OA
ATOM     78  O   UNL A   1      45.529  37.729  27.765  1.00  0.00    -0.744 OA
ENDBRANCH  74  75
ENDBRANCH  53  67
BRANCH  54  79
ATOM     79  C   UNL A   1      43.371  22.980  26.764  1.00  0.00     0.058 A 
ATOM     80  C   UNL A   1      43.031  22.143  27.839  1.00  0.00     0.135 A 
ATOM     81  C   UNL A   1      43.382  22.417  25.478  1.00  0.00     0.135 A 
ATOM     82  F   UNL A   1      43.010  22.632  29.087  1.00  0.00    -0.206 F 
ATOM     83  C   UNL A   1      42.743  20.795  27.652  1.00  0.00     0.059 A 
ATOM     84  C   UNL A   1      43.071  21.078  25.262  1.00  0.00     0.059 A 
ATOM     85  F   UNL A   1      43.682  23.178  24.414  1.00  0.00    -0.206 F 
ATOM     86  C   UNL A   1      42.770  20.270  26.359  1.00  0.00     0.060 A 
BRANCH  86  87
ATOM     87  S   UNL A   1      42.377  18.523  26.124  1.00  0.00     0.124 S 
ATOM     88  O   UNL A   1      43.303  18.156  25.059  1.00  0.00    -0.237 OA
ATOM     89  O   UNL A   1      42.663  17.963  27.441  1.00  0.00    -0.237 OA
ATOM     90  O   UNL A   1      40.965  18.544  25.754  1.00  0.00    -0.744 OA
ENDBRANCH  86  87
ENDBRANCH  54  79
BRANCH  66  91
ATOM     91  C   UNL A   1      49.384  26.500  26.690  1.00  0.00     0.058 A 
ATOM     92  C   UNL A   1      49.925  26.341  25.405  1.00  0.00     0.135 A 
ATOM     93  C   UNL A   1      50.229  26.283  27.790  1.00  0.00     0.135 A 
ATOM     94  F   UNL A   1      49.157  26.533  24.321  1.00  0.00    -0.206 F 
ATOM     95  C   UNL A   1      51.246  25.952  25.218  1.00  0.00     0.059 A 
ATOM     96  C   UNL A   1      51.562  25.921  27.626  1.00  0.00     0.059 A 
ATOM     97  F   UNL A   1      49.765  26.434  29.041  1.00  0.00    -0.206 F 
ATOM     98  C   UNL A   1      52.057  25.743  26.335  1.00  0.00     0.060 A 
BRANCH  98  99
ATOM     99  S   UNL A   1      53.778  25.260  26.078  1.00  0.00     0.124 S 
ATOM    100  O   UNL A   1      54.261  26.342  25.227  1.00  0.00    -0.237 OA
ATOM    101  O   UNL A   1      54.304  25.242  27.440  1.00  0.00    -0.237 OA
ATOM    102  O   UNL A   1      53.672  23.954  25.436  1.00  0.00    -0.744 OA
ENDBRANCH  98  99
ENDBRANCH  66  91
ENDBRANCH  40  41
ENDBRANCH  32  35
ENDBRANCH  30  31
ENDBRANCH  29  30
ENDBRANCH   1  29
TORSDOF 18
ENDMDL
