MODEL 1
REMARK VINA RESULT:      -9.9      0.000      0.000
REMARK SMILES CCCC[C@@H](C(=O)NCCCNC(=O)c1ccc(-c2c3nc(c(-c4c(F)cc(S(=O)(=O)[O-])cc4F)c4ccc([nH]4)c(-c4c(F)cc(S(=O)(=O)[O-])cc4F)c4nc(c(-c5c(F)cc(S(=O)(=O)[O-])cc5F)c5ccc2[nH]5)C=C4)C=C3)cc1)[C@H](O)c1cncn1C(C)C
REMARK SMILES IDX 10 1 9 2 8 3 6 4 7 5 5 7 4 8 3 9 2 10 1 11 81 12 83 13 84 14
REMARK SMILES IDX 87 15 85 16 86 17 88 18 89 19 90 20 82 21 11 23 12 24 13 25
REMARK SMILES IDX 14 27 15 28 16 29 80 30 17 31 79 32 18 33 19 34 20 35 73 36
REMARK SMILES IDX 21 37 78 38 72 39 74 40 22 41 77 42 71 43 70 44 23 46 57 47
REMARK SMILES IDX 36 48 56 49 37 50 40 51 55 52 75 53 38 54 39 55 54 57 76 58
REMARK SMILES IDX 41 59 24 60 25 61 34 62 26 63 27 64 33 65 35 66 28 67 29 68
REMARK SMILES IDX 30 69 31 70 32 71 58 72 59 73 68 74 60 75 61 76 67 77 69 78
REMARK SMILES IDX 62 79 63 80 64 81 65 82 66 83 42 84 43 85 52 86 44 87 45 88
REMARK SMILES IDX 51 89 53 90 46 91 47 92 48 93 49 94 50 95
REMARK H PARENT 8 6 82 22 12 26 74 45 40 56
REMARK Flexibility Score: inf
ROOT
ATOM      1  C   UNL A   1      34.033  28.254  24.740  1.00  0.00     0.042 C 
ENDROOT
BRANCH   1   2
ATOM      2  C   UNL A   1      32.926  27.257  24.419  1.00  0.00     0.117 C 
BRANCH   2   3
ATOM      3  N   UNL A   1      33.040  26.788  23.051  1.00  0.00    -0.356 N 
ATOM      4  C   UNL A   1      33.452  25.591  22.544  1.00  0.00     0.226 C 
ATOM      5  O   UNL A   1      33.554  25.519  21.318  1.00  0.00    -0.275 OA
ATOM      6  H   UNL A   1      32.775  27.448  22.370  1.00  0.00     0.163 HD
BRANCH   4   7
ATOM      7  C   UNL A   1      33.697  24.379  23.450  1.00  0.00     0.113 C 
BRANCH   7   8
ATOM      8  C   UNL A   1      34.795  23.418  22.943  1.00  0.00     0.016 C 
BRANCH   8   9
ATOM      9  C   UNL A   1      35.901  22.940  23.885  1.00  0.00     0.001 C 
BRANCH   9  10
ATOM     10  C   UNL A   1      36.072  23.688  25.202  1.00  0.00    -0.003 C 
ATOM     11  C   UNL A   1      37.524  23.789  25.631  1.00  0.00     0.004 C 
ENDBRANCH   9  10
ENDBRANCH   8   9
ENDBRANCH   7   8
BRANCH   7  12
ATOM     12  C   UNL A   1      32.307  23.692  23.668  1.00  0.00     0.175 C 
BRANCH  12  13
ATOM     13  C   UNL A   1      31.679  23.634  25.038  1.00  0.00     0.067 A 
ATOM     14  C   UNL A   1      30.762  24.429  25.708  1.00  0.00     0.137 A 
ATOM     15  N   UNL A   1      32.000  22.677  25.991  1.00  0.00    -0.330 N 
ATOM     16  N   UNL A   1      30.418  23.913  26.929  1.00  0.00    -0.245 NA
ATOM     17  C   UNL A   1      31.160  22.846  27.060  1.00  0.00     0.199 A 
BRANCH  15  18
ATOM     18  C   UNL A   1      33.075  21.690  25.950  1.00  0.00     0.082 C 
ATOM     19  C   UNL A   1      33.728  21.529  27.327  1.00  0.00     0.031 C 
ATOM     20  C   UNL A   1      32.589  20.348  25.405  1.00  0.00     0.031 C 
ENDBRANCH  15  18
ENDBRANCH  12  13
BRANCH  12  21
ATOM     21  O   UNL A   1      31.348  24.384  22.849  1.00  0.00    -0.386 OA
ATOM     22  H   UNL A   1      31.747  25.197  22.501  1.00  0.00     0.211 HD
ENDBRANCH  12  21
ENDBRANCH   7  12
ENDBRANCH   4   7
ENDBRANCH   2   3
ENDBRANCH   1   2
BRANCH   1  23
ATOM     23  C   UNL A   1      34.159  28.579  26.216  1.00  0.00     0.118 C 
BRANCH  23  24
ATOM     24  N   UNL A   1      33.816  29.960  26.509  1.00  0.00    -0.352 N 
ATOM     25  C   UNL A   1      34.369  30.829  27.421  1.00  0.00     0.251 C 
ATOM     26  H   UNL A   1      33.077  30.330  25.974  1.00  0.00     0.163 HD
ATOM     27  O   UNL A   1      33.797  31.888  27.657  1.00  0.00    -0.269 OA
BRANCH  25  28
ATOM     28  C   UNL A   1      35.625  30.483  28.129  1.00  0.00     0.039 A 
ATOM     29  C   UNL A   1      35.560  29.671  29.264  1.00  0.00     0.014 A 
ATOM     30  C   UNL A   1      36.862  30.971  27.699  1.00  0.00     0.014 A 
ATOM     31  C   UNL A   1      36.735  29.307  29.929  1.00  0.00     0.010 A 
ATOM     32  C   UNL A   1      38.035  30.520  28.293  1.00  0.00     0.010 A 
ATOM     33  C   UNL A   1      37.988  29.702  29.429  1.00  0.00    -0.014 A 
BRANCH  33  34
ATOM     34  C   UNL A   1      39.254  29.313  30.104  1.00  0.00     0.031 A 
ATOM     35  C   UNL A   1      39.699  30.051  31.341  1.00  0.00     0.074 A 
ATOM     36  C   UNL A   1      40.025  28.341  29.579  1.00  0.00     0.049 A 
ATOM     37  N   UNL A   1      40.804  29.922  32.030  1.00  0.00    -0.248 NA
ATOM     38  C   UNL A   1      38.795  31.095  31.856  1.00  0.00     0.031 C 
ATOM     39  C   UNL A   1      39.723  27.582  28.364  1.00  0.00     0.029 A 
ATOM     40  N   UNL A   1      41.226  27.826  29.998  1.00  0.00    -0.354 N 
ATOM     41  C   UNL A   1      40.732  30.871  33.044  1.00  0.00     0.074 A 
ATOM     42  C   UNL A   1      39.510  31.616  32.841  1.00  0.00     0.031 C 
ATOM     43  C   UNL A   1      40.695  26.679  28.154  1.00  0.00     0.029 A 
ATOM     44  C   UNL A   1      41.711  26.823  29.191  1.00  0.00     0.049 A 
ATOM     45  H   UNL A   1      41.698  28.144  30.802  1.00  0.00     0.167 HD
ATOM     46  C   UNL A   1      41.587  31.080  34.073  1.00  0.00     0.037 A 
ATOM     47  C   UNL A   1      42.849  26.106  29.275  1.00  0.00     0.037 A 
ATOM     48  C   UNL A   1      42.787  30.315  34.284  1.00  0.00     0.049 A 
ATOM     49  C   UNL A   1      43.796  26.373  30.416  1.00  0.00     0.074 A 
ATOM     50  C   UNL A   1      43.704  30.419  35.315  1.00  0.00     0.029 A 
ATOM     51  N   UNL A   1      43.236  29.301  33.450  1.00  0.00    -0.354 N 
ATOM     52  N   UNL A   1      43.685  27.239  31.394  1.00  0.00    -0.248 NA
ATOM     53  C   UNL A   1      45.020  25.561  30.468  1.00  0.00     0.031 C 
ATOM     54  C   UNL A   1      44.730  29.498  35.082  1.00  0.00     0.029 A 
ATOM     55  C   UNL A   1      44.425  28.782  33.936  1.00  0.00     0.049 A 
ATOM     56  H   UNL A   1      42.777  28.996  32.635  1.00  0.00     0.167 HD
ATOM     57  C   UNL A   1      44.806  27.051  32.197  1.00  0.00     0.074 A 
ATOM     58  C   UNL A   1      45.575  25.983  31.595  1.00  0.00     0.031 C 
ATOM     59  C   UNL A   1      45.166  27.703  33.331  1.00  0.00     0.037 A 
BRANCH  46  60
ATOM     60  C   UNL A   1      41.244  32.168  35.056  1.00  0.00     0.058 A 
ATOM     61  C   UNL A   1      41.782  33.461  34.940  1.00  0.00     0.135 A 
ATOM     62  C   UNL A   1      40.343  31.929  36.107  1.00  0.00     0.135 A 
ATOM     63  F   UNL A   1      42.663  33.742  33.966  1.00  0.00    -0.206 F 
ATOM     64  C   UNL A   1      41.465  34.467  35.846  1.00  0.00     0.059 A 
ATOM     65  C   UNL A   1      39.986  32.930  37.007  1.00  0.00     0.059 A 
ATOM     66  F   UNL A   1      39.798  30.713  36.268  1.00  0.00    -0.206 F 
ATOM     67  C   UNL A   1      40.564  34.192  36.876  1.00  0.00     0.060 A 
BRANCH  67  68
ATOM     68  S   UNL A   1      40.158  35.514  38.037  1.00  0.00     0.124 S 
ATOM     69  O   UNL A   1      38.974  34.969  38.694  1.00  0.00    -0.237 OA
ATOM     70  O   UNL A   1      41.362  35.587  38.858  1.00  0.00    -0.237 OA
ATOM     71  O   UNL A   1      39.920  36.666  37.172  1.00  0.00    -0.744 OA
ENDBRANCH  67  68
ENDBRANCH  46  60
BRANCH  47  72
ATOM     72  C   UNL A   1      43.149  25.051  28.267  1.00  0.00     0.058 A 
ATOM     73  C   UNL A   1      43.741  25.378  27.037  1.00  0.00     0.135 A 
ATOM     74  C   UNL A   1      42.844  23.703  28.504  1.00  0.00     0.135 A 
ATOM     75  F   UNL A   1      44.049  26.654  26.760  1.00  0.00    -0.206 F 
ATOM     76  C   UNL A   1      43.994  24.413  26.068  1.00  0.00     0.059 A 
ATOM     77  C   UNL A   1      43.113  22.713  27.563  1.00  0.00     0.059 A 
ATOM     78  F   UNL A   1      42.293  23.332  29.671  1.00  0.00    -0.206 F 
ATOM     79  C   UNL A   1      43.675  23.082  26.341  1.00  0.00     0.060 A 
BRANCH  79  80
ATOM     80  S   UNL A   1      44.028  21.833  25.084  1.00  0.00     0.124 S 
ATOM     81  O   UNL A   1      45.410  21.488  25.394  1.00  0.00    -0.237 OA
ATOM     82  O   UNL A   1      43.032  20.809  25.384  1.00  0.00    -0.237 OA
ATOM     83  O   UNL A   1      43.821  22.550  23.830  1.00  0.00    -0.744 OA
ENDBRANCH  79  80
ENDBRANCH  47  72
BRANCH  59  84
ATOM     84  C   UNL A   1      46.419  27.247  34.025  1.00  0.00     0.058 A 
ATOM     85  C   UNL A   1      46.406  26.223  34.985  1.00  0.00     0.135 A 
ATOM     86  C   UNL A   1      47.661  27.804  33.679  1.00  0.00     0.135 A 
ATOM     87  F   UNL A   1      45.244  25.660  35.356  1.00  0.00    -0.206 F 
ATOM     88  C   UNL A   1      47.575  25.785  35.596  1.00  0.00     0.059 A 
ATOM     89  C   UNL A   1      48.848  27.360  34.253  1.00  0.00     0.059 A 
ATOM     90  F   UNL A   1      47.732  28.779  32.757  1.00  0.00    -0.206 F 
ATOM     91  C   UNL A   1      48.793  26.357  35.219  1.00  0.00     0.060 A 
BRANCH  91  92
ATOM     92  S   UNL A   1      50.308  25.750  35.990  1.00  0.00     0.124 S 
ATOM     93  O   UNL A   1      51.326  26.525  35.287  1.00  0.00    -0.237 OA
ATOM     94  O   UNL A   1      50.105  26.094  37.393  1.00  0.00    -0.237 OA
ATOM     95  O   UNL A   1      50.292  24.320  35.692  1.00  0.00    -0.744 OA
ENDBRANCH  91  92
ENDBRANCH  59  84
ENDBRANCH  33  34
ENDBRANCH  25  28
ENDBRANCH  23  24
ENDBRANCH   1  23
TORSDOF 20
ENDMDL
MODEL 2
REMARK VINA RESULT:      -9.9      4.406      9.777
REMARK SMILES CCCC[C@@H](C(=O)NCCCNC(=O)c1ccc(-c2c3nc(c(-c4c(F)cc(S(=O)(=O)[O-])cc4F)c4ccc([nH]4)c(-c4c(F)cc(S(=O)(=O)[O-])cc4F)c4nc(c(-c5c(F)cc(S(=O)(=O)[O-])cc5F)c5ccc2[nH]5)C=C4)C=C3)cc1)[C@H](O)c1cncn1C(C)C
REMARK SMILES IDX 10 1 9 2 8 3 6 4 7 5 5 7 4 8 3 9 2 10 1 11 81 12 83 13 84 14
REMARK SMILES IDX 87 15 85 16 86 17 88 18 89 19 90 20 82 21 11 23 12 24 13 25
REMARK SMILES IDX 14 27 15 28 16 29 80 30 17 31 79 32 18 33 19 34 20 35 73 36
REMARK SMILES IDX 21 37 78 38 72 39 74 40 22 41 77 42 71 43 70 44 23 46 57 47
REMARK SMILES IDX 36 48 56 49 37 50 40 51 55 52 75 53 38 54 39 55 54 57 76 58
REMARK SMILES IDX 41 59 24 60 25 61 34 62 26 63 27 64 33 65 35 66 28 67 29 68
REMARK SMILES IDX 30 69 31 70 32 71 58 72 59 73 68 74 60 75 61 76 67 77 69 78
REMARK SMILES IDX 62 79 63 80 64 81 65 82 66 83 42 84 43 85 52 86 44 87 45 88
REMARK SMILES IDX 51 89 53 90 46 91 47 92 48 93 49 94 50 95
REMARK H PARENT 8 6 82 22 12 26 74 45 40 56
REMARK Flexibility Score: inf
ROOT
ATOM      1  C   UNL A   1      34.964  23.595  26.212  1.00  0.00     0.042 C 
ENDROOT
BRANCH   1   2
ATOM      2  C   UNL A   1      33.805  24.194  25.426  1.00  0.00     0.117 C 
BRANCH   2   3
ATOM      3  N   UNL A   1      32.543  23.928  26.092  1.00  0.00    -0.356 N 
ATOM      4  C   UNL A   1      31.507  24.753  26.415  1.00  0.00     0.226 C 
ATOM      5  O   UNL A   1      30.602  24.262  27.091  1.00  0.00    -0.275 OA
ATOM      6  H   UNL A   1      32.412  22.989  26.358  1.00  0.00     0.163 HD
BRANCH   4   7
ATOM      7  C   UNL A   1      31.439  26.194  25.894  1.00  0.00     0.113 C 
BRANCH   7   8
ATOM      8  C   UNL A   1      31.383  27.268  27.003  1.00  0.00     0.016 C 
BRANCH   8   9
ATOM      9  C   UNL A   1      32.337  28.463  26.972  1.00  0.00     0.001 C 
BRANCH   9  10
ATOM     10  C   UNL A   1      33.830  28.167  26.880  1.00  0.00    -0.003 C 
ATOM     11  C   UNL A   1      34.684  29.408  27.064  1.00  0.00     0.004 C 
ENDBRANCH   9  10
ENDBRANCH   8   9
ENDBRANCH   7   8
BRANCH   7  12
ATOM     12  C   UNL A   1      30.235  26.254  24.895  1.00  0.00     0.175 C 
BRANCH  12  13
ATOM     13  C   UNL A   1      30.182  27.301  23.810  1.00  0.00     0.067 A 
ATOM     14  C   UNL A   1      29.148  27.932  23.135  1.00  0.00     0.137 A 
ATOM     15  N   UNL A   1      31.309  27.833  23.199  1.00  0.00    -0.330 N 
ATOM     16  N   UNL A   1      29.599  28.901  22.279  1.00  0.00    -0.245 NA
ATOM     17  C   UNL A   1      30.901  28.835  22.359  1.00  0.00     0.199 A 
BRANCH  15  18
ATOM     18  C   UNL A   1      32.696  27.398  23.332  1.00  0.00     0.082 C 
ATOM     19  C   UNL A   1      33.022  26.284  22.332  1.00  0.00     0.031 C 
ATOM     20  C   UNL A   1      33.670  28.567  23.198  1.00  0.00     0.031 C 
ENDBRANCH  15  18
ENDBRANCH  12  13
BRANCH  12  21
ATOM     21  O   UNL A   1      30.185  24.997  24.199  1.00  0.00    -0.386 OA
ATOM     22  H   UNL A   1      29.313  24.590  24.330  1.00  0.00     0.211 HD
ENDBRANCH  12  21
ENDBRANCH   7  12
ENDBRANCH   4   7
ENDBRANCH   2   3
ENDBRANCH   1   2
BRANCH   1  23
ATOM     23  C   UNL A   1      36.316  23.776  25.547  1.00  0.00     0.118 C 
BRANCH  23  24
ATOM     24  N   UNL A   1      37.228  22.685  25.847  1.00  0.00    -0.352 N 
ATOM     25  C   UNL A   1      38.532  22.725  26.282  1.00  0.00     0.251 C 
ATOM     26  H   UNL A   1      36.857  21.782  25.719  1.00  0.00     0.163 HD
ATOM     27  O   UNL A   1      39.194  21.692  26.277  1.00  0.00    -0.269 OA
BRANCH  25  28
ATOM     28  C   UNL A   1      39.142  24.001  26.729  1.00  0.00     0.039 A 
ATOM     29  C   UNL A   1      39.050  24.358  28.077  1.00  0.00     0.014 A 
ATOM     30  C   UNL A   1      39.780  24.859  25.829  1.00  0.00     0.014 A 
ATOM     31  C   UNL A   1      39.644  25.542  28.526  1.00  0.00     0.010 A 
ATOM     32  C   UNL A   1      40.463  25.976  26.294  1.00  0.00     0.010 A 
ATOM     33  C   UNL A   1      40.385  26.346  27.644  1.00  0.00    -0.014 A 
BRANCH  33  34
ATOM     34  C   UNL A   1      41.044  27.599  28.097  1.00  0.00     0.031 A 
ATOM     35  C   UNL A   1      42.544  27.728  28.012  1.00  0.00     0.074 A 
ATOM     36  C   UNL A   1      40.307  28.593  28.631  1.00  0.00     0.049 A 
ATOM     37  N   UNL A   1      43.316  28.699  28.426  1.00  0.00    -0.248 NA
ATOM     38  C   UNL A   1      43.276  26.600  27.408  1.00  0.00     0.031 C 
ATOM     39  C   UNL A   1      38.853  28.570  28.805  1.00  0.00     0.029 A 
ATOM     40  N   UNL A   1      40.679  29.815  29.131  1.00  0.00    -0.354 N 
ATOM     41  C   UNL A   1      44.617  28.296  28.145  1.00  0.00     0.074 A 
ATOM     42  C   UNL A   1      44.537  26.963  27.591  1.00  0.00     0.031 C 
ATOM     43  C   UNL A   1      38.454  29.735  29.342  1.00  0.00     0.029 A 
ATOM     44  C   UNL A   1      39.625  30.569  29.592  1.00  0.00     0.049 A 
ATOM     45  H   UNL A   1      41.613  30.125  29.158  1.00  0.00     0.167 HD
ATOM     46  C   UNL A   1      45.772  28.985  28.300  1.00  0.00     0.037 A 
ATOM     47  C   UNL A   1      39.606  31.792  30.159  1.00  0.00     0.037 A 
ATOM     48  C   UNL A   1      45.841  30.322  28.827  1.00  0.00     0.049 A 
ATOM     49  C   UNL A   1      40.906  32.530  30.342  1.00  0.00     0.074 A 
ATOM     50  C   UNL A   1      46.956  31.125  28.992  1.00  0.00     0.029 A 
ATOM     51  N   UNL A   1      44.750  31.054  29.272  1.00  0.00    -0.354 N 
ATOM     52  N   UNL A   1      42.121  32.152  30.023  1.00  0.00    -0.248 NA
ATOM     53  C   UNL A   1      40.834  33.862  30.958  1.00  0.00     0.031 C 
ATOM     54  C   UNL A   1      46.544  32.328  29.576  1.00  0.00     0.029 A 
ATOM     55  C   UNL A   1      45.167  32.295  29.725  1.00  0.00     0.049 A 
ATOM     56  H   UNL A   1      43.818  30.739  29.266  1.00  0.00     0.167 HD
ATOM     57  C   UNL A   1      42.952  33.215  30.365  1.00  0.00     0.074 A 
ATOM     58  C   UNL A   1      42.099  34.252  30.907  1.00  0.00     0.031 C 
ATOM     59  C   UNL A   1      44.299  33.323  30.242  1.00  0.00     0.037 A 
BRANCH  46  60
ATOM     60  C   UNL A   1      47.051  28.310  27.880  1.00  0.00     0.058 A 
ATOM     61  C   UNL A   1      47.559  28.443  26.577  1.00  0.00     0.135 A 
ATOM     62  C   UNL A   1      47.796  27.549  28.796  1.00  0.00     0.135 A 
ATOM     63  F   UNL A   1      46.880  29.143  25.654  1.00  0.00    -0.206 F 
ATOM     64  C   UNL A   1      48.741  27.821  26.188  1.00  0.00     0.059 A 
ATOM     65  C   UNL A   1      48.999  26.944  28.437  1.00  0.00     0.059 A 
ATOM     66  F   UNL A   1      47.360  27.387  30.055  1.00  0.00    -0.206 F 
ATOM     67  C   UNL A   1      49.455  27.075  27.126  1.00  0.00     0.060 A 
BRANCH  67  68
ATOM     68  S   UNL A   1      50.991  26.283  26.605  1.00  0.00     0.124 S 
ATOM     69  O   UNL A   1      50.884  24.982  27.258  1.00  0.00    -0.237 OA
ATOM     70  O   UNL A   1      50.859  26.275  25.151  1.00  0.00    -0.237 OA
ATOM     71  O   UNL A   1      52.026  27.166  27.134  1.00  0.00    -0.744 OA
ENDBRANCH  67  68
ENDBRANCH  46  60
BRANCH  47  72
ATOM     72  C   UNL A   1      38.315  32.409  30.573  1.00  0.00     0.058 A 
ATOM     73  C   UNL A   1      37.767  32.153  31.839  1.00  0.00     0.135 A 
ATOM     74  C   UNL A   1      37.599  33.255  29.713  1.00  0.00     0.135 A 
ATOM     75  F   UNL A   1      38.412  31.348  32.697  1.00  0.00    -0.206 F 
ATOM     76  C   UNL A   1      36.545  32.690  32.229  1.00  0.00     0.059 A 
ATOM     77  C   UNL A   1      36.388  33.828  30.089  1.00  0.00     0.059 A 
ATOM     78  F   UNL A   1      38.086  33.549  28.496  1.00  0.00    -0.206 F 
ATOM     79  C   UNL A   1      35.862  33.526  31.345  1.00  0.00     0.060 A 
BRANCH  79  80
ATOM     80  S   UNL A   1      34.285  34.236  31.870  1.00  0.00     0.124 S 
ATOM     81  O   UNL A   1      33.705  33.134  32.628  1.00  0.00    -0.237 OA
ATOM     82  O   UNL A   1      34.716  35.392  32.651  1.00  0.00    -0.237 OA
ATOM     83  O   UNL A   1      33.624  34.553  30.608  1.00  0.00    -0.744 OA
ENDBRANCH  79  80
ENDBRANCH  47  72
BRANCH  59  84
ATOM     84  C   UNL A   1      44.930  34.625  30.652  1.00  0.00     0.058 A 
ATOM     85  C   UNL A   1      45.065  35.698  29.758  1.00  0.00     0.135 A 
ATOM     86  C   UNL A   1      45.353  34.819  31.977  1.00  0.00     0.135 A 
ATOM     87  F   UNL A   1      44.681  35.563  28.478  1.00  0.00    -0.206 F 
ATOM     88  C   UNL A   1      45.618  36.910  30.156  1.00  0.00     0.059 A 
ATOM     89  C   UNL A   1      45.881  36.032  32.406  1.00  0.00     0.059 A 
ATOM     90  F   UNL A   1      45.236  33.828  32.877  1.00  0.00    -0.206 F 
ATOM     91  C   UNL A   1      46.020  37.068  31.485  1.00  0.00     0.060 A 
BRANCH  91  92
ATOM     92  S   UNL A   1      46.698  38.660  31.998  1.00  0.00     0.124 S 
ATOM     93  O   UNL A   1      47.544  38.270  33.123  1.00  0.00    -0.237 OA
ATOM     94  O   UNL A   1      47.403  39.101  30.799  1.00  0.00    -0.237 OA
ATOM     95  O   UNL A   1      45.513  39.440  32.345  1.00  0.00    -0.744 OA
ENDBRANCH  91  92
ENDBRANCH  59  84
ENDBRANCH  33  34
ENDBRANCH  25  28
ENDBRANCH  23  24
ENDBRANCH   1  23
TORSDOF 20
ENDMDL
MODEL 3
REMARK VINA RESULT:      -9.9      2.340      3.165
REMARK SMILES CCCC[C@@H](C(=O)NCCCNC(=O)c1ccc(-c2c3nc(c(-c4c(F)cc(S(=O)(=O)[O-])cc4F)c4ccc([nH]4)c(-c4c(F)cc(S(=O)(=O)[O-])cc4F)c4nc(c(-c5c(F)cc(S(=O)(=O)[O-])cc5F)c5ccc2[nH]5)C=C4)C=C3)cc1)[C@H](O)c1cncn1C(C)C
REMARK SMILES IDX 10 1 9 2 8 3 6 4 7 5 5 7 4 8 3 9 2 10 1 11 81 12 83 13 84 14
REMARK SMILES IDX 87 15 85 16 86 17 88 18 89 19 90 20 82 21 11 23 12 24 13 25
REMARK SMILES IDX 14 27 15 28 16 29 80 30 17 31 79 32 18 33 19 34 20 35 73 36
REMARK SMILES IDX 21 37 78 38 72 39 74 40 22 41 77 42 71 43 70 44 23 46 57 47
REMARK SMILES IDX 36 48 56 49 37 50 40 51 55 52 75 53 38 54 39 55 54 57 76 58
REMARK SMILES IDX 41 59 24 60 25 61 34 62 26 63 27 64 33 65 35 66 28 67 29 68
REMARK SMILES IDX 30 69 31 70 32 71 58 72 59 73 68 74 60 75 61 76 67 77 69 78
REMARK SMILES IDX 62 79 63 80 64 81 65 82 66 83 42 84 43 85 52 86 44 87 45 88
REMARK SMILES IDX 51 89 53 90 46 91 47 92 48 93 49 94 50 95
REMARK H PARENT 8 6 82 22 12 26 74 45 40 56
REMARK Flexibility Score: inf
ROOT
ATOM      1  C   UNL A   1      32.746  27.327  25.823  1.00  0.00     0.042 C 
ENDROOT
BRANCH   1   2
ATOM      2  C   UNL A   1      33.100  25.961  25.248  1.00  0.00     0.117 C 
BRANCH   2   3
ATOM      3  N   UNL A   1      33.212  26.027  23.803  1.00  0.00    -0.356 N 
ATOM      4  C   UNL A   1      33.729  25.145  22.901  1.00  0.00     0.226 C 
ATOM      5  O   UNL A   1      33.792  25.527  21.731  1.00  0.00    -0.275 OA
ATOM      6  H   UNL A   1      32.852  26.852  23.403  1.00  0.00     0.163 HD
BRANCH   4   7
ATOM      7  C   UNL A   1      34.136  23.725  23.313  1.00  0.00     0.113 C 
BRANCH   7   8
ATOM      8  C   UNL A   1      35.519  23.282  22.786  1.00  0.00     0.016 C 
BRANCH   8   9
ATOM      9  C   UNL A   1      36.654  22.964  23.761  1.00  0.00     0.001 C 
BRANCH   9  10
ATOM     10  C   UNL A   1      36.290  22.807  25.234  1.00  0.00    -0.003 C 
ATOM     11  C   UNL A   1      36.922  23.875  26.107  1.00  0.00     0.004 C 
ENDBRANCH   9  10
ENDBRANCH   8   9
ENDBRANCH   7   8
BRANCH   7  12
ATOM     12  C   UNL A   1      32.964  22.779  22.884  1.00  0.00     0.175 C 
BRANCH  12  13
ATOM     13  C   UNL A   1      32.659  21.524  23.663  1.00  0.00     0.067 A 
ATOM     14  C   UNL A   1      32.382  20.214  23.303  1.00  0.00     0.137 A 
ATOM     15  N   UNL A   1      32.541  21.487  25.046  1.00  0.00    -0.330 N 
ATOM     16  N   UNL A   1      32.259  19.389  24.389  1.00  0.00    -0.245 NA
ATOM     17  C   UNL A   1      32.384  20.178  25.422  1.00  0.00     0.199 A 
BRANCH  15  18
ATOM     18  C   UNL A   1      32.509  22.609  25.978  1.00  0.00     0.082 C 
ATOM     19  C   UNL A   1      31.067  23.015  26.303  1.00  0.00     0.031 C 
ATOM     20  C   UNL A   1      33.302  22.311  27.250  1.00  0.00     0.031 C 
ENDBRANCH  15  18
ENDBRANCH  12  13
BRANCH  12  21
ATOM     21  O   UNL A   1      31.749  23.547  22.927  1.00  0.00    -0.386 OA
ATOM     22  H   UNL A   1      31.950  24.455  23.204  1.00  0.00     0.211 HD
ENDBRANCH  12  21
ENDBRANCH   7  12
ENDBRANCH   4   7
ENDBRANCH   2   3
ENDBRANCH   1   2
BRANCH   1  23
ATOM     23  C   UNL A   1      33.899  28.014  26.529  1.00  0.00     0.118 C 
BRANCH  23  24
ATOM     24  N   UNL A   1      33.586  29.387  26.890  1.00  0.00    -0.352 N 
ATOM     25  C   UNL A   1      34.312  30.287  27.634  1.00  0.00     0.251 C 
ATOM     26  H   UNL A   1      32.725  29.722  26.551  1.00  0.00     0.163 HD
ATOM     27  O   UNL A   1      33.776  31.329  27.998  1.00  0.00    -0.269 OA
BRANCH  25  28
ATOM     28  C   UNL A   1      35.716  29.997  28.013  1.00  0.00     0.039 A 
ATOM     29  C   UNL A   1      35.986  29.532  29.303  1.00  0.00     0.014 A 
ATOM     30  C   UNL A   1      36.770  30.201  27.118  1.00  0.00     0.014 A 
ATOM     31  C   UNL A   1      37.299  29.222  29.671  1.00  0.00     0.010 A 
ATOM     32  C   UNL A   1      38.056  29.789  27.448  1.00  0.00     0.010 A 
ATOM     33  C   UNL A   1      38.343  29.317  28.736  1.00  0.00    -0.014 A 
BRANCH  33  34
ATOM     34  C   UNL A   1      39.744  28.976  29.093  1.00  0.00     0.031 A 
ATOM     35  C   UNL A   1      40.602  29.990  29.807  1.00  0.00     0.074 A 
ATOM     36  C   UNL A   1      40.260  27.784  28.733  1.00  0.00     0.049 A 
ATOM     37  N   UNL A   1      41.867  29.921  30.136  1.00  0.00    -0.248 NA
ATOM     38  C   UNL A   1      39.961  31.266  30.173  1.00  0.00     0.031 C 
ATOM     39  C   UNL A   1      39.544  26.736  28.003  1.00  0.00     0.029 A 
ATOM     40  N   UNL A   1      41.511  27.253  28.927  1.00  0.00    -0.354 N 
ATOM     41  C   UNL A   1      42.171  31.139  30.733  1.00  0.00     0.074 A 
ATOM     42  C   UNL A   1      40.981  31.957  30.657  1.00  0.00     0.031 C 
ATOM     43  C   UNL A   1      40.355  25.678  27.840  1.00  0.00     0.029 A 
ATOM     44  C   UNL A   1      41.662  25.987  28.411  1.00  0.00     0.049 A 
ATOM     45  H   UNL A   1      42.233  27.734  29.392  1.00  0.00     0.167 HD
ATOM     46  C   UNL A   1      43.326  31.531  31.322  1.00  0.00     0.037 A 
ATOM     47  C   UNL A   1      42.734  25.171  28.395  1.00  0.00     0.037 A 
ATOM     48  C   UNL A   1      44.497  30.701  31.417  1.00  0.00     0.049 A 
ATOM     49  C   UNL A   1      44.014  25.639  29.037  1.00  0.00     0.074 A 
ATOM     50  C   UNL A   1      45.706  30.986  32.026  1.00  0.00     0.029 A 
ATOM     51  N   UNL A   1      44.605  29.421  30.892  1.00  0.00    -0.354 N 
ATOM     52  N   UNL A   1      44.268  26.775  29.641  1.00  0.00    -0.248 NA
ATOM     53  C   UNL A   1      45.154  24.711  28.999  1.00  0.00     0.031 C 
ATOM     54  C   UNL A   1      46.561  29.895  31.831  1.00  0.00     0.029 A 
ATOM     55  C   UNL A   1      45.866  28.910  31.150  1.00  0.00     0.049 A 
ATOM     56  H   UNL A   1      43.891  28.947  30.408  1.00  0.00     0.167 HD
ATOM     57  C   UNL A   1      45.582  26.684  30.087  1.00  0.00     0.074 A 
ATOM     58  C   UNL A   1      46.067  25.378  29.692  1.00  0.00     0.031 C 
ATOM     59  C   UNL A   1      46.323  27.597  30.764  1.00  0.00     0.037 A 
BRANCH  46  60
ATOM     60  C   UNL A   1      43.370  32.911  31.923  1.00  0.00     0.058 A 
ATOM     61  C   UNL A   1      43.812  34.021  31.184  1.00  0.00     0.135 A 
ATOM     62  C   UNL A   1      42.936  33.135  33.239  1.00  0.00     0.135 A 
ATOM     63  F   UNL A   1      44.256  33.864  29.926  1.00  0.00    -0.206 F 
ATOM     64  C   UNL A   1      43.852  35.296  31.737  1.00  0.00     0.059 A 
ATOM     65  C   UNL A   1      42.937  34.409  33.803  1.00  0.00     0.059 A 
ATOM     66  F   UNL A   1      42.503  32.112  33.994  1.00  0.00    -0.206 F 
ATOM     67  C   UNL A   1      43.411  35.481  33.048  1.00  0.00     0.060 A 
BRANCH  67  68
ATOM     68  S   UNL A   1      43.462  37.145  33.745  1.00  0.00     0.124 S 
ATOM     69  O   UNL A   1      44.614  37.051  34.637  1.00  0.00    -0.237 OA
ATOM     70  O   UNL A   1      43.645  37.974  32.558  1.00  0.00    -0.237 OA
ATOM     71  O   UNL A   1      42.167  37.277  34.407  1.00  0.00    -0.744 OA
ENDBRANCH  67  68
ENDBRANCH  46  60
BRANCH  47  72
ATOM     72  C   UNL A   1      42.643  23.821  27.773  1.00  0.00     0.058 A 
ATOM     73  C   UNL A   1      42.458  22.675  28.562  1.00  0.00     0.135 A 
ATOM     74  C   UNL A   1      42.749  23.646  26.385  1.00  0.00     0.135 A 
ATOM     75  F   UNL A   1      42.354  22.789  29.895  1.00  0.00    -0.206 F 
ATOM     76  C   UNL A   1      42.408  21.404  28.002  1.00  0.00     0.059 A 
ATOM     77  C   UNL A   1      42.674  22.386  25.798  1.00  0.00     0.059 A 
ATOM     78  F   UNL A   1      42.910  24.709  25.582  1.00  0.00    -0.206 F 
ATOM     79  C   UNL A   1      42.519  21.269  26.618  1.00  0.00     0.060 A 
BRANCH  79  80
ATOM     80  S   UNL A   1      42.432  19.614  25.899  1.00  0.00     0.124 S 
ATOM     81  O   UNL A   1      42.745  18.777  27.051  1.00  0.00    -0.237 OA
ATOM     82  O   UNL A   1      41.051  19.559  25.427  1.00  0.00    -0.237 OA
ATOM     83  O   UNL A   1      43.445  19.650  24.849  1.00  0.00    -0.744 OA
ENDBRANCH  79  80
ENDBRANCH  47  72
BRANCH  59  84
ATOM     84  C   UNL A   1      47.715  27.200  31.167  1.00  0.00     0.058 A 
ATOM     85  C   UNL A   1      48.834  27.522  30.383  1.00  0.00     0.135 A 
ATOM     86  C   UNL A   1      47.938  26.538  32.385  1.00  0.00     0.135 A 
ATOM     87  F   UNL A   1      48.677  28.150  29.207  1.00  0.00    -0.206 F 
ATOM     88  C   UNL A   1      50.122  27.181  30.781  1.00  0.00     0.059 A 
ATOM     89  C   UNL A   1      49.219  26.215  32.819  1.00  0.00     0.059 A 
ATOM     90  F   UNL A   1      46.903  26.217  33.179  1.00  0.00    -0.206 F 
ATOM     91  C   UNL A   1      50.305  26.530  32.004  1.00  0.00     0.060 A 
BRANCH  91  92
ATOM     92  S   UNL A   1      51.985  26.130  32.528  1.00  0.00     0.124 S 
ATOM     93  O   UNL A   1      52.385  25.157  31.515  1.00  0.00    -0.237 OA
ATOM     94  O   UNL A   1      52.651  27.427  32.459  1.00  0.00    -0.237 OA
ATOM     95  O   UNL A   1      51.804  25.595  33.874  1.00  0.00    -0.744 OA
ENDBRANCH  91  92
ENDBRANCH  59  84
ENDBRANCH  33  34
ENDBRANCH  25  28
ENDBRANCH  23  24
ENDBRANCH   1  23
TORSDOF 20
ENDMDL
