MODEL 1
REMARK VINA RESULT:     -12.3      0.000      0.000
REMARK SMILES C=CCOc1cccc(NC(=O)c2ccccc2C(=O)NCCCNC(=O)c2ccc(-c3c4nc(c(-c5c(F)cc(S(=O)(=O)[O-])cc5F)c5ccc([nH]5)c(-c5c(F)cc(S(=O)(=O)[O-])cc5F)c5nc(c(-c6c(F)cc(S(=O)(=O)[O-])cc6F)c6ccc3[nH]6)C=C5)C=C4)cc2)c1
REMARK SMILES IDX 22 1 21 2 19 3 20 4 18 6 13 7 14 8 15 9 17 10 16 11 11 12
REMARK SMILES IDX 10 13 12 15 9 16 5 17 6 18 94 19 7 20 8 21 4 22 3 23 2 24
REMARK SMILES IDX 1 25 23 26 24 27 25 28 26 29 27 31 28 32 29 33 93 34 30 35
REMARK SMILES IDX 92 36 31 37 32 38 33 39 86 40 34 41 91 42 85 43 87 44 35 45
REMARK SMILES IDX 90 46 84 47 83 48 36 50 70 51 49 52 69 53 50 54 53 55 68 56
REMARK SMILES IDX 88 57 51 58 52 59 67 61 89 62 54 63 37 64 38 65 47 66 39 67
REMARK SMILES IDX 40 68 46 69 48 70 41 71 42 72 43 73 44 74 45 75 71 76 72 77
REMARK SMILES IDX 81 78 73 79 74 80 80 81 82 82 75 83 76 84 77 85 78 86 79 87
REMARK SMILES IDX 55 88 56 89 65 90 57 91 58 92 64 93 66 94 59 95 60 96 61 97
REMARK SMILES IDX 62 98 63 99
REMARK H PARENT 21 5 10 14 25 30 87 49 53 60
REMARK Flexibility Score: inf
ROOT
ATOM      1  C   UNL A   1      36.010  23.905  26.165  1.00  0.00     0.118 C 
ENDROOT
BRANCH   1   2
ATOM      2  N   UNL A   1      35.347  22.904  26.977  1.00  0.00    -0.352 N 
ATOM      3  C   UNL A   1      34.170  22.238  26.765  1.00  0.00     0.252 C 
ATOM      4  O   UNL A   1      33.788  21.446  27.630  1.00  0.00    -0.269 OA
ATOM      5  H   UNL A   1      35.816  22.668  27.809  1.00  0.00     0.163 HD
BRANCH   3   6
ATOM      6  C   UNL A   1      33.289  22.482  25.593  1.00  0.00     0.052 A 
ATOM      7  C   UNL A   1      32.070  23.175  25.575  1.00  0.00     0.052 A 
ATOM      8  C   UNL A   1      31.338  23.252  24.370  1.00  0.00     0.014 A 
ATOM      9  C   UNL A   1      31.845  22.737  23.180  1.00  0.00     0.001 A 
ATOM     10  C   UNL A   1      33.806  22.003  24.369  1.00  0.00     0.014 A 
ATOM     11  C   UNL A   1      33.095  22.134  23.174  1.00  0.00     0.001 A 
BRANCH   7  12
ATOM     12  C   UNL A   1      31.392  23.812  26.719  1.00  0.00     0.256 C 
ATOM     13  N   UNL A   1      31.221  25.162  26.880  1.00  0.00    -0.322 N 
ATOM     14  H   UNL A   1      30.846  25.401  27.759  1.00  0.00     0.170 HD
ATOM     15  O   UNL A   1      30.994  23.067  27.619  1.00  0.00    -0.269 OA
BRANCH  13  16
ATOM     16  C   UNL A   1      31.464  26.274  26.066  1.00  0.00     0.045 A 
ATOM     17  C   UNL A   1      32.990  28.073  25.529  1.00  0.00     0.121 A 
ATOM     18  C   UNL A   1      32.188  28.454  24.461  1.00  0.00     0.046 A 
ATOM     19  C   UNL A   1      32.625  27.006  26.346  1.00  0.00     0.072 A 
ATOM     20  C   UNL A   1      31.005  27.762  24.212  1.00  0.00     0.006 A 
ATOM     21  C   UNL A   1      30.633  26.685  25.025  1.00  0.00     0.026 A 
BRANCH  17  22
ATOM     22  O   UNL A   1      34.095  28.811  25.843  1.00  0.00    -0.489 OA
BRANCH  22  23
ATOM     23  C   UNL A   1      34.321  28.876  27.258  1.00  0.00     0.257 C 
BRANCH  23  24
ATOM     24  C   UNL A   1      35.288  29.982  27.558  1.00  0.00     0.006 C 
ATOM     25  C   UNL A   1      34.947  31.271  27.689  1.00  0.00     0.007 C 
ENDBRANCH  23  24
ENDBRANCH  22  23
ENDBRANCH  17  22
ENDBRANCH  13  16
ENDBRANCH   7  12
ENDBRANCH   3   6
ENDBRANCH   1   2
BRANCH   1  26
ATOM     26  C   UNL A   1      37.418  23.530  25.749  1.00  0.00     0.042 C 
BRANCH  26  27
ATOM     27  C   UNL A   1      38.528  24.173  26.573  1.00  0.00     0.118 C 
BRANCH  27  28
ATOM     28  N   UNL A   1      39.666  24.674  25.805  1.00  0.00    -0.352 N 
ATOM     29  C   UNL A   1      40.687  25.540  26.135  1.00  0.00     0.251 C 
ATOM     30  H   UNL A   1      39.712  24.331  24.884  1.00  0.00     0.163 HD
ATOM     31  O   UNL A   1      41.516  25.844  25.281  1.00  0.00    -0.269 OA
BRANCH  29  32
ATOM     32  C   UNL A   1      40.773  26.137  27.488  1.00  0.00     0.039 A 
ATOM     33  C   UNL A   1      41.916  26.860  27.838  1.00  0.00     0.014 A 
ATOM     34  C   UNL A   1      39.717  26.041  28.391  1.00  0.00     0.014 A 
ATOM     35  C   UNL A   1      41.924  27.617  29.013  1.00  0.00     0.010 A 
ATOM     36  C   UNL A   1      39.669  26.900  29.484  1.00  0.00     0.010 A 
ATOM     37  C   UNL A   1      40.761  27.719  29.795  1.00  0.00    -0.014 A 
BRANCH  37  38
ATOM     38  C   UNL A   1      40.642  28.726  30.885  1.00  0.00     0.031 A 
ATOM     39  C   UNL A   1      41.494  28.623  32.124  1.00  0.00     0.074 A 
ATOM     40  C   UNL A   1      39.674  29.665  30.808  1.00  0.00     0.049 A 
ATOM     41  N   UNL A   1      41.456  29.348  33.212  1.00  0.00    -0.248 NA
ATOM     42  C   UNL A   1      42.483  27.533  32.169  1.00  0.00     0.031 C 
ATOM     43  C   UNL A   1      38.704  29.798  29.716  1.00  0.00     0.029 A 
ATOM     44  N   UNL A   1      39.332  30.679  31.668  1.00  0.00    -0.354 N 
ATOM     45  C   UNL A   1      42.382  28.780  34.079  1.00  0.00     0.074 A 
ATOM     46  C   UNL A   1      42.929  27.620  33.413  1.00  0.00     0.031 C 
ATOM     47  C   UNL A   1      37.908  30.852  29.952  1.00  0.00     0.029 A 
ATOM     48  C   UNL A   1      38.280  31.449  31.227  1.00  0.00     0.049 A 
ATOM     49  H   UNL A   1      39.797  30.840  32.521  1.00  0.00     0.167 HD
ATOM     50  C   UNL A   1      42.765  29.206  35.307  1.00  0.00     0.037 A 
ATOM     51  C   UNL A   1      37.680  32.518  31.787  1.00  0.00     0.037 A 
ATOM     52  C   UNL A   1      42.268  30.403  35.931  1.00  0.00     0.049 A 
ATOM     53  C   UNL A   1      38.191  33.029  33.105  1.00  0.00     0.074 A 
ATOM     54  C   UNL A   1      42.674  30.987  37.119  1.00  0.00     0.029 A 
ATOM     55  N   UNL A   1      41.261  31.205  35.414  1.00  0.00    -0.354 N 
ATOM     56  N   UNL A   1      39.143  32.536  33.863  1.00  0.00    -0.248 NA
ATOM     57  C   UNL A   1      37.559  34.242  33.639  1.00  0.00     0.031 C 
ATOM     58  C   UNL A   1      41.891  32.126  37.334  1.00  0.00     0.029 A 
ATOM     59  C   UNL A   1      41.023  32.272  36.264  1.00  0.00     0.049 A 
ATOM     60  H   UNL A   1      40.786  31.041  34.567  1.00  0.00     0.167 HD
ATOM     61  C   UNL A   1      39.233  33.389  34.956  1.00  0.00     0.074 A 
ATOM     62  C   UNL A   1      38.257  34.440  34.750  1.00  0.00     0.031 C 
ATOM     63  C   UNL A   1      40.050  33.309  36.036  1.00  0.00     0.037 A 
BRANCH  50  64
ATOM     64  C   UNL A   1      43.791  28.390  36.044  1.00  0.00     0.058 A 
ATOM     65  C   UNL A   1      43.426  27.293  36.841  1.00  0.00     0.135 A 
ATOM     66  C   UNL A   1      45.159  28.682  35.921  1.00  0.00     0.135 A 
ATOM     67  F   UNL A   1      42.131  26.979  37.007  1.00  0.00    -0.206 F 
ATOM     68  C   UNL A   1      44.377  26.532  37.512  1.00  0.00     0.059 A 
ATOM     69  C   UNL A   1      46.131  27.916  36.562  1.00  0.00     0.059 A 
ATOM     70  F   UNL A   1      45.565  29.719  35.172  1.00  0.00    -0.206 F 
ATOM     71  C   UNL A   1      45.728  26.852  37.367  1.00  0.00     0.060 A 
BRANCH  71  72
ATOM     72  S   UNL A   1      46.950  25.845  38.233  1.00  0.00     0.124 S 
ATOM     73  O   UNL A   1      46.134  25.237  39.281  1.00  0.00    -0.237 OA
ATOM     74  O   UNL A   1      47.409  24.938  37.185  1.00  0.00    -0.237 OA
ATOM     75  O   UNL A   1      47.934  26.822  38.688  1.00  0.00    -0.744 OA
ENDBRANCH  71  72
ENDBRANCH  50  64
BRANCH  51  76
ATOM     76  C   UNL A   1      36.557  33.197  31.086  1.00  0.00     0.058 A 
ATOM     77  C   UNL A   1      35.247  33.121  31.585  1.00  0.00     0.135 A 
ATOM     78  C   UNL A   1      36.768  33.942  29.916  1.00  0.00     0.135 A 
ATOM     79  F   UNL A   1      34.994  32.420  32.700  1.00  0.00    -0.206 F 
ATOM     80  C   UNL A   1      34.182  33.740  30.937  1.00  0.00     0.059 A 
ATOM     81  C   UNL A   1      35.723  34.589  29.263  1.00  0.00     0.059 A 
ATOM     82  F   UNL A   1      38.005  34.064  29.411  1.00  0.00    -0.206 F 
ATOM     83  C   UNL A   1      34.430  34.470  29.774  1.00  0.00     0.060 A 
BRANCH  83  84
ATOM     84  S   UNL A   1      33.049  35.302  28.959  1.00  0.00     0.124 S 
ATOM     85  O   UNL A   1      32.619  34.287  28.004  1.00  0.00    -0.237 OA
ATOM     86  O   UNL A   1      32.140  35.556  30.072  1.00  0.00    -0.237 OA
ATOM     87  O   UNL A   1      33.668  36.492  28.382  1.00  0.00    -0.744 OA
ENDBRANCH  83  84
ENDBRANCH  51  76
BRANCH  63  88
ATOM     88  C   UNL A   1      39.933  34.395  37.065  1.00  0.00     0.058 A 
ATOM     89  C   UNL A   1      40.677  35.579  36.967  1.00  0.00     0.135 A 
ATOM     90  C   UNL A   1      39.031  34.269  38.134  1.00  0.00     0.135 A 
ATOM     91  F   UNL A   1      41.557  35.745  35.966  1.00  0.00    -0.206 F 
ATOM     92  C   UNL A   1      40.550  36.595  37.909  1.00  0.00     0.059 A 
ATOM     93  C   UNL A   1      38.869  35.281  39.073  1.00  0.00     0.059 A 
ATOM     94  F   UNL A   1      38.289  33.158  38.264  1.00  0.00    -0.206 F 
ATOM     95  C   UNL A   1      39.643  36.435  38.958  1.00  0.00     0.060 A 
BRANCH  95  96
ATOM     96  S   UNL A   1      39.463  37.772  40.158  1.00  0.00     0.124 S 
ATOM     97  O   UNL A   1      39.319  37.029  41.406  1.00  0.00    -0.237 OA
ATOM     98  O   UNL A   1      40.712  38.508  39.999  1.00  0.00    -0.237 OA
ATOM     99  O   UNL A   1      38.267  38.476  39.703  1.00  0.00    -0.744 OA
ENDBRANCH  95  96
ENDBRANCH  63  88
ENDBRANCH  37  38
ENDBRANCH  29  32
ENDBRANCH  27  28
ENDBRANCH  26  27
ENDBRANCH   1  26
TORSDOF 18
ENDMDL
MODEL 2
REMARK VINA RESULT:     -12.3      0.779      2.052
REMARK SMILES C=CCOc1cccc(NC(=O)c2ccccc2C(=O)NCCCNC(=O)c2ccc(-c3c4nc(c(-c5c(F)cc(S(=O)(=O)[O-])cc5F)c5ccc([nH]5)c(-c5c(F)cc(S(=O)(=O)[O-])cc5F)c5nc(c(-c6c(F)cc(S(=O)(=O)[O-])cc6F)c6ccc3[nH]6)C=C5)C=C4)cc2)c1
REMARK SMILES IDX 22 1 21 2 19 3 20 4 18 6 13 7 14 8 15 9 17 10 16 11 11 12
REMARK SMILES IDX 10 13 12 15 9 16 5 17 6 18 94 19 7 20 8 21 4 22 3 23 2 24
REMARK SMILES IDX 1 25 23 26 24 27 25 28 26 29 27 31 28 32 29 33 93 34 30 35
REMARK SMILES IDX 92 36 31 37 32 38 33 39 86 40 34 41 91 42 85 43 87 44 35 45
REMARK SMILES IDX 90 46 84 47 83 48 36 50 70 51 49 52 69 53 50 54 53 55 68 56
REMARK SMILES IDX 88 57 51 58 52 59 67 61 89 62 54 63 37 64 38 65 47 66 39 67
REMARK SMILES IDX 40 68 46 69 48 70 41 71 42 72 43 73 44 74 45 75 71 76 72 77
REMARK SMILES IDX 81 78 73 79 74 80 80 81 82 82 75 83 76 84 77 85 78 86 79 87
REMARK SMILES IDX 55 88 56 89 65 90 57 91 58 92 64 93 66 94 59 95 60 96 61 97
REMARK SMILES IDX 62 98 63 99
REMARK H PARENT 21 5 10 14 25 30 87 49 53 60
REMARK Flexibility Score: inf
ROOT
ATOM      1  C   UNL A   1      36.135  23.715  25.952  1.00  0.00     0.118 C 
ENDROOT
BRANCH   1   2
ATOM      2  N   UNL A   1      35.334  22.960  26.893  1.00  0.00    -0.352 N 
ATOM      3  C   UNL A   1      34.069  22.453  26.763  1.00  0.00     0.252 C 
ATOM      4  O   UNL A   1      33.576  21.867  27.731  1.00  0.00    -0.269 OA
ATOM      5  H   UNL A   1      35.766  22.785  27.760  1.00  0.00     0.163 HD
BRANCH   3   6
ATOM      6  C   UNL A   1      33.228  22.645  25.552  1.00  0.00     0.052 A 
ATOM      7  C   UNL A   1      32.030  23.366  25.455  1.00  0.00     0.052 A 
ATOM      8  C   UNL A   1      31.335  23.387  24.225  1.00  0.00     0.014 A 
ATOM      9  C   UNL A   1      31.862  22.784  23.086  1.00  0.00     0.001 A 
ATOM     10  C   UNL A   1      33.766  22.077  24.377  1.00  0.00     0.014 A 
ATOM     11  C   UNL A   1      33.094  22.149  23.155  1.00  0.00     0.001 A 
BRANCH   7  12
ATOM     12  C   UNL A   1      31.338  24.092  26.535  1.00  0.00     0.256 C 
ATOM     13  N   UNL A   1      31.393  25.446  26.735  1.00  0.00    -0.322 N 
ATOM     14  H   UNL A   1      30.959  25.731  27.572  1.00  0.00     0.170 HD
ATOM     15  O   UNL A   1      30.700  23.413  27.345  1.00  0.00    -0.269 OA
BRANCH  13  16
ATOM     16  C   UNL A   1      31.935  26.512  26.008  1.00  0.00     0.045 A 
ATOM     17  C   UNL A   1      31.466  28.460  24.651  1.00  0.00     0.121 A 
ATOM     18  C   UNL A   1      32.820  28.772  24.606  1.00  0.00     0.046 A 
ATOM     19  C   UNL A   1      31.022  27.325  25.325  1.00  0.00     0.072 A 
ATOM     20  C   UNL A   1      33.736  27.936  25.240  1.00  0.00     0.006 A 
ATOM     21  C   UNL A   1      33.296  26.797  25.924  1.00  0.00     0.026 A 
BRANCH  17  22
ATOM     22  O   UNL A   1      30.573  29.214  23.945  1.00  0.00    -0.489 OA
BRANCH  22  23
ATOM     23  C   UNL A   1      29.832  28.434  22.997  1.00  0.00     0.257 C 
BRANCH  23  24
ATOM     24  C   UNL A   1      28.575  29.163  22.627  1.00  0.00     0.006 C 
ATOM     25  C   UNL A   1      27.351  28.827  23.055  1.00  0.00     0.007 C 
ENDBRANCH  23  24
ENDBRANCH  22  23
ENDBRANCH  17  22
ENDBRANCH  13  16
ENDBRANCH   7  12
ENDBRANCH   3   6
ENDBRANCH   1   2
BRANCH   1  26
ATOM     26  C   UNL A   1      37.607  23.354  25.963  1.00  0.00     0.042 C 
BRANCH  26  27
ATOM     27  C   UNL A   1      38.526  24.407  26.572  1.00  0.00     0.118 C 
BRANCH  27  28
ATOM     28  N   UNL A   1      39.658  24.804  25.738  1.00  0.00    -0.352 N 
ATOM     29  C   UNL A   1      40.748  25.610  25.993  1.00  0.00     0.251 C 
ATOM     30  H   UNL A   1      39.640  24.429  24.829  1.00  0.00     0.163 HD
ATOM     31  O   UNL A   1      41.556  25.830  25.093  1.00  0.00    -0.269 OA
BRANCH  29  32
ATOM     32  C   UNL A   1      40.934  26.244  27.318  1.00  0.00     0.039 A 
ATOM     33  C   UNL A   1      41.920  27.222  27.469  1.00  0.00     0.014 A 
ATOM     34  C   UNL A   1      40.111  25.927  28.396  1.00  0.00     0.014 A 
ATOM     35  C   UNL A   1      41.962  27.989  28.637  1.00  0.00     0.010 A 
ATOM     36  C   UNL A   1      40.060  26.778  29.495  1.00  0.00     0.010 A 
ATOM     37  C   UNL A   1      40.968  27.837  29.618  1.00  0.00    -0.014 A 
BRANCH  37  38
ATOM     38  C   UNL A   1      40.815  28.815  30.730  1.00  0.00     0.031 A 
ATOM     39  C   UNL A   1      41.646  28.693  31.981  1.00  0.00     0.074 A 
ATOM     40  C   UNL A   1      39.836  29.742  30.658  1.00  0.00     0.049 A 
ATOM     41  N   UNL A   1      41.579  29.390  33.086  1.00  0.00    -0.248 NA
ATOM     42  C   UNL A   1      42.649  27.616  32.018  1.00  0.00     0.031 C 
ATOM     43  C   UNL A   1      38.884  29.889  29.552  1.00  0.00     0.029 A 
ATOM     44  N   UNL A   1      39.464  30.730  31.536  1.00  0.00    -0.354 N 
ATOM     45  C   UNL A   1      42.497  28.814  33.956  1.00  0.00     0.074 A 
ATOM     46  C   UNL A   1      43.071  27.678  33.272  1.00  0.00     0.031 C 
ATOM     47  C   UNL A   1      38.069  30.926  29.799  1.00  0.00     0.029 A 
ATOM     48  C   UNL A   1      38.410  31.497  31.095  1.00  0.00     0.049 A 
ATOM     49  H   UNL A   1      39.912  30.877  32.401  1.00  0.00     0.167 HD
ATOM     50  C   UNL A   1      42.851  29.214  35.201  1.00  0.00     0.037 A 
ATOM     51  C   UNL A   1      37.785  32.544  31.669  1.00  0.00     0.037 A 
ATOM     52  C   UNL A   1      42.326  30.389  35.845  1.00  0.00     0.049 A 
ATOM     53  C   UNL A   1      38.265  33.028  33.009  1.00  0.00     0.074 A 
ATOM     54  C   UNL A   1      42.702  30.949  37.054  1.00  0.00     0.029 A 
ATOM     55  N   UNL A   1      41.318  31.190  35.329  1.00  0.00    -0.354 N 
ATOM     56  N   UNL A   1      39.210  32.530  33.772  1.00  0.00    -0.248 NA
ATOM     57  C   UNL A   1      37.607  34.219  33.561  1.00  0.00     0.031 C 
ATOM     58  C   UNL A   1      41.901  32.072  37.282  1.00  0.00     0.029 A 
ATOM     59  C   UNL A   1      41.050  32.233  36.200  1.00  0.00     0.049 A 
ATOM     60  H   UNL A   1      40.861  31.040  34.470  1.00  0.00     0.167 HD
ATOM     61  C   UNL A   1      39.269  33.357  34.887  1.00  0.00     0.074 A 
ATOM     62  C   UNL A   1      38.282  34.399  34.689  1.00  0.00     0.031 C 
ATOM     63  C   UNL A   1      40.067  33.261  35.979  1.00  0.00     0.037 A 
BRANCH  50  64
ATOM     64  C   UNL A   1      43.875  28.394  35.937  1.00  0.00     0.058 A 
ATOM     65  C   UNL A   1      45.251  28.643  35.806  1.00  0.00     0.135 A 
ATOM     66  C   UNL A   1      43.476  27.374  36.815  1.00  0.00     0.135 A 
ATOM     67  F   UNL A   1      45.688  29.595  34.967  1.00  0.00    -0.206 F 
ATOM     68  C   UNL A   1      46.195  27.892  36.496  1.00  0.00     0.059 A 
ATOM     69  C   UNL A   1      44.404  26.628  37.538  1.00  0.00     0.059 A 
ATOM     70  F   UNL A   1      42.174  27.093  36.979  1.00  0.00    -0.206 F 
ATOM     71  C   UNL A   1      45.762  26.885  37.361  1.00  0.00     0.060 A 
BRANCH  71  72
ATOM     72  S   UNL A   1      47.001  25.930  38.261  1.00  0.00     0.124 S 
ATOM     73  O   UNL A   1      46.161  24.994  39.004  1.00  0.00    -0.237 OA
ATOM     74  O   UNL A   1      47.793  25.348  37.182  1.00  0.00    -0.237 OA
ATOM     75  O   UNL A   1      47.686  26.935  39.066  1.00  0.00    -0.744 OA
ENDBRANCH  71  72
ENDBRANCH  50  64
BRANCH  51  76
ATOM     76  C   UNL A   1      36.665  33.224  30.965  1.00  0.00     0.058 A 
ATOM     77  C   UNL A   1      36.910  34.069  29.871  1.00  0.00     0.135 A 
ATOM     78  C   UNL A   1      35.332  33.036  31.359  1.00  0.00     0.135 A 
ATOM     79  F   UNL A   1      38.168  34.282  29.459  1.00  0.00    -0.206 F 
ATOM     80  C   UNL A   1      35.877  34.723  29.209  1.00  0.00     0.059 A 
ATOM     81  C   UNL A   1      34.279  33.660  30.696  1.00  0.00     0.059 A 
ATOM     82  F   UNL A   1      35.043  32.220  32.384  1.00  0.00    -0.206 F 
ATOM     83  C   UNL A   1      34.563  34.513  29.630  1.00  0.00     0.060 A 
BRANCH  83  84
ATOM     84  S   UNL A   1      33.223  35.336  28.740  1.00  0.00     0.124 S 
ATOM     85  O   UNL A   1      32.596  34.212  28.053  1.00  0.00    -0.237 OA
ATOM     86  O   UNL A   1      32.450  35.931  29.826  1.00  0.00    -0.237 OA
ATOM     87  O   UNL A   1      33.924  36.289  27.885  1.00  0.00    -0.744 OA
ENDBRANCH  83  84
ENDBRANCH  51  76
BRANCH  63  88
ATOM     88  C   UNL A   1      39.916  34.320  37.032  1.00  0.00     0.058 A 
ATOM     89  C   UNL A   1      40.616  35.533  36.956  1.00  0.00     0.135 A 
ATOM     90  C   UNL A   1      39.026  34.137  38.103  1.00  0.00     0.135 A 
ATOM     91  F   UNL A   1      41.482  35.752  35.954  1.00  0.00    -0.206 F 
ATOM     92  C   UNL A   1      40.457  36.523  37.920  1.00  0.00     0.059 A 
ATOM     93  C   UNL A   1      38.833  35.122  39.065  1.00  0.00     0.059 A 
ATOM     94  F   UNL A   1      38.326  32.997  38.213  1.00  0.00    -0.206 F 
ATOM     95  C   UNL A   1      39.562  36.307  38.971  1.00  0.00     0.060 A 
BRANCH  95  96
ATOM     96  S   UNL A   1      39.341  37.610  40.200  1.00  0.00     0.124 S 
ATOM     97  O   UNL A   1      38.261  38.392  39.607  1.00  0.00    -0.237 OA
ATOM     98  O   UNL A   1      38.994  36.856  41.400  1.00  0.00    -0.237 OA
ATOM     99  O   UNL A   1      40.645  38.266  40.236  1.00  0.00    -0.744 OA
ENDBRANCH  95  96
ENDBRANCH  63  88
ENDBRANCH  37  38
ENDBRANCH  29  32
ENDBRANCH  27  28
ENDBRANCH  26  27
ENDBRANCH   1  26
TORSDOF 18
ENDMDL
MODEL 3
REMARK VINA RESULT:     -12.1      1.104      2.034
REMARK SMILES C=CCOc1cccc(NC(=O)c2ccccc2C(=O)NCCCNC(=O)c2ccc(-c3c4nc(c(-c5c(F)cc(S(=O)(=O)[O-])cc5F)c5ccc([nH]5)c(-c5c(F)cc(S(=O)(=O)[O-])cc5F)c5nc(c(-c6c(F)cc(S(=O)(=O)[O-])cc6F)c6ccc3[nH]6)C=C5)C=C4)cc2)c1
REMARK SMILES IDX 22 1 21 2 19 3 20 4 18 6 13 7 14 8 15 9 17 10 16 11 11 12
REMARK SMILES IDX 10 13 12 15 9 16 5 17 6 18 94 19 7 20 8 21 4 22 3 23 2 24
REMARK SMILES IDX 1 25 23 26 24 27 25 28 26 29 27 31 28 32 29 33 93 34 30 35
REMARK SMILES IDX 92 36 31 37 32 38 33 39 86 40 34 41 91 42 85 43 87 44 35 45
REMARK SMILES IDX 90 46 84 47 83 48 36 50 70 51 49 52 69 53 50 54 53 55 68 56
REMARK SMILES IDX 88 57 51 58 52 59 67 61 89 62 54 63 37 64 38 65 47 66 39 67
REMARK SMILES IDX 40 68 46 69 48 70 41 71 42 72 43 73 44 74 45 75 71 76 72 77
REMARK SMILES IDX 81 78 73 79 74 80 80 81 82 82 75 83 76 84 77 85 78 86 79 87
REMARK SMILES IDX 55 88 56 89 65 90 57 91 58 92 64 93 66 94 59 95 60 96 61 97
REMARK SMILES IDX 62 98 63 99
REMARK H PARENT 21 5 10 14 25 30 87 49 53 60
REMARK Flexibility Score: inf
ROOT
ATOM      1  C   UNL A   1      37.231  22.169  25.569  1.00  0.00     0.118 C 
ENDROOT
BRANCH   1   2
ATOM      2  N   UNL A   1      36.327  22.830  26.487  1.00  0.00    -0.352 N 
ATOM      3  C   UNL A   1      34.958  22.831  26.526  1.00  0.00     0.252 C 
ATOM      4  O   UNL A   1      34.403  23.509  27.394  1.00  0.00    -0.269 OA
ATOM      5  H   UNL A   1      36.764  23.362  27.191  1.00  0.00     0.163 HD
BRANCH   3   6
ATOM      6  C   UNL A   1      34.109  22.130  25.528  1.00  0.00     0.052 A 
ATOM      7  C   UNL A   1      33.824  22.537  24.217  1.00  0.00     0.052 A 
ATOM      8  C   UNL A   1      32.940  21.766  23.431  1.00  0.00     0.014 A 
ATOM      9  C   UNL A   1      32.419  20.562  23.898  1.00  0.00     0.001 A 
ATOM     10  C   UNL A   1      33.604  20.886  25.968  1.00  0.00     0.014 A 
ATOM     11  C   UNL A   1      32.773  20.107  25.161  1.00  0.00     0.001 A 
BRANCH   7  12
ATOM     12  C   UNL A   1      34.305  23.756  23.540  1.00  0.00     0.256 C 
ATOM     13  N   UNL A   1      33.856  25.025  23.792  1.00  0.00    -0.322 N 
ATOM     14  H   UNL A   1      34.215  25.693  23.163  1.00  0.00     0.170 HD
ATOM     15  O   UNL A   1      35.142  23.604  22.646  1.00  0.00    -0.269 OA
BRANCH  13  16
ATOM     16  C   UNL A   1      32.998  25.578  24.749  1.00  0.00     0.045 A 
ATOM     17  C   UNL A   1      32.748  27.213  26.515  1.00  0.00     0.121 A 
ATOM     18  C   UNL A   1      31.402  26.894  26.641  1.00  0.00     0.046 A 
ATOM     19  C   UNL A   1      33.553  26.547  25.594  1.00  0.00     0.072 A 
ATOM     20  C   UNL A   1      30.859  25.892  25.838  1.00  0.00     0.006 A 
ATOM     21  C   UNL A   1      31.660  25.222  24.907  1.00  0.00     0.026 A 
BRANCH  17  22
ATOM     22  O   UNL A   1      33.312  28.118  27.369  1.00  0.00    -0.489 OA
BRANCH  22  23
ATOM     23  C   UNL A   1      34.446  28.779  26.789  1.00  0.00     0.257 C 
BRANCH  23  24
ATOM     24  C   UNL A   1      34.889  29.890  27.693  1.00  0.00     0.006 C 
ATOM     25  C   UNL A   1      34.418  31.143  27.639  1.00  0.00     0.007 C 
ENDBRANCH  23  24
ENDBRANCH  22  23
ENDBRANCH  17  22
ENDBRANCH  13  16
ENDBRANCH   7  12
ENDBRANCH   3   6
ENDBRANCH   1   2
BRANCH   1  26
ATOM     26  C   UNL A   1      38.668  22.114  26.049  1.00  0.00     0.042 C 
BRANCH  26  27
ATOM     27  C   UNL A   1      39.225  23.434  26.572  1.00  0.00     0.118 C 
BRANCH  27  28
ATOM     28  N   UNL A   1      40.615  23.709  26.216  1.00  0.00    -0.352 N 
ATOM     29  C   UNL A   1      41.448  24.766  26.518  1.00  0.00     0.251 C 
ATOM     30  H   UNL A   1      41.034  23.015  25.660  1.00  0.00     0.163 HD
ATOM     31  O   UNL A   1      42.586  24.786  26.054  1.00  0.00    -0.269 OA
BRANCH  29  32
ATOM     32  C   UNL A   1      40.978  25.892  27.358  1.00  0.00     0.039 A 
ATOM     33  C   UNL A   1      40.054  25.639  28.375  1.00  0.00     0.014 A 
ATOM     34  C   UNL A   1      41.482  27.180  27.192  1.00  0.00     0.014 A 
ATOM     35  C   UNL A   1      39.771  26.632  29.317  1.00  0.00     0.010 A 
ATOM     36  C   UNL A   1      41.312  28.118  28.204  1.00  0.00     0.010 A 
ATOM     37  C   UNL A   1      40.475  27.848  29.294  1.00  0.00    -0.014 A 
BRANCH  37  38
ATOM     38  C   UNL A   1      40.410  28.807  30.430  1.00  0.00     0.031 A 
ATOM     39  C   UNL A   1      41.293  28.630  31.639  1.00  0.00     0.074 A 
ATOM     40  C   UNL A   1      39.464  29.770  30.422  1.00  0.00     0.049 A 
ATOM     41  N   UNL A   1      41.302  29.307  32.759  1.00  0.00    -0.248 NA
ATOM     42  C   UNL A   1      42.256  27.517  31.609  1.00  0.00     0.031 C 
ATOM     43  C   UNL A   1      38.467  29.974  29.364  1.00  0.00     0.029 A 
ATOM     44  N   UNL A   1      39.169  30.753  31.334  1.00  0.00    -0.354 N 
ATOM     45  C   UNL A   1      42.237  28.681  33.574  1.00  0.00     0.074 A 
ATOM     46  C   UNL A   1      42.737  27.539  32.842  1.00  0.00     0.031 C 
ATOM     47  C   UNL A   1      37.704  31.035  29.668  1.00  0.00     0.029 A 
ATOM     48  C   UNL A   1      38.125  31.566  30.957  1.00  0.00     0.049 A 
ATOM     49  H   UNL A   1      39.661  30.866  32.180  1.00  0.00     0.167 HD
ATOM     50  C   UNL A   1      42.663  29.042  34.807  1.00  0.00     0.037 A 
ATOM     51  C   UNL A   1      37.566  32.623  31.579  1.00  0.00     0.037 A 
ATOM     52  C   UNL A   1      42.212  30.222  35.497  1.00  0.00     0.049 A 
ATOM     53  C   UNL A   1      38.125  33.063  32.904  1.00  0.00     0.074 A 
ATOM     54  C   UNL A   1      42.664  30.743  36.697  1.00  0.00     0.029 A 
ATOM     55  N   UNL A   1      41.211  31.069  35.044  1.00  0.00    -0.354 N 
ATOM     56  N   UNL A   1      39.084  32.516  33.613  1.00  0.00    -0.248 NA
ATOM     57  C   UNL A   1      37.537  34.265  33.508  1.00  0.00     0.031 C 
ATOM     58  C   UNL A   1      41.915  31.889  36.984  1.00  0.00     0.029 A 
ATOM     59  C   UNL A   1      41.022  32.103  35.946  1.00  0.00     0.049 A 
ATOM     60  H   UNL A   1      40.709  30.953  34.204  1.00  0.00     0.167 HD
ATOM     61  C   UNL A   1      39.225  33.317  34.738  1.00  0.00     0.074 A 
ATOM     62  C   UNL A   1      38.269  34.397  34.607  1.00  0.00     0.031 C 
ATOM     63  C   UNL A   1      40.068  33.170  35.791  1.00  0.00     0.037 A 
BRANCH  50  64
ATOM     64  C   UNL A   1      43.689  28.171  35.479  1.00  0.00     0.058 A 
ATOM     65  C   UNL A   1      45.064  28.351  35.262  1.00  0.00     0.135 A 
ATOM     66  C   UNL A   1      43.295  27.171  36.383  1.00  0.00     0.135 A 
ATOM     67  F   UNL A   1      45.495  29.282  34.396  1.00  0.00    -0.206 F 
ATOM     68  C   UNL A   1      46.011  27.553  35.893  1.00  0.00     0.059 A 
ATOM     69  C   UNL A   1      44.228  26.378  37.048  1.00  0.00     0.059 A 
ATOM     70  F   UNL A   1      41.994  26.955  36.628  1.00  0.00    -0.206 F 
ATOM     71  C   UNL A   1      45.583  26.568  36.786  1.00  0.00     0.060 A 
BRANCH  71  72
ATOM     72  S   UNL A   1      46.827  25.550  37.608  1.00  0.00     0.124 S 
ATOM     73  O   UNL A   1      47.492  24.928  36.467  1.00  0.00    -0.237 OA
ATOM     74  O   UNL A   1      47.614  26.543  38.334  1.00  0.00    -0.237 OA
ATOM     75  O   UNL A   1      46.034  24.652  38.441  1.00  0.00    -0.744 OA
ENDBRANCH  71  72
ENDBRANCH  50  64
BRANCH  51  76
ATOM     76  C   UNL A   1      36.441  33.358  30.941  1.00  0.00     0.058 A 
ATOM     77  C   UNL A   1      36.650  34.140  29.795  1.00  0.00     0.135 A 
ATOM     78  C   UNL A   1      35.136  33.284  31.452  1.00  0.00     0.135 A 
ATOM     79  F   UNL A   1      37.880  34.243  29.270  1.00  0.00    -0.206 F 
ATOM     80  C   UNL A   1      35.612  34.843  29.192  1.00  0.00     0.059 A 
ATOM     81  C   UNL A   1      34.077  33.959  30.852  1.00  0.00     0.059 A 
ATOM     82  F   UNL A   1      34.879  32.532  32.532  1.00  0.00    -0.206 F 
ATOM     83  C   UNL A   1      34.328  34.748  29.729  1.00  0.00     0.060 A 
BRANCH  83  84
ATOM     84  S   UNL A   1      32.978  35.633  28.918  1.00  0.00     0.124 S 
ATOM     85  O   UNL A   1      33.701  36.680  28.205  1.00  0.00    -0.237 OA
ATOM     86  O   UNL A   1      32.381  34.592  28.087  1.00  0.00    -0.237 OA
ATOM     87  O   UNL A   1      32.153  36.082  30.036  1.00  0.00    -0.744 OA
ENDBRANCH  83  84
ENDBRANCH  51  76
BRANCH  63  88
ATOM     88  C   UNL A   1      40.005  34.212  36.869  1.00  0.00     0.058 A 
ATOM     89  C   UNL A   1      40.735  35.406  36.777  1.00  0.00     0.135 A 
ATOM     90  C   UNL A   1      39.170  34.034  37.983  1.00  0.00     0.135 A 
ATOM     91  F   UNL A   1      41.552  35.620  35.734  1.00  0.00    -0.206 F 
ATOM     92  C   UNL A   1      40.657  36.381  37.766  1.00  0.00     0.059 A 
ATOM     93  C   UNL A   1      39.057  35.005  38.971  1.00  0.00     0.059 A 
ATOM     94  F   UNL A   1      38.443  32.912  38.110  1.00  0.00    -0.206 F 
ATOM     95  C   UNL A   1      39.815  36.170  38.860  1.00  0.00     0.060 A 
BRANCH  95  96
ATOM     96  S   UNL A   1      39.698  37.455  40.122  1.00  0.00     0.124 S 
ATOM     97  O   UNL A   1      40.726  38.392  39.683  1.00  0.00    -0.237 OA
ATOM     98  O   UNL A   1      38.320  37.912  39.980  1.00  0.00    -0.237 OA
ATOM     99  O   UNL A   1      39.987  36.738  41.361  1.00  0.00    -0.744 OA
ENDBRANCH  95  96
ENDBRANCH  63  88
ENDBRANCH  37  38
ENDBRANCH  29  32
ENDBRANCH  27  28
ENDBRANCH  26  27
ENDBRANCH   1  26
TORSDOF 18
ENDMDL
