MODEL 1
REMARK VINA RESULT:     -13.9      0.000      0.000
REMARK SMILES Cc1ccccc1NC(=O)CSc1nc(C(=O)NCCCNC(=O)c2ccc(-c3c4nc(c(-c5c(F)cc(S(=O)(=O)[O-])cc5F)c5ccc([nH]5)c(-c5c(F)cc(S(=O)(=O)[O-])cc5F)c5nc(c(-c6c(F)cc(S(=O)(=O)[O-])cc6F)c6ccc3[nH]6)C=C5)C=C4)cc2)c2ccccc2n1
REMARK SMILES IDX 19 1 18 2 16 3 17 4 15 6 13 7 14 8 97 9 96 10 91 11 95 12
REMARK SMILES IDX 92 13 94 14 93 15 12 16 11 17 9 18 8 19 10 21 7 22 1 23 2 24
REMARK SMILES IDX 3 25 4 26 6 27 5 28 20 29 21 30 22 31 23 32 24 34 25 35
REMARK SMILES IDX 26 36 90 37 27 38 89 39 28 40 29 41 30 42 83 43 31 44 88 45
REMARK SMILES IDX 82 46 84 47 32 48 87 49 81 50 80 51 33 53 67 54 46 55 66 56
REMARK SMILES IDX 47 57 50 58 65 59 85 60 48 61 49 62 64 64 86 65 51 66 34 67
REMARK SMILES IDX 35 68 44 69 36 70 37 71 43 72 45 73 38 74 39 75 40 76 41 77
REMARK SMILES IDX 42 78 68 79 69 80 78 81 70 82 71 83 77 84 79 85 72 86 73 87
REMARK SMILES IDX 74 88 75 89 76 90 52 91 53 92 62 93 54 94 55 95 61 96 63 97
REMARK SMILES IDX 56 98 57 99 58 100 59 101 60 102
REMARK H PARENT 18 5 8 20 22 33 84 52 50 63
REMARK Flexibility Score: inf
ROOT
ATOM      1  C   UNL A   1      32.199  28.092  27.587  1.00  0.00     0.118 C 
ENDROOT
BRANCH   1   2
ATOM      2  N   UNL A   1      31.223  27.065  27.249  1.00  0.00    -0.351 N 
ATOM      3  C   UNL A   1      31.251  25.924  26.479  1.00  0.00     0.270 C 
ATOM      4  O   UNL A   1      30.249  25.203  26.509  1.00  0.00    -0.267 OA
ATOM      5  H   UNL A   1      30.345  27.223  27.664  1.00  0.00     0.163 HD
BRANCH   3   6
ATOM      6  C   UNL A   1      32.355  25.574  25.524  1.00  0.00     0.140 A 
ATOM      7  C   UNL A   1      34.297  24.387  25.360  1.00  0.00     0.189 A 
ATOM      8  N   UNL A   1      33.343  24.876  26.139  1.00  0.00    -0.217 NA
ATOM      9  N   UNL A   1      34.279  24.411  24.025  1.00  0.00    -0.222 NA
ATOM     10  C   UNL A   1      33.313  25.123  23.438  1.00  0.00     0.076 A 
ATOM     11  C   UNL A   1      32.367  25.859  24.153  1.00  0.00     0.032 A 
ATOM     12  C   UNL A   1      33.246  25.120  22.051  1.00  0.00     0.029 A 
ATOM     13  C   UNL A   1      31.538  26.771  23.448  1.00  0.00     0.013 A 
ATOM     14  C   UNL A   1      32.307  25.885  21.357  1.00  0.00     0.002 A 
ATOM     15  C   UNL A   1      31.477  26.747  22.057  1.00  0.00     0.001 A 
BRANCH   7  16
ATOM     16  S   UNL A   1      35.678  23.598  26.128  1.00  0.00    -0.076 SA
BRANCH  16  17
ATOM     17  C   UNL A   1      35.317  21.865  25.707  1.00  0.00     0.178 C 
BRANCH  17  18
ATOM     18  C   UNL A   1      34.223  21.234  26.544  1.00  0.00     0.234 C 
ATOM     19  N   UNL A   1      33.363  20.263  26.127  1.00  0.00    -0.325 N 
ATOM     20  H   UNL A   1      32.716  20.019  26.827  1.00  0.00     0.169 HD
ATOM     21  O   UNL A   1      34.033  21.634  27.703  1.00  0.00    -0.274 OA
BRANCH  19  22
ATOM     22  C   UNL A   1      33.167  19.520  24.946  1.00  0.00     0.044 A 
ATOM     23  C   UNL A   1      32.094  21.582  23.790  1.00  0.00     0.046 C 
ATOM     24  C   UNL A   1      32.507  20.134  23.854  1.00  0.00    -0.027 A 
ATOM     25  C   UNL A   1      32.165  19.355  22.727  1.00  0.00     0.005 A 
ATOM     26  C   UNL A   1      32.508  18.010  22.649  1.00  0.00     0.000 A 
ATOM     27  C   UNL A   1      33.580  18.194  24.804  1.00  0.00     0.026 A 
ATOM     28  C   UNL A   1      33.239  17.438  23.677  1.00  0.00     0.002 A 
ENDBRANCH  19  22
ENDBRANCH  17  18
ENDBRANCH  16  17
ENDBRANCH   7  16
ENDBRANCH   3   6
ENDBRANCH   1   2
BRANCH   1  29
ATOM     29  C   UNL A   1      31.927  29.451  26.978  1.00  0.00     0.042 C 
BRANCH  29  30
ATOM     30  C   UNL A   1      33.209  30.105  26.489  1.00  0.00     0.118 C 
BRANCH  30  31
ATOM     31  N   UNL A   1      33.594  31.331  27.194  1.00  0.00    -0.352 N 
ATOM     32  C   UNL A   1      34.605  31.458  28.145  1.00  0.00     0.251 C 
ATOM     33  H   UNL A   1      33.089  32.146  26.973  1.00  0.00     0.163 HD
ATOM     34  O   UNL A   1      34.821  32.489  28.754  1.00  0.00    -0.269 OA
BRANCH  32  35
ATOM     35  C   UNL A   1      35.451  30.261  28.342  1.00  0.00     0.039 A 
ATOM     36  C   UNL A   1      35.677  29.873  29.667  1.00  0.00     0.014 A 
ATOM     37  C   UNL A   1      36.338  29.935  27.320  1.00  0.00     0.014 A 
ATOM     38  C   UNL A   1      36.928  29.385  30.019  1.00  0.00     0.010 A 
ATOM     39  C   UNL A   1      37.608  29.534  27.689  1.00  0.00     0.010 A 
ATOM     40  C   UNL A   1      37.923  29.340  29.047  1.00  0.00    -0.014 A 
BRANCH  40  41
ATOM     41  C   UNL A   1      39.343  29.227  29.364  1.00  0.00     0.031 A 
ATOM     42  C   UNL A   1      40.048  27.962  29.067  1.00  0.00     0.074 A 
ATOM     43  C   UNL A   1      40.032  30.293  29.840  1.00  0.00     0.049 A 
ATOM     44  N   UNL A   1      41.231  27.676  29.488  1.00  0.00    -0.248 NA
ATOM     45  C   UNL A   1      39.427  26.862  28.327  1.00  0.00     0.031 C 
ATOM     46  C   UNL A   1      41.484  30.468  29.860  1.00  0.00     0.029 A 
ATOM     47  N   UNL A   1      39.548  31.353  30.620  1.00  0.00    -0.354 N 
ATOM     48  C   UNL A   1      41.639  26.543  28.830  1.00  0.00     0.074 A 
ATOM     49  C   UNL A   1      40.445  26.001  28.242  1.00  0.00     0.031 C 
ATOM     50  C   UNL A   1      41.804  31.374  30.795  1.00  0.00     0.029 A 
ATOM     51  C   UNL A   1      40.587  31.701  31.513  1.00  0.00     0.049 A 
ATOM     52  H   UNL A   1      38.659  31.772  30.558  1.00  0.00     0.167 HD
ATOM     53  C   UNL A   1      42.974  26.293  28.732  1.00  0.00     0.037 A 
ATOM     54  C   UNL A   1      40.436  31.584  32.865  1.00  0.00     0.037 A 
ATOM     55  C   UNL A   1      43.709  27.045  29.752  1.00  0.00     0.049 A 
ATOM     56  C   UNL A   1      41.393  30.609  33.513  1.00  0.00     0.074 A 
ATOM     57  C   UNL A   1      44.560  28.134  29.723  1.00  0.00     0.029 A 
ATOM     58  N   UNL A   1      43.378  26.846  31.095  1.00  0.00    -0.354 N 
ATOM     59  N   UNL A   1      42.113  29.741  32.853  1.00  0.00    -0.248 NA
ATOM     60  C   UNL A   1      41.608  30.523  34.954  1.00  0.00     0.031 C 
ATOM     61  C   UNL A   1      44.630  28.666  31.043  1.00  0.00     0.029 A 
ATOM     62  C   UNL A   1      43.869  27.869  31.883  1.00  0.00     0.049 A 
ATOM     63  H   UNL A   1      42.863  26.078  31.435  1.00  0.00     0.167 HD
ATOM     64  C   UNL A   1      42.818  28.958  33.732  1.00  0.00     0.074 A 
ATOM     65  C   UNL A   1      42.498  29.518  35.034  1.00  0.00     0.031 C 
ATOM     66  C   UNL A   1      43.586  27.906  33.316  1.00  0.00     0.037 A 
BRANCH  53  67
ATOM     67  C   UNL A   1      43.616  25.538  27.578  1.00  0.00     0.058 A 
ATOM     68  C   UNL A   1      43.707  24.129  27.607  1.00  0.00     0.135 A 
ATOM     69  C   UNL A   1      44.298  26.139  26.492  1.00  0.00     0.135 A 
ATOM     70  F   UNL A   1      43.135  23.420  28.592  1.00  0.00    -0.206 F 
ATOM     71  C   UNL A   1      44.422  23.388  26.653  1.00  0.00     0.059 A 
ATOM     72  C   UNL A   1      44.972  25.420  25.504  1.00  0.00     0.059 A 
ATOM     73  F   UNL A   1      44.422  27.463  26.359  1.00  0.00    -0.206 F 
ATOM     74  C   UNL A   1      45.055  24.044  25.604  1.00  0.00     0.060 A 
BRANCH  74  75
ATOM     75  S   UNL A   1      46.014  23.111  24.397  1.00  0.00     0.124 S 
ATOM     76  O   UNL A   1      45.004  22.794  23.392  1.00  0.00    -0.237 OA
ATOM     77  O   UNL A   1      47.036  24.072  23.995  1.00  0.00    -0.237 OA
ATOM     78  O   UNL A   1      46.507  21.968  25.163  1.00  0.00    -0.744 OA
ENDBRANCH  74  75
ENDBRANCH  53  67
BRANCH  54  79
ATOM     79  C   UNL A   1      39.064  31.920  33.330  1.00  0.00     0.058 A 
ATOM     80  C   UNL A   1      38.747  33.285  33.465  1.00  0.00     0.135 A 
ATOM     81  C   UNL A   1      37.999  31.019  33.183  1.00  0.00     0.135 A 
ATOM     82  F   UNL A   1      39.729  34.187  33.631  1.00  0.00    -0.206 F 
ATOM     83  C   UNL A   1      37.455  33.759  33.276  1.00  0.00     0.059 A 
ATOM     84  C   UNL A   1      36.690  31.474  32.999  1.00  0.00     0.059 A 
ATOM     85  F   UNL A   1      38.238  29.707  33.056  1.00  0.00    -0.206 F 
ATOM     86  C   UNL A   1      36.446  32.850  32.970  1.00  0.00     0.060 A 
BRANCH  86  87
ATOM     87  S   UNL A   1      34.891  33.511  32.323  1.00  0.00     0.124 S 
ATOM     88  O   UNL A   1      34.310  34.136  33.506  1.00  0.00    -0.237 OA
ATOM     89  O   UNL A   1      35.369  34.433  31.292  1.00  0.00    -0.237 OA
ATOM     90  O   UNL A   1      34.200  32.325  31.831  1.00  0.00    -0.744 OA
ENDBRANCH  86  87
ENDBRANCH  54  79
BRANCH  66  91
ATOM     91  C   UNL A   1      44.202  26.853  34.219  1.00  0.00     0.058 A 
ATOM     92  C   UNL A   1      45.581  26.726  34.470  1.00  0.00     0.135 A 
ATOM     93  C   UNL A   1      43.373  25.994  34.984  1.00  0.00     0.135 A 
ATOM     94  F   UNL A   1      46.473  27.561  33.920  1.00  0.00    -0.206 F 
ATOM     95  C   UNL A   1      46.105  25.763  35.339  1.00  0.00     0.059 A 
ATOM     96  C   UNL A   1      43.870  25.070  35.901  1.00  0.00     0.059 A 
ATOM     97  F   UNL A   1      42.037  26.035  34.875  1.00  0.00    -0.206 F 
ATOM     98  C   UNL A   1      45.242  24.937  36.049  1.00  0.00     0.060 A 
BRANCH  98  99
ATOM     99  S   UNL A   1      45.902  23.732  37.216  1.00  0.00     0.124 S 
ATOM    100  O   UNL A   1      45.017  23.919  38.361  1.00  0.00    -0.237 OA
ATOM    101  O   UNL A   1      45.748  22.467  36.503  1.00  0.00    -0.237 OA
ATOM    102  O   UNL A   1      47.281  24.171  37.403  1.00  0.00    -0.744 OA
ENDBRANCH  98  99
ENDBRANCH  66  91
ENDBRANCH  40  41
ENDBRANCH  32  35
ENDBRANCH  30  31
ENDBRANCH  29  30
ENDBRANCH   1  29
TORSDOF 17
ENDMDL
MODEL 2
REMARK VINA RESULT:     -12.1      4.989     12.952
REMARK SMILES Cc1ccccc1NC(=O)CSc1nc(C(=O)NCCCNC(=O)c2ccc(-c3c4nc(c(-c5c(F)cc(S(=O)(=O)[O-])cc5F)c5ccc([nH]5)c(-c5c(F)cc(S(=O)(=O)[O-])cc5F)c5nc(c(-c6c(F)cc(S(=O)(=O)[O-])cc6F)c6ccc3[nH]6)C=C5)C=C4)cc2)c2ccccc2n1
REMARK SMILES IDX 19 1 18 2 16 3 17 4 15 6 13 7 14 8 97 9 96 10 91 11 95 12
REMARK SMILES IDX 92 13 94 14 93 15 12 16 11 17 9 18 8 19 10 21 7 22 1 23 2 24
REMARK SMILES IDX 3 25 4 26 6 27 5 28 20 29 21 30 22 31 23 32 24 34 25 35
REMARK SMILES IDX 26 36 90 37 27 38 89 39 28 40 29 41 30 42 83 43 31 44 88 45
REMARK SMILES IDX 82 46 84 47 32 48 87 49 81 50 80 51 33 53 67 54 46 55 66 56
REMARK SMILES IDX 47 57 50 58 65 59 85 60 48 61 49 62 64 64 86 65 51 66 34 67
REMARK SMILES IDX 35 68 44 69 36 70 37 71 43 72 45 73 38 74 39 75 40 76 41 77
REMARK SMILES IDX 42 78 68 79 69 80 78 81 70 82 71 83 77 84 79 85 72 86 73 87
REMARK SMILES IDX 74 88 75 89 76 90 52 91 53 92 62 93 54 94 55 95 61 96 63 97
REMARK SMILES IDX 56 98 57 99 58 100 59 101 60 102
REMARK H PARENT 18 5 8 20 22 33 84 52 50 63
REMARK Flexibility Score: inf
ROOT
ATOM      1  C   UNL A   1      44.004  23.889  30.228  1.00  0.00     0.118 C 
ENDROOT
BRANCH   1   2
ATOM      2  N   UNL A   1      44.266  23.426  31.584  1.00  0.00    -0.351 N 
ATOM      3  C   UNL A   1      44.347  24.039  32.814  1.00  0.00     0.270 C 
ATOM      4  O   UNL A   1      44.471  23.305  33.799  1.00  0.00    -0.267 OA
ATOM      5  H   UNL A   1      44.420  22.455  31.632  1.00  0.00     0.163 HD
BRANCH   3   6
ATOM      6  C   UNL A   1      44.420  25.525  33.016  1.00  0.00     0.140 A 
ATOM      7  C   UNL A   1      43.329  27.274  33.994  1.00  0.00     0.189 A 
ATOM      8  N   UNL A   1      43.309  25.999  33.632  1.00  0.00    -0.217 NA
ATOM      9  N   UNL A   1      44.400  28.070  33.924  1.00  0.00    -0.222 NA
ATOM     10  C   UNL A   1      45.476  27.595  33.291  1.00  0.00     0.076 A 
ATOM     11  C   UNL A   1      45.509  26.339  32.682  1.00  0.00     0.032 A 
ATOM     12  C   UNL A   1      46.616  28.386  33.251  1.00  0.00     0.029 A 
ATOM     13  C   UNL A   1      46.602  26.023  31.833  1.00  0.00     0.013 A 
ATOM     14  C   UNL A   1      47.763  27.992  32.559  1.00  0.00     0.002 A 
ATOM     15  C   UNL A   1      47.742  26.824  31.812  1.00  0.00     0.001 A 
BRANCH   7  16
ATOM     16  S   UNL A   1      41.854  27.975  34.667  1.00  0.00    -0.076 SA
BRANCH  16  17
ATOM     17  C   UNL A   1      42.331  29.731  34.693  1.00  0.00     0.178 C 
BRANCH  17  18
ATOM     18  C   UNL A   1      42.237  30.383  36.058  1.00  0.00     0.234 C 
ATOM     19  N   UNL A   1      41.861  31.670  36.299  1.00  0.00    -0.325 N 
ATOM     20  H   UNL A   1      41.896  31.890  37.258  1.00  0.00     0.169 HD
ATOM     21  O   UNL A   1      42.559  29.737  37.066  1.00  0.00    -0.274 OA
BRANCH  19  22
ATOM     22  C   UNL A   1      41.433  32.765  35.523  1.00  0.00     0.044 A 
ATOM     23  C   UNL A   1      38.961  32.008  35.758  1.00  0.00     0.046 C 
ATOM     24  C   UNL A   1      40.057  32.891  35.216  1.00  0.00    -0.027 A 
ATOM     25  C   UNL A   1      39.639  33.891  34.313  1.00  0.00     0.005 A 
ATOM     26  C   UNL A   1      40.546  34.786  33.758  1.00  0.00     0.000 A 
ATOM     27  C   UNL A   1      42.309  33.732  35.024  1.00  0.00     0.026 A 
ATOM     28  C   UNL A   1      41.877  34.722  34.136  1.00  0.00     0.002 A 
ENDBRANCH  19  22
ENDBRANCH  17  18
ENDBRANCH  16  17
ENDBRANCH   7  16
ENDBRANCH   3   6
ENDBRANCH   1   2
BRANCH   1  29
ATOM     29  C   UNL A   1      43.407  22.847  29.306  1.00  0.00     0.042 C 
BRANCH  29  30
ATOM     30  C   UNL A   1      42.100  23.328  28.699  1.00  0.00     0.118 C 
BRANCH  30  31
ATOM     31  N   UNL A   1      41.515  22.443  27.688  1.00  0.00    -0.352 N 
ATOM     32  C   UNL A   1      40.518  22.774  26.771  1.00  0.00     0.251 C 
ATOM     33  H   UNL A   1      41.860  21.522  27.653  1.00  0.00     0.163 HD
ATOM     34  O   UNL A   1      40.018  21.968  26.011  1.00  0.00    -0.269 OA
BRANCH  32  35
ATOM     35  C   UNL A   1      40.130  24.201  26.738  1.00  0.00     0.039 A 
ATOM     36  C   UNL A   1      40.985  25.059  26.040  1.00  0.00     0.014 A 
ATOM     37  C   UNL A   1      39.306  24.659  27.762  1.00  0.00     0.014 A 
ATOM     38  C   UNL A   1      41.214  26.334  26.542  1.00  0.00     0.010 A 
ATOM     39  C   UNL A   1      39.603  25.892  28.309  1.00  0.00     0.010 A 
ATOM     40  C   UNL A   1      40.615  26.692  27.746  1.00  0.00    -0.014 A 
BRANCH  40  41
ATOM     41  C   UNL A   1      41.070  27.815  28.560  1.00  0.00     0.031 A 
ATOM     42  C   UNL A   1      40.183  28.985  28.731  1.00  0.00     0.074 A 
ATOM     43  C   UNL A   1      42.248  27.753  29.226  1.00  0.00     0.049 A 
ATOM     44  N   UNL A   1      40.554  30.107  29.244  1.00  0.00    -0.248 NA
ATOM     45  C   UNL A   1      38.801  29.011  28.247  1.00  0.00     0.031 C 
ATOM     46  C   UNL A   1      42.676  28.595  30.344  1.00  0.00     0.029 A 
ATOM     47  N   UNL A   1      43.406  27.047  28.866  1.00  0.00    -0.354 N 
ATOM     48  C   UNL A   1      39.424  30.858  29.452  1.00  0.00     0.074 A 
ATOM     49  C   UNL A   1      38.395  30.205  28.690  1.00  0.00     0.031 C 
ATOM     50  C   UNL A   1      44.014  28.574  30.422  1.00  0.00     0.029 A 
ATOM     51  C   UNL A   1      44.502  27.843  29.268  1.00  0.00     0.049 A 
ATOM     52  H   UNL A   1      43.446  26.170  28.421  1.00  0.00     0.167 HD
ATOM     53  C   UNL A   1      39.467  31.854  30.379  1.00  0.00     0.037 A 
ATOM     54  C   UNL A   1      45.393  28.342  28.362  1.00  0.00     0.037 A 
ATOM     55  C   UNL A   1      40.855  32.237  30.650  1.00  0.00     0.049 A 
ATOM     56  C   UNL A   1      45.441  29.853  28.308  1.00  0.00     0.074 A 
ATOM     57  C   UNL A   1      41.709  32.071  31.725  1.00  0.00     0.029 A 
ATOM     58  N   UNL A   1      41.649  32.669  29.585  1.00  0.00    -0.354 N 
ATOM     59  N   UNL A   1      44.545  30.634  28.850  1.00  0.00    -0.248 NA
ATOM     60  C   UNL A   1      46.493  30.605  27.631  1.00  0.00     0.031 C 
ATOM     61  C   UNL A   1      43.039  32.280  31.257  1.00  0.00     0.029 A 
ATOM     62  C   UNL A   1      42.988  32.626  29.916  1.00  0.00     0.049 A 
ATOM     63  H   UNL A   1      41.299  32.964  28.712  1.00  0.00     0.167 HD
ATOM     64  C   UNL A   1      44.836  31.944  28.562  1.00  0.00     0.074 A 
ATOM     65  C   UNL A   1      46.089  31.872  27.831  1.00  0.00     0.031 C 
ATOM     66  C   UNL A   1      44.010  32.971  28.930  1.00  0.00     0.037 A 
BRANCH  53  67
ATOM     67  C   UNL A   1      38.263  32.320  31.183  1.00  0.00     0.058 A 
ATOM     68  C   UNL A   1      37.770  33.636  31.038  1.00  0.00     0.135 A 
ATOM     69  C   UNL A   1      37.645  31.584  32.223  1.00  0.00     0.135 A 
ATOM     70  F   UNL A   1      38.278  34.465  30.113  1.00  0.00    -0.206 F 
ATOM     71  C   UNL A   1      36.767  34.173  31.859  1.00  0.00     0.059 A 
ATOM     72  C   UNL A   1      36.611  32.079  33.018  1.00  0.00     0.059 A 
ATOM     73  F   UNL A   1      38.053  30.364  32.587  1.00  0.00    -0.206 F 
ATOM     74  C   UNL A   1      36.194  33.385  32.851  1.00  0.00     0.060 A 
BRANCH  74  75
ATOM     75  S   UNL A   1      34.936  34.074  33.943  1.00  0.00     0.124 S 
ATOM     76  O   UNL A   1      35.372  33.587  35.248  1.00  0.00    -0.237 OA
ATOM     77  O   UNL A   1      35.074  35.509  33.717  1.00  0.00    -0.237 OA
ATOM     78  O   UNL A   1      33.694  33.486  33.444  1.00  0.00    -0.744 OA
ENDBRANCH  74  75
ENDBRANCH  53  67
BRANCH  54  79
ATOM     79  C   UNL A   1      45.668  27.407  27.238  1.00  0.00     0.058 A 
ATOM     80  C   UNL A   1      46.576  26.359  27.483  1.00  0.00     0.135 A 
ATOM     81  C   UNL A   1      44.763  27.247  26.180  1.00  0.00     0.135 A 
ATOM     82  F   UNL A   1      47.480  26.472  28.470  1.00  0.00    -0.206 F 
ATOM     83  C   UNL A   1      46.472  25.134  26.835  1.00  0.00     0.059 A 
ATOM     84  C   UNL A   1      44.647  26.025  25.509  1.00  0.00     0.059 A 
ATOM     85  F   UNL A   1      43.878  28.212  25.895  1.00  0.00    -0.206 F 
ATOM     86  C   UNL A   1      45.455  24.955  25.901  1.00  0.00     0.060 A 
BRANCH  86  87
ATOM     87  S   UNL A   1      45.078  23.261  25.389  1.00  0.00     0.124 S 
ATOM     88  O   UNL A   1      43.649  23.169  25.667  1.00  0.00    -0.237 OA
ATOM     89  O   UNL A   1      45.445  23.293  23.972  1.00  0.00    -0.237 OA
ATOM     90  O   UNL A   1      45.941  22.452  26.242  1.00  0.00    -0.744 OA
ENDBRANCH  86  87
ENDBRANCH  54  79
BRANCH  66  91
ATOM     91  C   UNL A   1      44.126  34.408  28.456  1.00  0.00     0.058 A 
ATOM     92  C   UNL A   1      43.837  34.841  27.149  1.00  0.00     0.135 A 
ATOM     93  C   UNL A   1      44.419  35.443  29.379  1.00  0.00     0.135 A 
ATOM     94  F   UNL A   1      43.414  33.989  26.205  1.00  0.00    -0.206 F 
ATOM     95  C   UNL A   1      43.921  36.183  26.762  1.00  0.00     0.059 A 
ATOM     96  C   UNL A   1      44.449  36.792  29.030  1.00  0.00     0.059 A 
ATOM     97  F   UNL A   1      44.675  35.177  30.668  1.00  0.00    -0.206 F 
ATOM     98  C   UNL A   1      44.230  37.152  27.709  1.00  0.00     0.060 A 
BRANCH  98  99
ATOM     99  S   UNL A   1      44.285  38.892  27.236  1.00  0.00     0.124 S 
ATOM    100  O   UNL A   1      45.454  38.920  26.363  1.00  0.00    -0.237 OA
ATOM    101  O   UNL A   1      42.999  39.091  26.573  1.00  0.00    -0.237 OA
ATOM    102  O   UNL A   1      44.433  39.578  28.515  1.00  0.00    -0.744 OA
ENDBRANCH  98  99
ENDBRANCH  66  91
ENDBRANCH  40  41
ENDBRANCH  32  35
ENDBRANCH  30  31
ENDBRANCH  29  30
ENDBRANCH   1  29
TORSDOF 17
ENDMDL
MODEL 3
REMARK VINA RESULT:     -11.6      4.004     10.457
REMARK SMILES Cc1ccccc1NC(=O)CSc1nc(C(=O)NCCCNC(=O)c2ccc(-c3c4nc(c(-c5c(F)cc(S(=O)(=O)[O-])cc5F)c5ccc([nH]5)c(-c5c(F)cc(S(=O)(=O)[O-])cc5F)c5nc(c(-c6c(F)cc(S(=O)(=O)[O-])cc6F)c6ccc3[nH]6)C=C5)C=C4)cc2)c2ccccc2n1
REMARK SMILES IDX 19 1 18 2 16 3 17 4 15 6 13 7 14 8 97 9 96 10 91 11 95 12
REMARK SMILES IDX 92 13 94 14 93 15 12 16 11 17 9 18 8 19 10 21 7 22 1 23 2 24
REMARK SMILES IDX 3 25 4 26 6 27 5 28 20 29 21 30 22 31 23 32 24 34 25 35
REMARK SMILES IDX 26 36 90 37 27 38 89 39 28 40 29 41 30 42 83 43 31 44 88 45
REMARK SMILES IDX 82 46 84 47 32 48 87 49 81 50 80 51 33 53 67 54 46 55 66 56
REMARK SMILES IDX 47 57 50 58 65 59 85 60 48 61 49 62 64 64 86 65 51 66 34 67
REMARK SMILES IDX 35 68 44 69 36 70 37 71 43 72 45 73 38 74 39 75 40 76 41 77
REMARK SMILES IDX 42 78 68 79 69 80 78 81 70 82 71 83 77 84 79 85 72 86 73 87
REMARK SMILES IDX 74 88 75 89 76 90 52 91 53 92 62 93 54 94 55 95 61 96 63 97
REMARK SMILES IDX 56 98 57 99 58 100 59 101 60 102
REMARK H PARENT 18 5 8 20 22 33 84 52 50 63
REMARK Flexibility Score: inf
ROOT
ATOM      1  C   UNL A   1      43.817  22.163  25.291  1.00  0.00     0.118 C 
ENDROOT
BRANCH   1   2
ATOM      2  N   UNL A   1      43.271  21.275  26.308  1.00  0.00    -0.351 N 
ATOM      3  C   UNL A   1      42.019  21.079  26.848  1.00  0.00     0.270 C 
ATOM      4  O   UNL A   1      41.888  20.133  27.631  1.00  0.00    -0.267 OA
ATOM      5  H   UNL A   1      43.952  20.681  26.700  1.00  0.00     0.163 HD
BRANCH   3   6
ATOM      6  C   UNL A   1      40.855  22.005  26.644  1.00  0.00     0.140 A 
ATOM      7  C   UNL A   1      38.697  22.063  25.904  1.00  0.00     0.189 A 
ATOM      8  N   UNL A   1      39.832  21.385  26.005  1.00  0.00    -0.217 NA
ATOM      9  N   UNL A   1      38.453  23.234  26.500  1.00  0.00    -0.222 NA
ATOM     10  C   UNL A   1      39.480  23.840  27.102  1.00  0.00     0.076 A 
ATOM     11  C   UNL A   1      40.777  23.327  27.099  1.00  0.00     0.032 A 
ATOM     12  C   UNL A   1      39.236  25.033  27.771  1.00  0.00     0.029 A 
ATOM     13  C   UNL A   1      41.839  24.154  27.551  1.00  0.00     0.013 A 
ATOM     14  C   UNL A   1      40.262  25.762  28.374  1.00  0.00     0.002 A 
ATOM     15  C   UNL A   1      41.575  25.342  28.228  1.00  0.00     0.001 A 
BRANCH   7  16
ATOM     16  S   UNL A   1      37.385  21.359  24.956  1.00  0.00    -0.076 SA
BRANCH  16  17
ATOM     17  C   UNL A   1      36.665  22.874  24.251  1.00  0.00     0.178 C 
BRANCH  17  18
ATOM     18  C   UNL A   1      35.433  23.376  24.976  1.00  0.00     0.234 C 
ATOM     19  N   UNL A   1      34.214  22.768  24.985  1.00  0.00    -0.325 N 
ATOM     20  H   UNL A   1      33.550  23.282  25.499  1.00  0.00     0.169 HD
ATOM     21  O   UNL A   1      35.484  24.449  25.596  1.00  0.00    -0.274 OA
BRANCH  19  22
ATOM     22  C   UNL A   1      33.664  21.590  24.445  1.00  0.00     0.044 A 
ATOM     23  C   UNL A   1      32.583  22.944  22.511  1.00  0.00     0.046 C 
ATOM     24  C   UNL A   1      32.836  21.684  23.299  1.00  0.00    -0.027 A 
ATOM     25  C   UNL A   1      32.154  20.535  22.844  1.00  0.00     0.005 A 
ATOM     26  C   UNL A   1      32.318  19.304  23.467  1.00  0.00     0.000 A 
ATOM     27  C   UNL A   1      33.882  20.325  24.996  1.00  0.00     0.026 A 
ATOM     28  C   UNL A   1      33.203  19.195  24.527  1.00  0.00     0.002 A 
ENDBRANCH  19  22
ENDBRANCH  17  18
ENDBRANCH  16  17
ENDBRANCH   7  16
ENDBRANCH   3   6
ENDBRANCH   1   2
BRANCH   1  29
ATOM     29  C   UNL A   1      45.306  22.022  25.058  1.00  0.00     0.042 C 
BRANCH  29  30
ATOM     30  C   UNL A   1      46.095  23.003  25.908  1.00  0.00     0.118 C 
BRANCH  30  31
ATOM     31  N   UNL A   1      45.622  24.389  25.867  1.00  0.00    -0.352 N 
ATOM     32  C   UNL A   1      45.315  25.195  26.962  1.00  0.00     0.251 C 
ATOM     33  H   UNL A   1      45.509  24.792  24.976  1.00  0.00     0.163 HD
ATOM     34  O   UNL A   1      44.848  26.313  26.858  1.00  0.00    -0.269 OA
BRANCH  32  35
ATOM     35  C   UNL A   1      45.643  24.623  28.287  1.00  0.00     0.039 A 
ATOM     36  C   UNL A   1      44.852  23.549  28.710  1.00  0.00     0.014 A 
ATOM     37  C   UNL A   1      46.303  25.451  29.190  1.00  0.00     0.014 A 
ATOM     38  C   UNL A   1      44.504  23.461  30.052  1.00  0.00     0.010 A 
ATOM     39  C   UNL A   1      45.883  25.412  30.506  1.00  0.00     0.010 A 
ATOM     40  C   UNL A   1      44.922  24.470  30.915  1.00  0.00    -0.014 A 
BRANCH  40  41
ATOM     41  C   UNL A   1      44.315  24.702  32.222  1.00  0.00     0.031 A 
ATOM     42  C   UNL A   1      43.786  26.046  32.541  1.00  0.00     0.074 A 
ATOM     43  C   UNL A   1      44.152  23.683  33.100  1.00  0.00     0.049 A 
ATOM     44  N   UNL A   1      43.424  26.422  33.719  1.00  0.00    -0.248 NA
ATOM     45  C   UNL A   1      43.704  27.122  31.551  1.00  0.00     0.031 C 
ATOM     46  C   UNL A   1      43.261  23.651  34.261  1.00  0.00     0.029 A 
ATOM     47  N   UNL A   1      44.946  22.536  33.246  1.00  0.00    -0.354 N 
ATOM     48  C   UNL A   1      42.780  27.626  33.586  1.00  0.00     0.074 A 
ATOM     49  C   UNL A   1      43.108  28.082  32.263  1.00  0.00     0.031 C 
ATOM     50  C   UNL A   1      43.702  22.727  35.126  1.00  0.00     0.029 A 
ATOM     51  C   UNL A   1      44.974  22.240  34.627  1.00  0.00     0.049 A 
ATOM     52  H   UNL A   1      45.395  22.036  32.526  1.00  0.00     0.167 HD
ATOM     53  C   UNL A   1      41.915  28.011  34.564  1.00  0.00     0.037 A 
ATOM     54  C   UNL A   1      46.138  22.260  35.339  1.00  0.00     0.037 A 
ATOM     55  C   UNL A   1      42.185  27.276  35.802  1.00  0.00     0.049 A 
ATOM     56  C   UNL A   1      46.166  23.284  36.452  1.00  0.00     0.074 A 
ATOM     57  C   UNL A   1      41.524  26.279  36.496  1.00  0.00     0.029 A 
ATOM     58  N   UNL A   1      43.461  27.361  36.364  1.00  0.00    -0.354 N 
ATOM     59  N   UNL A   1      45.302  24.257  36.574  1.00  0.00    -0.248 NA
ATOM     60  C   UNL A   1      47.174  23.305  37.507  1.00  0.00     0.031 C 
ATOM     61  C   UNL A   1      42.459  25.680  37.389  1.00  0.00     0.029 A 
ATOM     62  C   UNL A   1      43.669  26.347  37.277  1.00  0.00     0.049 A 
ATOM     63  H   UNL A   1      44.125  28.053  36.137  1.00  0.00     0.167 HD
ATOM     64  C   UNL A   1      45.644  25.051  37.639  1.00  0.00     0.074 A 
ATOM     65  C   UNL A   1      46.801  24.386  38.214  1.00  0.00     0.031 C 
ATOM     66  C   UNL A   1      44.961  26.197  37.942  1.00  0.00     0.037 A 
BRANCH  53  67
ATOM     67  C   UNL A   1      40.699  28.893  34.324  1.00  0.00     0.058 A 
ATOM     68  C   UNL A   1      39.817  28.624  33.255  1.00  0.00     0.135 A 
ATOM     69  C   UNL A   1      40.427  30.105  35.006  1.00  0.00     0.135 A 
ATOM     70  F   UNL A   1      39.965  27.526  32.498  1.00  0.00    -0.206 F 
ATOM     71  C   UNL A   1      38.771  29.486  32.889  1.00  0.00     0.059 A 
ATOM     72  C   UNL A   1      39.363  30.951  34.692  1.00  0.00     0.059 A 
ATOM     73  F   UNL A   1      41.218  30.586  35.969  1.00  0.00    -0.206 F 
ATOM     74  C   UNL A   1      38.553  30.651  33.614  1.00  0.00     0.060 A 
BRANCH  74  75
ATOM     75  S   UNL A   1      37.242  31.790  33.129  1.00  0.00     0.124 S 
ATOM     76  O   UNL A   1      37.965  32.738  32.287  1.00  0.00    -0.237 OA
ATOM     77  O   UNL A   1      36.301  30.912  32.443  1.00  0.00    -0.237 OA
ATOM     78  O   UNL A   1      36.770  32.327  34.404  1.00  0.00    -0.744 OA
ENDBRANCH  74  75
ENDBRANCH  53  67
BRANCH  54  79
ATOM     79  C   UNL A   1      47.306  21.764  34.563  1.00  0.00     0.058 A 
ATOM     80  C   UNL A   1      48.355  22.675  34.329  1.00  0.00     0.135 A 
ATOM     81  C   UNL A   1      47.604  20.397  34.480  1.00  0.00     0.135 A 
ATOM     82  F   UNL A   1      48.117  23.996  34.374  1.00  0.00    -0.206 F 
ATOM     83  C   UNL A   1      49.673  22.256  34.205  1.00  0.00     0.059 A 
ATOM     84  C   UNL A   1      48.924  19.953  34.347  1.00  0.00     0.059 A 
ATOM     85  F   UNL A   1      46.646  19.483  34.686  1.00  0.00    -0.206 F 
ATOM     86  C   UNL A   1      49.954  20.895  34.290  1.00  0.00     0.060 A 
BRANCH  86  87
ATOM     87  S   UNL A   1      51.679  20.410  34.545  1.00  0.00     0.124 S 
ATOM     88  O   UNL A   1      52.257  20.633  33.225  1.00  0.00    -0.237 OA
ATOM     89  O   UNL A   1      52.098  21.352  35.585  1.00  0.00    -0.237 OA
ATOM     90  O   UNL A   1      51.579  19.018  34.965  1.00  0.00    -0.744 OA
ENDBRANCH  86  87
ENDBRANCH  54  79
BRANCH  66  91
ATOM     91  C   UNL A   1      45.406  27.250  38.941  1.00  0.00     0.058 A 
ATOM     92  C   UNL A   1      45.167  27.185  40.326  1.00  0.00     0.135 A 
ATOM     93  C   UNL A   1      46.227  28.328  38.524  1.00  0.00     0.135 A 
ATOM     94  F   UNL A   1      44.521  26.149  40.879  1.00  0.00    -0.206 F 
ATOM     95  C   UNL A   1      45.627  28.160  41.218  1.00  0.00     0.059 A 
ATOM     96  C   UNL A   1      46.747  29.276  39.404  1.00  0.00     0.059 A 
ATOM     97  F   UNL A   1      46.568  28.489  37.237  1.00  0.00    -0.206 F 
ATOM     98  C   UNL A   1      46.415  29.204  40.747  1.00  0.00     0.060 A 
BRANCH  98  99
ATOM     99  S   UNL A   1      47.062  30.435  41.895  1.00  0.00     0.124 S 
ATOM    100  O   UNL A   1      48.493  30.373  41.614  1.00  0.00    -0.237 OA
ATOM    101  O   UNL A   1      46.391  31.661  41.473  1.00  0.00    -0.237 OA
ATOM    102  O   UNL A   1      46.650  29.923  43.198  1.00  0.00    -0.744 OA
ENDBRANCH  98  99
ENDBRANCH  66  91
ENDBRANCH  40  41
ENDBRANCH  32  35
ENDBRANCH  30  31
ENDBRANCH  29  30
ENDBRANCH   1  29
TORSDOF 17
ENDMDL
