MODEL 1
REMARK VINA RESULT:     -12.7      0.000      0.000
REMARK SMILES O=C(NCCCNC(=O)c1ccc(-c2c3nc(c(-c4c(F)cc(S(=O)(=O)[O-])cc4F)c4ccc([nH]4)c(-c4c(F)cc(S(=O)(=O)[O-])cc4F)c4nc(c(-c5c(F)cc(S(=O)(=O)[O-])cc5F)c5ccc2[nH]5)C=C4)C=C3)cc1)c1ccc(C[C@H]2SC(=O)N(c3ccccc3)C2=O)cc1
REMARK SMILES IDX 5 1 4 2 3 3 1 4 2 5 76 7 77 8 95 9 78 10 94 11 79 12 80 13
REMARK SMILES IDX 81 14 82 15 92 16 83 17 85 18 93 19 84 20 86 21 87 22 91 23
REMARK SMILES IDX 88 24 90 25 89 26 6 27 7 28 8 29 9 31 10 32 11 33 75 34
REMARK SMILES IDX 12 35 74 36 13 37 14 38 15 39 68 40 16 41 73 42 67 43 69 44
REMARK SMILES IDX 17 45 72 46 66 47 65 48 18 50 52 51 31 52 51 53 32 54 35 55
REMARK SMILES IDX 50 56 70 57 33 58 34 59 49 61 71 62 36 63 19 64 20 65 29 66
REMARK SMILES IDX 21 67 22 68 28 69 30 70 23 71 24 72 25 73 26 74 27 75 53 76
REMARK SMILES IDX 54 77 63 78 55 79 56 80 62 81 64 82 57 83 58 84 59 85 60 86
REMARK SMILES IDX 61 87 37 88 38 89 47 90 39 91 40 92 46 93 48 94 41 95 42 96
REMARK SMILES IDX 43 97 44 98 45 99
REMARK H PARENT 3 6 7 30 69 49 35 60
REMARK Flexibility Score: inf
ROOT
ATOM      1  C   UNL A   1      32.934  29.150  24.888  1.00  0.00     0.042 C 
ENDROOT
BRANCH   1   2
ATOM      2  C   UNL A   1      31.437  29.383  25.054  1.00  0.00     0.118 C 
BRANCH   2   3
ATOM      3  N   UNL A   1      30.761  29.643  23.788  1.00  0.00    -0.352 N 
ATOM      4  O   UNL A   1      29.956  29.174  21.727  1.00  0.00    -0.269 OA
ATOM      5  C   UNL A   1      30.399  28.764  22.796  1.00  0.00     0.251 C 
ATOM      6  H   UNL A   1      30.531  30.586  23.620  1.00  0.00     0.163 HD
BRANCH   5   7
ATOM      7  C   UNL A   1      30.560  27.314  23.015  1.00  0.00     0.039 A 
ATOM      8  C   UNL A   1      29.735  26.644  23.919  1.00  0.00     0.014 A 
ATOM      9  C   UNL A   1      31.553  26.625  22.316  1.00  0.00     0.014 A 
ATOM     10  C   UNL A   1      29.977  25.301  24.204  1.00  0.00     0.004 A 
ATOM     11  C   UNL A   1      31.799  25.282  22.612  1.00  0.00     0.004 A 
ATOM     12  C   UNL A   1      31.040  24.621  23.588  1.00  0.00    -0.046 A 
BRANCH  12  13
ATOM     13  C   UNL A   1      31.390  23.211  24.017  1.00  0.00     0.060 C 
BRANCH  13  14
ATOM     14  C   UNL A   1      32.774  22.732  23.534  1.00  0.00     0.151 C 
ATOM     15  S   UNL A   1      34.110  23.155  24.685  1.00  0.00    -0.050 SA
ATOM     16  C   UNL A   1      32.781  21.217  23.478  1.00  0.00     0.248 C 
ATOM     17  C   UNL A   1      34.155  21.542  25.359  1.00  0.00     0.293 C 
ATOM     18  N   UNL A   1      33.500  20.660  24.528  1.00  0.00    -0.240 N 
ATOM     19  O   UNL A   1      32.104  20.611  22.650  1.00  0.00    -0.273 OA
ATOM     20  O   UNL A   1      34.728  21.331  26.413  1.00  0.00    -0.261 OA
BRANCH  18  21
ATOM     21  C   UNL A   1      33.541  19.253  24.755  1.00  0.00     0.053 A 
ATOM     22  C   UNL A   1      34.602  18.479  24.261  1.00  0.00     0.027 A 
ATOM     23  C   UNL A   1      32.539  18.609  25.497  1.00  0.00     0.027 A 
ATOM     24  C   UNL A   1      34.669  17.107  24.519  1.00  0.00     0.002 A 
ATOM     25  C   UNL A   1      32.589  17.232  25.727  1.00  0.00     0.002 A 
ATOM     26  C   UNL A   1      33.659  16.482  25.245  1.00  0.00     0.000 A 
ENDBRANCH  18  21
ENDBRANCH  13  14
ENDBRANCH  12  13
ENDBRANCH   5   7
ENDBRANCH   2   3
ENDBRANCH   1   2
BRANCH   1  27
ATOM     27  C   UNL A   1      33.713  29.065  26.196  1.00  0.00     0.118 C 
BRANCH  27  28
ATOM     28  N   UNL A   1      33.613  30.276  27.003  1.00  0.00    -0.352 N 
ATOM     29  C   UNL A   1      34.454  30.787  27.965  1.00  0.00     0.251 C 
ATOM     30  H   UNL A   1      32.809  30.817  26.831  1.00  0.00     0.163 HD
ATOM     31  O   UNL A   1      34.085  31.751  28.630  1.00  0.00    -0.269 OA
BRANCH  29  32
ATOM     32  C   UNL A   1      35.773  30.171  28.228  1.00  0.00     0.039 A 
ATOM     33  C   UNL A   1      36.717  30.138  27.197  1.00  0.00     0.014 A 
ATOM     34  C   UNL A   1      36.087  29.623  29.474  1.00  0.00     0.014 A 
ATOM     35  C   UNL A   1      38.006  29.659  27.447  1.00  0.00     0.010 A 
ATOM     36  C   UNL A   1      37.393  29.216  29.745  1.00  0.00     0.010 A 
ATOM     37  C   UNL A   1      38.372  29.252  28.741  1.00  0.00    -0.014 A 
BRANCH  37  38
ATOM     38  C   UNL A   1      39.784  28.935  29.081  1.00  0.00     0.031 A 
ATOM     39  C   UNL A   1      40.692  29.985  29.659  1.00  0.00     0.074 A 
ATOM     40  C   UNL A   1      40.274  27.715  28.777  1.00  0.00     0.049 A 
ATOM     41  N   UNL A   1      41.973  29.917  29.915  1.00  0.00    -0.248 NA
ATOM     42  C   UNL A   1      40.085  31.289  29.972  1.00  0.00     0.031 C 
ATOM     43  C   UNL A   1      39.506  26.624  28.170  1.00  0.00     0.029 A 
ATOM     44  N   UNL A   1      41.535  27.190  28.917  1.00  0.00    -0.354 N 
ATOM     45  C   UNL A   1      42.330  31.166  30.409  1.00  0.00     0.074 A 
ATOM     46  C   UNL A   1      41.138  31.987  30.375  1.00  0.00     0.031 C 
ATOM     47  C   UNL A   1      40.306  25.560  28.003  1.00  0.00     0.029 A 
ATOM     48  C   UNL A   1      41.653  25.904  28.444  1.00  0.00     0.049 A 
ATOM     49  H   UNL A   1      42.283  27.688  29.319  1.00  0.00     0.167 HD
ATOM     50  C   UNL A   1      43.537  31.583  30.863  1.00  0.00     0.037 A 
ATOM     51  C   UNL A   1      42.728  25.097  28.352  1.00  0.00     0.037 A 
ATOM     52  C   UNL A   1      44.716  30.756  30.905  1.00  0.00     0.049 A 
ATOM     53  C   UNL A   1      44.063  25.594  28.833  1.00  0.00     0.074 A 
ATOM     54  C   UNL A   1      45.967  31.068  31.410  1.00  0.00     0.029 A 
ATOM     55  N   UNL A   1      44.795  29.459  30.419  1.00  0.00    -0.354 N 
ATOM     56  N   UNL A   1      44.366  26.757  29.361  1.00  0.00    -0.248 NA
ATOM     57  C   UNL A   1      45.202  24.676  28.704  1.00  0.00     0.031 C 
ATOM     58  C   UNL A   1      46.816  29.980  31.181  1.00  0.00     0.029 A 
ATOM     59  C   UNL A   1      46.083  28.971  30.578  1.00  0.00     0.049 A 
ATOM     60  H   UNL A   1      44.048  28.960  30.018  1.00  0.00     0.167 HD
ATOM     61  C   UNL A   1      45.728  26.704  29.639  1.00  0.00     0.074 A 
ATOM     62  C   UNL A   1      46.184  25.387  29.241  1.00  0.00     0.031 C 
ATOM     63  C   UNL A   1      46.527  27.661  30.170  1.00  0.00     0.037 A 
BRANCH  50  64
ATOM     64  C   UNL A   1      43.649  33.001  31.354  1.00  0.00     0.058 A 
ATOM     65  C   UNL A   1      43.411  33.336  32.696  1.00  0.00     0.135 A 
ATOM     66  C   UNL A   1      44.050  34.030  30.485  1.00  0.00     0.135 A 
ATOM     67  F   UNL A   1      43.013  32.395  33.568  1.00  0.00    -0.206 F 
ATOM     68  C   UNL A   1      43.544  34.643  33.156  1.00  0.00     0.059 A 
ATOM     69  C   UNL A   1      44.216  35.339  30.929  1.00  0.00     0.059 A 
ATOM     70  F   UNL A   1      44.292  33.765  29.192  1.00  0.00    -0.206 F 
ATOM     71  C   UNL A   1      43.948  35.638  32.263  1.00  0.00     0.060 A 
BRANCH  71  72
ATOM     72  S   UNL A   1      44.125  37.325  32.879  1.00  0.00     0.124 S 
ATOM     73  O   UNL A   1      45.482  37.299  33.415  1.00  0.00    -0.237 OA
ATOM     74  O   UNL A   1      43.938  38.119  31.668  1.00  0.00    -0.237 OA
ATOM     75  O   UNL A   1      43.061  37.440  33.871  1.00  0.00    -0.744 OA
ENDBRANCH  71  72
ENDBRANCH  50  64
BRANCH  51  76
ATOM     76  C   UNL A   1      42.587  23.734  27.771  1.00  0.00     0.058 A 
ATOM     77  C   UNL A   1      42.468  22.608  28.598  1.00  0.00     0.135 A 
ATOM     78  C   UNL A   1      42.553  23.532  26.383  1.00  0.00     0.135 A 
ATOM     79  F   UNL A   1      42.504  22.748  29.932  1.00  0.00    -0.206 F 
ATOM     80  C   UNL A   1      42.336  21.327  28.070  1.00  0.00     0.059 A 
ATOM     81  C   UNL A   1      42.395  22.266  25.830  1.00  0.00     0.059 A 
ATOM     82  F   UNL A   1      42.647  24.579  25.547  1.00  0.00    -0.206 F 
ATOM     83  C   UNL A   1      42.296  21.167  26.684  1.00  0.00     0.060 A 
BRANCH  83  84
ATOM     84  S   UNL A   1      42.071  19.508  26.008  1.00  0.00     0.124 S 
ATOM     85  O   UNL A   1      42.550  18.676  27.106  1.00  0.00    -0.237 OA
ATOM     86  O   UNL A   1      40.634  19.471  25.756  1.00  0.00    -0.237 OA
ATOM     87  O   UNL A   1      42.907  19.518  24.810  1.00  0.00    -0.744 OA
ENDBRANCH  83  84
ENDBRANCH  51  76
BRANCH  63  88
ATOM     88  C   UNL A   1      47.979  27.319  30.360  1.00  0.00     0.058 A 
ATOM     89  C   UNL A   1      48.913  27.492  29.326  1.00  0.00     0.135 A 
ATOM     90  C   UNL A   1      48.452  26.862  31.601  1.00  0.00     0.135 A 
ATOM     91  F   UNL A   1      48.513  27.915  28.117  1.00  0.00    -0.206 F 
ATOM     92  C   UNL A   1      50.263  27.206  29.511  1.00  0.00     0.059 A 
ATOM     93  C   UNL A   1      49.801  26.597  31.816  1.00  0.00     0.059 A 
ATOM     94  F   UNL A   1      47.602  26.688  32.625  1.00  0.00    -0.206 F 
ATOM     95  C   UNL A   1      50.697  26.761  30.761  1.00  0.00     0.060 A 
BRANCH  95  96
ATOM     96  S   UNL A   1      52.456  26.432  30.997  1.00  0.00     0.124 S 
ATOM     97  O   UNL A   1      52.426  25.123  31.640  1.00  0.00    -0.237 OA
ATOM     98  O   UNL A   1      52.966  26.456  29.629  1.00  0.00    -0.237 OA
ATOM     99  O   UNL A   1      52.898  27.537  31.843  1.00  0.00    -0.744 OA
ENDBRANCH  95  96
ENDBRANCH  63  88
ENDBRANCH  37  38
ENDBRANCH  29  32
ENDBRANCH  27  28
ENDBRANCH   1  27
TORSDOF 16
ENDMDL
MODEL 2
REMARK VINA RESULT:     -12.7      4.374      7.439
REMARK SMILES O=C(NCCCNC(=O)c1ccc(-c2c3nc(c(-c4c(F)cc(S(=O)(=O)[O-])cc4F)c4ccc([nH]4)c(-c4c(F)cc(S(=O)(=O)[O-])cc4F)c4nc(c(-c5c(F)cc(S(=O)(=O)[O-])cc5F)c5ccc2[nH]5)C=C4)C=C3)cc1)c1ccc(C[C@H]2SC(=O)N(c3ccccc3)C2=O)cc1
REMARK SMILES IDX 5 1 4 2 3 3 1 4 2 5 76 7 77 8 95 9 78 10 94 11 79 12 80 13
REMARK SMILES IDX 81 14 82 15 92 16 83 17 85 18 93 19 84 20 86 21 87 22 91 23
REMARK SMILES IDX 88 24 90 25 89 26 6 27 7 28 8 29 9 31 10 32 11 33 75 34
REMARK SMILES IDX 12 35 74 36 13 37 14 38 15 39 68 40 16 41 73 42 67 43 69 44
REMARK SMILES IDX 17 45 72 46 66 47 65 48 18 50 52 51 31 52 51 53 32 54 35 55
REMARK SMILES IDX 50 56 70 57 33 58 34 59 49 61 71 62 36 63 19 64 20 65 29 66
REMARK SMILES IDX 21 67 22 68 28 69 30 70 23 71 24 72 25 73 26 74 27 75 53 76
REMARK SMILES IDX 54 77 63 78 55 79 56 80 62 81 64 82 57 83 58 84 59 85 60 86
REMARK SMILES IDX 61 87 37 88 38 89 47 90 39 91 40 92 46 93 48 94 41 95 42 96
REMARK SMILES IDX 43 97 44 98 45 99
REMARK H PARENT 3 6 7 30 69 49 35 60
REMARK Flexibility Score: inf
ROOT
ATOM      1  C   UNL A   1      35.925  33.549  29.215  1.00  0.00     0.042 C 
ENDROOT
BRANCH   1   2
ATOM      2  C   UNL A   1      37.138  33.691  30.125  1.00  0.00     0.118 C 
BRANCH   2   3
ATOM      3  N   UNL A   1      36.872  34.514  31.299  1.00  0.00    -0.352 N 
ATOM      4  O   UNL A   1      36.652  34.985  33.500  1.00  0.00    -0.269 OA
ATOM      5  C   UNL A   1      37.060  34.224  32.629  1.00  0.00     0.251 C 
ATOM      6  H   UNL A   1      36.503  35.408  31.111  1.00  0.00     0.163 HD
BRANCH   5   7
ATOM      7  C   UNL A   1      37.747  32.975  33.010  1.00  0.00     0.039 A 
ATOM      8  C   UNL A   1      39.071  33.006  33.449  1.00  0.00     0.014 A 
ATOM      9  C   UNL A   1      37.061  31.763  32.915  1.00  0.00     0.014 A 
ATOM     10  C   UNL A   1      39.743  31.810  33.691  1.00  0.00     0.004 A 
ATOM     11  C   UNL A   1      37.741  30.565  33.149  1.00  0.00     0.004 A 
ATOM     12  C   UNL A   1      39.099  30.577  33.498  1.00  0.00    -0.046 A 
BRANCH  12  13
ATOM     13  C   UNL A   1      39.879  29.285  33.613  1.00  0.00     0.060 C 
BRANCH  13  14
ATOM     14  C   UNL A   1      41.383  29.482  33.892  1.00  0.00     0.151 C 
ATOM     15  S   UNL A   1      41.759  29.651  35.658  1.00  0.00    -0.050 SA
ATOM     16  C   UNL A   1      42.133  28.237  33.458  1.00  0.00     0.248 C 
ATOM     17  C   UNL A   1      42.289  27.990  35.792  1.00  0.00     0.293 C 
ATOM     18  N   UNL A   1      42.535  27.467  34.542  1.00  0.00    -0.240 N 
ATOM     19  O   UNL A   1      42.229  27.937  32.270  1.00  0.00    -0.273 OA
ATOM     20  O   UNL A   1      42.411  27.469  36.886  1.00  0.00    -0.261 OA
BRANCH  18  21
ATOM     21  C   UNL A   1      43.145  26.188  34.377  1.00  0.00     0.053 A 
ATOM     22  C   UNL A   1      44.381  26.065  33.725  1.00  0.00     0.027 A 
ATOM     23  C   UNL A   1      42.542  25.026  34.882  1.00  0.00     0.027 A 
ATOM     24  C   UNL A   1      45.004  24.820  33.600  1.00  0.00     0.002 A 
ATOM     25  C   UNL A   1      43.150  23.777  34.728  1.00  0.00     0.002 A 
ATOM     26  C   UNL A   1      44.385  23.675  34.094  1.00  0.00     0.000 A 
ENDBRANCH  18  21
ENDBRANCH  13  14
ENDBRANCH  12  13
ENDBRANCH   5   7
ENDBRANCH   2   3
ENDBRANCH   1   2
BRANCH   1  27
ATOM     27  C   UNL A   1      34.774  32.744  29.808  1.00  0.00     0.118 C 
BRANCH  27  28
ATOM     28  N   UNL A   1      34.085  31.916  28.824  1.00  0.00    -0.352 N 
ATOM     29  C   UNL A   1      34.519  30.827  28.104  1.00  0.00     0.251 C 
ATOM     30  H   UNL A   1      33.154  32.182  28.645  1.00  0.00     0.163 HD
ATOM     31  O   UNL A   1      33.807  30.379  27.209  1.00  0.00    -0.269 OA
BRANCH  29  32
ATOM     32  C   UNL A   1      35.840  30.216  28.371  1.00  0.00     0.039 A 
ATOM     33  C   UNL A   1      36.809  30.244  27.363  1.00  0.00     0.014 A 
ATOM     34  C   UNL A   1      36.130  29.613  29.597  1.00  0.00     0.014 A 
ATOM     35  C   UNL A   1      38.098  29.769  27.624  1.00  0.00     0.010 A 
ATOM     36  C   UNL A   1      37.434  29.209  29.881  1.00  0.00     0.010 A 
ATOM     37  C   UNL A   1      38.438  29.305  28.905  1.00  0.00    -0.014 A 
BRANCH  37  38
ATOM     38  C   UNL A   1      39.845  28.990  29.266  1.00  0.00     0.031 A 
ATOM     39  C   UNL A   1      40.734  30.033  29.885  1.00  0.00     0.074 A 
ATOM     40  C   UNL A   1      40.349  27.781  28.944  1.00  0.00     0.049 A 
ATOM     41  N   UNL A   1      42.011  29.967  30.165  1.00  0.00    -0.248 NA
ATOM     42  C   UNL A   1      40.112  31.325  30.215  1.00  0.00     0.031 C 
ATOM     43  C   UNL A   1      39.601  26.699  28.298  1.00  0.00     0.029 A 
ATOM     44  N   UNL A   1      41.611  27.261  29.097  1.00  0.00    -0.354 N 
ATOM     45  C   UNL A   1      42.349  31.208  30.693  1.00  0.00     0.074 A 
ATOM     46  C   UNL A   1      41.152  32.021  30.655  1.00  0.00     0.031 C 
ATOM     47  C   UNL A   1      40.411  25.644  28.123  1.00  0.00     0.029 A 
ATOM     48  C   UNL A   1      41.747  25.987  28.597  1.00  0.00     0.049 A 
ATOM     49  H   UNL A   1      42.348  27.755  29.524  1.00  0.00     0.167 HD
ATOM     50  C   UNL A   1      43.544  31.622  31.180  1.00  0.00     0.037 A 
ATOM     51  C   UNL A   1      42.830  25.189  28.508  1.00  0.00     0.037 A 
ATOM     52  C   UNL A   1      44.728  30.802  31.227  1.00  0.00     0.049 A 
ATOM     53  C   UNL A   1      44.151  25.684  29.026  1.00  0.00     0.074 A 
ATOM     54  C   UNL A   1      45.967  31.110  31.763  1.00  0.00     0.029 A 
ATOM     55  N   UNL A   1      44.826  29.516  30.713  1.00  0.00    -0.354 N 
ATOM     56  N   UNL A   1      44.436  26.836  29.586  1.00  0.00    -0.248 NA
ATOM     57  C   UNL A   1      45.299  24.776  28.899  1.00  0.00     0.031 C 
ATOM     58  C   UNL A   1      46.828  30.033  31.526  1.00  0.00     0.029 A 
ATOM     59  C   UNL A   1      46.113  29.033  30.886  1.00  0.00     0.049 A 
ATOM     60  H   UNL A   1      44.090  29.022  30.286  1.00  0.00     0.167 HD
ATOM     61  C   UNL A   1      45.792  26.786  29.889  1.00  0.00     0.074 A 
ATOM     62  C   UNL A   1      46.265  25.482  29.471  1.00  0.00     0.031 C 
ATOM     63  C   UNL A   1      46.574  27.736  30.457  1.00  0.00     0.037 A 
BRANCH  50  64
ATOM     64  C   UNL A   1      43.637  33.029  31.704  1.00  0.00     0.058 A 
ATOM     65  C   UNL A   1      43.889  34.117  30.853  1.00  0.00     0.135 A 
ATOM     66  C   UNL A   1      43.419  33.302  33.065  1.00  0.00     0.135 A 
ATOM     67  F   UNL A   1      44.116  33.913  29.545  1.00  0.00    -0.206 F 
ATOM     68  C   UNL A   1      43.944  35.421  31.335  1.00  0.00     0.059 A 
ATOM     69  C   UNL A   1      43.443  34.601  33.564  1.00  0.00     0.059 A 
ATOM     70  F   UNL A   1      43.173  32.300  33.923  1.00  0.00    -0.206 F 
ATOM     71  C   UNL A   1      43.720  35.653  32.693  1.00  0.00     0.060 A 
BRANCH  71  72
ATOM     72  S   UNL A   1      43.786  37.352  33.298  1.00  0.00     0.124 S 
ATOM     73  O   UNL A   1      42.532  37.447  34.039  1.00  0.00    -0.237 OA
ATOM     74  O   UNL A   1      45.001  37.347  34.107  1.00  0.00    -0.237 OA
ATOM     75  O   UNL A   1      43.854  38.147  32.076  1.00  0.00    -0.744 OA
ENDBRANCH  71  72
ENDBRANCH  50  64
BRANCH  51  76
ATOM     76  C   UNL A   1      42.709  23.839  27.895  1.00  0.00     0.058 A 
ATOM     77  C   UNL A   1      42.526  22.699  28.691  1.00  0.00     0.135 A 
ATOM     78  C   UNL A   1      42.760  23.663  26.503  1.00  0.00     0.135 A 
ATOM     79  F   UNL A   1      42.479  22.815  30.027  1.00  0.00    -0.206 F 
ATOM     80  C   UNL A   1      42.411  21.430  28.132  1.00  0.00     0.059 A 
ATOM     81  C   UNL A   1      42.622  22.408  25.918  1.00  0.00     0.059 A 
ATOM     82  F   UNL A   1      42.918  24.723  25.695  1.00  0.00    -0.206 F 
ATOM     83  C   UNL A   1      42.457  21.296  26.743  1.00  0.00     0.060 A 
BRANCH  83  84
ATOM     84  S   UNL A   1      42.256  19.652  26.023  1.00  0.00     0.124 S 
ATOM     85  O   UNL A   1      43.102  19.743  24.839  1.00  0.00    -0.237 OA
ATOM     86  O   UNL A   1      42.744  18.787  27.093  1.00  0.00    -0.237 OA
ATOM     87  O   UNL A   1      40.820  19.570  25.771  1.00  0.00    -0.744 OA
ENDBRANCH  83  84
ENDBRANCH  51  76
BRANCH  63  88
ATOM     88  C   UNL A   1      48.025  27.399  30.668  1.00  0.00     0.058 A 
ATOM     89  C   UNL A   1      48.472  26.798  31.855  1.00  0.00     0.135 A 
ATOM     90  C   UNL A   1      48.970  27.633  29.656  1.00  0.00     0.135 A 
ATOM     91  F   UNL A   1      47.612  26.563  32.860  1.00  0.00    -0.206 F 
ATOM     92  C   UNL A   1      49.809  26.458  32.039  1.00  0.00     0.059 A 
ATOM     93  C   UNL A   1      50.306  27.276  29.807  1.00  0.00     0.059 A 
ATOM     94  F   UNL A   1      48.593  28.198  28.498  1.00  0.00    -0.206 F 
ATOM     95  C   UNL A   1      50.717  26.698  31.007  1.00  0.00     0.060 A 
BRANCH  95  96
ATOM     96  S   UNL A   1      52.441  26.215  31.244  1.00  0.00     0.124 S 
ATOM     97  O   UNL A   1      52.874  25.989  29.869  1.00  0.00    -0.237 OA
ATOM     98  O   UNL A   1      53.007  27.387  31.903  1.00  0.00    -0.237 OA
ATOM     99  O   UNL A   1      52.347  25.019  32.077  1.00  0.00    -0.744 OA
ENDBRANCH  95  96
ENDBRANCH  63  88
ENDBRANCH  37  38
ENDBRANCH  29  32
ENDBRANCH  27  28
ENDBRANCH   1  27
TORSDOF 16
ENDMDL
MODEL 3
REMARK VINA RESULT:     -12.6      2.806      3.913
REMARK SMILES O=C(NCCCNC(=O)c1ccc(-c2c3nc(c(-c4c(F)cc(S(=O)(=O)[O-])cc4F)c4ccc([nH]4)c(-c4c(F)cc(S(=O)(=O)[O-])cc4F)c4nc(c(-c5c(F)cc(S(=O)(=O)[O-])cc5F)c5ccc2[nH]5)C=C4)C=C3)cc1)c1ccc(C[C@H]2SC(=O)N(c3ccccc3)C2=O)cc1
REMARK SMILES IDX 5 1 4 2 3 3 1 4 2 5 76 7 77 8 95 9 78 10 94 11 79 12 80 13
REMARK SMILES IDX 81 14 82 15 92 16 83 17 85 18 93 19 84 20 86 21 87 22 91 23
REMARK SMILES IDX 88 24 90 25 89 26 6 27 7 28 8 29 9 31 10 32 11 33 75 34
REMARK SMILES IDX 12 35 74 36 13 37 14 38 15 39 68 40 16 41 73 42 67 43 69 44
REMARK SMILES IDX 17 45 72 46 66 47 65 48 18 50 52 51 31 52 51 53 32 54 35 55
REMARK SMILES IDX 50 56 70 57 33 58 34 59 49 61 71 62 36 63 19 64 20 65 29 66
REMARK SMILES IDX 21 67 22 68 28 69 30 70 23 71 24 72 25 73 26 74 27 75 53 76
REMARK SMILES IDX 54 77 63 78 55 79 56 80 62 81 64 82 57 83 58 84 59 85 60 86
REMARK SMILES IDX 61 87 37 88 38 89 47 90 39 91 40 92 46 93 48 94 41 95 42 96
REMARK SMILES IDX 43 97 44 98 45 99
REMARK H PARENT 3 6 7 30 69 49 35 60
REMARK Flexibility Score: inf
ROOT
ATOM      1  C   UNL A   1      33.754  30.664  27.097  1.00  0.00     0.042 C 
ENDROOT
BRANCH   1   2
ATOM      2  C   UNL A   1      33.074  29.562  26.294  1.00  0.00     0.118 C 
BRANCH   2   3
ATOM      3  N   UNL A   1      33.334  29.663  24.863  1.00  0.00    -0.352 N 
ATOM      4  O   UNL A   1      33.832  28.924  22.784  1.00  0.00    -0.269 OA
ATOM      5  C   UNL A   1      33.478  28.665  23.930  1.00  0.00     0.251 C 
ATOM      6  H   UNL A   1      33.419  30.580  24.514  1.00  0.00     0.163 HD
BRANCH   5   7
ATOM      7  C   UNL A   1      33.219  27.265  24.318  1.00  0.00     0.039 A 
ATOM      8  C   UNL A   1      32.169  26.555  23.733  1.00  0.00     0.014 A 
ATOM      9  C   UNL A   1      34.028  26.663  25.284  1.00  0.00     0.014 A 
ATOM     10  C   UNL A   1      31.862  25.277  24.194  1.00  0.00     0.004 A 
ATOM     11  C   UNL A   1      33.711  25.385  25.751  1.00  0.00     0.004 A 
ATOM     12  C   UNL A   1      32.601  24.699  25.239  1.00  0.00    -0.046 A 
BRANCH  12  13
ATOM     13  C   UNL A   1      32.165  23.378  25.837  1.00  0.00     0.060 C 
BRANCH  13  14
ATOM     14  C   UNL A   1      32.897  22.152  25.254  1.00  0.00     0.151 C 
ATOM     15  S   UNL A   1      33.257  22.318  23.485  1.00  0.00    -0.050 SA
ATOM     16  C   UNL A   1      34.257  22.029  25.913  1.00  0.00     0.248 C 
ATOM     17  C   UNL A   1      34.924  22.758  23.779  1.00  0.00     0.293 C 
ATOM     18  N   UNL A   1      35.284  22.428  25.067  1.00  0.00    -0.240 N 
ATOM     19  O   UNL A   1      34.361  21.728  27.100  1.00  0.00    -0.273 OA
ATOM     20  O   UNL A   1      35.593  23.263  22.895  1.00  0.00    -0.261 OA
BRANCH  18  21
ATOM     21  C   UNL A   1      36.637  22.519  25.509  1.00  0.00     0.053 A 
ATOM     22  C   UNL A   1      37.512  21.432  25.361  1.00  0.00     0.027 A 
ATOM     23  C   UNL A   1      37.135  23.701  26.078  1.00  0.00     0.027 A 
ATOM     24  C   UNL A   1      38.850  21.532  25.752  1.00  0.00     0.002 A 
ATOM     25  C   UNL A   1      38.465  23.789  26.498  1.00  0.00     0.002 A 
ATOM     26  C   UNL A   1      39.324  22.708  26.327  1.00  0.00     0.000 A 
ENDBRANCH  18  21
ENDBRANCH  13  14
ENDBRANCH  12  13
ENDBRANCH   5   7
ENDBRANCH   2   3
ENDBRANCH   1   2
BRANCH   1  27
ATOM     27  C   UNL A   1      35.040  30.240  27.799  1.00  0.00     0.118 C 
BRANCH  27  28
ATOM     28  N   UNL A   1      35.185  30.818  29.130  1.00  0.00    -0.352 N 
ATOM     29  C   UNL A   1      36.209  30.726  30.043  1.00  0.00     0.251 C 
ATOM     30  H   UNL A   1      34.421  31.366  29.424  1.00  0.00     0.163 HD
ATOM     31  O   UNL A   1      36.044  31.175  31.175  1.00  0.00    -0.269 OA
BRANCH  29  32
ATOM     32  C   UNL A   1      37.486  30.066  29.691  1.00  0.00     0.039 A 
ATOM     33  C   UNL A   1      37.953  30.166  28.377  1.00  0.00     0.014 A 
ATOM     34  C   UNL A   1      38.221  29.349  30.637  1.00  0.00     0.014 A 
ATOM     35  C   UNL A   1      39.206  29.643  28.042  1.00  0.00     0.010 A 
ATOM     36  C   UNL A   1      39.502  28.894  30.323  1.00  0.00     0.010 A 
ATOM     37  C   UNL A   1      40.017  29.058  29.029  1.00  0.00    -0.014 A 
BRANCH  37  38
ATOM     38  C   UNL A   1      41.428  28.683  28.747  1.00  0.00     0.031 A 
ATOM     39  C   UNL A   1      42.512  29.724  28.724  1.00  0.00     0.074 A 
ATOM     40  C   UNL A   1      41.713  27.406  28.418  1.00  0.00     0.049 A 
ATOM     41  N   UNL A   1      43.772  29.595  28.394  1.00  0.00    -0.248 NA
ATOM     42  C   UNL A   1      42.127  31.093  29.102  1.00  0.00     0.031 C 
ATOM     43  C   UNL A   1      40.740  26.311  28.359  1.00  0.00     0.029 A 
ATOM     44  N   UNL A   1      42.896  26.813  28.052  1.00  0.00    -0.354 N 
ATOM     45  C   UNL A   1      44.329  30.863  28.513  1.00  0.00     0.074 A 
ATOM     46  C   UNL A   1      43.259  31.756  28.905  1.00  0.00     0.031 C 
ATOM     47  C   UNL A   1      41.367  25.182  27.994  1.00  0.00     0.029 A 
ATOM     48  C   UNL A   1      42.773  25.478  27.745  1.00  0.00     0.049 A 
ATOM     49  H   UNL A   1      43.752  27.298  28.014  1.00  0.00     0.167 HD
ATOM     50  C   UNL A   1      45.617  31.242  28.329  1.00  0.00     0.037 A 
ATOM     51  C   UNL A   1      43.683  24.593  27.291  1.00  0.00     0.037 A 
ATOM     52  C   UNL A   1      46.679  30.344  27.952  1.00  0.00     0.049 A 
ATOM     53  C   UNL A   1      45.098  25.046  27.065  1.00  0.00     0.074 A 
ATOM     54  C   UNL A   1      48.028  30.622  27.807  1.00  0.00     0.029 A 
ATOM     55  N   UNL A   1      46.515  29.000  27.652  1.00  0.00    -0.354 N 
ATOM     56  N   UNL A   1      45.621  26.235  27.250  1.00  0.00    -0.248 NA
ATOM     57  C   UNL A   1      46.047  24.041  26.565  1.00  0.00     0.031 C 
ATOM     58  C   UNL A   1      48.670  29.459  27.368  1.00  0.00     0.029 A 
ATOM     59  C   UNL A   1      47.731  28.443  27.287  1.00  0.00     0.049 A 
ATOM     60  H   UNL A   1      45.660  28.513  27.690  1.00  0.00     0.167 HD
ATOM     61  C   UNL A   1      46.962  26.118  26.902  1.00  0.00     0.074 A 
ATOM     62  C   UNL A   1      47.174  24.737  26.517  1.00  0.00     0.031 C 
ATOM     63  C   UNL A   1      47.928  27.069  26.897  1.00  0.00     0.037 A 
BRANCH  50  64
ATOM     64  C   UNL A   1      45.956  32.694  28.533  1.00  0.00     0.058 A 
ATOM     65  C   UNL A   1      45.875  33.623  27.483  1.00  0.00     0.135 A 
ATOM     66  C   UNL A   1      46.314  33.174  29.804  1.00  0.00     0.135 A 
ATOM     67  F   UNL A   1      45.550  33.217  26.245  1.00  0.00    -0.206 F 
ATOM     68  C   UNL A   1      46.160  34.970  27.679  1.00  0.00     0.059 A 
ATOM     69  C   UNL A   1      46.577  34.522  30.029  1.00  0.00     0.059 A 
ATOM     70  F   UNL A   1      46.405  32.330  30.843  1.00  0.00    -0.206 F 
ATOM     71  C   UNL A   1      46.510  35.411  28.957  1.00  0.00     0.060 A 
BRANCH  71  72
ATOM     72  S   UNL A   1      46.866  37.164  29.196  1.00  0.00     0.124 S 
ATOM     73  O   UNL A   1      48.325  37.168  29.198  1.00  0.00    -0.237 OA
ATOM     74  O   UNL A   1      46.233  37.771  28.028  1.00  0.00    -0.237 OA
ATOM     75  O   UNL A   1      46.235  37.470  30.476  1.00  0.00    -0.744 OA
ENDBRANCH  71  72
ENDBRANCH  50  64
BRANCH  51  76
ATOM     76  C   UNL A   1      43.278  23.188  27.014  1.00  0.00     0.058 A 
ATOM     77  C   UNL A   1      43.147  22.722  25.698  1.00  0.00     0.135 A 
ATOM     78  C   UNL A   1      43.029  22.281  28.057  1.00  0.00     0.135 A 
ATOM     79  F   UNL A   1      43.366  23.553  24.667  1.00  0.00    -0.206 F 
ATOM     80  C   UNL A   1      42.770  21.411  25.423  1.00  0.00     0.059 A 
ATOM     81  C   UNL A   1      42.677  20.959  27.809  1.00  0.00     0.059 A 
ATOM     82  F   UNL A   1      43.156  22.673  29.335  1.00  0.00    -0.206 F 
ATOM     83  C   UNL A   1      42.540  20.536  26.487  1.00  0.00     0.060 A 
BRANCH  83  84
ATOM     84  S   UNL A   1      42.101  18.822  26.121  1.00  0.00     0.124 S 
ATOM     85  O   UNL A   1      40.697  18.951  25.751  1.00  0.00    -0.237 OA
ATOM     86  O   UNL A   1      43.022  18.495  25.036  1.00  0.00    -0.237 OA
ATOM     87  O   UNL A   1      42.364  18.134  27.381  1.00  0.00    -0.744 OA
ENDBRANCH  83  84
ENDBRANCH  51  76
BRANCH  63  88
ATOM     88  C   UNL A   1      49.307  26.650  26.467  1.00  0.00     0.058 A 
ATOM     89  C   UNL A   1      50.201  26.045  27.365  1.00  0.00     0.135 A 
ATOM     90  C   UNL A   1      49.722  26.807  25.135  1.00  0.00     0.135 A 
ATOM     91  F   UNL A   1      49.858  25.881  28.653  1.00  0.00    -0.206 F 
ATOM     92  C   UNL A   1      51.466  25.629  26.962  1.00  0.00     0.059 A 
ATOM     93  C   UNL A   1      50.971  26.373  24.703  1.00  0.00     0.059 A 
ATOM     94  F   UNL A   1      48.903  27.372  24.234  1.00  0.00    -0.206 F 
ATOM     95  C   UNL A   1      51.840  25.795  25.627  1.00  0.00     0.060 A 
BRANCH  95  96
ATOM     96  S   UNL A   1      53.469  25.213  25.109  1.00  0.00     0.124 S 
ATOM     97  O   UNL A   1      54.347  25.974  25.991  1.00  0.00    -0.237 OA
ATOM     98  O   UNL A   1      53.389  23.780  25.375  1.00  0.00    -0.237 OA
ATOM     99  O   UNL A   1      53.528  25.579  23.697  1.00  0.00    -0.744 OA
ENDBRANCH  95  96
ENDBRANCH  63  88
ENDBRANCH  37  38
ENDBRANCH  29  32
ENDBRANCH  27  28
ENDBRANCH   1  27
TORSDOF 16
ENDMDL
