MODEL 1
REMARK VINA RESULT:     -12.2      0.000      0.000
REMARK SMILES O=C(NCCCNC(=O)c1ccc(-c2c3nc(c(-c4c(F)cc(S(=O)(=O)[O-])cc4F)c4ccc([nH]4)c(-c4c(F)cc(S(=O)(=O)[O-])cc4F)c4nc(c(-c5c(F)cc(S(=O)(=O)[O-])cc5F)c5ccc2[nH]5)C=C4)C=C3)cc1)c1ccc(-c2ccc(=O)[nH]c2)cc1
REMARK SMILES IDX 6 1 5 2 4 3 3 4 1 5 2 6 76 8 77 9 88 10 78 11 87 12 79 13
REMARK SMILES IDX 80 14 81 15 86 16 82 17 85 18 83 19 84 21 7 22 8 23 9 25
REMARK SMILES IDX 10 26 11 27 75 28 12 29 74 30 13 31 14 32 15 33 68 34 16 35
REMARK SMILES IDX 73 36 67 37 69 38 17 39 72 40 66 41 65 42 18 44 52 45 31 46
REMARK SMILES IDX 51 47 32 48 35 49 50 50 70 51 33 52 34 53 49 55 71 56 36 57
REMARK SMILES IDX 19 58 20 59 29 60 21 61 22 62 28 63 30 64 23 65 24 66 25 67
REMARK SMILES IDX 26 68 27 69 53 70 54 71 63 72 55 73 56 74 62 75 64 76 57 77
REMARK SMILES IDX 58 78 59 79 60 80 61 81 37 82 38 83 47 84 39 85 40 86 46 87
REMARK SMILES IDX 48 88 41 89 42 90 43 91 44 92 45 93
REMARK H PARENT 3 7 85 20 7 24 69 43 35 54
REMARK Flexibility Score: inf
ROOT
ATOM      1  C   UNL A   1      33.636  28.130  27.045  1.00  0.00     0.118 C 
ENDROOT
BRANCH   1   2
ATOM      2  C   UNL A   1      34.003  27.903  25.587  1.00  0.00     0.042 C 
BRANCH   2   3
ATOM      3  C   UNL A   1      33.132  26.877  24.880  1.00  0.00     0.118 C 
BRANCH   3   4
ATOM      4  N   UNL A   1      33.233  26.958  23.428  1.00  0.00    -0.352 N 
ATOM      5  O   UNL A   1      33.607  26.216  21.329  1.00  0.00    -0.269 OA
ATOM      6  C   UNL A   1      33.370  25.952  22.504  1.00  0.00     0.251 C 
ATOM      7  H   UNL A   1      33.199  27.868  23.056  1.00  0.00     0.163 HD
BRANCH   6   8
ATOM      8  C   UNL A   1      33.242  24.543  22.926  1.00  0.00     0.039 A 
ATOM      9  C   UNL A   1      31.997  23.908  22.928  1.00  0.00     0.014 A 
ATOM     10  C   UNL A   1      34.389  23.845  23.311  1.00  0.00     0.014 A 
ATOM     11  C   UNL A   1      31.883  22.609  23.416  1.00  0.00     0.009 A 
ATOM     12  C   UNL A   1      34.275  22.529  23.769  1.00  0.00     0.009 A 
ATOM     13  C   UNL A   1      33.020  21.907  23.841  1.00  0.00    -0.017 A 
BRANCH  13  14
ATOM     14  C   UNL A   1      32.893  20.531  24.363  1.00  0.00    -0.002 A 
ATOM     15  C   UNL A   1      32.543  19.388  23.530  1.00  0.00     0.016 A 
ATOM     16  C   UNL A   1      33.121  20.314  25.672  1.00  0.00     0.094 A 
ATOM     17  C   UNL A   1      32.444  18.152  24.043  1.00  0.00     0.072 A 
ATOM     18  N   UNL A   1      33.030  19.054  26.208  1.00  0.00    -0.328 N 
ATOM     19  C   UNL A   1      32.699  17.934  25.487  1.00  0.00     0.247 A 
ATOM     20  H   UNL A   1      33.213  18.946  27.170  1.00  0.00     0.169 HD
ATOM     21  O   UNL A   1      32.614  16.821  25.993  1.00  0.00    -0.270 OA
ENDBRANCH  13  14
ENDBRANCH   6   8
ENDBRANCH   3   4
ENDBRANCH   2   3
ENDBRANCH   1   2
BRANCH   1  22
ATOM     22  N   UNL A   1      33.520  29.542  27.385  1.00  0.00    -0.352 N 
ATOM     23  C   UNL A   1      34.412  30.387  28.000  1.00  0.00     0.251 C 
ATOM     24  H   UNL A   1      32.664  29.958  27.134  1.00  0.00     0.163 HD
ATOM     25  O   UNL A   1      34.034  31.500  28.358  1.00  0.00    -0.269 OA
BRANCH  23  26
ATOM     26  C   UNL A   1      35.807  29.960  28.248  1.00  0.00     0.039 A 
ATOM     27  C   UNL A   1      36.747  30.089  27.221  1.00  0.00     0.014 A 
ATOM     28  C   UNL A   1      36.190  29.414  29.475  1.00  0.00     0.014 A 
ATOM     29  C   UNL A   1      38.078  29.730  27.448  1.00  0.00     0.010 A 
ATOM     30  C   UNL A   1      37.533  29.152  29.732  1.00  0.00     0.010 A 
ATOM     31  C   UNL A   1      38.490  29.292  28.717  1.00  0.00    -0.014 A 
BRANCH  31  32
ATOM     32  C   UNL A   1      39.909  28.949  28.997  1.00  0.00     0.031 A 
ATOM     33  C   UNL A   1      40.830  29.981  29.593  1.00  0.00     0.074 A 
ATOM     34  C   UNL A   1      40.384  27.733  28.660  1.00  0.00     0.049 A 
ATOM     35  N   UNL A   1      42.112  29.901  29.842  1.00  0.00    -0.248 NA
ATOM     36  C   UNL A   1      40.238  31.288  29.926  1.00  0.00     0.031 C 
ATOM     37  C   UNL A   1      39.606  26.664  28.029  1.00  0.00     0.029 A 
ATOM     38  N   UNL A   1      41.640  27.194  28.789  1.00  0.00    -0.354 N 
ATOM     39  C   UNL A   1      42.480  31.145  30.343  1.00  0.00     0.074 A 
ATOM     40  C   UNL A   1      41.301  31.981  30.304  1.00  0.00     0.031 C 
ATOM     41  C   UNL A   1      40.394  25.591  27.853  1.00  0.00     0.029 A 
ATOM     42  C   UNL A   1      41.742  25.907  28.316  1.00  0.00     0.049 A 
ATOM     43  H   UNL A   1      42.397  27.684  29.184  1.00  0.00     0.167 HD
ATOM     44  C   UNL A   1      43.683  31.547  30.817  1.00  0.00     0.037 A 
ATOM     45  C   UNL A   1      42.802  25.078  28.256  1.00  0.00     0.037 A 
ATOM     46  C   UNL A   1      44.847  30.700  30.879  1.00  0.00     0.049 A 
ATOM     47  C   UNL A   1      44.129  25.545  28.791  1.00  0.00     0.074 A 
ATOM     48  C   UNL A   1      46.097  30.993  31.391  1.00  0.00     0.029 A 
ATOM     49  N   UNL A   1      44.901  29.393  30.414  1.00  0.00    -0.354 N 
ATOM     50  N   UNL A   1      44.443  26.706  29.315  1.00  0.00    -0.248 NA
ATOM     51  C   UNL A   1      45.241  24.587  28.738  1.00  0.00     0.031 C 
ATOM     52  C   UNL A   1      46.924  29.882  31.192  1.00  0.00     0.029 A 
ATOM     53  C   UNL A   1      46.170  28.874  30.611  1.00  0.00     0.049 A 
ATOM     54  H   UNL A   1      44.150  28.908  30.005  1.00  0.00     0.167 HD
ATOM     55  C   UNL A   1      45.781  26.605  29.686  1.00  0.00     0.074 A 
ATOM     56  C   UNL A   1      46.209  25.266  29.335  1.00  0.00     0.031 C 
ATOM     57  C   UNL A   1      46.580  27.535  30.266  1.00  0.00     0.037 A 
BRANCH  44  58
ATOM     58  C   UNL A   1      43.801  32.964  31.311  1.00  0.00     0.058 A 
ATOM     59  C   UNL A   1      44.243  34.004  30.476  1.00  0.00     0.135 A 
ATOM     60  C   UNL A   1      43.439  33.294  32.628  1.00  0.00     0.135 A 
ATOM     61  F   UNL A   1      44.618  33.745  29.214  1.00  0.00    -0.206 F 
ATOM     62  C   UNL A   1      44.353  35.312  30.937  1.00  0.00     0.059 A 
ATOM     63  C   UNL A   1      43.510  34.601  33.101  1.00  0.00     0.059 A 
ATOM     64  F   UNL A   1      43.011  32.341  33.470  1.00  0.00    -0.206 F 
ATOM     65  C   UNL A   1      43.983  35.601  32.252  1.00  0.00     0.060 A 
BRANCH  65  66
ATOM     66  S   UNL A   1      44.126  37.304  32.831  1.00  0.00     0.124 S 
ATOM     67  O   UNL A   1      43.822  38.052  31.614  1.00  0.00    -0.237 OA
ATOM     68  O   UNL A   1      43.114  37.363  33.880  1.00  0.00    -0.237 OA
ATOM     69  O   UNL A   1      45.509  37.393  33.290  1.00  0.00    -0.744 OA
ENDBRANCH  65  66
ENDBRANCH  44  58
BRANCH  45  70
ATOM     70  C   UNL A   1      42.646  23.710  27.690  1.00  0.00     0.058 A 
ATOM     71  C   UNL A   1      42.403  22.607  28.523  1.00  0.00     0.135 A 
ATOM     72  C   UNL A   1      42.729  23.478  26.308  1.00  0.00     0.135 A 
ATOM     73  F   UNL A   1      42.320  22.775  29.851  1.00  0.00    -0.206 F 
ATOM     74  C   UNL A   1      42.268  21.321  28.010  1.00  0.00     0.059 A 
ATOM     75  C   UNL A   1      42.570  22.205  25.768  1.00  0.00     0.059 A 
ATOM     76  F   UNL A   1      42.942  24.501  25.466  1.00  0.00    -0.206 F 
ATOM     77  C   UNL A   1      42.351  21.131  26.630  1.00  0.00     0.060 A 
BRANCH  77  78
ATOM     78  S   UNL A   1      42.130  19.464  25.971  1.00  0.00     0.124 S 
ATOM     79  O   UNL A   1      40.689  19.422  25.755  1.00  0.00    -0.237 OA
ATOM     80  O   UNL A   1      42.957  19.498  24.768  1.00  0.00    -0.237 OA
ATOM     81  O   UNL A   1      42.634  18.610  27.042  1.00  0.00    -0.744 OA
ENDBRANCH  77  78
ENDBRANCH  45  70
BRANCH  57  82
ATOM     82  C   UNL A   1      47.987  27.123  30.607  1.00  0.00     0.058 A 
ATOM     83  C   UNL A   1      49.054  27.314  29.716  1.00  0.00     0.135 A 
ATOM     84  C   UNL A   1      48.275  26.564  31.863  1.00  0.00     0.135 A 
ATOM     85  F   UNL A   1      48.835  27.841  28.501  1.00  0.00    -0.206 F 
ATOM     86  C   UNL A   1      50.352  26.933  30.044  1.00  0.00     0.059 A 
ATOM     87  C   UNL A   1      49.570  26.206  32.225  1.00  0.00     0.059 A 
ATOM     88  F   UNL A   1      47.294  26.371  32.759  1.00  0.00    -0.206 F 
ATOM     89  C   UNL A   1      50.599  26.380  31.302  1.00  0.00     0.060 A 
BRANCH  89  90
ATOM     90  S   UNL A   1      52.289  25.906  31.723  1.00  0.00     0.124 S 
ATOM     91  O   UNL A   1      52.613  26.870  32.769  1.00  0.00    -0.237 OA
ATOM     92  O   UNL A   1      52.127  24.523  32.161  1.00  0.00    -0.237 OA
ATOM     93  O   UNL A   1      53.013  26.077  30.466  1.00  0.00    -0.744 OA
ENDBRANCH  89  90
ENDBRANCH  57  82
ENDBRANCH  31  32
ENDBRANCH  23  26
ENDBRANCH   1  22
TORSDOF 14
ENDMDL
MODEL 2
REMARK VINA RESULT:     -11.8      3.401      9.693
REMARK SMILES O=C(NCCCNC(=O)c1ccc(-c2c3nc(c(-c4c(F)cc(S(=O)(=O)[O-])cc4F)c4ccc([nH]4)c(-c4c(F)cc(S(=O)(=O)[O-])cc4F)c4nc(c(-c5c(F)cc(S(=O)(=O)[O-])cc5F)c5ccc2[nH]5)C=C4)C=C3)cc1)c1ccc(-c2ccc(=O)[nH]c2)cc1
REMARK SMILES IDX 6 1 5 2 4 3 3 4 1 5 2 6 76 8 77 9 88 10 78 11 87 12 79 13
REMARK SMILES IDX 80 14 81 15 86 16 82 17 85 18 83 19 84 21 7 22 8 23 9 25
REMARK SMILES IDX 10 26 11 27 75 28 12 29 74 30 13 31 14 32 15 33 68 34 16 35
REMARK SMILES IDX 73 36 67 37 69 38 17 39 72 40 66 41 65 42 18 44 52 45 31 46
REMARK SMILES IDX 51 47 32 48 35 49 50 50 70 51 33 52 34 53 49 55 71 56 36 57
REMARK SMILES IDX 19 58 20 59 29 60 21 61 22 62 28 63 30 64 23 65 24 66 25 67
REMARK SMILES IDX 26 68 27 69 53 70 54 71 63 72 55 73 56 74 62 75 64 76 57 77
REMARK SMILES IDX 58 78 59 79 60 80 61 81 37 82 38 83 47 84 39 85 40 86 46 87
REMARK SMILES IDX 48 88 41 89 42 90 43 91 44 92 45 93
REMARK H PARENT 3 7 85 20 7 24 69 43 35 54
REMARK Flexibility Score: inf
ROOT
ATOM      1  C   UNL A   1      36.687  23.877  25.105  1.00  0.00     0.118 C 
ENDROOT
BRANCH   1   2
ATOM      2  C   UNL A   1      35.592  23.806  26.157  1.00  0.00     0.042 C 
BRANCH   2   3
ATOM      3  C   UNL A   1      34.202  24.119  25.629  1.00  0.00     0.118 C 
BRANCH   3   4
ATOM      4  N   UNL A   1      33.145  23.544  26.452  1.00  0.00    -0.352 N 
ATOM      5  O   UNL A   1      31.144  23.451  27.493  1.00  0.00    -0.269 OA
ATOM      6  C   UNL A   1      31.850  23.964  26.631  1.00  0.00     0.251 C 
ATOM      7  H   UNL A   1      33.397  22.736  26.953  1.00  0.00     0.163 HD
BRANCH   6   8
ATOM      8  C   UNL A   1      31.305  25.047  25.789  1.00  0.00     0.039 A 
ATOM      9  C   UNL A   1      30.680  24.761  24.572  1.00  0.00     0.014 A 
ATOM     10  C   UNL A   1      31.409  26.367  26.233  1.00  0.00     0.014 A 
ATOM     11  C   UNL A   1      30.256  25.801  23.750  1.00  0.00     0.009 A 
ATOM     12  C   UNL A   1      30.950  27.408  25.420  1.00  0.00     0.009 A 
ATOM     13  C   UNL A   1      30.386  27.135  24.165  1.00  0.00    -0.017 A 
BRANCH  13  14
ATOM     14  C   UNL A   1      29.938  28.235  23.287  1.00  0.00    -0.002 A 
ATOM     15  C   UNL A   1      28.539  28.605  23.118  1.00  0.00     0.016 A 
ATOM     16  C   UNL A   1      30.866  28.941  22.614  1.00  0.00     0.094 A 
ATOM     17  C   UNL A   1      28.175  29.616  22.315  1.00  0.00     0.072 A 
ATOM     18  N   UNL A   1      30.508  29.982  21.795  1.00  0.00    -0.328 N 
ATOM     19  C   UNL A   1      29.213  30.382  21.582  1.00  0.00     0.247 A 
ATOM     20  H   UNL A   1      31.225  30.472  21.329  1.00  0.00     0.169 HD
ATOM     21  O   UNL A   1      28.919  31.309  20.836  1.00  0.00    -0.270 OA
ENDBRANCH  13  14
ENDBRANCH   6   8
ENDBRANCH   3   4
ENDBRANCH   2   3
ENDBRANCH   1   2
BRANCH   1  22
ATOM     22  N   UNL A   1      37.735  22.886  25.311  1.00  0.00    -0.352 N 
ATOM     23  C   UNL A   1      38.958  22.998  25.927  1.00  0.00     0.251 C 
ATOM     24  H   UNL A   1      37.535  21.992  24.951  1.00  0.00     0.163 HD
ATOM     25  O   UNL A   1      39.767  22.079  25.825  1.00  0.00    -0.269 OA
BRANCH  23  26
ATOM     26  C   UNL A   1      39.310  24.216  26.691  1.00  0.00     0.039 A 
ATOM     27  C   UNL A   1      38.850  24.347  28.005  1.00  0.00     0.014 A 
ATOM     28  C   UNL A   1      40.067  25.238  26.116  1.00  0.00     0.014 A 
ATOM     29  C   UNL A   1      39.206  25.470  28.757  1.00  0.00     0.010 A 
ATOM     30  C   UNL A   1      40.503  26.305  26.895  1.00  0.00     0.010 A 
ATOM     31  C   UNL A   1      40.065  26.443  28.220  1.00  0.00    -0.014 A 
BRANCH  31  32
ATOM     32  C   UNL A   1      40.495  27.623  29.014  1.00  0.00     0.031 A 
ATOM     33  C   UNL A   1      41.823  27.608  29.727  1.00  0.00     0.074 A 
ATOM     34  C   UNL A   1      39.669  28.679  29.147  1.00  0.00     0.049 A 
ATOM     35  N   UNL A   1      42.343  28.504  30.525  1.00  0.00    -0.248 NA
ATOM     36  C   UNL A   1      42.664  26.414  29.541  1.00  0.00     0.031 C 
ATOM     37  C   UNL A   1      38.337  28.794  28.549  1.00  0.00     0.029 A 
ATOM     38  N   UNL A   1      39.823  29.856  29.836  1.00  0.00    -0.354 N 
ATOM     39  C   UNL A   1      43.558  27.976  30.948  1.00  0.00     0.074 A 
ATOM     40  C   UNL A   1      43.670  26.656  30.367  1.00  0.00     0.031 C 
ATOM     41  C   UNL A   1      37.808  29.985  28.875  1.00  0.00     0.029 A 
ATOM     42  C   UNL A   1      38.742  30.701  29.739  1.00  0.00     0.049 A 
ATOM     43  H   UNL A   1      40.632  30.076  30.352  1.00  0.00     0.167 HD
ATOM     44  C   UNL A   1      44.508  28.548  31.726  1.00  0.00     0.037 A 
ATOM     45  C   UNL A   1      38.524  31.912  30.287  1.00  0.00     0.037 A 
ATOM     46  C   UNL A   1      44.403  29.874  32.278  1.00  0.00     0.049 A 
ATOM     47  C   UNL A   1      39.594  32.529  31.147  1.00  0.00     0.074 A 
ATOM     48  C   UNL A   1      45.331  30.567  33.033  1.00  0.00     0.029 A 
ATOM     49  N   UNL A   1      43.303  30.708  32.134  1.00  0.00    -0.354 N 
ATOM     50  N   UNL A   1      40.763  32.040  31.487  1.00  0.00    -0.248 NA
ATOM     51  C   UNL A   1      39.322  33.868  31.687  1.00  0.00     0.031 C 
ATOM     52  C   UNL A   1      44.774  31.801  33.388  1.00  0.00     0.029 A 
ATOM     53  C   UNL A   1      43.523  31.901  32.802  1.00  0.00     0.049 A 
ATOM     54  H   UNL A   1      42.487  30.484  31.631  1.00  0.00     0.167 HD
ATOM     55  C   UNL A   1      41.379  33.025  32.252  1.00  0.00     0.074 A 
ATOM     56  C   UNL A   1      40.457  34.140  32.314  1.00  0.00     0.031 C 
ATOM     57  C   UNL A   1      42.599  33.008  32.846  1.00  0.00     0.037 A 
BRANCH  44  58
ATOM     58  C   UNL A   1      45.746  27.745  32.021  1.00  0.00     0.058 A 
ATOM     59  C   UNL A   1      46.902  27.851  31.231  1.00  0.00     0.135 A 
ATOM     60  C   UNL A   1      45.790  26.881  33.128  1.00  0.00     0.135 A 
ATOM     61  F   UNL A   1      46.913  28.649  30.151  1.00  0.00    -0.206 F 
ATOM     62  C   UNL A   1      48.044  27.105  31.506  1.00  0.00     0.059 A 
ATOM     63  C   UNL A   1      46.932  26.149  33.441  1.00  0.00     0.059 A 
ATOM     64  F   UNL A   1      44.715  26.739  33.919  1.00  0.00    -0.206 F 
ATOM     65  C   UNL A   1      48.050  26.257  32.615  1.00  0.00     0.060 A 
BRANCH  65  66
ATOM     66  S   UNL A   1      49.542  25.303  32.960  1.00  0.00     0.124 S 
ATOM     67  O   UNL A   1      50.385  26.304  33.606  1.00  0.00    -0.237 OA
ATOM     68  O   UNL A   1      49.040  24.242  33.827  1.00  0.00    -0.237 OA
ATOM     69  O   UNL A   1      49.984  24.872  31.637  1.00  0.00    -0.744 OA
ENDBRANCH  65  66
ENDBRANCH  44  58
BRANCH  45  70
ATOM     70  C   UNL A   1      37.250  32.632  30.020  1.00  0.00     0.058 A 
ATOM     71  C   UNL A   1      36.083  32.329  30.739  1.00  0.00     0.135 A 
ATOM     72  C   UNL A   1      37.173  33.642  29.048  1.00  0.00     0.135 A 
ATOM     73  F   UNL A   1      36.103  31.368  31.675  1.00  0.00    -0.206 F 
ATOM     74  C   UNL A   1      34.882  32.985  30.491  1.00  0.00     0.059 A 
ATOM     75  C   UNL A   1      35.989  34.332  28.802  1.00  0.00     0.059 A 
ATOM     76  F   UNL A   1      38.263  33.984  28.345  1.00  0.00    -0.206 F 
ATOM     77  C   UNL A   1      34.846  33.988  29.521  1.00  0.00     0.060 A 
BRANCH  77  78
ATOM     78  S   UNL A   1      33.292  34.864  29.239  1.00  0.00     0.124 S 
ATOM     79  O   UNL A   1      32.719  34.885  30.580  1.00  0.00    -0.237 OA
ATOM     80  O   UNL A   1      33.754  36.148  28.720  1.00  0.00    -0.237 OA
ATOM     81  O   UNL A   1      32.601  34.018  28.270  1.00  0.00    -0.744 OA
ENDBRANCH  77  78
ENDBRANCH  45  70
BRANCH  57  82
ATOM     82  C   UNL A   1      43.031  34.252  33.575  1.00  0.00     0.058 A 
ATOM     83  C   UNL A   1      42.815  34.421  34.951  1.00  0.00     0.135 A 
ATOM     84  C   UNL A   1      43.708  35.274  32.888  1.00  0.00     0.135 A 
ATOM     85  F   UNL A   1      42.169  33.478  35.655  1.00  0.00    -0.206 F 
ATOM     86  C   UNL A   1      43.223  35.575  35.615  1.00  0.00     0.059 A 
ATOM     87  C   UNL A   1      44.154  36.420  33.538  1.00  0.00     0.059 A 
ATOM     88  F   UNL A   1      43.953  35.158  31.573  1.00  0.00    -0.206 F 
ATOM     89  C   UNL A   1      43.892  36.569  34.898  1.00  0.00     0.060 A 
BRANCH  89  90
ATOM     90  S   UNL A   1      44.432  38.052  35.773  1.00  0.00     0.124 S 
ATOM     91  O   UNL A   1      44.013  39.105  34.854  1.00  0.00    -0.237 OA
ATOM     92  O   UNL A   1      43.685  37.966  37.025  1.00  0.00    -0.237 OA
ATOM     93  O   UNL A   1      45.875  37.867  35.899  1.00  0.00    -0.744 OA
ENDBRANCH  89  90
ENDBRANCH  57  82
ENDBRANCH  31  32
ENDBRANCH  23  26
ENDBRANCH   1  22
TORSDOF 14
ENDMDL
MODEL 3
REMARK VINA RESULT:     -11.8      3.952      6.769
REMARK SMILES O=C(NCCCNC(=O)c1ccc(-c2c3nc(c(-c4c(F)cc(S(=O)(=O)[O-])cc4F)c4ccc([nH]4)c(-c4c(F)cc(S(=O)(=O)[O-])cc4F)c4nc(c(-c5c(F)cc(S(=O)(=O)[O-])cc5F)c5ccc2[nH]5)C=C4)C=C3)cc1)c1ccc(-c2ccc(=O)[nH]c2)cc1
REMARK SMILES IDX 6 1 5 2 4 3 3 4 1 5 2 6 76 8 77 9 88 10 78 11 87 12 79 13
REMARK SMILES IDX 80 14 81 15 86 16 82 17 85 18 83 19 84 21 7 22 8 23 9 25
REMARK SMILES IDX 10 26 11 27 75 28 12 29 74 30 13 31 14 32 15 33 68 34 16 35
REMARK SMILES IDX 73 36 67 37 69 38 17 39 72 40 66 41 65 42 18 44 52 45 31 46
REMARK SMILES IDX 51 47 32 48 35 49 50 50 70 51 33 52 34 53 49 55 71 56 36 57
REMARK SMILES IDX 19 58 20 59 29 60 21 61 22 62 28 63 30 64 23 65 24 66 25 67
REMARK SMILES IDX 26 68 27 69 53 70 54 71 63 72 55 73 56 74 62 75 64 76 57 77
REMARK SMILES IDX 58 78 59 79 60 80 61 81 37 82 38 83 47 84 39 85 40 86 46 87
REMARK SMILES IDX 48 88 41 89 42 90 43 91 44 92 45 93
REMARK H PARENT 3 7 85 20 7 24 69 43 35 54
REMARK Flexibility Score: inf
ROOT
ATOM      1  C   UNL A   1      34.760  32.788  28.496  1.00  0.00     0.118 C 
ENDROOT
BRANCH   1   2
ATOM      2  C   UNL A   1      35.016  32.954  29.986  1.00  0.00     0.042 C 
BRANCH   2   3
ATOM      3  C   UNL A   1      36.208  33.838  30.317  1.00  0.00     0.118 C 
BRANCH   3   4
ATOM      4  N   UNL A   1      35.936  34.761  31.412  1.00  0.00    -0.352 N 
ATOM      5  O   UNL A   1      35.813  35.461  33.555  1.00  0.00    -0.269 OA
ATOM      6  C   UNL A   1      36.269  34.665  32.740  1.00  0.00     0.251 C 
ATOM      7  H   UNL A   1      35.439  35.573  31.162  1.00  0.00     0.163 HD
BRANCH   6   8
ATOM      8  C   UNL A   1      37.174  33.591  33.196  1.00  0.00     0.039 A 
ATOM      9  C   UNL A   1      38.542  33.828  33.354  1.00  0.00     0.014 A 
ATOM     10  C   UNL A   1      36.640  32.332  33.481  1.00  0.00     0.014 A 
ATOM     11  C   UNL A   1      39.391  32.779  33.695  1.00  0.00     0.009 A 
ATOM     12  C   UNL A   1      37.492  31.290  33.857  1.00  0.00     0.009 A 
ATOM     13  C   UNL A   1      38.876  31.500  33.950  1.00  0.00    -0.017 A 
BRANCH  13  14
ATOM     14  C   UNL A   1      39.782  30.389  34.306  1.00  0.00    -0.002 A 
ATOM     15  C   UNL A   1      40.275  29.417  33.340  1.00  0.00     0.016 A 
ATOM     16  C   UNL A   1      40.184  30.269  35.586  1.00  0.00     0.094 A 
ATOM     17  C   UNL A   1      41.103  28.426  33.704  1.00  0.00     0.072 A 
ATOM     18  N   UNL A   1      41.035  29.265  35.971  1.00  0.00    -0.328 N 
ATOM     19  C   UNL A   1      41.533  28.312  35.119  1.00  0.00     0.247 A 
ATOM     20  H   UNL A   1      41.305  29.225  36.917  1.00  0.00     0.169 HD
ATOM     21  O   UNL A   1      42.285  27.418  35.490  1.00  0.00    -0.270 OA
ENDBRANCH  13  14
ENDBRANCH   6   8
ENDBRANCH   3   4
ENDBRANCH   2   3
ENDBRANCH   1   2
BRANCH   1  22
ATOM     22  N   UNL A   1      33.979  31.599  28.186  1.00  0.00    -0.352 N 
ATOM     23  C   UNL A   1      34.376  30.298  27.989  1.00  0.00     0.251 C 
ATOM     24  H   UNL A   1      33.010  31.751  28.102  1.00  0.00     0.163 HD
ATOM     25  O   UNL A   1      33.566  29.485  27.551  1.00  0.00    -0.269 OA
BRANCH  23  26
ATOM     26  C   UNL A   1      35.765  29.881  28.282  1.00  0.00     0.039 A 
ATOM     27  C   UNL A   1      36.730  29.989  27.276  1.00  0.00     0.014 A 
ATOM     28  C   UNL A   1      36.118  29.362  29.530  1.00  0.00     0.014 A 
ATOM     29  C   UNL A   1      38.056  29.638  27.546  1.00  0.00     0.010 A 
ATOM     30  C   UNL A   1      37.453  29.109  29.827  1.00  0.00     0.010 A 
ATOM     31  C   UNL A   1      38.437  29.229  28.834  1.00  0.00    -0.014 A 
BRANCH  31  32
ATOM     32  C   UNL A   1      39.848  28.896  29.158  1.00  0.00     0.031 A 
ATOM     33  C   UNL A   1      40.730  29.919  29.825  1.00  0.00     0.074 A 
ATOM     34  C   UNL A   1      40.354  27.699  28.798  1.00  0.00     0.049 A 
ATOM     35  N   UNL A   1      42.002  29.847  30.121  1.00  0.00    -0.248 NA
ATOM     36  C   UNL A   1      40.106  31.205  30.178  1.00  0.00     0.031 C 
ATOM     37  C   UNL A   1      39.617  26.642  28.101  1.00  0.00     0.029 A 
ATOM     38  N   UNL A   1      41.612  27.173  28.958  1.00  0.00    -0.354 N 
ATOM     39  C   UNL A   1      42.332  31.078  30.678  1.00  0.00     0.074 A 
ATOM     40  C   UNL A   1      41.143  31.899  30.621  1.00  0.00     0.031 C 
ATOM     41  C   UNL A   1      40.427  25.586  27.919  1.00  0.00     0.029 A 
ATOM     42  C   UNL A   1      41.751  25.905  28.445  1.00  0.00     0.049 A 
ATOM     43  H   UNL A   1      42.345  27.659  29.399  1.00  0.00     0.167 HD
ATOM     44  C   UNL A   1      43.510  31.479  31.212  1.00  0.00     0.037 A 
ATOM     45  C   UNL A   1      42.825  25.092  28.399  1.00  0.00     0.037 A 
ATOM     46  C   UNL A   1      44.682  30.647  31.291  1.00  0.00     0.049 A 
ATOM     47  C   UNL A   1      44.123  25.558  29.002  1.00  0.00     0.074 A 
ATOM     48  C   UNL A   1      45.908  30.939  31.862  1.00  0.00     0.029 A 
ATOM     49  N   UNL A   1      44.775  29.358  30.784  1.00  0.00    -0.354 N 
ATOM     50  N   UNL A   1      44.400  26.704  29.577  1.00  0.00    -0.248 NA
ATOM     51  C   UNL A   1      45.250  24.618  28.960  1.00  0.00     0.031 C 
ATOM     52  C   UNL A   1      46.758  29.847  31.658  1.00  0.00     0.029 A 
ATOM     53  C   UNL A   1      46.043  28.850  31.013  1.00  0.00     0.049 A 
ATOM     54  H   UNL A   1      44.047  28.877  30.329  1.00  0.00     0.167 HD
ATOM     55  C   UNL A   1      45.723  26.609  29.996  1.00  0.00     0.074 A 
ATOM     56  C   UNL A   1      46.185  25.289  29.617  1.00  0.00     0.031 C 
ATOM     57  C   UNL A   1      46.485  27.529  30.639  1.00  0.00     0.037 A 
BRANCH  44  58
ATOM     58  C   UNL A   1      43.588  32.880  31.759  1.00  0.00     0.058 A 
ATOM     59  C   UNL A   1      44.034  33.956  30.975  1.00  0.00     0.135 A 
ATOM     60  C   UNL A   1      43.181  33.157  33.075  1.00  0.00     0.135 A 
ATOM     61  F   UNL A   1      44.451  33.749  29.715  1.00  0.00    -0.206 F 
ATOM     62  C   UNL A   1      44.107  35.249  31.484  1.00  0.00     0.059 A 
ATOM     63  C   UNL A   1      43.215  34.448  33.595  1.00  0.00     0.059 A 
ATOM     64  F   UNL A   1      42.746  32.168  33.871  1.00  0.00    -0.206 F 
ATOM     65  C   UNL A   1      43.693  35.485  32.796  1.00  0.00     0.060 A 
BRANCH  65  66
ATOM     66  S   UNL A   1      43.789  37.169  33.438  1.00  0.00     0.124 S 
ATOM     67  O   UNL A   1      42.560  37.251  34.222  1.00  0.00    -0.237 OA
ATOM     68  O   UNL A   1      45.029  37.141  34.206  1.00  0.00    -0.237 OA
ATOM     69  O   UNL A   1      43.818  37.991  32.233  1.00  0.00    -0.744 OA
ENDBRANCH  65  66
ENDBRANCH  44  58
BRANCH  45  70
ATOM     70  C   UNL A   1      42.711  23.743  27.781  1.00  0.00     0.058 A 
ATOM     71  C   UNL A   1      42.848  23.569  26.395  1.00  0.00     0.135 A 
ATOM     72  C   UNL A   1      42.472  22.601  28.561  1.00  0.00     0.135 A 
ATOM     73  F   UNL A   1      43.072  24.629  25.605  1.00  0.00    -0.206 F 
ATOM     74  C   UNL A   1      42.732  22.316  25.802  1.00  0.00     0.059 A 
ATOM     75  C   UNL A   1      42.380  21.333  27.994  1.00  0.00     0.059 A 
ATOM     76  F   UNL A   1      42.351  22.709  29.893  1.00  0.00    -0.206 F 
ATOM     77  C   UNL A   1      42.500  21.203  26.611  1.00  0.00     0.060 A 
BRANCH  77  78
ATOM     78  S   UNL A   1      42.395  19.575  25.835  1.00  0.00     0.124 S 
ATOM     79  O   UNL A   1      42.759  18.698  26.942  1.00  0.00    -0.237 OA
ATOM     80  O   UNL A   1      40.998  19.527  25.413  1.00  0.00    -0.237 OA
ATOM     81  O   UNL A   1      43.366  19.658  24.749  1.00  0.00    -0.744 OA
ENDBRANCH  77  78
ENDBRANCH  45  70
BRANCH  57  82
ATOM     82  C   UNL A   1      47.884  27.124  31.020  1.00  0.00     0.058 A 
ATOM     83  C   UNL A   1      48.984  27.377  30.187  1.00  0.00     0.135 A 
ATOM     84  C   UNL A   1      48.129  26.509  32.260  1.00  0.00     0.135 A 
ATOM     85  F   UNL A   1      48.807  27.959  28.990  1.00  0.00    -0.206 F 
ATOM     86  C   UNL A   1      50.274  27.002  30.553  1.00  0.00     0.059 A 
ATOM     87  C   UNL A   1      49.413  26.156  32.660  1.00  0.00     0.059 A 
ATOM     88  F   UNL A   1      47.114  26.257  33.101  1.00  0.00    -0.206 F 
ATOM     89  C   UNL A   1      50.477  26.392  31.792  1.00  0.00     0.060 A 
BRANCH  89  90
ATOM     90  S   UNL A   1      52.157  25.927  32.263  1.00  0.00     0.124 S 
ATOM     91  O   UNL A   1      52.930  26.439  31.136  1.00  0.00    -0.237 OA
ATOM     92  O   UNL A   1      52.334  26.633  33.528  1.00  0.00    -0.237 OA
ATOM     93  O   UNL A   1      52.090  24.472  32.368  1.00  0.00    -0.744 OA
ENDBRANCH  89  90
ENDBRANCH  57  82
ENDBRANCH  31  32
ENDBRANCH  23  26
ENDBRANCH   1  22
TORSDOF 14
ENDMDL
