MODEL 1
REMARK VINA RESULT:     -12.5      0.000      0.000
REMARK SMILES O=C(NCCCNC(=O)[C@H]1C[C@H](O)CN1S(=O)(=O)c1ccc2c(c1)OCCO2)c1ccc(-c2c3nc(c(-c4c(F)cc(S(=O)(=O)[O-])cc4F)c4ccc([nH]4)c(-c4c(F)cc(S(=O)(=O)[O-])cc4F)c4nc(c(-c5c(F)cc(S(=O)(=O)[O-])cc5F)c5ccc2[nH]5)C=C4)C=C3)cc1
REMARK SMILES IDX 4 1 3 2 1 3 2 4 29 6 30 7 94 8 31 9 93 10 32 11 33 12 34 13
REMARK SMILES IDX 87 14 35 15 92 16 86 17 88 18 36 19 91 20 85 21 84 22 37 24
REMARK SMILES IDX 71 25 50 26 70 27 51 28 54 29 69 30 89 31 52 32 53 33 68 35
REMARK SMILES IDX 90 36 55 37 38 38 39 39 48 40 40 41 41 42 47 43 49 44 42 45
REMARK SMILES IDX 43 46 44 47 45 48 46 49 72 50 73 51 82 52 74 53 75 54 81 55
REMARK SMILES IDX 83 56 76 57 77 58 78 59 79 60 80 61 56 62 57 63 66 64 58 65
REMARK SMILES IDX 59 66 65 67 67 68 60 69 61 70 62 71 63 72 64 73 5 74 6 75
REMARK SMILES IDX 7 76 8 77 9 79 10 80 11 81 15 82 12 83 14 84 16 85 17 86
REMARK SMILES IDX 18 87 19 88 20 89 24 90 21 91 23 92 22 93 25 94 28 95 26 96
REMARK SMILES IDX 27 97 13 98
REMARK H PARENT 3 5 88 23 54 34 7 78 13 99
REMARK Flexibility Score: inf
ROOT
ATOM      1  C   UNL A   1      33.251  29.080  27.233  1.00  0.00     0.118 C 
ENDROOT
BRANCH   1   2
ATOM      2  N   UNL A   1      33.533  30.409  27.735  1.00  0.00    -0.352 N 
ATOM      3  O   UNL A   1      34.440  31.929  29.087  1.00  0.00    -0.269 OA
ATOM      4  C   UNL A   1      34.598  30.881  28.459  1.00  0.00     0.251 C 
ATOM      5  H   UNL A   1      32.848  31.085  27.523  1.00  0.00     0.163 HD
BRANCH   4   6
ATOM      6  C   UNL A   1      35.917  30.194  28.512  1.00  0.00     0.039 A 
ATOM      7  C   UNL A   1      36.819  30.193  27.444  1.00  0.00     0.014 A 
ATOM      8  C   UNL A   1      36.339  29.698  29.753  1.00  0.00     0.014 A 
ATOM      9  C   UNL A   1      38.116  29.685  27.609  1.00  0.00     0.010 A 
ATOM     10  C   UNL A   1      37.652  29.247  29.934  1.00  0.00     0.010 A 
ATOM     11  C   UNL A   1      38.562  29.251  28.868  1.00  0.00    -0.014 A 
BRANCH  11  12
ATOM     12  C   UNL A   1      39.996  28.923  29.112  1.00  0.00     0.031 A 
ATOM     13  C   UNL A   1      40.961  29.968  29.599  1.00  0.00     0.074 A 
ATOM     14  C   UNL A   1      40.455  27.692  28.805  1.00  0.00     0.049 A 
ATOM     15  N   UNL A   1      42.260  29.888  29.749  1.00  0.00    -0.248 NA
ATOM     16  C   UNL A   1      40.395  31.278  29.948  1.00  0.00     0.031 C 
ATOM     17  C   UNL A   1      39.637  26.592  28.292  1.00  0.00     0.029 A 
ATOM     18  N   UNL A   1      41.724  27.163  28.855  1.00  0.00    -0.354 N 
ATOM     19  C   UNL A   1      42.672  31.138  30.191  1.00  0.00     0.074 A 
ATOM     20  C   UNL A   1      41.485  31.967  30.256  1.00  0.00     0.031 C 
ATOM     21  C   UNL A   1      40.418  25.521  28.081  1.00  0.00     0.029 A 
ATOM     22  C   UNL A   1      41.802  25.871  28.391  1.00  0.00     0.049 A 
ATOM     23  H   UNL A   1      42.503  27.663  29.192  1.00  0.00     0.167 HD
ATOM     24  C   UNL A   1      43.921  31.556  30.520  1.00  0.00     0.037 A 
ATOM     25  C   UNL A   1      42.863  25.061  28.202  1.00  0.00     0.037 A 
ATOM     26  C   UNL A   1      45.100  30.731  30.454  1.00  0.00     0.049 A 
ATOM     27  C   UNL A   1      44.241  25.548  28.550  1.00  0.00     0.074 A 
ATOM     28  C   UNL A   1      46.400  31.060  30.801  1.00  0.00     0.029 A 
ATOM     29  N   UNL A   1      45.131  29.419  30.002  1.00  0.00    -0.354 N 
ATOM     30  N   UNL A   1      44.605  26.720  29.010  1.00  0.00    -0.248 NA
ATOM     31  C   UNL A   1      45.353  24.605  28.357  1.00  0.00     0.031 C 
ATOM     32  C   UNL A   1      47.222  29.963  30.518  1.00  0.00     0.029 A 
ATOM     33  C   UNL A   1      46.427  28.932  30.043  1.00  0.00     0.049 A 
ATOM     34  H   UNL A   1      44.346  28.910  29.695  1.00  0.00     0.167 HD
ATOM     35  C   UNL A   1      45.983  26.648  29.188  1.00  0.00     0.074 A 
ATOM     36  C   UNL A   1      46.388  25.317  28.785  1.00  0.00     0.031 C 
ATOM     37  C   UNL A   1      46.827  27.601  29.652  1.00  0.00     0.037 A 
BRANCH  24  38
ATOM     38  C   UNL A   1      44.073  32.985  30.962  1.00  0.00     0.058 A 
ATOM     39  C   UNL A   1      43.930  33.359  32.308  1.00  0.00     0.135 A 
ATOM     40  C   UNL A   1      44.363  33.996  30.031  1.00  0.00     0.135 A 
ATOM     41  F   UNL A   1      43.644  32.437  33.241  1.00  0.00    -0.206 F 
ATOM     42  C   UNL A   1      44.009  34.689  32.705  1.00  0.00     0.059 A 
ATOM     43  C   UNL A   1      44.474  35.331  30.409  1.00  0.00     0.059 A 
ATOM     44  F   UNL A   1      44.523  33.694  28.732  1.00  0.00    -0.206 F 
ATOM     45  C   UNL A   1      44.266  35.670  31.745  1.00  0.00     0.060 A 
BRANCH  45  46
ATOM     46  S   UNL A   1      44.264  37.394  32.270  1.00  0.00     0.124 S 
ATOM     47  O   UNL A   1      43.883  38.066  31.029  1.00  0.00    -0.237 OA
ATOM     48  O   UNL A   1      43.254  37.400  33.323  1.00  0.00    -0.237 OA
ATOM     49  O   UNL A   1      45.635  37.620  32.714  1.00  0.00    -0.744 OA
ENDBRANCH  45  46
ENDBRANCH  24  38
BRANCH  25  50
ATOM     50  C   UNL A   1      42.643  23.695  27.657  1.00  0.00     0.058 A 
ATOM     51  C   UNL A   1      42.624  23.463  26.275  1.00  0.00     0.135 A 
ATOM     52  C   UNL A   1      42.520  22.586  28.509  1.00  0.00     0.135 A 
ATOM     53  F   UNL A   1      42.728  24.492  25.420  1.00  0.00    -0.206 F 
ATOM     54  C   UNL A   1      42.502  22.178  25.754  1.00  0.00     0.059 A 
ATOM     55  C   UNL A   1      42.420  21.290  28.013  1.00  0.00     0.059 A 
ATOM     56  F   UNL A   1      42.545  22.755  29.840  1.00  0.00    -0.206 F 
ATOM     57  C   UNL A   1      42.412  21.096  26.632  1.00  0.00     0.060 A 
BRANCH  57  58
ATOM     58  S   UNL A   1      42.352  19.427  25.946  1.00  0.00     0.124 S 
ATOM     59  O   UNL A   1      40.935  19.291  25.625  1.00  0.00    -0.237 OA
ATOM     60  O   UNL A   1      43.257  19.531  24.805  1.00  0.00    -0.237 OA
ATOM     61  O   UNL A   1      42.834  18.594  27.044  1.00  0.00    -0.744 OA
ENDBRANCH  57  58
ENDBRANCH  25  50
BRANCH  37  62
ATOM     62  C   UNL A   1      48.280  27.241  29.801  1.00  0.00     0.058 A 
ATOM     63  C   UNL A   1      49.227  27.551  28.814  1.00  0.00     0.135 A 
ATOM     64  C   UNL A   1      48.742  26.655  30.993  1.00  0.00     0.135 A 
ATOM     65  F   UNL A   1      48.836  28.102  27.654  1.00  0.00    -0.206 F 
ATOM     66  C   UNL A   1      50.582  27.296  29.001  1.00  0.00     0.059 A 
ATOM     67  C   UNL A   1      50.094  26.412  31.210  1.00  0.00     0.059 A 
ATOM     68  F   UNL A   1      47.878  26.343  31.971  1.00  0.00    -0.206 F 
ATOM     69  C   UNL A   1      51.008  26.733  30.208  1.00  0.00     0.060 A 
BRANCH  69  70
ATOM     70  S   UNL A   1      52.776  26.477  30.470  1.00  0.00     0.124 S 
ATOM     71  O   UNL A   1      53.231  26.154  29.122  1.00  0.00    -0.237 OA
ATOM     72  O   UNL A   1      53.205  27.771  30.992  1.00  0.00    -0.237 OA
ATOM     73  O   UNL A   1      52.821  25.377  31.429  1.00  0.00    -0.744 OA
ENDBRANCH  69  70
ENDBRANCH  37  62
ENDBRANCH  11  12
ENDBRANCH   4   6
ENDBRANCH   1   2
BRANCH   1  74
ATOM     74  C   UNL A   1      31.784  28.715  27.445  1.00  0.00     0.042 C 
BRANCH  74  75
ATOM     75  C   UNL A   1      31.176  27.740  26.429  1.00  0.00     0.117 C 
BRANCH  75  76
ATOM     76  N   UNL A   1      31.047  26.380  26.921  1.00  0.00    -0.355 N 
ATOM     77  C   UNL A   1      31.752  25.242  26.656  1.00  0.00     0.238 C 
ATOM     78  H   UNL A   1      30.313  26.255  27.566  1.00  0.00     0.163 HD
ATOM     79  O   UNL A   1      31.376  24.219  27.235  1.00  0.00    -0.273 OA
BRANCH  77  80
ATOM     80  C   UNL A   1      33.019  25.277  25.812  1.00  0.00     0.165 C 
ATOM     81  C   UNL A   1      33.982  24.115  26.145  1.00  0.00     0.063 C 
ATOM     82  N   UNL A   1      32.995  25.368  24.315  1.00  0.00    -0.183 NA
ATOM     83  C   UNL A   1      34.560  23.646  24.819  1.00  0.00     0.131 C 
ATOM     84  C   UNL A   1      34.323  24.834  23.887  1.00  0.00     0.135 C 
BRANCH  82  85
ATOM     85  S   UNL A   1      31.694  24.667  23.455  1.00  0.00     0.244 S 
ATOM     86  O   UNL A   1      32.157  24.351  22.126  1.00  0.00    -0.207 OA
ATOM     87  O   UNL A   1      31.045  23.668  24.274  1.00  0.00    -0.207 OA
BRANCH  85  88
ATOM     88  C   UNL A   1      30.575  26.056  23.351  1.00  0.00     0.086 A 
ATOM     89  C   UNL A   1      29.321  25.967  23.967  1.00  0.00     0.026 A 
ATOM     90  C   UNL A   1      30.926  27.200  22.634  1.00  0.00     0.072 A 
ATOM     91  C   UNL A   1      28.366  26.962  23.770  1.00  0.00     0.052 A 
ATOM     92  C   UNL A   1      29.989  28.227  22.499  1.00  0.00     0.162 A 
ATOM     93  C   UNL A   1      28.693  28.080  23.011  1.00  0.00     0.161 A 
ATOM     94  O   UNL A   1      30.400  29.360  21.843  1.00  0.00    -0.486 OA
ATOM     95  O   UNL A   1      27.694  28.999  22.819  1.00  0.00    -0.486 OA
ATOM     96  C   UNL A   1      29.468  30.440  22.028  1.00  0.00     0.271 C 
ATOM     97  C   UNL A   1      28.046  29.953  21.805  1.00  0.00     0.271 C 
ENDBRANCH  85  88
ENDBRANCH  82  85
BRANCH  83  98
ATOM     98  O   UNL A   1      35.935  23.326  24.955  1.00  0.00    -0.392 OA
ATOM     99  H   UNL A   1      36.292  23.758  25.746  1.00  0.00     0.211 HD
ENDBRANCH  83  98
ENDBRANCH  77  80
ENDBRANCH  75  76
ENDBRANCH  74  75
ENDBRANCH   1  74
TORSDOF 16
ENDMDL
MODEL 2
REMARK VINA RESULT:     -12.3      1.612      3.682
REMARK SMILES O=C(NCCCNC(=O)[C@H]1C[C@H](O)CN1S(=O)(=O)c1ccc2c(c1)OCCO2)c1ccc(-c2c3nc(c(-c4c(F)cc(S(=O)(=O)[O-])cc4F)c4ccc([nH]4)c(-c4c(F)cc(S(=O)(=O)[O-])cc4F)c4nc(c(-c5c(F)cc(S(=O)(=O)[O-])cc5F)c5ccc2[nH]5)C=C4)C=C3)cc1
REMARK SMILES IDX 4 1 3 2 1 3 2 4 29 6 30 7 94 8 31 9 93 10 32 11 33 12 34 13
REMARK SMILES IDX 87 14 35 15 92 16 86 17 88 18 36 19 91 20 85 21 84 22 37 24
REMARK SMILES IDX 71 25 50 26 70 27 51 28 54 29 69 30 89 31 52 32 53 33 68 35
REMARK SMILES IDX 90 36 55 37 38 38 39 39 48 40 40 41 41 42 47 43 49 44 42 45
REMARK SMILES IDX 43 46 44 47 45 48 46 49 72 50 73 51 82 52 74 53 75 54 81 55
REMARK SMILES IDX 83 56 76 57 77 58 78 59 79 60 80 61 56 62 57 63 66 64 58 65
REMARK SMILES IDX 59 66 65 67 67 68 60 69 61 70 62 71 63 72 64 73 5 74 6 75
REMARK SMILES IDX 7 76 8 77 9 79 10 80 11 81 15 82 12 83 14 84 16 85 17 86
REMARK SMILES IDX 18 87 19 88 20 89 24 90 21 91 23 92 22 93 25 94 28 95 26 96
REMARK SMILES IDX 27 97 13 98
REMARK H PARENT 3 5 88 23 54 34 7 78 13 99
REMARK Flexibility Score: inf
ROOT
ATOM      1  C   UNL A   1      33.212  29.081  27.251  1.00  0.00     0.118 C 
ENDROOT
BRANCH   1   2
ATOM      2  N   UNL A   1      33.500  30.417  27.730  1.00  0.00    -0.352 N 
ATOM      3  O   UNL A   1      34.415  31.955  29.057  1.00  0.00    -0.269 OA
ATOM      4  C   UNL A   1      34.567  30.896  28.446  1.00  0.00     0.251 C 
ATOM      5  H   UNL A   1      32.819  31.092  27.507  1.00  0.00     0.163 HD
BRANCH   4   6
ATOM      6  C   UNL A   1      35.884  30.203  28.511  1.00  0.00     0.039 A 
ATOM      7  C   UNL A   1      36.795  30.199  27.451  1.00  0.00     0.014 A 
ATOM      8  C   UNL A   1      36.292  29.705  29.755  1.00  0.00     0.014 A 
ATOM      9  C   UNL A   1      38.088  29.686  27.627  1.00  0.00     0.010 A 
ATOM     10  C   UNL A   1      37.602  29.248  29.947  1.00  0.00     0.010 A 
ATOM     11  C   UNL A   1      38.521  29.248  28.889  1.00  0.00    -0.014 A 
BRANCH  11  12
ATOM     12  C   UNL A   1      39.952  28.914  29.146  1.00  0.00     0.031 A 
ATOM     13  C   UNL A   1      40.914  29.952  29.655  1.00  0.00     0.074 A 
ATOM     14  C   UNL A   1      40.411  27.685  28.832  1.00  0.00     0.049 A 
ATOM     15  N   UNL A   1      42.211  29.867  29.818  1.00  0.00    -0.248 NA
ATOM     16  C   UNL A   1      40.347  31.260  30.010  1.00  0.00     0.031 C 
ATOM     17  C   UNL A   1      39.596  26.593  28.299  1.00  0.00     0.029 A 
ATOM     18  N   UNL A   1      41.678  27.153  28.891  1.00  0.00    -0.354 N 
ATOM     19  C   UNL A   1      42.621  31.112  30.277  1.00  0.00     0.074 A 
ATOM     20  C   UNL A   1      41.435  31.944  30.337  1.00  0.00     0.031 C 
ATOM     21  C   UNL A   1      40.377  25.523  28.086  1.00  0.00     0.029 A 
ATOM     22  C   UNL A   1      41.758  25.866  28.414  1.00  0.00     0.049 A 
ATOM     23  H   UNL A   1      42.454  27.647  29.241  1.00  0.00     0.167 HD
ATOM     24  C   UNL A   1      43.867  31.523  30.624  1.00  0.00     0.037 A 
ATOM     25  C   UNL A   1      42.819  25.054  28.229  1.00  0.00     0.037 A 
ATOM     26  C   UNL A   1      45.045  30.696  30.563  1.00  0.00     0.049 A 
ATOM     27  C   UNL A   1      44.194  25.534  28.597  1.00  0.00     0.074 A 
ATOM     28  C   UNL A   1      46.342  31.018  30.928  1.00  0.00     0.029 A 
ATOM     29  N   UNL A   1      45.077  29.389  30.098  1.00  0.00    -0.354 N 
ATOM     30  N   UNL A   1      44.556  26.701  29.073  1.00  0.00    -0.248 NA
ATOM     31  C   UNL A   1      45.306  24.591  28.408  1.00  0.00     0.031 C 
ATOM     32  C   UNL A   1      47.164  29.922  30.643  1.00  0.00     0.029 A 
ATOM     33  C   UNL A   1      46.372  28.898  30.149  1.00  0.00     0.049 A 
ATOM     34  H   UNL A   1      44.295  28.885  29.778  1.00  0.00     0.167 HD
ATOM     35  C   UNL A   1      45.931  26.624  29.266  1.00  0.00     0.074 A 
ATOM     36  C   UNL A   1      46.338  25.296  28.854  1.00  0.00     0.031 C 
ATOM     37  C   UNL A   1      46.773  27.570  29.749  1.00  0.00     0.037 A 
BRANCH  24  38
ATOM     38  C   UNL A   1      44.018  32.948  31.082  1.00  0.00     0.058 A 
ATOM     39  C   UNL A   1      43.881  33.305  32.433  1.00  0.00     0.135 A 
ATOM     40  C   UNL A   1      44.300  33.970  30.161  1.00  0.00     0.135 A 
ATOM     41  F   UNL A   1      43.603  32.372  33.357  1.00  0.00    -0.206 F 
ATOM     42  C   UNL A   1      43.959  34.631  32.845  1.00  0.00     0.059 A 
ATOM     43  C   UNL A   1      44.409  35.301  30.555  1.00  0.00     0.059 A 
ATOM     44  F   UNL A   1      44.453  33.684  28.858  1.00  0.00    -0.206 F 
ATOM     45  C   UNL A   1      44.207  35.623  31.896  1.00  0.00     0.060 A 
BRANCH  45  46
ATOM     46  S   UNL A   1      44.204  37.342  32.441  1.00  0.00     0.124 S 
ATOM     47  O   UNL A   1      43.199  37.298  33.503  1.00  0.00    -0.237 OA
ATOM     48  O   UNL A   1      45.580  37.532  32.886  1.00  0.00    -0.237 OA
ATOM     49  O   UNL A   1      43.822  38.081  31.243  1.00  0.00    -0.744 OA
ENDBRANCH  45  46
ENDBRANCH  24  38
BRANCH  25  50
ATOM     50  C   UNL A   1      42.602  23.694  27.668  1.00  0.00     0.058 A 
ATOM     51  C   UNL A   1      42.631  23.471  26.285  1.00  0.00     0.135 A 
ATOM     52  C   UNL A   1      42.434  22.582  28.508  1.00  0.00     0.135 A 
ATOM     53  F   UNL A   1      42.777  24.504  25.441  1.00  0.00    -0.206 F 
ATOM     54  C   UNL A   1      42.510  22.191  25.752  1.00  0.00     0.059 A 
ATOM     55  C   UNL A   1      42.336  21.291  28.001  1.00  0.00     0.059 A 
ATOM     56  F   UNL A   1      42.412  22.743  29.840  1.00  0.00    -0.206 F 
ATOM     57  C   UNL A   1      42.375  21.105  26.619  1.00  0.00     0.060 A 
BRANCH  57  58
ATOM     58  S   UNL A   1      42.319  19.440  25.921  1.00  0.00     0.124 S 
ATOM     59  O   UNL A   1      43.204  19.574  24.769  1.00  0.00    -0.237 OA
ATOM     60  O   UNL A   1      42.826  18.629  27.025  1.00  0.00    -0.237 OA
ATOM     61  O   UNL A   1      40.905  19.251  25.614  1.00  0.00    -0.744 OA
ENDBRANCH  57  58
ENDBRANCH  25  50
BRANCH  37  62
ATOM     62  C   UNL A   1      48.223  27.204  29.910  1.00  0.00     0.058 A 
ATOM     63  C   UNL A   1      49.176  27.492  28.922  1.00  0.00     0.135 A 
ATOM     64  C   UNL A   1      48.677  26.638  31.114  1.00  0.00     0.135 A 
ATOM     65  F   UNL A   1      48.793  28.024  27.750  1.00  0.00    -0.206 F 
ATOM     66  C   UNL A   1      50.528  27.233  29.120  1.00  0.00     0.059 A 
ATOM     67  C   UNL A   1      50.027  26.391  31.341  1.00  0.00     0.059 A 
ATOM     68  F   UNL A   1      47.807  26.347  32.094  1.00  0.00    -0.206 F 
ATOM     69  C   UNL A   1      50.946  26.690  30.337  1.00  0.00     0.060 A 
BRANCH  69  70
ATOM     70  S   UNL A   1      52.712  26.429  30.612  1.00  0.00     0.124 S 
ATOM     71  O   UNL A   1      52.707  25.251  31.472  1.00  0.00    -0.237 OA
ATOM     72  O   UNL A   1      53.212  26.222  29.256  1.00  0.00    -0.237 OA
ATOM     73  O   UNL A   1      53.144  27.670  31.248  1.00  0.00    -0.744 OA
ENDBRANCH  69  70
ENDBRANCH  37  62
ENDBRANCH  11  12
ENDBRANCH   4   6
ENDBRANCH   1   2
BRANCH   1  74
ATOM     74  C   UNL A   1      32.180  29.115  26.126  1.00  0.00     0.042 C 
BRANCH  74  75
ATOM     75  C   UNL A   1      32.306  28.020  25.059  1.00  0.00     0.117 C 
BRANCH  75  76
ATOM     76  N   UNL A   1      31.032  27.525  24.568  1.00  0.00    -0.355 N 
ATOM     77  C   UNL A   1      30.350  26.368  24.805  1.00  0.00     0.238 C 
ATOM     78  H   UNL A   1      30.577  28.140  23.947  1.00  0.00     0.163 HD
ATOM     79  O   UNL A   1      29.277  26.235  24.210  1.00  0.00    -0.273 OA
BRANCH  77  80
ATOM     80  C   UNL A   1      30.819  25.376  25.860  1.00  0.00     0.165 C 
ATOM     81  C   UNL A   1      29.646  24.614  26.518  1.00  0.00     0.063 C 
ATOM     82  N   UNL A   1      31.873  24.344  25.592  1.00  0.00    -0.183 NA
ATOM     83  C   UNL A   1      30.116  23.180  26.699  1.00  0.00     0.131 C 
ATOM     84  C   UNL A   1      31.639  23.292  26.627  1.00  0.00     0.135 C 
BRANCH  82  85
ATOM     85  S   UNL A   1      32.029  23.696  24.017  1.00  0.00     0.244 S 
ATOM     86  O   UNL A   1      30.706  23.386  23.531  1.00  0.00    -0.207 OA
ATOM     87  O   UNL A   1      32.935  24.510  23.238  1.00  0.00    -0.207 OA
BRANCH  85  88
ATOM     88  C   UNL A   1      32.879  22.165  24.367  1.00  0.00     0.086 A 
ATOM     89  C   UNL A   1      34.267  22.185  24.552  1.00  0.00     0.026 A 
ATOM     90  C   UNL A   1      32.181  20.958  24.419  1.00  0.00     0.072 A 
ATOM     91  C   UNL A   1      34.981  20.994  24.666  1.00  0.00     0.052 A 
ATOM     92  C   UNL A   1      32.894  19.772  24.604  1.00  0.00     0.162 A 
ATOM     93  C   UNL A   1      34.294  19.785  24.663  1.00  0.00     0.161 A 
ATOM     94  O   UNL A   1      32.160  18.618  24.714  1.00  0.00    -0.486 OA
ATOM     95  O   UNL A   1      35.059  18.650  24.732  1.00  0.00    -0.486 OA
ATOM     96  C   UNL A   1      32.967  17.527  25.195  1.00  0.00     0.271 C 
ATOM     97  C   UNL A   1      34.285  17.475  24.441  1.00  0.00     0.271 C 
ENDBRANCH  85  88
ENDBRANCH  82  85
BRANCH  83  98
ATOM     98  O   UNL A   1      29.667  22.656  27.938  1.00  0.00    -0.392 OA
ATOM     99  H   UNL A   1      30.431  22.458  28.502  1.00  0.00     0.211 HD
ENDBRANCH  83  98
ENDBRANCH  77  80
ENDBRANCH  75  76
ENDBRANCH  74  75
ENDBRANCH   1  74
TORSDOF 16
ENDMDL
MODEL 3
REMARK VINA RESULT:     -12.2      1.484      3.634
REMARK SMILES O=C(NCCCNC(=O)[C@H]1C[C@H](O)CN1S(=O)(=O)c1ccc2c(c1)OCCO2)c1ccc(-c2c3nc(c(-c4c(F)cc(S(=O)(=O)[O-])cc4F)c4ccc([nH]4)c(-c4c(F)cc(S(=O)(=O)[O-])cc4F)c4nc(c(-c5c(F)cc(S(=O)(=O)[O-])cc5F)c5ccc2[nH]5)C=C4)C=C3)cc1
REMARK SMILES IDX 4 1 3 2 1 3 2 4 29 6 30 7 94 8 31 9 93 10 32 11 33 12 34 13
REMARK SMILES IDX 87 14 35 15 92 16 86 17 88 18 36 19 91 20 85 21 84 22 37 24
REMARK SMILES IDX 71 25 50 26 70 27 51 28 54 29 69 30 89 31 52 32 53 33 68 35
REMARK SMILES IDX 90 36 55 37 38 38 39 39 48 40 40 41 41 42 47 43 49 44 42 45
REMARK SMILES IDX 43 46 44 47 45 48 46 49 72 50 73 51 82 52 74 53 75 54 81 55
REMARK SMILES IDX 83 56 76 57 77 58 78 59 79 60 80 61 56 62 57 63 66 64 58 65
REMARK SMILES IDX 59 66 65 67 67 68 60 69 61 70 62 71 63 72 64 73 5 74 6 75
REMARK SMILES IDX 7 76 8 77 9 79 10 80 11 81 15 82 12 83 14 84 16 85 17 86
REMARK SMILES IDX 18 87 19 88 20 89 24 90 21 91 23 92 22 93 25 94 28 95 26 96
REMARK SMILES IDX 27 97 13 98
REMARK H PARENT 3 5 88 23 54 34 7 78 13 99
REMARK Flexibility Score: inf
ROOT
ATOM      1  C   UNL A   1      32.999  28.839  27.356  1.00  0.00     0.118 C 
ENDROOT
BRANCH   1   2
ATOM      2  N   UNL A   1      33.306  30.226  27.637  1.00  0.00    -0.352 N 
ATOM      3  O   UNL A   1      34.275  31.926  28.701  1.00  0.00    -0.269 OA
ATOM      4  C   UNL A   1      34.403  30.793  28.234  1.00  0.00     0.251 C 
ATOM      5  H   UNL A   1      32.615  30.868  27.353  1.00  0.00     0.163 HD
BRANCH   4   6
ATOM      6  C   UNL A   1      35.721  30.109  28.337  1.00  0.00     0.039 A 
ATOM      7  C   UNL A   1      36.652  30.090  27.294  1.00  0.00     0.014 A 
ATOM      8  C   UNL A   1      36.109  29.636  29.597  1.00  0.00     0.014 A 
ATOM      9  C   UNL A   1      37.945  29.587  27.504  1.00  0.00     0.010 A 
ATOM     10  C   UNL A   1      37.417  29.190  29.823  1.00  0.00     0.010 A 
ATOM     11  C   UNL A   1      38.356  29.176  28.782  1.00  0.00    -0.014 A 
BRANCH  11  12
ATOM     12  C   UNL A   1      39.783  28.855  29.073  1.00  0.00     0.031 A 
ATOM     13  C   UNL A   1      40.725  29.903  29.598  1.00  0.00     0.074 A 
ATOM     14  C   UNL A   1      40.260  27.629  28.774  1.00  0.00     0.049 A 
ATOM     15  N   UNL A   1      42.019  29.829  29.790  1.00  0.00    -0.248 NA
ATOM     16  C   UNL A   1      40.140  31.208  29.935  1.00  0.00     0.031 C 
ATOM     17  C   UNL A   1      39.466  26.527  28.227  1.00  0.00     0.029 A 
ATOM     18  N   UNL A   1      41.529  27.108  28.863  1.00  0.00    -0.354 N 
ATOM     19  C   UNL A   1      42.408  31.079  30.254  1.00  0.00     0.074 A 
ATOM     20  C   UNL A   1      41.215  31.901  30.284  1.00  0.00     0.031 C 
ATOM     21  C   UNL A   1      40.260  25.463  28.036  1.00  0.00     0.029 A 
ATOM     22  C   UNL A   1      41.631  25.819  28.394  1.00  0.00     0.049 A 
ATOM     23  H   UNL A   1      42.294  27.609  29.228  1.00  0.00     0.167 HD
ATOM     24  C   UNL A   1      43.643  31.502  30.626  1.00  0.00     0.037 A 
ATOM     25  C   UNL A   1      42.702  25.015  28.235  1.00  0.00     0.037 A 
ATOM     26  C   UNL A   1      44.829  30.685  30.595  1.00  0.00     0.049 A 
ATOM     27  C   UNL A   1      44.065  25.508  28.632  1.00  0.00     0.074 A 
ATOM     28  C   UNL A   1      46.115  31.019  30.987  1.00  0.00     0.029 A 
ATOM     29  N   UNL A   1      44.882  29.376  30.136  1.00  0.00    -0.354 N 
ATOM     30  N   UNL A   1      44.406  26.680  29.111  1.00  0.00    -0.248 NA
ATOM     31  C   UNL A   1      45.188  24.573  28.471  1.00  0.00     0.031 C 
ATOM     32  C   UNL A   1      46.952  29.928  30.725  1.00  0.00     0.029 A 
ATOM     33  C   UNL A   1      46.180  28.897  30.217  1.00  0.00     0.049 A 
ATOM     34  H   UNL A   1      44.111  28.864  29.800  1.00  0.00     0.167 HD
ATOM     35  C   UNL A   1      45.777  26.615  29.334  1.00  0.00     0.074 A 
ATOM     36  C   UNL A   1      46.204  25.289  28.937  1.00  0.00     0.031 C 
ATOM     37  C   UNL A   1      46.601  27.570  29.832  1.00  0.00     0.037 A 
BRANCH  24  38
ATOM     38  C   UNL A   1      43.772  32.930  31.081  1.00  0.00     0.058 A 
ATOM     39  C   UNL A   1      44.078  33.964  30.182  1.00  0.00     0.135 A 
ATOM     40  C   UNL A   1      43.592  33.270  32.432  1.00  0.00     0.135 A 
ATOM     41  F   UNL A   1      44.269  33.698  28.881  1.00  0.00    -0.206 F 
ATOM     42  C   UNL A   1      44.259  35.273  30.616  1.00  0.00     0.059 A 
ATOM     43  C   UNL A   1      43.742  34.578  32.885  1.00  0.00     0.059 A 
ATOM     44  F   UNL A   1      43.286  32.323  33.333  1.00  0.00    -0.206 F 
ATOM     45  C   UNL A   1      44.104  35.567  31.971  1.00  0.00     0.060 A 
BRANCH  45  46
ATOM     46  S   UNL A   1      44.442  37.251  32.521  1.00  0.00     0.124 S 
ATOM     47  O   UNL A   1      45.748  37.082  33.156  1.00  0.00    -0.237 OA
ATOM     48  O   UNL A   1      44.445  37.995  31.266  1.00  0.00    -0.237 OA
ATOM     49  O   UNL A   1      43.335  37.546  33.424  1.00  0.00    -0.744 OA
ENDBRANCH  45  46
ENDBRANCH  24  38
BRANCH  25  50
ATOM     50  C   UNL A   1      42.509  23.652  27.675  1.00  0.00     0.058 A 
ATOM     51  C   UNL A   1      42.525  23.431  26.291  1.00  0.00     0.135 A 
ATOM     52  C   UNL A   1      42.376  22.535  28.516  1.00  0.00     0.135 A 
ATOM     53  F   UNL A   1      42.639  24.467  25.447  1.00  0.00    -0.206 F 
ATOM     54  C   UNL A   1      42.428  22.148  25.758  1.00  0.00     0.059 A 
ATOM     55  C   UNL A   1      42.301  21.242  28.008  1.00  0.00     0.059 A 
ATOM     56  F   UNL A   1      42.367  22.694  29.848  1.00  0.00    -0.206 F 
ATOM     57  C   UNL A   1      42.328  21.059  26.625  1.00  0.00     0.060 A 
BRANCH  57  58
ATOM     58  S   UNL A   1      42.300  19.394  25.926  1.00  0.00     0.124 S 
ATOM     59  O   UNL A   1      42.803  18.599  27.040  1.00  0.00    -0.237 OA
ATOM     60  O   UNL A   1      40.886  19.220  25.605  1.00  0.00    -0.237 OA
ATOM     61  O   UNL A   1      43.188  19.499  24.772  1.00  0.00    -0.744 OA
ENDBRANCH  57  58
ENDBRANCH  25  50
BRANCH  37  62
ATOM     62  C   UNL A   1      48.049  27.217  30.027  1.00  0.00     0.058 A 
ATOM     63  C   UNL A   1      49.031  27.567  29.089  1.00  0.00     0.135 A 
ATOM     64  C   UNL A   1      48.470  26.598  31.217  1.00  0.00     0.135 A 
ATOM     65  F   UNL A   1      48.682  28.152  27.932  1.00  0.00    -0.206 F 
ATOM     66  C   UNL A   1      50.380  27.317  29.322  1.00  0.00     0.059 A 
ATOM     67  C   UNL A   1      49.815  26.359  31.480  1.00  0.00     0.059 A 
ATOM     68  F   UNL A   1      47.571  26.246  32.149  1.00  0.00    -0.206 F 
ATOM     69  C   UNL A   1      50.764  26.720  30.525  1.00  0.00     0.060 A 
BRANCH  69  70
ATOM     70  S   UNL A   1      52.523  26.470  30.849  1.00  0.00     0.124 S 
ATOM     71  O   UNL A   1      53.049  26.288  29.501  1.00  0.00    -0.237 OA
ATOM     72  O   UNL A   1      52.898  27.715  31.514  1.00  0.00    -0.237 OA
ATOM     73  O   UNL A   1      52.547  25.283  31.699  1.00  0.00    -0.744 OA
ENDBRANCH  69  70
ENDBRANCH  37  62
ENDBRANCH  11  12
ENDBRANCH   4   6
ENDBRANCH   1   2
BRANCH   1  74
ATOM     74  C   UNL A   1      33.483  28.442  25.964  1.00  0.00     0.042 C 
BRANCH  74  75
ATOM     75  C   UNL A   1      32.403  28.313  24.883  1.00  0.00     0.117 C 
BRANCH  75  76
ATOM     76  N   UNL A   1      31.241  27.547  25.298  1.00  0.00    -0.355 N 
ATOM     77  C   UNL A   1      30.611  26.471  24.744  1.00  0.00     0.238 C 
ATOM     78  H   UNL A   1      30.831  27.863  26.137  1.00  0.00     0.163 HD
ATOM     79  O   UNL A   1      29.618  26.051  25.344  1.00  0.00    -0.273 OA
BRANCH  77  80
ATOM     80  C   UNL A   1      31.198  25.747  23.540  1.00  0.00     0.165 C 
ATOM     81  C   UNL A   1      31.811  26.719  22.507  1.00  0.00     0.063 C 
ATOM     82  N   UNL A   1      32.180  24.621  23.669  1.00  0.00    -0.183 NA
ATOM     83  C   UNL A   1      33.082  26.059  22.000  1.00  0.00     0.131 C 
ATOM     84  C   UNL A   1      32.882  24.584  22.351  1.00  0.00     0.135 C 
BRANCH  82  85
ATOM     85  S   UNL A   1      33.260  24.601  24.993  1.00  0.00     0.244 S 
ATOM     86  O   UNL A   1      34.424  25.374  24.631  1.00  0.00    -0.207 OA
ATOM     87  O   UNL A   1      32.542  24.869  26.219  1.00  0.00    -0.207 OA
BRANCH  85  88
ATOM     88  C   UNL A   1      33.715  22.874  25.029  1.00  0.00     0.086 A 
ATOM     89  C   UNL A   1      35.068  22.524  24.946  1.00  0.00     0.026 A 
ATOM     90  C   UNL A   1      32.736  21.881  25.099  1.00  0.00     0.072 A 
ATOM     91  C   UNL A   1      35.445  21.190  24.809  1.00  0.00     0.052 A 
ATOM     92  C   UNL A   1      33.126  20.542  25.032  1.00  0.00     0.162 A 
ATOM     93  C   UNL A   1      34.469  20.201  24.824  1.00  0.00     0.161 A 
ATOM     94  O   UNL A   1      32.138  19.601  25.171  1.00  0.00    -0.486 OA
ATOM     95  O   UNL A   1      34.904  18.914  24.639  1.00  0.00    -0.486 OA
ATOM     96  C   UNL A   1      32.689  18.289  25.384  1.00  0.00     0.271 C 
ATOM     97  C   UNL A   1      33.807  18.019  24.391  1.00  0.00     0.271 C 
ENDBRANCH  85  88
ENDBRANCH  82  85
BRANCH  83  98
ATOM     98  O   UNL A   1      33.239  26.270  20.606  1.00  0.00    -0.392 OA
ATOM     99  H   UNL A   1      32.432  26.670  20.247  1.00  0.00     0.211 HD
ENDBRANCH  83  98
ENDBRANCH  77  80
ENDBRANCH  75  76
ENDBRANCH  74  75
ENDBRANCH   1  74
TORSDOF 16
ENDMDL
