MODEL 1
REMARK VINA RESULT:     -12.7      0.000      0.000
REMARK SMILES O=C(NCCCNC(=O)[C@H]1[NH2+]CC[C@H]1c1cccc(Oc2ccccc2)c1)c1ccc(-c2c3nc(c(-c4c(F)cc(S(=O)(=O)[O-])cc4F)c4ccc([nH]4)c(-c4c(F)cc(S(=O)(=O)[O-])cc4F)c4nc(c(-c5c(F)cc(S(=O)(=O)[O-])cc5F)c5ccc2[nH]5)C=C4)C=C3)cc1
REMARK SMILES IDX 5 1 4 2 3 3 1 4 2 5 28 7 29 8 93 9 30 10 92 11 31 12 32 13
REMARK SMILES IDX 33 14 86 15 34 16 91 17 85 18 87 19 35 20 90 21 84 22 83 23
REMARK SMILES IDX 36 25 70 26 49 27 69 28 50 29 53 30 68 31 88 32 51 33 52 34
REMARK SMILES IDX 67 36 89 37 54 38 37 39 38 40 47 41 39 42 40 43 46 44 48 45
REMARK SMILES IDX 41 46 42 47 43 48 44 49 45 50 71 51 72 52 81 53 73 54 74 55
REMARK SMILES IDX 80 56 82 57 75 58 76 59 77 60 78 61 79 62 55 63 56 64 65 65
REMARK SMILES IDX 57 66 58 67 64 68 66 69 59 70 60 71 61 72 62 73 63 74 6 75
REMARK SMILES IDX 7 76 8 77 9 79 10 80 11 81 14 82 12 83 13 86 15 87 16 88
REMARK SMILES IDX 27 89 17 90 19 91 18 92 20 93 21 94 22 95 26 96 23 97 25 98
REMARK SMILES IDX 24 99
REMARK H PARENT 3 6 87 24 53 35 7 78 11 84 11 85
REMARK Flexibility Score: inf
ROOT
ATOM      1  C   UNL A   1      37.418  23.704  25.297  1.00  0.00     0.042 C 
ENDROOT
BRANCH   1   2
ATOM      2  C   UNL A   1      38.325  24.201  26.417  1.00  0.00     0.118 C 
BRANCH   2   3
ATOM      3  N   UNL A   1      39.733  23.911  26.170  1.00  0.00    -0.352 N 
ATOM      4  O   UNL A   1      41.947  24.297  26.092  1.00  0.00    -0.269 OA
ATOM      5  C   UNL A   1      40.855  24.587  26.576  1.00  0.00     0.251 C 
ATOM      6  H   UNL A   1      39.904  23.106  25.629  1.00  0.00     0.163 HD
BRANCH   5   7
ATOM      7  C   UNL A   1      40.751  25.661  27.586  1.00  0.00     0.039 A 
ATOM      8  C   UNL A   1      39.794  25.588  28.600  1.00  0.00     0.014 A 
ATOM      9  C   UNL A   1      41.651  26.730  27.547  1.00  0.00     0.014 A 
ATOM     10  C   UNL A   1      39.656  26.637  29.500  1.00  0.00     0.010 A 
ATOM     11  C   UNL A   1      41.570  27.741  28.509  1.00  0.00     0.010 A 
ATOM     12  C   UNL A   1      40.565  27.706  29.487  1.00  0.00    -0.014 A 
BRANCH  12  13
ATOM     13  C   UNL A   1      40.525  28.696  30.592  1.00  0.00     0.031 A 
ATOM     14  C   UNL A   1      41.440  28.587  31.778  1.00  0.00     0.074 A 
ATOM     15  C   UNL A   1      39.635  29.705  30.500  1.00  0.00     0.049 A 
ATOM     16  N   UNL A   1      41.514  29.368  32.825  1.00  0.00    -0.248 NA
ATOM     17  C   UNL A   1      42.388  27.462  31.800  1.00  0.00     0.031 C 
ATOM     18  C   UNL A   1      38.681  29.886  29.399  1.00  0.00     0.029 A 
ATOM     19  N   UNL A   1      39.383  30.766  31.330  1.00  0.00    -0.354 N 
ATOM     20  C   UNL A   1      42.497  28.822  33.642  1.00  0.00     0.074 A 
ATOM     21  C   UNL A   1      42.988  27.636  32.973  1.00  0.00     0.031 C 
ATOM     22  C   UNL A   1      37.969  31.002  29.610  1.00  0.00     0.029 A 
ATOM     23  C   UNL A   1      38.362  31.576  30.890  1.00  0.00     0.049 A 
ATOM     24  H   UNL A   1      39.884  30.932  32.161  1.00  0.00     0.167 HD
ATOM     25  C   UNL A   1      42.942  29.277  34.837  1.00  0.00     0.037 A 
ATOM     26  C   UNL A   1      37.776  32.640  31.468  1.00  0.00     0.037 A 
ATOM     27  C   UNL A   1      42.456  30.475  35.476  1.00  0.00     0.049 A 
ATOM     28  C   UNL A   1      38.278  33.101  32.806  1.00  0.00     0.074 A 
ATOM     29  C   UNL A   1      42.901  31.062  36.648  1.00  0.00     0.029 A 
ATOM     30  N   UNL A   1      41.409  31.258  35.011  1.00  0.00    -0.354 N 
ATOM     31  N   UNL A   1      39.263  32.618  33.525  1.00  0.00    -0.248 NA
ATOM     32  C   UNL A   1      37.586  34.241  33.419  1.00  0.00     0.031 C 
ATOM     33  C   UNL A   1      42.085  32.163  36.924  1.00  0.00     0.029 A 
ATOM     34  C   UNL A   1      41.166  32.295  35.897  1.00  0.00     0.049 A 
ATOM     35  H   UNL A   1      40.913  31.099  34.176  1.00  0.00     0.167 HD
ATOM     36  C   UNL A   1      39.312  33.399  34.672  1.00  0.00     0.074 A 
ATOM     37  C   UNL A   1      38.280  34.406  34.535  1.00  0.00     0.031 C 
ATOM     38  C   UNL A   1      40.130  33.287  35.747  1.00  0.00     0.037 A 
BRANCH  25  39
ATOM     39  C   UNL A   1      44.000  28.490  35.560  1.00  0.00     0.058 A 
ATOM     40  C   UNL A   1      45.367  28.756  35.390  1.00  0.00     0.135 A 
ATOM     41  C   UNL A   1      43.633  27.540  36.529  1.00  0.00     0.135 A 
ATOM     42  F   UNL A   1      45.774  29.642  34.469  1.00  0.00    -0.206 F 
ATOM     43  C   UNL A   1      46.333  28.112  36.159  1.00  0.00     0.059 A 
ATOM     44  C   UNL A   1      44.580  26.900  37.323  1.00  0.00     0.059 A 
ATOM     45  F   UNL A   1      42.338  27.246  36.728  1.00  0.00    -0.206 F 
ATOM     46  C   UNL A   1      45.929  27.194  37.131  1.00  0.00     0.060 A 
BRANCH  46  47
ATOM     47  S   UNL A   1      47.192  26.416  38.160  1.00  0.00     0.124 S 
ATOM     48  O   UNL A   1      46.565  25.135  38.474  1.00  0.00    -0.237 OA
ATOM     49  O   UNL A   1      48.336  26.356  37.256  1.00  0.00    -0.237 OA
ATOM     50  O   UNL A   1      47.332  27.336  39.284  1.00  0.00    -0.744 OA
ENDBRANCH  46  47
ENDBRANCH  25  39
BRANCH  26  51
ATOM     51  C   UNL A   1      36.619  33.303  30.813  1.00  0.00     0.058 A 
ATOM     52  C   UNL A   1      36.793  34.156  29.713  1.00  0.00     0.135 A 
ATOM     53  C   UNL A   1      35.311  33.104  31.285  1.00  0.00     0.135 A 
ATOM     54  F   UNL A   1      38.023  34.379  29.225  1.00  0.00    -0.206 F 
ATOM     55  C   UNL A   1      35.717  34.815  29.127  1.00  0.00     0.059 A 
ATOM     56  C   UNL A   1      34.217  33.725  30.696  1.00  0.00     0.059 A 
ATOM     57  F   UNL A   1      35.087  32.280  32.321  1.00  0.00    -0.206 F 
ATOM     58  C   UNL A   1      34.434  34.597  29.630  1.00  0.00     0.060 A 
BRANCH  58  59
ATOM     59  S   UNL A   1      33.042  35.453  28.862  1.00  0.00     0.124 S 
ATOM     60  O   UNL A   1      32.437  34.381  28.081  1.00  0.00    -0.237 OA
ATOM     61  O   UNL A   1      32.282  35.907  30.022  1.00  0.00    -0.237 OA
ATOM     62  O   UNL A   1      33.686  36.511  28.089  1.00  0.00    -0.744 OA
ENDBRANCH  58  59
ENDBRANCH  26  51
BRANCH  38  63
ATOM     63  C   UNL A   1      39.943  34.283  36.856  1.00  0.00     0.058 A 
ATOM     64  C   UNL A   1      40.541  35.552  36.807  1.00  0.00     0.135 A 
ATOM     65  C   UNL A   1      39.123  33.984  37.955  1.00  0.00     0.135 A 
ATOM     66  F   UNL A   1      41.344  35.881  35.782  1.00  0.00    -0.206 F 
ATOM     67  C   UNL A   1      40.350  36.483  37.820  1.00  0.00     0.059 A 
ATOM     68  C   UNL A   1      38.894  34.911  38.965  1.00  0.00     0.059 A 
ATOM     69  F   UNL A   1      38.523  32.786  38.046  1.00  0.00    -0.206 F 
ATOM     70  C   UNL A   1      39.519  36.155  38.894  1.00  0.00     0.060 A 
BRANCH  70  71
ATOM     71  S   UNL A   1      39.247  37.389  40.182  1.00  0.00     0.124 S 
ATOM     72  O   UNL A   1      40.586  37.944  40.348  1.00  0.00    -0.237 OA
ATOM     73  O   UNL A   1      38.265  38.275  39.563  1.00  0.00    -0.237 OA
ATOM     74  O   UNL A   1      38.749  36.602  41.307  1.00  0.00    -0.744 OA
ENDBRANCH  70  71
ENDBRANCH  38  63
ENDBRANCH  12  13
ENDBRANCH   5   7
ENDBRANCH   2   3
ENDBRANCH   1   2
BRANCH   1  75
ATOM     75  C   UNL A   1      36.847  22.316  25.543  1.00  0.00     0.118 C 
BRANCH  75  76
ATOM     76  N   UNL A   1      35.820  22.312  26.567  1.00  0.00    -0.351 N 
ATOM     77  C   UNL A   1      34.669  21.581  26.632  1.00  0.00     0.278 C 
ATOM     78  H   UNL A   1      35.975  22.924  27.323  1.00  0.00     0.163 HD
ATOM     79  O   UNL A   1      34.153  21.453  27.743  1.00  0.00    -0.268 OA
BRANCH  77  80
ATOM     80  C   UNL A   1      34.140  20.868  25.372  1.00  0.00     0.280 C 
ATOM     81  N   UNL A   1      33.426  19.633  25.801  1.00  0.00    -0.335 N 
ATOM     82  C   UNL A   1      33.164  21.604  24.430  1.00  0.00     0.093 C 
ATOM     83  C   UNL A   1      32.507  19.288  24.712  1.00  0.00     0.262 C 
ATOM     84  H   UNL A   1      32.906  19.806  26.660  1.00  0.00     0.346 HD
ATOM     85  H   UNL A   1      34.081  18.873  25.987  1.00  0.00     0.346 HD
ATOM     86  C   UNL A   1      32.580  20.404  23.678  1.00  0.00     0.076 C 
BRANCH  82  87
ATOM     87  C   UNL A   1      32.158  22.567  25.042  1.00  0.00    -0.034 A 
ATOM     88  C   UNL A   1      31.172  22.212  25.971  1.00  0.00     0.004 A 
ATOM     89  C   UNL A   1      32.199  23.906  24.613  1.00  0.00     0.051 A 
ATOM     90  C   UNL A   1      30.275  23.168  26.460  1.00  0.00     0.004 A 
ATOM     91  C   UNL A   1      31.327  24.876  25.117  1.00  0.00     0.127 A 
ATOM     92  C   UNL A   1      30.357  24.496  26.040  1.00  0.00     0.047 A 
BRANCH  91  93
ATOM     93  O   UNL A   1      31.347  26.217  24.782  1.00  0.00    -0.457 OA
BRANCH  93  94
ATOM     94  C   UNL A   1      32.051  27.072  25.595  1.00  0.00     0.127 A 
ATOM     95  C   UNL A   1      33.369  27.386  25.263  1.00  0.00     0.047 A 
ATOM     96  C   UNL A   1      31.471  27.588  26.757  1.00  0.00     0.047 A 
ATOM     97  C   UNL A   1      34.093  28.265  26.069  1.00  0.00     0.004 A 
ATOM     98  C   UNL A   1      32.190  28.484  27.548  1.00  0.00     0.004 A 
ATOM     99  C   UNL A   1      33.499  28.823  27.204  1.00  0.00     0.000 A 
ENDBRANCH  93  94
ENDBRANCH  91  93
ENDBRANCH  82  87
ENDBRANCH  77  80
ENDBRANCH  75  76
ENDBRANCH   1  75
TORSDOF 16
ENDMDL
MODEL 2
REMARK VINA RESULT:     -12.4      4.720      9.945
REMARK SMILES O=C(NCCCNC(=O)[C@H]1[NH2+]CC[C@H]1c1cccc(Oc2ccccc2)c1)c1ccc(-c2c3nc(c(-c4c(F)cc(S(=O)(=O)[O-])cc4F)c4ccc([nH]4)c(-c4c(F)cc(S(=O)(=O)[O-])cc4F)c4nc(c(-c5c(F)cc(S(=O)(=O)[O-])cc5F)c5ccc2[nH]5)C=C4)C=C3)cc1
REMARK SMILES IDX 5 1 4 2 3 3 1 4 2 5 28 7 29 8 93 9 30 10 92 11 31 12 32 13
REMARK SMILES IDX 33 14 86 15 34 16 91 17 85 18 87 19 35 20 90 21 84 22 83 23
REMARK SMILES IDX 36 25 70 26 49 27 69 28 50 29 53 30 68 31 88 32 51 33 52 34
REMARK SMILES IDX 67 36 89 37 54 38 37 39 38 40 47 41 39 42 40 43 46 44 48 45
REMARK SMILES IDX 41 46 42 47 43 48 44 49 45 50 71 51 72 52 81 53 73 54 74 55
REMARK SMILES IDX 80 56 82 57 75 58 76 59 77 60 78 61 79 62 55 63 56 64 65 65
REMARK SMILES IDX 57 66 58 67 64 68 66 69 59 70 60 71 61 72 62 73 63 74 6 75
REMARK SMILES IDX 7 76 8 77 9 79 10 80 11 81 14 82 12 83 13 86 15 87 16 88
REMARK SMILES IDX 27 89 17 90 19 91 18 92 20 93 21 94 22 95 26 96 23 97 25 98
REMARK SMILES IDX 24 99
REMARK H PARENT 3 6 87 24 53 35 7 78 11 84 11 85
REMARK Flexibility Score: inf
ROOT
ATOM      1  C   UNL A   1      33.989  28.297  25.640  1.00  0.00     0.042 C 
ENDROOT
BRANCH   1   2
ATOM      2  C   UNL A   1      33.668  28.424  27.125  1.00  0.00     0.118 C 
BRANCH   2   3
ATOM      3  N   UNL A   1      33.567  29.812  27.561  1.00  0.00    -0.352 N 
ATOM      4  O   UNL A   1      34.118  31.675  28.695  1.00  0.00    -0.269 OA
ATOM      5  C   UNL A   1      34.471  30.589  28.238  1.00  0.00     0.251 C 
ATOM      6  H   UNL A   1      32.719  30.259  27.336  1.00  0.00     0.163 HD
BRANCH   5   7
ATOM      7  C   UNL A   1      35.862  30.123  28.422  1.00  0.00     0.039 A 
ATOM      8  C   UNL A   1      36.791  30.245  27.387  1.00  0.00     0.014 A 
ATOM      9  C   UNL A   1      36.254  29.603  29.659  1.00  0.00     0.014 A 
ATOM     10  C   UNL A   1      38.074  29.737  27.543  1.00  0.00     0.010 A 
ATOM     11  C   UNL A   1      37.572  29.176  29.845  1.00  0.00     0.010 A 
ATOM     12  C   UNL A   1      38.490  29.231  28.785  1.00  0.00    -0.014 A 
BRANCH  12  13
ATOM     13  C   UNL A   1      39.922  28.901  28.983  1.00  0.00     0.031 A 
ATOM     14  C   UNL A   1      40.485  27.568  28.580  1.00  0.00     0.074 A 
ATOM     15  C   UNL A   1      40.712  29.840  29.543  1.00  0.00     0.049 A 
ATOM     16  N   UNL A   1      41.712  27.130  28.701  1.00  0.00    -0.248 NA
ATOM     17  C   UNL A   1      39.560  26.600  27.969  1.00  0.00     0.031 C 
ATOM     18  C   UNL A   1      40.256  31.159  29.996  1.00  0.00     0.029 A 
ATOM     19  N   UNL A   1      42.053  29.841  29.827  1.00  0.00    -0.354 N 
ATOM     20  C   UNL A   1      41.707  25.832  28.204  1.00  0.00     0.074 A 
ATOM     21  C   UNL A   1      40.350  25.548  27.786  1.00  0.00     0.031 C 
ATOM     22  C   UNL A   1      41.302  31.848  30.474  1.00  0.00     0.029 A 
ATOM     23  C   UNL A   1      42.485  30.999  30.429  1.00  0.00     0.049 A 
ATOM     24  H   UNL A   1      42.649  29.085  29.618  1.00  0.00     0.167 HD
ATOM     25  C   UNL A   1      42.744  24.967  28.110  1.00  0.00     0.037 A 
ATOM     26  C   UNL A   1      43.689  31.331  30.930  1.00  0.00     0.037 A 
ATOM     27  C   UNL A   1      44.093  25.278  28.510  1.00  0.00     0.049 A 
ATOM     28  C   UNL A   1      44.809  30.336  30.831  1.00  0.00     0.074 A 
ATOM     29  C   UNL A   1      45.228  24.496  28.378  1.00  0.00     0.029 A 
ATOM     30  N   UNL A   1      44.489  26.452  29.135  1.00  0.00    -0.354 N 
ATOM     31  N   UNL A   1      44.803  29.143  30.284  1.00  0.00    -0.248 NA
ATOM     32  C   UNL A   1      46.096  30.722  31.424  1.00  0.00     0.031 C 
ATOM     33  C   UNL A   1      46.297  25.170  28.977  1.00  0.00     0.029 A 
ATOM     34  C   UNL A   1      45.841  26.395  29.434  1.00  0.00     0.049 A 
ATOM     35  H   UNL A   1      43.897  27.212  29.336  1.00  0.00     0.167 HD
ATOM     36  C   UNL A   1      46.085  28.640  30.463  1.00  0.00     0.074 A 
ATOM     37  C   UNL A   1      46.848  29.670  31.137  1.00  0.00     0.031 C 
ATOM     38  C   UNL A   1      46.583  27.430  30.110  1.00  0.00     0.037 A 
BRANCH  25  39
ATOM     39  C   UNL A   1      42.486  23.589  27.565  1.00  0.00     0.058 A 
ATOM     40  C   UNL A   1      42.512  23.319  26.188  1.00  0.00     0.135 A 
ATOM     41  C   UNL A   1      42.333  22.501  28.442  1.00  0.00     0.135 A 
ATOM     42  F   UNL A   1      42.640  24.322  25.305  1.00  0.00    -0.206 F 
ATOM     43  C   UNL A   1      42.402  22.020  25.700  1.00  0.00     0.059 A 
ATOM     44  C   UNL A   1      42.241  21.193  27.978  1.00  0.00     0.059 A 
ATOM     45  F   UNL A   1      42.297  22.705  29.769  1.00  0.00    -0.206 F 
ATOM     46  C   UNL A   1      42.278  20.962  26.604  1.00  0.00     0.060 A 
BRANCH  46  47
ATOM     47  S   UNL A   1      42.199  19.279  25.955  1.00  0.00     0.124 S 
ATOM     48  O   UNL A   1      40.768  19.127  25.708  1.00  0.00    -0.237 OA
ATOM     49  O   UNL A   1      43.040  19.365  24.765  1.00  0.00    -0.237 OA
ATOM     50  O   UNL A   1      42.736  18.467  27.042  1.00  0.00    -0.744 OA
ENDBRANCH  46  47
ENDBRANCH  25  39
BRANCH  26  51
ATOM     51  C   UNL A   1      43.879  32.635  31.616  1.00  0.00     0.058 A 
ATOM     52  C   UNL A   1      43.671  32.771  32.995  1.00  0.00     0.135 A 
ATOM     53  C   UNL A   1      44.263  33.779  30.897  1.00  0.00     0.135 A 
ATOM     54  F   UNL A   1      43.303  31.707  33.727  1.00  0.00    -0.206 F 
ATOM     55  C   UNL A   1      43.803  34.000  33.633  1.00  0.00     0.059 A 
ATOM     56  C   UNL A   1      44.433  35.010  31.516  1.00  0.00     0.059 A 
ATOM     57  F   UNL A   1      44.496  33.699  29.577  1.00  0.00    -0.206 F 
ATOM     58  C   UNL A   1      44.179  35.115  32.883  1.00  0.00     0.060 A 
BRANCH  58  59
ATOM     59  S   UNL A   1      44.351  36.707  33.717  1.00  0.00     0.124 S 
ATOM     60  O   UNL A   1      44.972  37.515  32.675  1.00  0.00    -0.237 OA
ATOM     61  O   UNL A   1      42.966  37.036  34.042  1.00  0.00    -0.237 OA
ATOM     62  O   UNL A   1      45.199  36.393  34.864  1.00  0.00    -0.744 OA
ENDBRANCH  58  59
ENDBRANCH  26  51
BRANCH  38  63
ATOM     63  C   UNL A   1      48.023  27.159  30.444  1.00  0.00     0.058 A 
ATOM     64  C   UNL A   1      49.060  27.575  29.595  1.00  0.00     0.135 A 
ATOM     65  C   UNL A   1      48.370  26.519  31.644  1.00  0.00     0.135 A 
ATOM     66  F   UNL A   1      48.779  28.181  28.430  1.00  0.00    -0.206 F 
ATOM     67  C   UNL A   1      50.393  27.346  29.914  1.00  0.00     0.059 A 
ATOM     68  C   UNL A   1      49.698  26.306  31.997  1.00  0.00     0.059 A 
ATOM     69  F   UNL A   1      47.416  26.107  32.493  1.00  0.00    -0.206 F 
ATOM     70  C   UNL A   1      50.703  26.715  31.121  1.00  0.00     0.060 A 
BRANCH  70  71
ATOM     71  S   UNL A   1      52.440  26.462  31.541  1.00  0.00     0.124 S 
ATOM     72  O   UNL A   1      52.352  25.385  32.522  1.00  0.00    -0.237 OA
ATOM     73  O   UNL A   1      53.023  26.100  30.252  1.00  0.00    -0.237 OA
ATOM     74  O   UNL A   1      52.855  27.759  32.067  1.00  0.00    -0.744 OA
ENDBRANCH  70  71
ENDBRANCH  38  63
ENDBRANCH  12  13
ENDBRANCH   5   7
ENDBRANCH   2   3
ENDBRANCH   1   2
BRANCH   1  75
ATOM     75  C   UNL A   1      32.758  28.228  24.751  1.00  0.00     0.118 C 
BRANCH  75  76
ATOM     76  N   UNL A   1      32.835  27.154  23.779  1.00  0.00    -0.351 N 
ATOM     77  C   UNL A   1      32.286  25.905  23.828  1.00  0.00     0.278 C 
ATOM     78  H   UNL A   1      33.358  27.354  22.969  1.00  0.00     0.163 HD
ATOM     79  O   UNL A   1      32.156  25.312  22.756  1.00  0.00    -0.268 OA
BRANCH  77  80
ATOM     80  C   UNL A   1      31.758  25.350  25.165  1.00  0.00     0.280 C 
ATOM     81  N   UNL A   1      30.679  24.367  24.869  1.00  0.00    -0.335 N 
ATOM     82  C   UNL A   1      32.724  24.627  26.128  1.00  0.00     0.093 C 
ATOM     83  C   UNL A   1      30.584  23.491  26.041  1.00  0.00     0.262 C 
ATOM     84  H   UNL A   1      30.917  23.822  24.040  1.00  0.00     0.346 HD
ATOM     85  H   UNL A   1      29.792  24.835  24.684  1.00  0.00     0.346 HD
ATOM     86  C   UNL A   1      31.707  23.876  26.995  1.00  0.00     0.076 C 
BRANCH  82  87
ATOM     87  C   UNL A   1      33.844  23.790  25.531  1.00  0.00    -0.034 A 
ATOM     88  C   UNL A   1      34.894  24.294  24.753  1.00  0.00     0.004 A 
ATOM     89  C   UNL A   1      33.801  22.400  25.747  1.00  0.00     0.051 A 
ATOM     90  C   UNL A   1      35.868  23.438  24.228  1.00  0.00     0.004 A 
ATOM     91  C   UNL A   1      34.784  21.539  25.252  1.00  0.00     0.127 A 
ATOM     92  C   UNL A   1      35.817  22.067  24.482  1.00  0.00     0.047 A 
BRANCH  91  93
ATOM     93  O   UNL A   1      34.834  20.175  25.470  1.00  0.00    -0.457 OA
BRANCH  93  94
ATOM     94  C   UNL A   1      34.142  19.360  24.605  1.00  0.00     0.127 A 
ATOM     95  C   UNL A   1      32.950  19.826  24.050  1.00  0.00     0.047 A 
ATOM     96  C   UNL A   1      34.603  18.073  24.318  1.00  0.00     0.047 A 
ATOM     97  C   UNL A   1      32.244  19.018  23.158  1.00  0.00     0.004 A 
ATOM     98  C   UNL A   1      33.907  17.278  23.408  1.00  0.00     0.004 A 
ATOM     99  C   UNL A   1      32.729  17.750  22.828  1.00  0.00     0.000 A 
ENDBRANCH  93  94
ENDBRANCH  91  93
ENDBRANCH  82  87
ENDBRANCH  77  80
ENDBRANCH  75  76
ENDBRANCH   1  75
TORSDOF 16
ENDMDL
MODEL 3
REMARK VINA RESULT:     -12.3      3.460      9.184
REMARK SMILES O=C(NCCCNC(=O)[C@H]1[NH2+]CC[C@H]1c1cccc(Oc2ccccc2)c1)c1ccc(-c2c3nc(c(-c4c(F)cc(S(=O)(=O)[O-])cc4F)c4ccc([nH]4)c(-c4c(F)cc(S(=O)(=O)[O-])cc4F)c4nc(c(-c5c(F)cc(S(=O)(=O)[O-])cc5F)c5ccc2[nH]5)C=C4)C=C3)cc1
REMARK SMILES IDX 5 1 4 2 3 3 1 4 2 5 28 7 29 8 93 9 30 10 92 11 31 12 32 13
REMARK SMILES IDX 33 14 86 15 34 16 91 17 85 18 87 19 35 20 90 21 84 22 83 23
REMARK SMILES IDX 36 25 70 26 49 27 69 28 50 29 53 30 68 31 88 32 51 33 52 34
REMARK SMILES IDX 67 36 89 37 54 38 37 39 38 40 47 41 39 42 40 43 46 44 48 45
REMARK SMILES IDX 41 46 42 47 43 48 44 49 45 50 71 51 72 52 81 53 73 54 74 55
REMARK SMILES IDX 80 56 82 57 75 58 76 59 77 60 78 61 79 62 55 63 56 64 65 65
REMARK SMILES IDX 57 66 58 67 64 68 66 69 59 70 60 71 61 72 62 73 63 74 6 75
REMARK SMILES IDX 7 76 8 77 9 79 10 80 11 81 14 82 12 83 13 86 15 87 16 88
REMARK SMILES IDX 27 89 17 90 19 91 18 92 20 93 21 94 22 95 26 96 23 97 25 98
REMARK SMILES IDX 24 99
REMARK H PARENT 3 6 87 24 53 35 7 78 11 84 11 85
REMARK Flexibility Score: inf
ROOT
ATOM      1  C   UNL A   1      32.748  27.417  25.820  1.00  0.00     0.042 C 
ENDROOT
BRANCH   1   2
ATOM      2  C   UNL A   1      34.022  28.182  26.163  1.00  0.00     0.118 C 
BRANCH   2   3
ATOM      3  N   UNL A   1      33.777  29.596  26.418  1.00  0.00    -0.352 N 
ATOM      4  O   UNL A   1      33.925  31.566  27.493  1.00  0.00    -0.269 OA
ATOM      5  C   UNL A   1      34.414  30.460  27.271  1.00  0.00     0.251 C 
ATOM      6  H   UNL A   1      33.040  29.992  25.897  1.00  0.00     0.163 HD
BRANCH   5   7
ATOM      7  C   UNL A   1      35.678  30.062  27.925  1.00  0.00     0.039 A 
ATOM      8  C   UNL A   1      36.896  30.210  27.257  1.00  0.00     0.014 A 
ATOM      9  C   UNL A   1      35.651  29.581  29.237  1.00  0.00     0.014 A 
ATOM     10  C   UNL A   1      38.070  29.765  27.851  1.00  0.00     0.010 A 
ATOM     11  C   UNL A   1      36.845  29.219  29.868  1.00  0.00     0.010 A 
ATOM     12  C   UNL A   1      38.063  29.299  29.175  1.00  0.00    -0.014 A 
BRANCH  12  13
ATOM     13  C   UNL A   1      39.357  29.038  29.852  1.00  0.00     0.031 A 
ATOM     14  C   UNL A   1      39.818  29.870  31.014  1.00  0.00     0.074 A 
ATOM     15  C   UNL A   1      40.115  28.024  29.388  1.00  0.00     0.049 A 
ATOM     16  N   UNL A   1      40.928  29.770  31.699  1.00  0.00    -0.248 NA
ATOM     17  C   UNL A   1      38.930  30.954  31.465  1.00  0.00     0.031 C 
ATOM     18  C   UNL A   1      39.769  27.170  28.245  1.00  0.00     0.029 A 
ATOM     19  N   UNL A   1      41.322  27.531  29.811  1.00  0.00    -0.354 N 
ATOM     20  C   UNL A   1      40.887  30.786  32.647  1.00  0.00     0.074 A 
ATOM     21  C   UNL A   1      39.643  31.500  32.444  1.00  0.00     0.031 C 
ATOM     22  C   UNL A   1      40.726  26.247  28.077  1.00  0.00     0.029 A 
ATOM     23  C   UNL A   1      41.785  26.485  29.048  1.00  0.00     0.049 A 
ATOM     24  H   UNL A   1      41.810  27.892  30.587  1.00  0.00     0.167 HD
ATOM     25  C   UNL A   1      41.806  31.086  33.594  1.00  0.00     0.037 A 
ATOM     26  C   UNL A   1      42.951  25.814  29.095  1.00  0.00     0.037 A 
ATOM     27  C   UNL A   1      43.028  30.348  33.795  1.00  0.00     0.049 A 
ATOM     28  C   UNL A   1      43.958  26.192  30.142  1.00  0.00     0.074 A 
ATOM     29  C   UNL A   1      43.984  30.525  34.781  1.00  0.00     0.029 A 
ATOM     30  N   UNL A   1      43.473  29.309  32.991  1.00  0.00    -0.354 N 
ATOM     31  N   UNL A   1      43.865  27.104  31.081  1.00  0.00    -0.248 NA
ATOM     32  C   UNL A   1      45.232  25.462  30.134  1.00  0.00     0.031 C 
ATOM     33  C   UNL A   1      45.035  29.635  34.537  1.00  0.00     0.029 A 
ATOM     34  C   UNL A   1      44.710  28.866  33.433  1.00  0.00     0.049 A 
ATOM     35  H   UNL A   1      42.983  28.940  32.221  1.00  0.00     0.167 HD
ATOM     36  C   UNL A   1      45.065  27.052  31.777  1.00  0.00     0.074 A 
ATOM     37  C   UNL A   1      45.853  25.997  31.174  1.00  0.00     0.031 C 
ATOM     38  C   UNL A   1      45.483  27.817  32.816  1.00  0.00     0.037 A 
BRANCH  25  39
ATOM     39  C   UNL A   1      41.557  32.266  34.493  1.00  0.00     0.058 A 
ATOM     40  C   UNL A   1      41.946  33.566  34.135  1.00  0.00     0.135 A 
ATOM     41  C   UNL A   1      40.808  32.108  35.672  1.00  0.00     0.135 A 
ATOM     42  F   UNL A   1      42.676  33.772  33.027  1.00  0.00    -0.206 F 
ATOM     43  C   UNL A   1      41.598  34.668  34.910  1.00  0.00     0.059 A 
ATOM     44  C   UNL A   1      40.430  33.198  36.451  1.00  0.00     0.059 A 
ATOM     45  F   UNL A   1      40.414  30.886  36.062  1.00  0.00    -0.206 F 
ATOM     46  C   UNL A   1      40.829  34.475  36.061  1.00  0.00     0.060 A 
BRANCH  46  47
ATOM     47  S   UNL A   1      40.334  35.923  37.019  1.00  0.00     0.124 S 
ATOM     48  O   UNL A   1      41.604  36.327  37.616  1.00  0.00    -0.237 OA
ATOM     49  O   UNL A   1      39.808  36.813  35.988  1.00  0.00    -0.237 OA
ATOM     50  O   UNL A   1      39.344  35.394  37.951  1.00  0.00    -0.744 OA
ENDBRANCH  46  47
ENDBRANCH  25  39
BRANCH  26  51
ATOM     51  C   UNL A   1      43.248  24.761  28.089  1.00  0.00     0.058 A 
ATOM     52  C   UNL A   1      42.957  23.412  28.338  1.00  0.00     0.135 A 
ATOM     53  C   UNL A   1      43.842  25.086  26.859  1.00  0.00     0.135 A 
ATOM     54  F   UNL A   1      42.389  23.051  29.499  1.00  0.00    -0.206 F 
ATOM     55  C   UNL A   1      43.277  22.418  27.419  1.00  0.00     0.059 A 
ATOM     56  C   UNL A   1      44.140  24.116  25.911  1.00  0.00     0.059 A 
ATOM     57  F   UNL A   1      44.121  26.365  26.563  1.00  0.00    -0.206 F 
ATOM     58  C   UNL A   1      43.873  22.780  26.210  1.00  0.00     0.060 A 
BRANCH  58  59
ATOM     59  S   UNL A   1      44.282  21.486  25.021  1.00  0.00     0.124 S 
ATOM     60  O   UNL A   1      44.209  22.216  23.761  1.00  0.00    -0.237 OA
ATOM     61  O   UNL A   1      45.618  21.084  25.449  1.00  0.00    -0.237 OA
ATOM     62  O   UNL A   1      43.236  20.490  25.237  1.00  0.00    -0.744 OA
ENDBRANCH  58  59
ENDBRANCH  26  51
BRANCH  38  63
ATOM     63  C   UNL A   1      46.851  27.534  33.367  1.00  0.00     0.058 A 
ATOM     64  C   UNL A   1      47.982  28.222  32.901  1.00  0.00     0.135 A 
ATOM     65  C   UNL A   1      47.028  26.601  34.400  1.00  0.00     0.135 A 
ATOM     66  F   UNL A   1      47.868  29.115  31.905  1.00  0.00    -0.206 F 
ATOM     67  C   UNL A   1      49.246  27.979  33.425  1.00  0.00     0.059 A 
ATOM     68  C   UNL A   1      48.278  26.364  34.961  1.00  0.00     0.059 A 
ATOM     69  F   UNL A   1      45.977  25.922  34.886  1.00  0.00    -0.206 F 
ATOM     70  C   UNL A   1      49.384  27.051  34.460  1.00  0.00     0.060 A 
BRANCH  70  71
ATOM     71  S   UNL A   1      51.024  26.775  35.160  1.00  0.00     0.124 S 
ATOM     72  O   UNL A   1      51.084  27.811  36.186  1.00  0.00    -0.237 OA
ATOM     73  O   UNL A   1      50.927  25.403  35.650  1.00  0.00    -0.237 OA
ATOM     74  O   UNL A   1      51.916  26.966  34.021  1.00  0.00    -0.744 OA
ENDBRANCH  70  71
ENDBRANCH  38  63
ENDBRANCH  12  13
ENDBRANCH   5   7
ENDBRANCH   2   3
ENDBRANCH   1   2
BRANCH   1  75
ATOM     75  C   UNL A   1      32.184  26.616  26.983  1.00  0.00     0.118 C 
BRANCH  75  76
ATOM     76  N   UNL A   1      31.291  25.559  26.547  1.00  0.00    -0.351 N 
ATOM     77  C   UNL A   1      31.397  24.210  26.729  1.00  0.00     0.278 C 
ATOM     78  H   UNL A   1      30.496  25.857  26.049  1.00  0.00     0.163 HD
ATOM     79  O   UNL A   1      30.363  23.551  26.618  1.00  0.00    -0.268 OA
BRANCH  77  80
ATOM     80  C   UNL A   1      32.742  23.597  27.166  1.00  0.00     0.280 C 
ATOM     81  N   UNL A   1      32.507  22.174  27.536  1.00  0.00    -0.335 N 
ATOM     82  C   UNL A   1      33.931  23.579  26.183  1.00  0.00     0.093 C 
ATOM     83  C   UNL A   1      33.802  21.496  27.416  1.00  0.00     0.262 C 
ATOM     84  H   UNL A   1      31.829  21.752  26.901  1.00  0.00     0.346 HD
ATOM     85  H   UNL A   1      32.133  22.093  28.481  1.00  0.00     0.346 HD
ATOM     86  C   UNL A   1      34.795  22.500  26.845  1.00  0.00     0.076 C 
BRANCH  82  87
ATOM     87  C   UNL A   1      33.639  23.390  24.702  1.00  0.00    -0.034 A 
ATOM     88  C   UNL A   1      33.263  22.180  24.107  1.00  0.00     0.004 A 
ATOM     89  C   UNL A   1      33.796  24.509  23.863  1.00  0.00     0.051 A 
ATOM     90  C   UNL A   1      33.038  22.101  22.729  1.00  0.00     0.004 A 
ATOM     91  C   UNL A   1      33.546  24.449  22.489  1.00  0.00     0.127 A 
ATOM     92  C   UNL A   1      33.173  23.232  21.924  1.00  0.00     0.047 A 
BRANCH  91  93
ATOM     93  O   UNL A   1      33.627  25.518  21.616  1.00  0.00    -0.457 OA
BRANCH  93  94
ATOM     94  C   UNL A   1      32.976  26.679  21.960  1.00  0.00     0.127 A 
ATOM     95  C   UNL A   1      33.733  27.818  22.238  1.00  0.00     0.047 A 
ATOM     96  C   UNL A   1      31.584  26.708  22.069  1.00  0.00     0.047 A 
ATOM     97  C   UNL A   1      33.086  29.009  22.573  1.00  0.00     0.004 A 
ATOM     98  C   UNL A   1      30.941  27.906  22.381  1.00  0.00     0.004 A 
ATOM     99  C   UNL A   1      31.692  29.055  22.632  1.00  0.00     0.000 A 
ENDBRANCH  93  94
ENDBRANCH  91  93
ENDBRANCH  82  87
ENDBRANCH  77  80
ENDBRANCH  75  76
ENDBRANCH   1  75
TORSDOF 16
ENDMDL
