MODEL 1
REMARK VINA RESULT:      -9.3      0.000      0.000
REMARK SMILES CC(C)Cc1cc2c(cc1Cl)C=C(C(=O)NCCCNC(=O)c1ccc(-c3c4nc(c(-c5c(F)cc(S(=O)(=O)[O-])cc5F)c5ccc([nH]5)c(-c5c(F)cc(S(=O)(=O)[O-])cc5F)c5nc(c(-c6c(F)cc(S(=O)(=O)[O-])cc6F)c6ccc3[nH]6)C=C5)C=C4)cc1)[C@H](C(F)(F)F)O2
REMARK SMILES IDX 18 1 17 2 16 3 14 4 15 5 13 7 5 8 6 9 10 10 7 11 9 12 11 13
REMARK SMILES IDX 8 14 94 15 12 16 89 17 4 18 2 19 1 20 3 21 90 22 91 23 92 24
REMARK SMILES IDX 93 25 19 26 20 27 21 28 22 30 23 31 24 32 88 33 25 34 87 35
REMARK SMILES IDX 26 36 27 37 28 38 81 39 29 40 86 41 80 42 82 43 30 44 85 45
REMARK SMILES IDX 79 46 78 47 31 49 65 50 44 51 64 52 45 53 48 54 63 55 83 56
REMARK SMILES IDX 46 57 47 58 62 60 84 61 49 62 32 63 33 64 42 65 34 66 35 67
REMARK SMILES IDX 41 68 43 69 36 70 37 71 38 72 39 73 40 74 66 75 67 76 76 77
REMARK SMILES IDX 68 78 69 79 75 80 77 81 70 82 71 83 72 84 73 85 74 86 50 87
REMARK SMILES IDX 51 88 60 89 52 90 53 91 59 92 61 93 54 94 55 95 56 96 57 97
REMARK SMILES IDX 58 98
REMARK H PARENT 16 6 20 29 82 48 48 59
REMARK Flexibility Score: inf
ROOT
ATOM      1  C   UNL A   1      42.352  22.441  25.541  1.00  0.00     0.042 C 
ENDROOT
BRANCH   1   2
ATOM      2  C   UNL A   1      43.766  22.106  26.003  1.00  0.00     0.118 C 
BRANCH   2   3
ATOM      3  N   UNL A   1      44.762  22.465  25.005  1.00  0.00    -0.352 N 
ATOM      4  C   UNL A   1      45.506  23.551  24.692  1.00  0.00     0.251 C 
ATOM      5  O   UNL A   1      46.329  23.380  23.786  1.00  0.00    -0.270 OA
ATOM      6  H   UNL A   1      44.943  21.716  24.393  1.00  0.00     0.163 HD
BRANCH   4   7
ATOM      7  C   UNL A   1      45.401  24.886  25.344  1.00  0.00     0.067 C 
ATOM      8  C   UNL A   1      43.813  29.360  27.021  1.00  0.00    -0.025 A 
ATOM      9  C   UNL A   1      45.049  28.695  26.999  1.00  0.00     0.052 A 
ATOM     10  C   UNL A   1      42.743  28.795  26.308  1.00  0.00     0.045 A 
ATOM     11  C   UNL A   1      45.179  27.462  26.375  1.00  0.00     0.128 A 
ATOM     12  C   UNL A   1      42.901  27.584  25.616  1.00  0.00     0.032 A 
ATOM     13  Cl  UNL A   1      41.188  29.548  26.249  1.00  0.00    -0.084 Cl
ATOM     14  C   UNL A   1      44.118  26.901  25.669  1.00  0.00     0.019 A 
ATOM     15  O   UNL A   1      46.388  26.842  26.502  1.00  0.00    -0.475 OA
ATOM     16  C   UNL A   1      44.322  25.619  25.004  1.00  0.00     0.025 C 
ATOM     17  C   UNL A   1      46.340  25.392  26.406  1.00  0.00     0.314 C 
BRANCH   8  18
ATOM     18  C   UNL A   1      43.702  30.600  27.879  1.00  0.00     0.040 C 
BRANCH  18  19
ATOM     19  C   UNL A   1      44.704  31.712  27.489  1.00  0.00    -0.013 C 
ATOM     20  C   UNL A   1      44.277  32.508  26.250  1.00  0.00     0.008 C 
ATOM     21  C   UNL A   1      44.876  32.681  28.661  1.00  0.00     0.008 C 
ENDBRANCH  18  19
ENDBRANCH   8  18
BRANCH  17  22
ATOM     22  C   UNL A   1      46.115  24.747  27.786  1.00  0.00     0.429 C 
ATOM     23  F   UNL A   1      46.774  23.578  27.934  1.00  0.00    -0.167 F 
ATOM     24  F   UNL A   1      46.507  25.555  28.798  1.00  0.00    -0.167 F 
ATOM     25  F   UNL A   1      44.795  24.498  27.973  1.00  0.00    -0.167 F 
ENDBRANCH  17  22
ENDBRANCH   4   7
ENDBRANCH   2   3
ENDBRANCH   1   2
BRANCH   1  26
ATOM     26  C   UNL A   1      41.287  21.886  26.482  1.00  0.00     0.118 C 
BRANCH  26  27
ATOM     27  N   UNL A   1      39.950  21.976  25.903  1.00  0.00    -0.352 N 
ATOM     28  C   UNL A   1      38.947  22.888  26.129  1.00  0.00     0.251 C 
ATOM     29  H   UNL A   1      39.733  21.273  25.249  1.00  0.00     0.163 HD
ATOM     30  O   UNL A   1      37.813  22.649  25.720  1.00  0.00    -0.269 OA
BRANCH  28  31
ATOM     31  C   UNL A   1      39.225  24.136  26.870  1.00  0.00     0.039 A 
ATOM     32  C   UNL A   1      39.899  25.191  26.256  1.00  0.00     0.014 A 
ATOM     33  C   UNL A   1      38.800  24.259  28.196  1.00  0.00     0.014 A 
ATOM     34  C   UNL A   1      40.315  26.279  27.011  1.00  0.00     0.010 A 
ATOM     35  C   UNL A   1      39.124  25.408  28.927  1.00  0.00     0.010 A 
ATOM     36  C   UNL A   1      39.930  26.406  28.356  1.00  0.00    -0.014 A 
BRANCH  36  37
ATOM     37  C   UNL A   1      40.380  27.591  29.132  1.00  0.00     0.031 A 
ATOM     38  C   UNL A   1      41.785  27.675  29.666  1.00  0.00     0.074 A 
ATOM     39  C   UNL A   1      39.534  28.627  29.296  1.00  0.00     0.049 A 
ATOM     40  N   UNL A   1      42.353  28.639  30.345  1.00  0.00    -0.248 NA
ATOM     41  C   UNL A   1      42.667  26.525  29.412  1.00  0.00     0.031 C 
ATOM     42  C   UNL A   1      38.153  28.671  28.807  1.00  0.00     0.029 A 
ATOM     43  N   UNL A   1      39.715  29.853  29.883  1.00  0.00    -0.354 N 
ATOM     44  C   UNL A   1      43.647  28.209  30.613  1.00  0.00     0.074 A 
ATOM     45  C   UNL A   1      43.770  26.879  30.057  1.00  0.00     0.031 C 
ATOM     46  C   UNL A   1      37.639  29.884  29.048  1.00  0.00     0.029 A 
ATOM     47  C   UNL A   1      38.620  30.679  29.779  1.00  0.00     0.049 A 
ATOM     48  H   UNL A   1      40.548  30.117  30.337  1.00  0.00     0.167 HD
ATOM     49  C   UNL A   1      44.646  28.868  31.251  1.00  0.00     0.037 A 
ATOM     50  C   UNL A   1      38.418  31.931  30.228  1.00  0.00     0.037 A 
ATOM     51  C   UNL A   1      44.518  30.199  31.788  1.00  0.00     0.049 A 
ATOM     52  C   UNL A   1      39.518  32.620  30.981  1.00  0.00     0.074 A 
ATOM     53  C   UNL A   1      45.471  30.957  32.446  1.00  0.00     0.029 A 
ATOM     54  N   UNL A   1      43.366  30.971  31.729  1.00  0.00    -0.354 N 
ATOM     55  N   UNL A   1      40.731  32.191  31.238  1.00  0.00    -0.248 NA
ATOM     56  C   UNL A   1      39.220  33.953  31.519  1.00  0.00     0.031 C 
ATOM     57  C   UNL A   1      44.883  32.168  32.824  1.00  0.00     0.029 A 
ATOM     58  C   UNL A   1      43.578  32.188  32.358  1.00  0.00     0.049 A 
ATOM     59  H   UNL A   1      42.523  30.696  31.302  1.00  0.00     0.167 HD
ATOM     60  C   UNL A   1      41.345  33.204  31.965  1.00  0.00     0.074 A 
ATOM     61  C   UNL A   1      40.376  34.275  32.088  1.00  0.00     0.031 C 
ATOM     62  C   UNL A   1      42.597  33.240  32.485  1.00  0.00     0.037 A 
BRANCH  49  63
ATOM     63  C   UNL A   1      45.958  28.148  31.417  1.00  0.00     0.058 A 
ATOM     64  C   UNL A   1      46.157  27.198  32.432  1.00  0.00     0.135 A 
ATOM     65  C   UNL A   1      47.027  28.400  30.542  1.00  0.00     0.135 A 
ATOM     66  F   UNL A   1      45.174  26.927  33.306  1.00  0.00    -0.206 F 
ATOM     67  C   UNL A   1      47.380  26.554  32.598  1.00  0.00     0.059 A 
ATOM     68  C   UNL A   1      48.250  27.746  30.672  1.00  0.00     0.059 A 
ATOM     69  F   UNL A   1      46.894  29.295  29.551  1.00  0.00    -0.206 F 
ATOM     70  C   UNL A   1      48.422  26.839  31.716  1.00  0.00     0.060 A 
BRANCH  70  71
ATOM     71  S   UNL A   1      50.010  26.016  31.963  1.00  0.00     0.124 S 
ATOM     72  O   UNL A   1      50.278  25.494  30.626  1.00  0.00    -0.237 OA
ATOM     73  O   UNL A   1      50.867  27.115  32.396  1.00  0.00    -0.237 OA
ATOM     74  O   UNL A   1      49.720  25.011  32.981  1.00  0.00    -0.744 OA
ENDBRANCH  70  71
ENDBRANCH  49  63
BRANCH  50  75
ATOM     75  C   UNL A   1      37.118  32.600  29.960  1.00  0.00     0.058 A 
ATOM     76  C   UNL A   1      36.025  32.417  30.819  1.00  0.00     0.135 A 
ATOM     77  C   UNL A   1      36.969  33.498  28.891  1.00  0.00     0.135 A 
ATOM     78  F   UNL A   1      36.118  31.561  31.849  1.00  0.00    -0.206 F 
ATOM     79  C   UNL A   1      34.834  33.111  30.637  1.00  0.00     0.059 A 
ATOM     80  C   UNL A   1      35.797  34.223  28.704  1.00  0.00     0.059 A 
ATOM     81  F   UNL A   1      37.990  33.717  28.049  1.00  0.00    -0.206 F 
ATOM     82  C   UNL A   1      34.735  34.024  29.586  1.00  0.00     0.060 A 
BRANCH  82  83
ATOM     83  S   UNL A   1      33.221  34.995  29.425  1.00  0.00     0.124 S 
ATOM     84  O   UNL A   1      32.694  34.945  30.784  1.00  0.00    -0.237 OA
ATOM     85  O   UNL A   1      33.735  36.289  28.987  1.00  0.00    -0.237 OA
ATOM     86  O   UNL A   1      32.455  34.261  28.423  1.00  0.00    -0.744 OA
ENDBRANCH  82  83
ENDBRANCH  50  75
BRANCH  62  87
ATOM     87  C   UNL A   1      42.996  34.479  33.236  1.00  0.00     0.058 A 
ATOM     88  C   UNL A   1      42.891  34.553  34.633  1.00  0.00     0.135 A 
ATOM     89  C   UNL A   1      43.551  35.577  32.559  1.00  0.00     0.135 A 
ATOM     90  F   UNL A   1      42.358  33.534  35.326  1.00  0.00    -0.206 F 
ATOM     91  C   UNL A   1      43.309  35.679  35.334  1.00  0.00     0.059 A 
ATOM     92  C   UNL A   1      43.999  36.703  33.242  1.00  0.00     0.059 A 
ATOM     93  F   UNL A   1      43.680  35.553  31.224  1.00  0.00    -0.206 F 
ATOM     94  C   UNL A   1      43.867  36.749  34.629  1.00  0.00     0.060 A 
BRANCH  94  95
ATOM     95  S   UNL A   1      44.447  38.183  35.558  1.00  0.00     0.124 S 
ATOM     96  O   UNL A   1      43.903  39.284  34.769  1.00  0.00    -0.237 OA
ATOM     97  O   UNL A   1      43.832  37.976  36.866  1.00  0.00    -0.237 OA
ATOM     98  O   UNL A   1      45.900  38.045  35.525  1.00  0.00    -0.744 OA
ENDBRANCH  94  95
ENDBRANCH  62  87
ENDBRANCH  36  37
ENDBRANCH  28  31
ENDBRANCH  26  27
ENDBRANCH   1  26
TORSDOF 16
ENDMDL
MODEL 2
REMARK VINA RESULT:      -9.3      4.972      7.433
REMARK SMILES CC(C)Cc1cc2c(cc1Cl)C=C(C(=O)NCCCNC(=O)c1ccc(-c3c4nc(c(-c5c(F)cc(S(=O)(=O)[O-])cc5F)c5ccc([nH]5)c(-c5c(F)cc(S(=O)(=O)[O-])cc5F)c5nc(c(-c6c(F)cc(S(=O)(=O)[O-])cc6F)c6ccc3[nH]6)C=C5)C=C4)cc1)[C@H](C(F)(F)F)O2
REMARK SMILES IDX 18 1 17 2 16 3 14 4 15 5 13 7 5 8 6 9 10 10 7 11 9 12 11 13
REMARK SMILES IDX 8 14 94 15 12 16 89 17 4 18 2 19 1 20 3 21 90 22 91 23 92 24
REMARK SMILES IDX 93 25 19 26 20 27 21 28 22 30 23 31 24 32 88 33 25 34 87 35
REMARK SMILES IDX 26 36 27 37 28 38 81 39 29 40 86 41 80 42 82 43 30 44 85 45
REMARK SMILES IDX 79 46 78 47 31 49 65 50 44 51 64 52 45 53 48 54 63 55 83 56
REMARK SMILES IDX 46 57 47 58 62 60 84 61 49 62 32 63 33 64 42 65 34 66 35 67
REMARK SMILES IDX 41 68 43 69 36 70 37 71 38 72 39 73 40 74 66 75 67 76 76 77
REMARK SMILES IDX 68 78 69 79 75 80 77 81 70 82 71 83 72 84 73 85 74 86 50 87
REMARK SMILES IDX 51 88 60 89 52 90 53 91 59 92 61 93 54 94 55 95 56 96 57 97
REMARK SMILES IDX 58 98
REMARK H PARENT 16 6 20 29 82 48 48 59
REMARK Flexibility Score: inf
ROOT
ATOM      1  C   UNL A   1      37.981  22.599  25.912  1.00  0.00     0.042 C 
ENDROOT
BRANCH   1   2
ATOM      2  C   UNL A   1      36.516  22.798  25.537  1.00  0.00     0.118 C 
BRANCH   2   3
ATOM      3  N   UNL A   1      35.621  22.159  26.489  1.00  0.00    -0.352 N 
ATOM      4  C   UNL A   1      34.367  22.357  26.959  1.00  0.00     0.251 C 
ATOM      5  O   UNL A   1      33.948  21.480  27.721  1.00  0.00    -0.270 OA
ATOM      6  H   UNL A   1      36.039  21.369  26.901  1.00  0.00     0.163 HD
BRANCH   4   7
ATOM      7  C   UNL A   1      33.496  23.519  26.629  1.00  0.00     0.067 C 
ATOM      8  C   UNL A   1      31.638  27.839  24.829  1.00  0.00    -0.025 A 
ATOM      9  C   UNL A   1      31.201  26.890  25.766  1.00  0.00     0.052 A 
ATOM     10  C   UNL A   1      32.947  27.725  24.330  1.00  0.00     0.045 A 
ATOM     11  C   UNL A   1      32.005  25.812  26.110  1.00  0.00     0.128 A 
ATOM     12  C   UNL A   1      33.782  26.674  24.739  1.00  0.00     0.032 A 
ATOM     13  Cl  UNL A   1      33.591  28.857  23.194  1.00  0.00    -0.084 Cl
ATOM     14  C   UNL A   1      33.301  25.698  25.615  1.00  0.00     0.019 A 
ATOM     15  O   UNL A   1      31.451  24.883  26.943  1.00  0.00    -0.475 OA
ATOM     16  C   UNL A   1      34.114  24.562  26.037  1.00  0.00     0.025 C 
ATOM     17  C   UNL A   1      32.002  23.544  26.811  1.00  0.00     0.314 C 
BRANCH   8  18
ATOM     18  C   UNL A   1      30.639  28.874  24.363  1.00  0.00     0.040 C 
BRANCH  18  19
ATOM     19  C   UNL A   1      29.956  28.512  23.023  1.00  0.00    -0.013 C 
ATOM     20  C   UNL A   1      28.456  28.228  23.162  1.00  0.00     0.008 C 
ATOM     21  C   UNL A   1      30.151  29.655  22.024  1.00  0.00     0.008 C 
ENDBRANCH  18  19
ENDBRANCH   8  18
BRANCH  17  22
ATOM     22  C   UNL A   1      31.239  22.725  25.755  1.00  0.00     0.429 C 
ATOM     23  F   UNL A   1      31.419  23.189  24.499  1.00  0.00    -0.167 F 
ATOM     24  F   UNL A   1      31.605  21.423  25.754  1.00  0.00    -0.167 F 
ATOM     25  F   UNL A   1      29.908  22.757  26.015  1.00  0.00    -0.167 F 
ENDBRANCH  17  22
ENDBRANCH   4   7
ENDBRANCH   2   3
ENDBRANCH   1   2
BRANCH   1  26
ATOM     26  C   UNL A   1      38.647  23.898  26.357  1.00  0.00     0.118 C 
BRANCH  26  27
ATOM     27  N   UNL A   1      40.082  23.892  26.088  1.00  0.00    -0.352 N 
ATOM     28  C   UNL A   1      41.059  24.776  26.477  1.00  0.00     0.251 C 
ATOM     29  H   UNL A   1      40.399  23.136  25.543  1.00  0.00     0.163 HD
ATOM     30  O   UNL A   1      42.167  24.722  25.946  1.00  0.00    -0.269 OA
BRANCH  28  31
ATOM     31  C   UNL A   1      40.778  25.795  27.511  1.00  0.00     0.039 A 
ATOM     32  C   UNL A   1      41.492  26.992  27.540  1.00  0.00     0.014 A 
ATOM     33  C   UNL A   1      39.780  25.555  28.460  1.00  0.00     0.014 A 
ATOM     34  C   UNL A   1      41.349  27.855  28.618  1.00  0.00     0.010 A 
ATOM     35  C   UNL A   1      39.559  26.481  29.485  1.00  0.00     0.010 A 
ATOM     36  C   UNL A   1      40.377  27.616  29.603  1.00  0.00    -0.014 A 
BRANCH  36  37
ATOM     37  C   UNL A   1      40.240  28.569  30.735  1.00  0.00     0.031 A 
ATOM     38  C   UNL A   1      41.191  28.522  31.902  1.00  0.00     0.074 A 
ATOM     39  C   UNL A   1      39.293  29.526  30.676  1.00  0.00     0.049 A 
ATOM     40  N   UNL A   1      41.231  29.287  32.964  1.00  0.00    -0.248 NA
ATOM     41  C   UNL A   1      42.228  27.479  31.879  1.00  0.00     0.031 C 
ATOM     42  C   UNL A   1      38.325  29.684  29.587  1.00  0.00     0.029 A 
ATOM     43  N   UNL A   1      39.008  30.564  31.525  1.00  0.00    -0.354 N 
ATOM     44  C   UNL A   1      42.280  28.810  33.741  1.00  0.00     0.074 A 
ATOM     45  C   UNL A   1      42.828  27.664  33.047  1.00  0.00     0.031 C 
ATOM     46  C   UNL A   1      37.605  30.794  29.796  1.00  0.00     0.029 A 
ATOM     47  C   UNL A   1      38.001  31.384  31.070  1.00  0.00     0.049 A 
ATOM     48  H   UNL A   1      39.478  30.710  32.378  1.00  0.00     0.167 HD
ATOM     49  C   UNL A   1      42.754  29.291  34.916  1.00  0.00     0.037 A 
ATOM     50  C   UNL A   1      37.447  32.481  31.619  1.00  0.00     0.037 A 
ATOM     51  C   UNL A   1      42.212  30.443  35.592  1.00  0.00     0.049 A 
ATOM     52  C   UNL A   1      37.950  32.963  32.948  1.00  0.00     0.074 A 
ATOM     53  C   UNL A   1      42.624  31.015  36.783  1.00  0.00     0.029 A 
ATOM     54  N   UNL A   1      41.141  31.199  35.135  1.00  0.00    -0.354 N 
ATOM     55  N   UNL A   1      38.933  32.490  33.675  1.00  0.00    -0.248 NA
ATOM     56  C   UNL A   1      37.259  34.116  33.540  1.00  0.00     0.031 C 
ATOM     57  C   UNL A   1      41.774  32.088  37.069  1.00  0.00     0.029 A 
ATOM     58  C   UNL A   1      40.864  32.219  36.033  1.00  0.00     0.049 A 
ATOM     59  H   UNL A   1      40.651  31.036  34.298  1.00  0.00     0.167 HD
ATOM     60  C   UNL A   1      38.985  33.289  34.810  1.00  0.00     0.074 A 
ATOM     61  C   UNL A   1      37.946  34.289  34.663  1.00  0.00     0.031 C 
ATOM     62  C   UNL A   1      39.816  33.199  35.878  1.00  0.00     0.037 A 
BRANCH  49  63
ATOM     63  C   UNL A   1      43.906  28.559  35.553  1.00  0.00     0.058 A 
ATOM     64  C   UNL A   1      43.702  27.519  36.475  1.00  0.00     0.135 A 
ATOM     65  C   UNL A   1      45.231  28.891  35.228  1.00  0.00     0.135 A 
ATOM     66  F   UNL A   1      42.456  27.168  36.834  1.00  0.00    -0.206 F 
ATOM     67  C   UNL A   1      44.769  26.864  37.082  1.00  0.00     0.059 A 
ATOM     68  C   UNL A   1      46.314  28.229  35.801  1.00  0.00     0.059 A 
ATOM     69  F   UNL A   1      45.487  29.874  34.351  1.00  0.00    -0.206 F 
ATOM     70  C   UNL A   1      46.072  27.229  36.741  1.00  0.00     0.060 A 
BRANCH  70  71
ATOM     71  S   UNL A   1      47.445  26.387  37.559  1.00  0.00     0.124 S 
ATOM     72  O   UNL A   1      47.368  25.058  36.959  1.00  0.00    -0.237 OA
ATOM     73  O   UNL A   1      48.590  27.197  37.158  1.00  0.00    -0.237 OA
ATOM     74  O   UNL A   1      47.095  26.456  38.974  1.00  0.00    -0.744 OA
ENDBRANCH  70  71
ENDBRANCH  49  63
BRANCH  50  75
ATOM     75  C   UNL A   1      36.362  33.189  30.891  1.00  0.00     0.058 A 
ATOM     76  C   UNL A   1      35.038  33.135  31.346  1.00  0.00     0.135 A 
ATOM     77  C   UNL A   1      36.641  33.999  29.778  1.00  0.00     0.135 A 
ATOM     78  F   UNL A   1      34.722  32.368  32.401  1.00  0.00    -0.206 F 
ATOM     79  C   UNL A   1      34.028  33.871  30.735  1.00  0.00     0.059 A 
ATOM     80  C   UNL A   1      35.653  34.763  29.166  1.00  0.00     0.059 A 
ATOM     81  F   UNL A   1      37.895  34.094  29.312  1.00  0.00    -0.206 F 
ATOM     82  C   UNL A   1      34.349  34.695  29.654  1.00  0.00     0.060 A 
BRANCH  82  83
ATOM     83  S   UNL A   1      33.050  35.724  28.937  1.00  0.00     0.124 S 
ATOM     84  O   UNL A   1      32.364  34.771  28.071  1.00  0.00    -0.237 OA
ATOM     85  O   UNL A   1      32.315  36.154  30.122  1.00  0.00    -0.237 OA
ATOM     86  O   UNL A   1      33.794  36.777  28.253  1.00  0.00    -0.744 OA
ENDBRANCH  82  83
ENDBRANCH  50  75
BRANCH  62  87
ATOM     87  C   UNL A   1      39.639  34.210  36.976  1.00  0.00     0.058 A 
ATOM     88  C   UNL A   1      38.930  33.903  38.147  1.00  0.00     0.135 A 
ATOM     89  C   UNL A   1      40.241  35.475  36.885  1.00  0.00     0.135 A 
ATOM     90  F   UNL A   1      38.327  32.710  38.279  1.00  0.00    -0.206 F 
ATOM     91  C   UNL A   1      38.811  34.820  39.186  1.00  0.00     0.059 A 
ATOM     92  C   UNL A   1      40.156  36.399  37.922  1.00  0.00     0.059 A 
ATOM     93  F   UNL A   1      40.937  35.817  35.789  1.00  0.00    -0.206 F 
ATOM     94  C   UNL A   1      39.433  36.065  39.066  1.00  0.00     0.060 A 
BRANCH  94  95
ATOM     95  S   UNL A   1      39.308  37.226  40.442  1.00  0.00     0.124 S 
ATOM     96  O   UNL A   1      38.605  36.426  41.439  1.00  0.00    -0.237 OA
ATOM     97  O   UNL A   1      40.708  37.515  40.734  1.00  0.00    -0.237 OA
ATOM     98  O   UNL A   1      38.548  38.339  39.881  1.00  0.00    -0.744 OA
ENDBRANCH  94  95
ENDBRANCH  62  87
ENDBRANCH  36  37
ENDBRANCH  28  31
ENDBRANCH  26  27
ENDBRANCH   1  26
TORSDOF 16
ENDMDL
MODEL 3
REMARK VINA RESULT:      -9.3      4.624     10.286
REMARK SMILES CC(C)Cc1cc2c(cc1Cl)C=C(C(=O)NCCCNC(=O)c1ccc(-c3c4nc(c(-c5c(F)cc(S(=O)(=O)[O-])cc5F)c5ccc([nH]5)c(-c5c(F)cc(S(=O)(=O)[O-])cc5F)c5nc(c(-c6c(F)cc(S(=O)(=O)[O-])cc6F)c6ccc3[nH]6)C=C5)C=C4)cc1)[C@H](C(F)(F)F)O2
REMARK SMILES IDX 18 1 17 2 16 3 14 4 15 5 13 7 5 8 6 9 10 10 7 11 9 12 11 13
REMARK SMILES IDX 8 14 94 15 12 16 89 17 4 18 2 19 1 20 3 21 90 22 91 23 92 24
REMARK SMILES IDX 93 25 19 26 20 27 21 28 22 30 23 31 24 32 88 33 25 34 87 35
REMARK SMILES IDX 26 36 27 37 28 38 81 39 29 40 86 41 80 42 82 43 30 44 85 45
REMARK SMILES IDX 79 46 78 47 31 49 65 50 44 51 64 52 45 53 48 54 63 55 83 56
REMARK SMILES IDX 46 57 47 58 62 60 84 61 49 62 32 63 33 64 42 65 34 66 35 67
REMARK SMILES IDX 41 68 43 69 36 70 37 71 38 72 39 73 40 74 66 75 67 76 76 77
REMARK SMILES IDX 68 78 69 79 75 80 77 81 70 82 71 83 72 84 73 85 74 86 50 87
REMARK SMILES IDX 51 88 60 89 52 90 53 91 59 92 61 93 54 94 55 95 56 96 57 97
REMARK SMILES IDX 58 98
REMARK H PARENT 16 6 20 29 82 48 48 59
REMARK Flexibility Score: inf
ROOT
ATOM      1  C   UNL A   1      34.001  28.037  25.774  1.00  0.00     0.042 C 
ENDROOT
BRANCH   1   2
ATOM      2  C   UNL A   1      32.944  27.199  25.064  1.00  0.00     0.118 C 
BRANCH   2   3
ATOM      3  N   UNL A   1      33.389  26.765  23.749  1.00  0.00    -0.352 N 
ATOM      4  C   UNL A   1      33.560  25.592  23.096  1.00  0.00     0.251 C 
ATOM      5  O   UNL A   1      33.880  25.694  21.908  1.00  0.00    -0.270 OA
ATOM      6  H   UNL A   1      33.631  27.531  23.180  1.00  0.00     0.163 HD
BRANCH   4   7
ATOM      7  C   UNL A   1      33.392  24.239  23.697  1.00  0.00     0.067 C 
ATOM      8  C   UNL A   1      32.520  19.340  24.461  1.00  0.00    -0.025 A 
ATOM      9  C   UNL A   1      32.744  20.445  25.296  1.00  0.00     0.052 A 
ATOM     10  C   UNL A   1      32.333  19.572  23.088  1.00  0.00     0.045 A 
ATOM     11  C   UNL A   1      32.878  21.719  24.763  1.00  0.00     0.128 A 
ATOM     12  C   UNL A   1      32.396  20.873  22.565  1.00  0.00     0.032 A 
ATOM     13  Cl  UNL A   1      32.024  18.283  21.979  1.00  0.00    -0.084 Cl
ATOM     14  C   UNL A   1      32.694  21.951  23.402  1.00  0.00     0.019 A 
ATOM     15  O   UNL A   1      33.205  22.713  25.640  1.00  0.00    -0.475 OA
ATOM     16  C   UNL A   1      32.813  23.315  22.902  1.00  0.00     0.025 C 
ATOM     17  C   UNL A   1      33.915  23.836  25.049  1.00  0.00     0.314 C 
BRANCH   8  18
ATOM     18  C   UNL A   1      32.575  17.965  25.090  1.00  0.00     0.040 C 
BRANCH  18  19
ATOM     19  C   UNL A   1      33.659  17.049  24.475  1.00  0.00    -0.013 C 
ATOM     20  C   UNL A   1      35.062  17.669  24.494  1.00  0.00     0.008 C 
ATOM     21  C   UNL A   1      33.698  15.720  25.233  1.00  0.00     0.008 C 
ENDBRANCH  18  19
ENDBRANCH   8  18
BRANCH  17  22
ATOM     22  C   UNL A   1      35.438  23.613  25.079  1.00  0.00     0.429 C 
ATOM     23  F   UNL A   1      35.802  22.564  25.848  1.00  0.00    -0.167 F 
ATOM     24  F   UNL A   1      35.948  23.397  23.844  1.00  0.00    -0.167 F 
ATOM     25  F   UNL A   1      36.059  24.715  25.571  1.00  0.00    -0.167 F 
ENDBRANCH  17  22
ENDBRANCH   4   7
ENDBRANCH   2   3
ENDBRANCH   1   2
BRANCH   1  26
ATOM     26  C   UNL A   1      33.645  28.307  27.233  1.00  0.00     0.118 C 
BRANCH  26  27
ATOM     27  N   UNL A   1      33.590  29.736  27.525  1.00  0.00    -0.352 N 
ATOM     28  C   UNL A   1      34.519  30.555  28.120  1.00  0.00     0.251 C 
ATOM     29  H   UNL A   1      32.757  30.183  27.251  1.00  0.00     0.163 HD
ATOM     30  O   UNL A   1      34.183  31.679  28.489  1.00  0.00    -0.269 OA
BRANCH  28  31
ATOM     31  C   UNL A   1      35.904  30.084  28.332  1.00  0.00     0.039 A 
ATOM     32  C   UNL A   1      36.306  29.599  29.576  1.00  0.00     0.014 A 
ATOM     33  C   UNL A   1      36.814  30.118  27.271  1.00  0.00     0.014 A 
ATOM     34  C   UNL A   1      37.648  29.334  29.814  1.00  0.00     0.010 A 
ATOM     35  C   UNL A   1      38.145  29.744  27.484  1.00  0.00     0.010 A 
ATOM     36  C   UNL A   1      38.585  29.398  28.771  1.00  0.00    -0.014 A 
BRANCH  36  37
ATOM     37  C   UNL A   1      40.012  29.093  29.057  1.00  0.00     0.031 A 
ATOM     38  C   UNL A   1      40.601  27.753  28.700  1.00  0.00     0.074 A 
ATOM     39  C   UNL A   1      40.796  30.055  29.580  1.00  0.00     0.049 A 
ATOM     40  N   UNL A   1      41.827  27.323  28.859  1.00  0.00    -0.248 NA
ATOM     41  C   UNL A   1      39.696  26.765  28.092  1.00  0.00     0.031 C 
ATOM     42  C   UNL A   1      40.344  31.399  29.950  1.00  0.00     0.029 A 
ATOM     43  N   UNL A   1      42.139  30.070  29.859  1.00  0.00    -0.354 N 
ATOM     44  C   UNL A   1      41.838  26.015  28.388  1.00  0.00     0.074 A 
ATOM     45  C   UNL A   1      40.487  25.708  27.973  1.00  0.00     0.031 C 
ATOM     46  C   UNL A   1      41.400  32.128  30.336  1.00  0.00     0.029 A 
ATOM     47  C   UNL A   1      42.590  31.285  30.319  1.00  0.00     0.049 A 
ATOM     48  H   UNL A   1      42.724  29.287  29.742  1.00  0.00     0.167 HD
ATOM     49  C   UNL A   1      42.882  25.155  28.296  1.00  0.00     0.037 A 
ATOM     50  C   UNL A   1      43.821  31.679  30.697  1.00  0.00     0.037 A 
ATOM     51  C   UNL A   1      44.228  25.476  28.698  1.00  0.00     0.049 A 
ATOM     52  C   UNL A   1      44.950  30.693  30.641  1.00  0.00     0.074 A 
ATOM     53  C   UNL A   1      45.357  24.678  28.640  1.00  0.00     0.029 A 
ATOM     54  N   UNL A   1      44.628  26.693  29.232  1.00  0.00    -0.354 N 
ATOM     55  N   UNL A   1      44.938  29.455  30.207  1.00  0.00    -0.248 NA
ATOM     56  C   UNL A   1      46.254  31.148  31.139  1.00  0.00     0.031 C 
ATOM     57  C   UNL A   1      46.429  25.396  29.180  1.00  0.00     0.029 A 
ATOM     58  C   UNL A   1      45.982  26.660  29.529  1.00  0.00     0.049 A 
ATOM     59  H   UNL A   1      44.037  27.467  29.378  1.00  0.00     0.167 HD
ATOM     60  C   UNL A   1      46.234  28.982  30.374  1.00  0.00     0.074 A 
ATOM     61  C   UNL A   1      47.007  30.075  30.931  1.00  0.00     0.031 C 
ATOM     62  C   UNL A   1      46.735  27.753  30.095  1.00  0.00     0.037 A 
BRANCH  49  63
ATOM     63  C   UNL A   1      42.602  23.777  27.756  1.00  0.00     0.058 A 
ATOM     64  C   UNL A   1      42.405  22.676  28.605  1.00  0.00     0.135 A 
ATOM     65  C   UNL A   1      42.514  23.557  26.372  1.00  0.00     0.135 A 
ATOM     66  F   UNL A   1      42.491  22.825  29.936  1.00  0.00    -0.206 F 
ATOM     67  C   UNL A   1      42.173  21.400  28.100  1.00  0.00     0.059 A 
ATOM     68  C   UNL A   1      42.254  22.294  25.846  1.00  0.00     0.059 A 
ATOM     69  F   UNL A   1      42.689  24.573  25.512  1.00  0.00    -0.206 F 
ATOM     70  C   UNL A   1      42.103  21.218  26.719  1.00  0.00     0.060 A 
BRANCH  70  71
ATOM     71  S   UNL A   1      41.829  19.551  26.082  1.00  0.00     0.124 S 
ATOM     72  O   UNL A   1      42.689  19.546  24.901  1.00  0.00    -0.237 OA
ATOM     73  O   UNL A   1      42.276  18.716  27.192  1.00  0.00    -0.237 OA
ATOM     74  O   UNL A   1      40.395  19.519  25.812  1.00  0.00    -0.744 OA
ENDBRANCH  70  71
ENDBRANCH  49  63
BRANCH  50  75
ATOM     75  C   UNL A   1      44.029  33.079  31.151  1.00  0.00     0.058 A 
ATOM     76  C   UNL A   1      44.289  34.102  30.228  1.00  0.00     0.135 A 
ATOM     77  C   UNL A   1      43.890  33.435  32.502  1.00  0.00     0.135 A 
ATOM     78  F   UNL A   1      44.439  33.809  28.927  1.00  0.00    -0.206 F 
ATOM     79  C   UNL A   1      44.388  35.431  30.625  1.00  0.00     0.059 A 
ATOM     80  C   UNL A   1      43.959  34.759  32.920  1.00  0.00     0.059 A 
ATOM     81  F   UNL A   1      43.628  32.493  33.422  1.00  0.00    -0.206 F 
ATOM     82  C   UNL A   1      44.206  35.752  31.972  1.00  0.00     0.060 A 
BRANCH  82  83
ATOM     83  S   UNL A   1      44.233  37.491  32.457  1.00  0.00     0.124 S 
ATOM     84  O   UNL A   1      45.613  37.652  32.900  1.00  0.00    -0.237 OA
ATOM     85  O   UNL A   1      43.882  38.159  31.208  1.00  0.00    -0.237 OA
ATOM     86  O   UNL A   1      43.220  37.564  33.505  1.00  0.00    -0.744 OA
ENDBRANCH  82  83
ENDBRANCH  50  75
BRANCH  62  87
ATOM     87  C   UNL A   1      48.191  27.520  30.385  1.00  0.00     0.058 A 
ATOM     88  C   UNL A   1      48.618  27.000  31.617  1.00  0.00     0.135 A 
ATOM     89  C   UNL A   1      49.162  27.756  29.400  1.00  0.00     0.135 A 
ATOM     90  F   UNL A   1      47.730  26.767  32.596  1.00  0.00    -0.206 F 
ATOM     91  C   UNL A   1      49.960  26.735  31.867  1.00  0.00     0.059 A 
ATOM     92  C   UNL A   1      50.507  27.475  29.618  1.00  0.00     0.059 A 
ATOM     93  F   UNL A   1      48.805  28.246  28.202  1.00  0.00    -0.206 F 
ATOM     94  C   UNL A   1      50.897  26.971  30.858  1.00  0.00     0.060 A 
BRANCH  94  95
ATOM     95  S   UNL A   1      52.628  26.577  31.183  1.00  0.00     0.124 S 
ATOM     96  O   UNL A   1      53.015  27.665  32.075  1.00  0.00    -0.237 OA
ATOM     97  O   UNL A   1      52.537  25.256  31.797  1.00  0.00    -0.237 OA
ATOM     98  O   UNL A   1      53.239  26.606  29.857  1.00  0.00    -0.744 OA
ENDBRANCH  94  95
ENDBRANCH  62  87
ENDBRANCH  36  37
ENDBRANCH  28  31
ENDBRANCH  26  27
ENDBRANCH   1  26
TORSDOF 16
ENDMDL
