MODEL 1
REMARK VINA RESULT:     -11.2      0.000      0.000
REMARK SMILES COC(=O)c1ccc([C@H]2CC(=O)Nc3c(C(=O)NCCCNC(=O)c4ccc(-c5c6nc(c(-c7c(F)cc(S(=O)(=O)[O-])cc7F)c7ccc([nH]7)c(-c7c(F)cc(S(=O)(=O)[O-])cc7F)c7nc(c(-c8c(F)cc(S(=O)(=O)[O-])cc8F)c8ccc5[nH]8)C=C7)C=C6)cc4)cn(-c4ccccc4)c32)cc1
REMARK SMILES IDX 20 1 19 2 18 3 16 4 17 5 15 7 9 8 10 9 99 10 11 11 14 12
REMARK SMILES IDX 92 13 12 14 13 15 91 16 8 18 5 19 6 20 101 21 7 22 100 23
REMARK SMILES IDX 3 24 4 25 2 26 1 27 93 28 94 29 98 30 95 31 97 32 96 33
REMARK SMILES IDX 21 34 22 35 23 36 24 38 25 39 26 40 90 41 27 42 89 43 28 44
REMARK SMILES IDX 29 45 30 46 83 47 31 48 88 49 82 50 84 51 32 52 87 53 81 54
REMARK SMILES IDX 80 55 33 57 67 58 46 59 66 60 47 61 50 62 65 63 85 64 48 65
REMARK SMILES IDX 49 66 64 68 86 69 51 70 34 71 35 72 44 73 36 74 37 75 43 76
REMARK SMILES IDX 45 77 38 78 39 79 40 80 41 81 42 82 68 83 69 84 78 85 70 86
REMARK SMILES IDX 71 87 77 88 79 89 72 90 73 91 74 92 75 93 76 94 52 95 53 96
REMARK SMILES IDX 62 97 54 98 55 99 61 100 63 101 56 102 57 103 58 104 59 105
REMARK SMILES IDX 60 106
REMARK H PARENT 18 6 13 17 22 37 84 56 50 67
REMARK Flexibility Score: inf
ROOT
ATOM      1  C   UNL A   1      41.778  20.850  26.210  1.00  0.00     0.042 C 
ENDROOT
BRANCH   1   2
ATOM      2  C   UNL A   1      42.682  21.806  25.418  1.00  0.00     0.118 C 
BRANCH   2   3
ATOM      3  N   UNL A   1      43.990  21.254  25.152  1.00  0.00    -0.352 N 
ATOM      4  C   UNL A   1      45.266  21.622  25.480  1.00  0.00     0.254 C 
ATOM      5  O   UNL A   1      46.128  20.787  25.188  1.00  0.00    -0.269 OA
ATOM      6  H   UNL A   1      43.955  20.430  24.615  1.00  0.00     0.163 HD
BRANCH   4   7
ATOM      7  C   UNL A   1      45.663  22.895  26.102  1.00  0.00     0.081 A 
ATOM      8  C   UNL A   1      47.474  26.054  26.975  1.00  0.00     0.078 C 
ATOM      9  C   UNL A   1      48.488  26.031  25.820  1.00  0.00     0.115 C 
ATOM     10  C   UNL A   1      46.569  24.848  26.890  1.00  0.00     0.055 A 
ATOM     11  C   UNL A   1      47.916  25.511  24.531  1.00  0.00     0.225 C 
ATOM     12  C   UNL A   1      46.437  24.048  25.771  1.00  0.00     0.076 A 
ATOM     13  N   UNL A   1      45.677  24.381  27.836  1.00  0.00    -0.317 N 
ATOM     14  O   UNL A   1      48.316  25.900  23.434  1.00  0.00    -0.275 OA
ATOM     15  N   UNL A   1      47.019  24.487  24.611  1.00  0.00    -0.324 N 
ATOM     16  C   UNL A   1      45.265  23.140  27.420  1.00  0.00     0.107 A 
ATOM     17  H   UNL A   1      46.773  24.029  23.774  1.00  0.00     0.170 HD
BRANCH   8  18
ATOM     18  C   UNL A   1      48.277  26.252  28.261  1.00  0.00    -0.038 A 
ATOM     19  C   UNL A   1      49.596  26.670  30.722  1.00  0.00     0.060 A 
ATOM     20  C   UNL A   1      48.726  27.640  30.216  1.00  0.00     0.016 A 
ATOM     21  C   UNL A   1      49.863  25.528  29.964  1.00  0.00     0.016 A 
ATOM     22  C   UNL A   1      48.063  27.425  29.007  1.00  0.00     0.005 A 
ATOM     23  C   UNL A   1      49.241  25.345  28.725  1.00  0.00     0.005 A 
BRANCH  19  24
ATOM     24  C   UNL A   1      50.170  26.886  32.077  1.00  0.00     0.337 C 
ATOM     25  O   UNL A   1      50.019  27.908  32.718  1.00  0.00    -0.246 OA
BRANCH  24  26
ATOM     26  O   UNL A   1      50.834  25.775  32.490  1.00  0.00    -0.465 OA
ATOM     27  C   UNL A   1      52.014  26.050  33.243  1.00  0.00     0.282 C 
ENDBRANCH  24  26
ENDBRANCH  19  24
ENDBRANCH   8  18
BRANCH  13  28
ATOM     28  C   UNL A   1      45.301  25.002  29.052  1.00  0.00     0.045 A 
ATOM     29  C   UNL A   1      46.075  24.811  30.202  1.00  0.00     0.026 A 
ATOM     30  C   UNL A   1      44.102  25.721  29.115  1.00  0.00     0.026 A 
ATOM     31  C   UNL A   1      45.613  25.279  31.431  1.00  0.00     0.002 A 
ATOM     32  C   UNL A   1      43.631  26.155  30.355  1.00  0.00     0.002 A 
ATOM     33  C   UNL A   1      44.380  25.925  31.511  1.00  0.00     0.000 A 
ENDBRANCH  13  28
ENDBRANCH   4   7
ENDBRANCH   2   3
ENDBRANCH   1   2
BRANCH   1  34
ATOM     34  C   UNL A   1      40.699  21.567  27.001  1.00  0.00     0.118 C 
BRANCH  34  35
ATOM     35  N   UNL A   1      39.652  22.096  26.112  1.00  0.00    -0.352 N 
ATOM     36  C   UNL A   1      39.026  23.332  26.120  1.00  0.00     0.251 C 
ATOM     37  H   UNL A   1      39.353  21.480  25.404  1.00  0.00     0.163 HD
ATOM     38  O   UNL A   1      37.960  23.498  25.558  1.00  0.00    -0.269 OA
BRANCH  36  39
ATOM     39  C   UNL A   1      39.691  24.434  26.832  1.00  0.00     0.039 A 
ATOM     40  C   UNL A   1      40.578  25.304  26.193  1.00  0.00     0.014 A 
ATOM     41  C   UNL A   1      39.308  24.636  28.150  1.00  0.00     0.014 A 
ATOM     42  C   UNL A   1      40.999  26.441  26.879  1.00  0.00     0.010 A 
ATOM     43  C   UNL A   1      39.516  25.860  28.709  1.00  0.00     0.010 A 
ATOM     44  C   UNL A   1      40.439  26.722  28.133  1.00  0.00    -0.014 A 
BRANCH  44  45
ATOM     45  C   UNL A   1      40.709  27.959  28.851  1.00  0.00     0.031 A 
ATOM     46  C   UNL A   1      41.778  28.795  28.244  1.00  0.00     0.074 A 
ATOM     47  C   UNL A   1      39.868  28.427  29.801  1.00  0.00     0.049 A 
ATOM     48  N   UNL A   1      42.982  28.981  28.677  1.00  0.00    -0.248 NA
ATOM     49  C   UNL A   1      41.550  29.334  26.893  1.00  0.00     0.031 C 
ATOM     50  C   UNL A   1      38.578  27.865  30.234  1.00  0.00     0.029 A 
ATOM     51  N   UNL A   1      39.925  29.587  30.501  1.00  0.00    -0.354 N 
ATOM     52  C   UNL A   1      43.556  29.897  27.798  1.00  0.00     0.074 A 
ATOM     53  C   UNL A   1      42.748  29.849  26.610  1.00  0.00     0.031 C 
ATOM     54  C   UNL A   1      37.878  28.798  30.915  1.00  0.00     0.029 A 
ATOM     55  C   UNL A   1      38.739  29.941  31.137  1.00  0.00     0.049 A 
ATOM     56  H   UNL A   1      40.740  30.135  30.556  1.00  0.00     0.167 HD
ATOM     57  C   UNL A   1      44.445  30.831  28.244  1.00  0.00     0.037 A 
ATOM     58  C   UNL A   1      38.482  31.105  31.785  1.00  0.00     0.037 A 
ATOM     59  C   UNL A   1      44.907  30.490  29.573  1.00  0.00     0.049 A 
ATOM     60  C   UNL A   1      39.802  31.709  32.106  1.00  0.00     0.074 A 
ATOM     61  C   UNL A   1      45.532  29.396  30.142  1.00  0.00     0.029 A 
ATOM     62  N   UNL A   1      44.373  31.201  30.624  1.00  0.00    -0.354 N 
ATOM     63  N   UNL A   1      40.666  31.172  32.926  1.00  0.00    -0.248 NA
ATOM     64  C   UNL A   1      40.358  32.659  31.154  1.00  0.00     0.031 C 
ATOM     65  C   UNL A   1      44.936  29.257  31.431  1.00  0.00     0.029 A 
ATOM     66  C   UNL A   1      44.043  30.314  31.615  1.00  0.00     0.049 A 
ATOM     67  H   UNL A   1      44.250  32.176  30.657  1.00  0.00     0.167 HD
ATOM     68  C   UNL A   1      41.902  31.376  32.327  1.00  0.00     0.074 A 
ATOM     69  C   UNL A   1      41.656  32.378  31.291  1.00  0.00     0.031 C 
ATOM     70  C   UNL A   1      42.934  30.501  32.528  1.00  0.00     0.037 A 
BRANCH  57  71
ATOM     71  C   UNL A   1      44.563  32.251  27.707  1.00  0.00     0.058 A 
ATOM     72  C   UNL A   1      45.715  32.591  26.961  1.00  0.00     0.135 A 
ATOM     73  C   UNL A   1      43.782  33.351  28.129  1.00  0.00     0.135 A 
ATOM     74  F   UNL A   1      46.519  31.635  26.466  1.00  0.00    -0.206 F 
ATOM     75  C   UNL A   1      46.133  33.910  26.779  1.00  0.00     0.059 A 
ATOM     76  C   UNL A   1      44.154  34.673  27.914  1.00  0.00     0.059 A 
ATOM     77  F   UNL A   1      42.662  33.219  28.843  1.00  0.00    -0.206 F 
ATOM     78  C   UNL A   1      45.357  34.943  27.288  1.00  0.00     0.060 A 
BRANCH  78  79
ATOM     79  S   UNL A   1      45.956  36.637  27.183  1.00  0.00     0.124 S 
ATOM     80  O   UNL A   1      44.710  37.388  27.289  1.00  0.00    -0.237 OA
ATOM     81  O   UNL A   1      46.850  36.710  28.333  1.00  0.00    -0.237 OA
ATOM     82  O   UNL A   1      46.612  36.678  25.880  1.00  0.00    -0.744 OA
ENDBRANCH  78  79
ENDBRANCH  57  71
BRANCH  58  83
ATOM     83  C   UNL A   1      37.206  31.867  31.846  1.00  0.00     0.058 A 
ATOM     84  C   UNL A   1      36.603  32.174  33.078  1.00  0.00     0.135 A 
ATOM     85  C   UNL A   1      36.705  32.554  30.721  1.00  0.00     0.135 A 
ATOM     86  F   UNL A   1      37.025  31.576  34.202  1.00  0.00    -0.206 F 
ATOM     87  C   UNL A   1      35.604  33.148  33.199  1.00  0.00     0.059 A 
ATOM     88  C   UNL A   1      35.704  33.522  30.816  1.00  0.00     0.059 A 
ATOM     89  F   UNL A   1      37.239  32.373  29.505  1.00  0.00    -0.206 F 
ATOM     90  C   UNL A   1      35.178  33.835  32.064  1.00  0.00     0.060 A 
BRANCH  90  91
ATOM     91  S   UNL A   1      34.024  35.219  32.241  1.00  0.00     0.124 S 
ATOM     92  O   UNL A   1      34.792  36.148  33.064  1.00  0.00    -0.237 OA
ATOM     93  O   UNL A   1      33.810  35.623  30.856  1.00  0.00    -0.237 OA
ATOM     94  O   UNL A   1      32.867  34.615  32.896  1.00  0.00    -0.744 OA
ENDBRANCH  90  91
ENDBRANCH  58  83
BRANCH  70  95
ATOM     95  C   UNL A   1      42.824  29.514  33.662  1.00  0.00     0.058 A 
ATOM     96  C   UNL A   1      43.150  29.786  35.003  1.00  0.00     0.135 A 
ATOM     97  C   UNL A   1      42.209  28.282  33.395  1.00  0.00     0.135 A 
ATOM     98  F   UNL A   1      43.647  30.976  35.364  1.00  0.00    -0.206 F 
ATOM     99  C   UNL A   1      42.909  28.862  36.023  1.00  0.00     0.059 A 
ATOM    100  C   UNL A   1      41.931  27.358  34.398  1.00  0.00     0.059 A 
ATOM    101  F   UNL A   1      41.816  27.984  32.144  1.00  0.00    -0.206 F 
ATOM    102  C   UNL A   1      42.297  27.649  35.710  1.00  0.00     0.060 A 
BRANCH 102 103
ATOM    103  S   UNL A   1      41.919  26.482  37.036  1.00  0.00     0.124 S 
ATOM    104  O   UNL A   1      41.968  25.201  36.341  1.00  0.00    -0.237 OA
ATOM    105  O   UNL A   1      42.996  26.728  37.992  1.00  0.00    -0.237 OA
ATOM    106  O   UNL A   1      40.592  26.896  37.487  1.00  0.00    -0.744 OA
ENDBRANCH 102 103
ENDBRANCH  70  95
ENDBRANCH  44  45
ENDBRANCH  36  39
ENDBRANCH  34  35
ENDBRANCH   1  34
TORSDOF 17
ENDMDL
MODEL 2
REMARK VINA RESULT:     -11.1      2.937      4.177
REMARK SMILES COC(=O)c1ccc([C@H]2CC(=O)Nc3c(C(=O)NCCCNC(=O)c4ccc(-c5c6nc(c(-c7c(F)cc(S(=O)(=O)[O-])cc7F)c7ccc([nH]7)c(-c7c(F)cc(S(=O)(=O)[O-])cc7F)c7nc(c(-c8c(F)cc(S(=O)(=O)[O-])cc8F)c8ccc5[nH]8)C=C7)C=C6)cc4)cn(-c4ccccc4)c32)cc1
REMARK SMILES IDX 20 1 19 2 18 3 16 4 17 5 15 7 9 8 10 9 99 10 11 11 14 12
REMARK SMILES IDX 92 13 12 14 13 15 91 16 8 18 5 19 6 20 101 21 7 22 100 23
REMARK SMILES IDX 3 24 4 25 2 26 1 27 93 28 94 29 98 30 95 31 97 32 96 33
REMARK SMILES IDX 21 34 22 35 23 36 24 38 25 39 26 40 90 41 27 42 89 43 28 44
REMARK SMILES IDX 29 45 30 46 83 47 31 48 88 49 82 50 84 51 32 52 87 53 81 54
REMARK SMILES IDX 80 55 33 57 67 58 46 59 66 60 47 61 50 62 65 63 85 64 48 65
REMARK SMILES IDX 49 66 64 68 86 69 51 70 34 71 35 72 44 73 36 74 37 75 43 76
REMARK SMILES IDX 45 77 38 78 39 79 40 80 41 81 42 82 68 83 69 84 78 85 70 86
REMARK SMILES IDX 71 87 77 88 79 89 72 90 73 91 74 92 75 93 76 94 52 95 53 96
REMARK SMILES IDX 62 97 54 98 55 99 61 100 63 101 56 102 57 103 58 104 59 105
REMARK SMILES IDX 60 106
REMARK H PARENT 18 6 13 17 22 37 84 56 50 67
REMARK Flexibility Score: inf
ROOT
ATOM      1  C   UNL A   1      45.416  22.703  24.397  1.00  0.00     0.042 C 
ENDROOT
BRANCH   1   2
ATOM      2  C   UNL A   1      45.556  24.087  25.047  1.00  0.00     0.118 C 
BRANCH   2   3
ATOM      3  N   UNL A   1      45.750  24.023  26.476  1.00  0.00    -0.352 N 
ATOM      4  C   UNL A   1      46.599  24.642  27.352  1.00  0.00     0.254 C 
ATOM      5  O   UNL A   1      46.346  24.430  28.542  1.00  0.00    -0.269 OA
ATOM      6  H   UNL A   1      45.134  23.395  26.917  1.00  0.00     0.163 HD
BRANCH   4   7
ATOM      7  C   UNL A   1      47.753  25.479  26.989  1.00  0.00     0.081 A 
ATOM      8  C   UNL A   1      50.406  27.304  25.076  1.00  0.00     0.078 C 
ATOM      9  C   UNL A   1      49.862  27.028  23.666  1.00  0.00     0.115 C 
ATOM     10  C   UNL A   1      49.509  26.661  26.108  1.00  0.00     0.055 A 
ATOM     11  C   UNL A   1      48.361  27.043  23.587  1.00  0.00     0.225 C 
ATOM     12  C   UNL A   1      48.230  26.205  25.856  1.00  0.00     0.076 A 
ATOM     13  N   UNL A   1      49.749  26.487  27.458  1.00  0.00    -0.317 N 
ATOM     14  O   UNL A   1      47.763  27.393  22.570  1.00  0.00    -0.275 OA
ATOM     15  N   UNL A   1      47.673  26.528  24.646  1.00  0.00    -0.324 N 
ATOM     16  C   UNL A   1      48.770  25.649  27.933  1.00  0.00     0.107 A 
ATOM     17  H   UNL A   1      46.707  26.376  24.532  1.00  0.00     0.170 HD
BRANCH   8  18
ATOM     18  C   UNL A   1      51.881  26.903  25.066  1.00  0.00    -0.038 A 
ATOM     19  C   UNL A   1      54.630  26.274  25.202  1.00  0.00     0.060 A 
ATOM     20  C   UNL A   1      54.207  27.604  25.282  1.00  0.00     0.016 A 
ATOM     21  C   UNL A   1      53.687  25.268  24.980  1.00  0.00     0.016 A 
ATOM     22  C   UNL A   1      52.847  27.912  25.231  1.00  0.00     0.005 A 
ATOM     23  C   UNL A   1      52.330  25.589  24.870  1.00  0.00     0.005 A 
BRANCH  19  24
ATOM     24  C   UNL A   1      56.076  25.987  25.400  1.00  0.00     0.337 C 
ATOM     25  O   UNL A   1      56.837  26.736  25.982  1.00  0.00    -0.246 OA
BRANCH  24  26
ATOM     26  O   UNL A   1      56.391  24.773  24.881  1.00  0.00    -0.465 OA
ATOM     27  C   UNL A   1      56.933  23.858  25.833  1.00  0.00     0.282 C 
ENDBRANCH  24  26
ENDBRANCH  19  24
ENDBRANCH   8  18
BRANCH  13  28
ATOM     28  C   UNL A   1      50.830  26.994  28.218  1.00  0.00     0.045 A 
ATOM     29  C   UNL A   1      50.860  28.347  28.573  1.00  0.00     0.026 A 
ATOM     30  C   UNL A   1      51.909  26.156  28.525  1.00  0.00     0.026 A 
ATOM     31  C   UNL A   1      52.001  28.880  29.170  1.00  0.00     0.002 A 
ATOM     32  C   UNL A   1      53.060  26.706  29.091  1.00  0.00     0.002 A 
ATOM     33  C   UNL A   1      53.108  28.066  29.403  1.00  0.00     0.000 A 
ENDBRANCH  13  28
ENDBRANCH   4   7
ENDBRANCH   2   3
ENDBRANCH   1   2
BRANCH   1  34
ATOM     34  C   UNL A   1      45.262  21.581  25.408  1.00  0.00     0.118 C 
BRANCH  34  35
ATOM     35  N   UNL A   1      44.019  20.828  25.178  1.00  0.00    -0.352 N 
ATOM     36  C   UNL A   1      42.801  20.910  25.833  1.00  0.00     0.251 C 
ATOM     37  H   UNL A   1      44.058  20.167  24.448  1.00  0.00     0.163 HD
ATOM     38  O   UNL A   1      41.992  20.004  25.769  1.00  0.00    -0.269 OA
BRANCH  36  39
ATOM     39  C   UNL A   1      42.521  22.127  26.611  1.00  0.00     0.039 A 
ATOM     40  C   UNL A   1      42.930  22.271  27.940  1.00  0.00     0.014 A 
ATOM     41  C   UNL A   1      41.923  23.173  25.925  1.00  0.00     0.014 A 
ATOM     42  C   UNL A   1      42.813  23.525  28.534  1.00  0.00     0.010 A 
ATOM     43  C   UNL A   1      42.048  24.435  26.420  1.00  0.00     0.010 A 
ATOM     44  C   UNL A   1      42.392  24.609  27.753  1.00  0.00    -0.014 A 
BRANCH  44  45
ATOM     45  C   UNL A   1      42.383  25.977  28.253  1.00  0.00     0.031 A 
ATOM     46  C   UNL A   1      43.491  26.822  27.736  1.00  0.00     0.074 A 
ATOM     47  C   UNL A   1      41.308  26.493  28.890  1.00  0.00     0.049 A 
ATOM     48  N   UNL A   1      44.540  27.230  28.371  1.00  0.00    -0.248 NA
ATOM     49  C   UNL A   1      43.541  27.085  26.288  1.00  0.00     0.031 C 
ATOM     50  C   UNL A   1      40.003  25.857  29.140  1.00  0.00     0.029 A 
ATOM     51  N   UNL A   1      41.103  27.755  29.343  1.00  0.00    -0.354 N 
ATOM     52  C   UNL A   1      45.226  28.044  27.472  1.00  0.00     0.074 A 
ATOM     53  C   UNL A   1      44.724  27.690  26.172  1.00  0.00     0.031 C 
ATOM     54  C   UNL A   1      39.089  26.798  29.457  1.00  0.00     0.029 A 
ATOM     55  C   UNL A   1      39.776  28.062  29.628  1.00  0.00     0.049 A 
ATOM     56  H   UNL A   1      41.834  28.402  29.461  1.00  0.00     0.167 HD
ATOM     57  C   UNL A   1      45.905  29.146  27.904  1.00  0.00     0.037 A 
ATOM     58  C   UNL A   1      39.278  29.279  29.963  1.00  0.00     0.037 A 
ATOM     59  C   UNL A   1      46.071  29.101  29.342  1.00  0.00     0.049 A 
ATOM     60  C   UNL A   1      40.433  30.091  30.433  1.00  0.00     0.074 A 
ATOM     61  C   UNL A   1      46.635  28.210  30.236  1.00  0.00     0.029 A 
ATOM     62  N   UNL A   1      45.249  29.911  30.092  1.00  0.00    -0.354 N 
ATOM     63  N   UNL A   1      41.123  29.817  31.508  1.00  0.00    -0.248 NA
ATOM     64  C   UNL A   1      41.114  30.923  29.453  1.00  0.00     0.031 C 
ATOM     65  C   UNL A   1      45.768  28.223  31.369  1.00  0.00     0.029 A 
ATOM     66  C   UNL A   1      44.771  29.175  31.145  1.00  0.00     0.049 A 
ATOM     67  H   UNL A   1      45.041  30.855  29.905  1.00  0.00     0.167 HD
ATOM     68  C   UNL A   1      42.443  30.068  31.159  1.00  0.00     0.074 A 
ATOM     69  C   UNL A   1      42.363  30.836  29.917  1.00  0.00     0.031 C 
ATOM     70  C   UNL A   1      43.469  29.378  31.744  1.00  0.00     0.037 A 
BRANCH  57  71
ATOM     71  C   UNL A   1      46.027  30.454  27.135  1.00  0.00     0.058 A 
ATOM     72  C   UNL A   1      47.310  31.033  26.997  1.00  0.00     0.135 A 
ATOM     73  C   UNL A   1      44.951  31.307  26.799  1.00  0.00     0.135 A 
ATOM     74  F   UNL A   1      48.417  30.313  27.245  1.00  0.00    -0.206 F 
ATOM     75  C   UNL A   1      47.500  32.382  26.697  1.00  0.00     0.059 A 
ATOM     76  C   UNL A   1      45.121  32.642  26.448  1.00  0.00     0.059 A 
ATOM     77  F   UNL A   1      43.672  30.931  26.870  1.00  0.00    -0.206 F 
ATOM     78  C   UNL A   1      46.393  33.185  26.453  1.00  0.00     0.060 A 
BRANCH  78  79
ATOM     79  S   UNL A   1      46.616  34.953  26.205  1.00  0.00     0.124 S 
ATOM     80  O   UNL A   1      47.736  34.971  25.271  1.00  0.00    -0.237 OA
ATOM     81  O   UNL A   1      45.320  35.346  25.663  1.00  0.00    -0.237 OA
ATOM     82  O   UNL A   1      46.904  35.445  27.549  1.00  0.00    -0.744 OA
ENDBRANCH  78  79
ENDBRANCH  57  71
BRANCH  58  83
ATOM     83  C   UNL A   1      37.965  29.873  29.598  1.00  0.00     0.058 A 
ATOM     84  C   UNL A   1      37.146  30.475  30.570  1.00  0.00     0.135 A 
ATOM     85  C   UNL A   1      37.617  30.121  28.254  1.00  0.00     0.135 A 
ATOM     86  F   UNL A   1      37.411  30.303  31.874  1.00  0.00    -0.206 F 
ATOM     87  C   UNL A   1      36.081  31.319  30.232  1.00  0.00     0.059 A 
ATOM     88  C   UNL A   1      36.556  30.951  27.892  1.00  0.00     0.059 A 
ATOM     89  F   UNL A   1      38.358  29.636  27.247  1.00  0.00    -0.206 F 
ATOM     90  C   UNL A   1      35.809  31.571  28.888  1.00  0.00     0.060 A 
BRANCH  90  91
ATOM     91  S   UNL A   1      34.557  32.803  28.449  1.00  0.00     0.124 S 
ATOM     92  O   UNL A   1      35.331  33.747  27.650  1.00  0.00    -0.237 OA
ATOM     93  O   UNL A   1      33.578  32.005  27.721  1.00  0.00    -0.237 OA
ATOM     94  O   UNL A   1      34.106  33.304  29.745  1.00  0.00    -0.744 OA
ENDBRANCH  90  91
ENDBRANCH  58  83
BRANCH  70  95
ATOM     95  C   UNL A   1      43.179  28.596  33.002  1.00  0.00     0.058 A 
ATOM     96  C   UNL A   1      42.959  29.162  34.270  1.00  0.00     0.135 A 
ATOM     97  C   UNL A   1      42.961  27.216  32.874  1.00  0.00     0.135 A 
ATOM     98  F   UNL A   1      43.046  30.485  34.460  1.00  0.00    -0.206 F 
ATOM     99  C   UNL A   1      42.577  28.386  35.367  1.00  0.00     0.059 A 
ATOM    100  C   UNL A   1      42.550  26.428  33.945  1.00  0.00     0.059 A 
ATOM    101  F   UNL A   1      43.093  26.624  31.675  1.00  0.00    -0.206 F 
ATOM    102  C   UNL A   1      42.372  27.018  35.193  1.00  0.00     0.060 A 
BRANCH 102 103
ATOM    103  S   UNL A   1      41.808  26.024  36.593  1.00  0.00     0.124 S 
ATOM    104  O   UNL A   1      40.964  26.966  37.318  1.00  0.00    -0.237 OA
ATOM    105  O   UNL A   1      41.112  24.920  35.938  1.00  0.00    -0.237 OA
ATOM    106  O   UNL A   1      43.050  25.651  37.268  1.00  0.00    -0.744 OA
ENDBRANCH 102 103
ENDBRANCH  70  95
ENDBRANCH  44  45
ENDBRANCH  36  39
ENDBRANCH  34  35
ENDBRANCH   1  34
TORSDOF 17
ENDMDL
MODEL 3
REMARK VINA RESULT:     -10.9      1.729      2.660
REMARK SMILES COC(=O)c1ccc([C@H]2CC(=O)Nc3c(C(=O)NCCCNC(=O)c4ccc(-c5c6nc(c(-c7c(F)cc(S(=O)(=O)[O-])cc7F)c7ccc([nH]7)c(-c7c(F)cc(S(=O)(=O)[O-])cc7F)c7nc(c(-c8c(F)cc(S(=O)(=O)[O-])cc8F)c8ccc5[nH]8)C=C7)C=C6)cc4)cn(-c4ccccc4)c32)cc1
REMARK SMILES IDX 20 1 19 2 18 3 16 4 17 5 15 7 9 8 10 9 99 10 11 11 14 12
REMARK SMILES IDX 92 13 12 14 13 15 91 16 8 18 5 19 6 20 101 21 7 22 100 23
REMARK SMILES IDX 3 24 4 25 2 26 1 27 93 28 94 29 98 30 95 31 97 32 96 33
REMARK SMILES IDX 21 34 22 35 23 36 24 38 25 39 26 40 90 41 27 42 89 43 28 44
REMARK SMILES IDX 29 45 30 46 83 47 31 48 88 49 82 50 84 51 32 52 87 53 81 54
REMARK SMILES IDX 80 55 33 57 67 58 46 59 66 60 47 61 50 62 65 63 85 64 48 65
REMARK SMILES IDX 49 66 64 68 86 69 51 70 34 71 35 72 44 73 36 74 37 75 43 76
REMARK SMILES IDX 45 77 38 78 39 79 40 80 41 81 42 82 68 83 69 84 78 85 70 86
REMARK SMILES IDX 71 87 77 88 79 89 72 90 73 91 74 92 75 93 76 94 52 95 53 96
REMARK SMILES IDX 62 97 54 98 55 99 61 100 63 101 56 102 57 103 58 104 59 105
REMARK SMILES IDX 60 106
REMARK H PARENT 18 6 13 17 22 37 84 56 50 67
REMARK Flexibility Score: inf
ROOT
ATOM      1  C   UNL A   1      42.201  21.195  27.073  1.00  0.00     0.042 C 
ENDROOT
BRANCH   1   2
ATOM      2  C   UNL A   1      42.430  21.666  25.630  1.00  0.00     0.118 C 
BRANCH   2   3
ATOM      3  N   UNL A   1      43.731  21.304  25.118  1.00  0.00    -0.352 N 
ATOM      4  C   UNL A   1      44.985  21.838  25.235  1.00  0.00     0.254 C 
ATOM      5  O   UNL A   1      45.884  21.135  24.764  1.00  0.00    -0.269 OA
ATOM      6  H   UNL A   1      43.711  20.492  24.562  1.00  0.00     0.163 HD
BRANCH   4   7
ATOM      7  C   UNL A   1      45.314  23.143  25.830  1.00  0.00     0.081 A 
ATOM      8  C   UNL A   1      45.658  26.818  26.463  1.00  0.00     0.078 C 
ATOM      9  C   UNL A   1      44.769  27.305  25.308  1.00  0.00     0.115 C 
ATOM     10  C   UNL A   1      45.719  25.308  26.464  1.00  0.00     0.055 A 
ATOM     11  C   UNL A   1      43.577  26.424  25.056  1.00  0.00     0.225 C 
ATOM     12  C   UNL A   1      44.848  24.491  25.772  1.00  0.00     0.076 A 
ATOM     13  N   UNL A   1      46.564  24.489  27.188  1.00  0.00    -0.317 N 
ATOM     14  O   UNL A   1      42.515  26.869  24.621  1.00  0.00    -0.275 OA
ATOM     15  N   UNL A   1      43.748  25.080  25.203  1.00  0.00    -0.324 N 
ATOM     16  C   UNL A   1      46.418  23.220  26.686  1.00  0.00     0.107 A 
ATOM     17  H   UNL A   1      43.031  24.489  24.877  1.00  0.00     0.170 HD
BRANCH   8  18
ATOM     18  C   UNL A   1      46.977  27.584  26.357  1.00  0.00    -0.038 A 
ATOM     19  C   UNL A   1      49.445  28.953  26.344  1.00  0.00     0.060 A 
ATOM     20  C   UNL A   1      48.533  29.156  27.384  1.00  0.00     0.016 A 
ATOM     21  C   UNL A   1      49.093  28.124  25.276  1.00  0.00     0.016 A 
ATOM     22  C   UNL A   1      47.320  28.467  27.396  1.00  0.00     0.005 A 
ATOM     23  C   UNL A   1      47.851  27.482  25.265  1.00  0.00     0.005 A 
BRANCH  19  24
ATOM     24  C   UNL A   1      50.779  29.604  26.448  1.00  0.00     0.337 C 
ATOM     25  O   UNL A   1      51.435  29.636  27.471  1.00  0.00    -0.246 OA
BRANCH  24  26
ATOM     26  O   UNL A   1      51.153  30.105  25.243  1.00  0.00    -0.465 OA
ATOM     27  C   UNL A   1      52.284  30.973  25.301  1.00  0.00     0.282 C 
ENDBRANCH  24  26
ENDBRANCH  19  24
ENDBRANCH   8  18
BRANCH  13  28
ATOM     28  C   UNL A   1      47.477  24.866  28.203  1.00  0.00     0.045 A 
ATOM     29  C   UNL A   1      46.999  25.328  29.434  1.00  0.00     0.026 A 
ATOM     30  C   UNL A   1      48.849  24.864  27.930  1.00  0.00     0.026 A 
ATOM     31  C   UNL A   1      47.890  25.857  30.366  1.00  0.00     0.002 A 
ATOM     32  C   UNL A   1      49.730  25.428  28.855  1.00  0.00     0.002 A 
ATOM     33  C   UNL A   1      49.249  25.932  30.064  1.00  0.00     0.000 A 
ENDBRANCH  13  28
ENDBRANCH   4   7
ENDBRANCH   2   3
ENDBRANCH   1   2
BRANCH   1  34
ATOM     34  C   UNL A   1      40.735  21.153  27.462  1.00  0.00     0.118 C 
BRANCH  34  35
ATOM     35  N   UNL A   1      39.896  21.794  26.437  1.00  0.00    -0.352 N 
ATOM     36  C   UNL A   1      39.303  23.047  26.437  1.00  0.00     0.251 C 
ATOM     37  H   UNL A   1      39.732  21.253  25.631  1.00  0.00     0.163 HD
ATOM     38  O   UNL A   1      38.374  23.300  25.694  1.00  0.00    -0.269 OA
BRANCH  36  39
ATOM     39  C   UNL A   1      39.833  24.058  27.365  1.00  0.00     0.039 A 
ATOM     40  C   UNL A   1      41.191  24.385  27.412  1.00  0.00     0.014 A 
ATOM     41  C   UNL A   1      38.899  24.754  28.117  1.00  0.00     0.014 A 
ATOM     42  C   UNL A   1      41.578  25.493  28.161  1.00  0.00     0.010 A 
ATOM     43  C   UNL A   1      39.246  25.967  28.629  1.00  0.00     0.010 A 
ATOM     44  C   UNL A   1      40.589  26.294  28.748  1.00  0.00    -0.014 A 
BRANCH  44  45
ATOM     45  C   UNL A   1      40.896  27.548  29.421  1.00  0.00     0.031 A 
ATOM     46  C   UNL A   1      41.866  28.408  28.695  1.00  0.00     0.074 A 
ATOM     47  C   UNL A   1      40.147  28.002  30.451  1.00  0.00     0.049 A 
ATOM     48  N   UNL A   1      43.103  28.636  28.994  1.00  0.00    -0.248 NA
ATOM     49  C   UNL A   1      41.478  28.923  27.371  1.00  0.00     0.031 C 
ATOM     50  C   UNL A   1      38.929  27.407  31.026  1.00  0.00     0.029 A 
ATOM     51  N   UNL A   1      40.242  29.173  31.131  1.00  0.00    -0.354 N 
ATOM     52  C   UNL A   1      43.550  29.558  28.049  1.00  0.00     0.074 A 
ATOM     53  C   UNL A   1      42.621  29.471  26.956  1.00  0.00     0.031 C 
ATOM     54  C   UNL A   1      38.277  28.326  31.769  1.00  0.00     0.029 A 
ATOM     55  C   UNL A   1      39.121  29.499  31.887  1.00  0.00     0.049 A 
ATOM     56  H   UNL A   1      41.041  29.745  31.092  1.00  0.00     0.167 HD
ATOM     57  C   UNL A   1      44.452  30.524  28.388  1.00  0.00     0.037 A 
ATOM     58  C   UNL A   1      38.897  30.662  32.548  1.00  0.00     0.037 A 
ATOM     59  C   UNL A   1      45.065  30.214  29.663  1.00  0.00     0.049 A 
ATOM     60  C   UNL A   1      40.225  31.310  32.719  1.00  0.00     0.074 A 
ATOM     61  C   UNL A   1      45.782  29.147  30.172  1.00  0.00     0.029 A 
ATOM     62  N   UNL A   1      44.625  30.922  30.758  1.00  0.00    -0.354 N 
ATOM     63  N   UNL A   1      41.189  30.810  33.446  1.00  0.00    -0.248 NA
ATOM     64  C   UNL A   1      40.645  32.264  31.704  1.00  0.00     0.031 C 
ATOM     65  C   UNL A   1      45.332  29.006  31.519  1.00  0.00     0.029 A 
ATOM     66  C   UNL A   1      44.431  30.038  31.787  1.00  0.00     0.049 A 
ATOM     67  H   UNL A   1      44.475  31.894  30.796  1.00  0.00     0.167 HD
ATOM     68  C   UNL A   1      42.346  31.044  32.716  1.00  0.00     0.074 A 
ATOM     69  C   UNL A   1      41.959  32.025  31.703  1.00  0.00     0.031 C 
ATOM     70  C   UNL A   1      43.421  30.203  32.813  1.00  0.00     0.037 A 
BRANCH  57  71
ATOM     71  C   UNL A   1      44.467  31.940  27.828  1.00  0.00     0.058 A 
ATOM     72  C   UNL A   1      45.532  32.311  26.976  1.00  0.00     0.135 A 
ATOM     73  C   UNL A   1      43.687  33.016  28.309  1.00  0.00     0.135 A 
ATOM     74  F   UNL A   1      46.322  31.379  26.419  1.00  0.00    -0.206 F 
ATOM     75  C   UNL A   1      45.882  33.642  26.742  1.00  0.00     0.059 A 
ATOM     76  C   UNL A   1      43.988  34.348  28.048  1.00  0.00     0.059 A 
ATOM     77  F   UNL A   1      42.643  32.854  29.125  1.00  0.00    -0.206 F 
ATOM     78  C   UNL A   1      45.118  34.654  27.310  1.00  0.00     0.060 A 
BRANCH  78  79
ATOM     79  S   UNL A   1      45.641  36.366  27.133  1.00  0.00     0.124 S 
ATOM     80  O   UNL A   1      46.261  36.611  28.430  1.00  0.00    -0.237 OA
ATOM     81  O   UNL A   1      46.545  36.287  25.992  1.00  0.00    -0.237 OA
ATOM     82  O   UNL A   1      44.388  37.073  26.887  1.00  0.00    -0.744 OA
ENDBRANCH  78  79
ENDBRANCH  57  71
BRANCH  58  83
ATOM     83  C   UNL A   1      37.612  31.385  32.738  1.00  0.00     0.058 A 
ATOM     84  C   UNL A   1      37.331  32.060  33.940  1.00  0.00     0.135 A 
ATOM     85  C   UNL A   1      36.761  31.673  31.651  1.00  0.00     0.135 A 
ATOM     86  F   UNL A   1      38.097  31.856  35.022  1.00  0.00    -0.206 F 
ATOM     87  C   UNL A   1      36.305  33.008  34.042  1.00  0.00     0.059 A 
ATOM     88  C   UNL A   1      35.727  32.607  31.732  1.00  0.00     0.059 A 
ATOM     89  F   UNL A   1      36.968  31.122  30.446  1.00  0.00    -0.206 F 
ATOM     90  C   UNL A   1      35.523  33.292  32.924  1.00  0.00     0.060 A 
BRANCH  90  91
ATOM     91  S   UNL A   1      34.321  34.645  32.998  1.00  0.00     0.124 S 
ATOM     92  O   UNL A   1      34.496  35.275  31.694  1.00  0.00    -0.237 OA
ATOM     93  O   UNL A   1      33.065  33.932  33.199  1.00  0.00    -0.237 OA
ATOM     94  O   UNL A   1      34.773  35.436  34.140  1.00  0.00    -0.744 OA
ENDBRANCH  90  91
ENDBRANCH  58  83
BRANCH  70  95
ATOM     95  C   UNL A   1      43.464  29.228  33.962  1.00  0.00     0.058 A 
ATOM     96  C   UNL A   1      42.901  27.939  33.948  1.00  0.00     0.135 A 
ATOM     97  C   UNL A   1      44.252  29.566  35.072  1.00  0.00     0.135 A 
ATOM     98  F   UNL A   1      42.218  27.496  32.884  1.00  0.00    -0.206 F 
ATOM     99  C   UNL A   1      43.083  27.043  35.004  1.00  0.00     0.059 A 
ATOM    100  C   UNL A   1      44.473  28.679  36.122  1.00  0.00     0.059 A 
ATOM    101  F   UNL A   1      44.869  30.759  35.120  1.00  0.00    -0.206 F 
ATOM    102  C   UNL A   1      43.874  27.423  36.088  1.00  0.00     0.060 A 
BRANCH 102 103
ATOM    103  S   UNL A   1      44.170  26.241  37.422  1.00  0.00     0.124 S 
ATOM    104  O   UNL A   1      43.151  26.616  38.396  1.00  0.00    -0.237 OA
ATOM    105  O   UNL A   1      43.971  24.955  36.758  1.00  0.00    -0.237 OA
ATOM    106  O   UNL A   1      45.548  26.517  37.823  1.00  0.00    -0.744 OA
ENDBRANCH 102 103
ENDBRANCH  70  95
ENDBRANCH  44  45
ENDBRANCH  36  39
ENDBRANCH  34  35
ENDBRANCH   1  34
TORSDOF 17
ENDMDL
