MODEL 1
REMARK VINA RESULT:     -12.2      0.000      0.000
REMARK SMILES CC(=O)Nc1ccc(/C(=C\c2ccc(S(C)(=O)=O)cc2)C(=O)NCCCNC(=O)c2ccc(-c3c4nc(c(-c5c(F)cc(S(=O)(=O)[O-])cc5F)c5ccc([nH]5)c(-c5c(F)cc(S(=O)(=O)[O-])cc5F)c5nc(c(-c6c(F)cc(S(=O)(=O)[O-])cc6F)c6ccc3[nH]6)C=C5)C=C4)cc2)cc1
REMARK SMILES IDX 25 1 24 2 23 3 21 4 22 5 9 7 10 8 8 9 5 10 6 11 97 12 7 13
REMARK SMILES IDX 96 14 4 15 1 16 2 17 3 18 11 20 12 21 20 22 13 23 19 24
REMARK SMILES IDX 14 25 15 26 16 27 17 28 18 29 26 30 27 31 28 32 29 34 30 35
REMARK SMILES IDX 31 36 95 37 32 38 94 39 33 40 34 41 35 42 88 43 36 44 93 45
REMARK SMILES IDX 87 46 89 47 37 48 92 49 86 50 85 51 38 53 72 54 51 55 71 56
REMARK SMILES IDX 52 57 55 58 70 59 90 60 53 61 54 62 69 64 91 65 56 66 39 67
REMARK SMILES IDX 40 68 49 69 41 70 42 71 48 72 50 73 43 74 44 75 45 76 46 77
REMARK SMILES IDX 47 78 73 79 74 80 83 81 75 82 76 83 82 84 84 85 77 86 78 87
REMARK SMILES IDX 79 88 80 89 81 90 57 91 58 92 67 93 59 94 60 95 66 96 68 97
REMARK SMILES IDX 61 98 62 99 63 100 64 101 65 102
REMARK H PARENT 23 6 4 19 27 33 89 52 55 63
REMARK Flexibility Score: inf
ROOT
ATOM      1  C   UNL A   1      35.535  24.011  25.973  1.00  0.00     0.042 C 
ENDROOT
BRANCH   1   2
ATOM      2  C   UNL A   1      34.247  23.605  25.252  1.00  0.00     0.118 C 
BRANCH   2   3
ATOM      3  N   UNL A   1      33.145  23.485  26.188  1.00  0.00    -0.352 N 
ATOM      4  C   UNL A   1      32.066  24.236  26.527  1.00  0.00     0.251 C 
ATOM      5  O   UNL A   1      31.363  23.706  27.392  1.00  0.00    -0.269 OA
ATOM      6  H   UNL A   1      33.193  22.651  26.709  1.00  0.00     0.163 HD
BRANCH   4   7
ATOM      7  C   UNL A   1      31.682  25.570  25.886  1.00  0.00     0.047 C 
ATOM      8  C   UNL A   1      30.875  25.537  24.798  1.00  0.00     0.022 C 
BRANCH   7   9
ATOM      9  C   UNL A   1      32.353  26.847  26.344  1.00  0.00    -0.013 A 
ATOM     10  C   UNL A   1      33.522  29.433  26.740  1.00  0.00     0.041 A 
ATOM     11  C   UNL A   1      32.283  29.112  27.293  1.00  0.00     0.027 A 
ATOM     12  C   UNL A   1      34.237  28.417  26.133  1.00  0.00     0.027 A 
ATOM     13  C   UNL A   1      31.726  27.829  27.128  1.00  0.00     0.011 A 
ATOM     14  C   UNL A   1      33.650  27.165  25.911  1.00  0.00     0.011 A 
BRANCH  10  15
ATOM     15  N   UNL A   1      33.970  30.761  26.845  1.00  0.00    -0.326 N 
ATOM     16  C   UNL A   1      35.506  30.619  28.822  1.00  0.00     0.114 C 
ATOM     17  C   UNL A   1      34.773  31.389  27.756  1.00  0.00     0.221 C 
ATOM     18  O   UNL A   1      34.924  32.611  27.663  1.00  0.00    -0.275 OA
ATOM     19  H   UNL A   1      33.645  31.350  26.126  1.00  0.00     0.169 HD
ENDBRANCH  10  15
ENDBRANCH   7   9
BRANCH   8  20
ATOM     20  C   UNL A   1      30.232  26.629  24.055  1.00  0.00    -0.025 A 
ATOM     21  C   UNL A   1      28.829  26.721  24.111  1.00  0.00     0.009 A 
ATOM     22  C   UNL A   1      30.959  27.586  23.343  1.00  0.00     0.009 A 
ATOM     23  C   UNL A   1      28.164  27.787  23.506  1.00  0.00     0.021 A 
ATOM     24  C   UNL A   1      30.297  28.661  22.740  1.00  0.00     0.021 A 
ATOM     25  C   UNL A   1      28.904  28.757  22.829  1.00  0.00     0.067 A 
BRANCH  25  26
ATOM     26  S   UNL A   1      28.061  30.175  22.167  1.00  0.00     0.175 S 
ATOM     27  C   UNL A   1      29.200  31.507  22.429  1.00  0.00     0.163 C 
ATOM     28  O   UNL A   1      27.928  29.961  20.739  1.00  0.00    -0.224 OA
ATOM     29  O   UNL A   1      26.888  30.413  22.988  1.00  0.00    -0.224 OA
ENDBRANCH  25  26
ENDBRANCH   8  20
ENDBRANCH   4   7
ENDBRANCH   2   3
ENDBRANCH   1   2
BRANCH   1  30
ATOM     30  C   UNL A   1      36.798  23.788  25.138  1.00  0.00     0.118 C 
BRANCH  30  31
ATOM     31  N   UNL A   1      37.596  22.682  25.648  1.00  0.00    -0.352 N 
ATOM     32  C   UNL A   1      38.850  22.681  26.205  1.00  0.00     0.251 C 
ATOM     33  H   UNL A   1      37.169  21.797  25.582  1.00  0.00     0.163 HD
ATOM     34  O   UNL A   1      39.459  21.621  26.304  1.00  0.00    -0.269 OA
BRANCH  32  35
ATOM     35  C   UNL A   1      39.463  23.938  26.686  1.00  0.00     0.039 A 
ATOM     36  C   UNL A   1      39.361  24.267  28.040  1.00  0.00     0.014 A 
ATOM     37  C   UNL A   1      40.086  24.820  25.798  1.00  0.00     0.014 A 
ATOM     38  C   UNL A   1      39.924  25.456  28.511  1.00  0.00     0.010 A 
ATOM     39  C   UNL A   1      40.712  25.965  26.281  1.00  0.00     0.010 A 
ATOM     40  C   UNL A   1      40.629  26.302  27.640  1.00  0.00    -0.014 A 
BRANCH  40  41
ATOM     41  C   UNL A   1      41.275  27.549  28.126  1.00  0.00     0.031 A 
ATOM     42  C   UNL A   1      42.775  27.678  28.106  1.00  0.00     0.074 A 
ATOM     43  C   UNL A   1      40.516  28.533  28.646  1.00  0.00     0.049 A 
ATOM     44  N   UNL A   1      43.528  28.643  28.568  1.00  0.00    -0.248 NA
ATOM     45  C   UNL A   1      43.531  26.561  27.515  1.00  0.00     0.031 C 
ATOM     46  C   UNL A   1      39.055  28.506  28.756  1.00  0.00     0.029 A 
ATOM     47  N   UNL A   1      40.866  29.743  29.191  1.00  0.00    -0.354 N 
ATOM     48  C   UNL A   1      44.840  28.245  28.337  1.00  0.00     0.074 A 
ATOM     49  C   UNL A   1      44.783  26.927  27.745  1.00  0.00     0.031 C 
ATOM     50  C   UNL A   1      38.634  29.652  29.315  1.00  0.00     0.029 A 
ATOM     51  C   UNL A   1      39.793  30.475  29.644  1.00  0.00     0.049 A 
ATOM     52  H   UNL A   1      41.797  30.057  29.253  1.00  0.00     0.167 HD
ATOM     53  C   UNL A   1      45.986  28.926  28.576  1.00  0.00     0.037 A 
ATOM     54  C   UNL A   1      39.749  31.669  30.268  1.00  0.00     0.037 A 
ATOM     55  C   UNL A   1      46.030  30.248  29.146  1.00  0.00     0.049 A 
ATOM     56  C   UNL A   1      41.036  32.402  30.533  1.00  0.00     0.074 A 
ATOM     57  C   UNL A   1      47.135  31.047  29.381  1.00  0.00     0.029 A 
ATOM     58  N   UNL A   1      44.921  30.966  29.573  1.00  0.00    -0.354 N 
ATOM     59  N   UNL A   1      42.266  32.036  30.255  1.00  0.00    -0.248 NA
ATOM     60  C   UNL A   1      40.933  33.712  31.190  1.00  0.00     0.031 C 
ATOM     61  C   UNL A   1      46.700  32.225  29.997  1.00  0.00     0.029 A 
ATOM     62  C   UNL A   1      45.317  32.188  30.090  1.00  0.00     0.049 A 
ATOM     63  H   UNL A   1      43.990  30.652  29.516  1.00  0.00     0.167 HD
ATOM     64  C   UNL A   1      43.078  33.085  30.673  1.00  0.00     0.074 A 
ATOM     65  C   UNL A   1      42.200  34.102  31.213  1.00  0.00     0.031 C 
ATOM     66  C   UNL A   1      44.428  33.196  30.612  1.00  0.00     0.037 A 
BRANCH  53  67
ATOM     67  C   UNL A   1      47.288  28.258  28.220  1.00  0.00     0.058 A 
ATOM     68  C   UNL A   1      47.845  28.361  26.935  1.00  0.00     0.135 A 
ATOM     69  C   UNL A   1      48.010  27.539  29.187  1.00  0.00     0.135 A 
ATOM     70  F   UNL A   1      47.192  29.024  25.966  1.00  0.00    -0.206 F 
ATOM     71  C   UNL A   1      49.052  27.751  26.613  1.00  0.00     0.059 A 
ATOM     72  C   UNL A   1      49.236  26.948  28.896  1.00  0.00     0.059 A 
ATOM     73  F   UNL A   1      47.526  27.408  30.432  1.00  0.00    -0.206 F 
ATOM     74  C   UNL A   1      49.742  27.048  27.602  1.00  0.00     0.060 A 
BRANCH  74  75
ATOM     75  S   UNL A   1      51.313  26.271  27.167  1.00  0.00     0.124 S 
ATOM     76  O   UNL A   1      52.123  26.576  28.342  1.00  0.00    -0.237 OA
ATOM     77  O   UNL A   1      50.933  24.871  27.006  1.00  0.00    -0.237 OA
ATOM     78  O   UNL A   1      51.704  26.958  25.940  1.00  0.00    -0.744 OA
ENDBRANCH  74  75
ENDBRANCH  53  67
BRANCH  54  79
ATOM     79  C   UNL A   1      38.439  32.253  30.667  1.00  0.00     0.058 A 
ATOM     80  C   UNL A   1      37.822  33.245  29.890  1.00  0.00     0.135 A 
ATOM     81  C   UNL A   1      37.773  31.826  31.828  1.00  0.00     0.135 A 
ATOM     82  F   UNL A   1      38.420  33.691  28.774  1.00  0.00    -0.206 F 
ATOM     83  C   UNL A   1      36.604  33.807  30.257  1.00  0.00     0.059 A 
ATOM     84  C   UNL A   1      36.541  32.352  32.199  1.00  0.00     0.059 A 
ATOM     85  F   UNL A   1      38.310  30.866  32.597  1.00  0.00    -0.206 F 
ATOM     86  C   UNL A   1      35.969  33.351  31.413  1.00  0.00     0.060 A 
BRANCH  86  87
ATOM     87  S   UNL A   1      34.365  34.054  31.856  1.00  0.00     0.124 S 
ATOM     88  O   UNL A   1      34.761  35.260  32.575  1.00  0.00    -0.237 OA
ATOM     89  O   UNL A   1      33.752  34.263  30.548  1.00  0.00    -0.237 OA
ATOM     90  O   UNL A   1      33.752  33.007  32.666  1.00  0.00    -0.744 OA
ENDBRANCH  86  87
ENDBRANCH  54  79
BRANCH  66  91
ATOM     91  C   UNL A   1      45.042  34.481  31.098  1.00  0.00     0.058 A 
ATOM     92  C   UNL A   1      45.479  34.640  32.422  1.00  0.00     0.135 A 
ATOM     93  C   UNL A   1      45.249  35.546  30.207  1.00  0.00     0.135 A 
ATOM     94  F   UNL A   1      45.299  33.656  33.317  1.00  0.00    -0.206 F 
ATOM     95  C   UNL A   1      46.078  35.821  32.852  1.00  0.00     0.059 A 
ATOM     96  C   UNL A   1      45.874  36.723  30.606  1.00  0.00     0.059 A 
ATOM     97  F   UNL A   1      44.860  35.443  28.926  1.00  0.00    -0.206 F 
ATOM     98  C   UNL A   1      46.275  36.855  31.934  1.00  0.00     0.060 A 
BRANCH  98  99
ATOM     99  S   UNL A   1      47.088  38.365  32.497  1.00  0.00     0.124 S 
ATOM    100  O   UNL A   1      48.082  37.837  33.424  1.00  0.00    -0.237 OA
ATOM    101  O   UNL A   1      47.613  38.919  31.252  1.00  0.00    -0.237 OA
ATOM    102  O   UNL A   1      46.003  39.128  33.107  1.00  0.00    -0.744 OA
ENDBRANCH  98  99
ENDBRANCH  66  91
ENDBRANCH  40  41
ENDBRANCH  32  35
ENDBRANCH  30  31
ENDBRANCH   1  30
TORSDOF 17
ENDMDL
MODEL 2
REMARK VINA RESULT:     -11.9      0.761      8.123
REMARK SMILES CC(=O)Nc1ccc(/C(=C\c2ccc(S(C)(=O)=O)cc2)C(=O)NCCCNC(=O)c2ccc(-c3c4nc(c(-c5c(F)cc(S(=O)(=O)[O-])cc5F)c5ccc([nH]5)c(-c5c(F)cc(S(=O)(=O)[O-])cc5F)c5nc(c(-c6c(F)cc(S(=O)(=O)[O-])cc6F)c6ccc3[nH]6)C=C5)C=C4)cc2)cc1
REMARK SMILES IDX 25 1 24 2 23 3 21 4 22 5 9 7 10 8 8 9 5 10 6 11 97 12 7 13
REMARK SMILES IDX 96 14 4 15 1 16 2 17 3 18 11 20 12 21 20 22 13 23 19 24
REMARK SMILES IDX 14 25 15 26 16 27 17 28 18 29 26 30 27 31 28 32 29 34 30 35
REMARK SMILES IDX 31 36 95 37 32 38 94 39 33 40 34 41 35 42 88 43 36 44 93 45
REMARK SMILES IDX 87 46 89 47 37 48 92 49 86 50 85 51 38 53 72 54 51 55 71 56
REMARK SMILES IDX 52 57 55 58 70 59 90 60 53 61 54 62 69 64 91 65 56 66 39 67
REMARK SMILES IDX 40 68 49 69 41 70 42 71 48 72 50 73 43 74 44 75 45 76 46 77
REMARK SMILES IDX 47 78 73 79 74 80 83 81 75 82 76 83 82 84 84 85 77 86 78 87
REMARK SMILES IDX 79 88 80 89 81 90 57 91 58 92 67 93 59 94 60 95 66 96 68 97
REMARK SMILES IDX 61 98 62 99 63 100 64 101 65 102
REMARK H PARENT 23 6 4 19 27 33 89 52 55 63
REMARK Flexibility Score: inf
ROOT
ATOM      1  C   UNL A   1      35.207  23.036  26.591  1.00  0.00     0.042 C 
ENDROOT
BRANCH   1   2
ATOM      2  C   UNL A   1      34.085  23.756  25.840  1.00  0.00     0.118 C 
BRANCH   2   3
ATOM      3  N   UNL A   1      32.812  23.573  26.510  1.00  0.00    -0.352 N 
ATOM      4  C   UNL A   1      31.661  24.283  26.632  1.00  0.00     0.251 C 
ATOM      5  O   UNL A   1      30.805  23.703  27.305  1.00  0.00    -0.269 OA
ATOM      6  H   UNL A   1      32.773  22.720  27.001  1.00  0.00     0.163 HD
BRANCH   4   7
ATOM      7  C   UNL A   1      31.381  25.632  25.966  1.00  0.00     0.047 C 
ATOM      8  C   UNL A   1      30.571  25.642  24.881  1.00  0.00     0.022 C 
BRANCH   7   9
ATOM      9  C   UNL A   1      32.154  26.860  26.400  1.00  0.00    -0.013 A 
ATOM     10  C   UNL A   1      33.495  29.367  26.758  1.00  0.00     0.041 A 
ATOM     11  C   UNL A   1      32.274  29.108  27.382  1.00  0.00     0.027 A 
ATOM     12  C   UNL A   1      34.110  28.321  26.095  1.00  0.00     0.027 A 
ATOM     13  C   UNL A   1      31.633  27.862  27.234  1.00  0.00     0.011 A 
ATOM     14  C   UNL A   1      33.438  27.109  25.892  1.00  0.00     0.011 A 
BRANCH  10  15
ATOM     15  N   UNL A   1      34.025  30.665  26.854  1.00  0.00    -0.326 N 
ATOM     16  C   UNL A   1      35.738  30.375  28.662  1.00  0.00     0.114 C 
ATOM     17  C   UNL A   1      34.949  31.218  27.696  1.00  0.00     0.221 C 
ATOM     18  O   UNL A   1      35.159  32.433  27.622  1.00  0.00    -0.275 OA
ATOM     19  H   UNL A   1      33.664  31.293  26.187  1.00  0.00     0.169 HD
ENDBRANCH  10  15
ENDBRANCH   7   9
BRANCH   8  20
ATOM     20  C   UNL A   1      30.014  26.769  24.119  1.00  0.00    -0.025 A 
ATOM     21  C   UNL A   1      28.617  26.825  23.962  1.00  0.00     0.009 A 
ATOM     22  C   UNL A   1      30.810  27.789  23.592  1.00  0.00     0.009 A 
ATOM     23  C   UNL A   1      28.018  27.915  23.331  1.00  0.00     0.021 A 
ATOM     24  C   UNL A   1      30.214  28.887  22.965  1.00  0.00     0.021 A 
ATOM     25  C   UNL A   1      28.821  28.945  22.842  1.00  0.00     0.067 A 
BRANCH  25  26
ATOM     26  S   UNL A   1      28.044  30.386  22.150  1.00  0.00     0.175 S 
ATOM     27  C   UNL A   1      29.262  31.659  22.341  1.00  0.00     0.163 C 
ATOM     28  O   UNL A   1      27.866  30.134  20.733  1.00  0.00    -0.224 OA
ATOM     29  O   UNL A   1      26.905  30.718  22.987  1.00  0.00    -0.224 OA
ENDBRANCH  25  26
ENDBRANCH   8  20
ENDBRANCH   4   7
ENDBRANCH   2   3
ENDBRANCH   1   2
BRANCH   1  30
ATOM     30  C   UNL A   1      36.608  23.500  26.189  1.00  0.00     0.118 C 
BRANCH  30  31
ATOM     31  N   UNL A   1      37.560  22.398  26.173  1.00  0.00    -0.352 N 
ATOM     32  C   UNL A   1      38.929  22.411  26.265  1.00  0.00     0.251 C 
ATOM     33  H   UNL A   1      37.158  21.504  26.081  1.00  0.00     0.163 HD
ATOM     34  O   UNL A   1      39.560  21.410  25.943  1.00  0.00    -0.269 OA
BRANCH  32  35
ATOM     35  C   UNL A   1      39.640  23.614  26.749  1.00  0.00     0.039 A 
ATOM     36  C   UNL A   1      40.249  23.581  28.007  1.00  0.00     0.014 A 
ATOM     37  C   UNL A   1      39.659  24.791  25.996  1.00  0.00     0.014 A 
ATOM     38  C   UNL A   1      40.916  24.711  28.487  1.00  0.00     0.010 A 
ATOM     39  C   UNL A   1      40.388  25.890  26.441  1.00  0.00     0.010 A 
ATOM     40  C   UNL A   1      41.015  25.867  27.695  1.00  0.00    -0.014 A 
BRANCH  40  41
ATOM     41  C   UNL A   1      41.758  27.065  28.164  1.00  0.00     0.031 A 
ATOM     42  C   UNL A   1      41.012  28.228  28.764  1.00  0.00     0.074 A 
ATOM     43  C   UNL A   1      43.093  27.132  27.989  1.00  0.00     0.049 A 
ATOM     44  N   UNL A   1      41.468  29.392  29.147  1.00  0.00    -0.248 NA
ATOM     45  C   UNL A   1      39.558  28.072  28.928  1.00  0.00     0.031 C 
ATOM     46  C   UNL A   1      43.919  26.085  27.383  1.00  0.00     0.029 A 
ATOM     47  N   UNL A   1      43.988  28.127  28.290  1.00  0.00    -0.354 N 
ATOM     48  C   UNL A   1      40.360  30.110  29.582  1.00  0.00     0.074 A 
ATOM     49  C   UNL A   1      39.202  29.271  29.363  1.00  0.00     0.031 C 
ATOM     50  C   UNL A   1      45.201  26.485  27.376  1.00  0.00     0.029 A 
ATOM     51  C   UNL A   1      45.283  27.832  27.932  1.00  0.00     0.049 A 
ATOM     52  H   UNL A   1      43.729  28.973  28.722  1.00  0.00     0.167 HD
ATOM     53  C   UNL A   1      40.313  31.346  30.134  1.00  0.00     0.037 A 
ATOM     54  C   UNL A   1      46.408  28.569  28.027  1.00  0.00     0.037 A 
ATOM     55  C   UNL A   1      41.476  32.165  30.367  1.00  0.00     0.049 A 
ATOM     56  C   UNL A   1      46.330  29.944  28.634  1.00  0.00     0.074 A 
ATOM     57  C   UNL A   1      41.544  33.410  30.967  1.00  0.00     0.029 A 
ATOM     58  N   UNL A   1      42.773  31.822  30.009  1.00  0.00    -0.354 N 
ATOM     59  N   UNL A   1      45.280  30.584  29.093  1.00  0.00    -0.248 NA
ATOM     60  C   UNL A   1      47.587  30.696  28.741  1.00  0.00     0.031 C 
ATOM     61  C   UNL A   1      42.874  33.843  30.925  1.00  0.00     0.029 A 
ATOM     62  C   UNL A   1      43.644  32.841  30.355  1.00  0.00     0.049 A 
ATOM     63  H   UNL A   1      43.033  30.979  29.573  1.00  0.00     0.167 HD
ATOM     64  C   UNL A   1      45.757  31.800  29.573  1.00  0.00     0.074 A 
ATOM     65  C   UNL A   1      47.189  31.800  29.357  1.00  0.00     0.031 C 
ATOM     66  C   UNL A   1      45.071  32.820  30.144  1.00  0.00     0.037 A 
BRANCH  53  67
ATOM     67  C   UNL A   1      38.966  31.891  30.527  1.00  0.00     0.058 A 
ATOM     68  C   UNL A   1      38.308  31.466  31.694  1.00  0.00     0.135 A 
ATOM     69  C   UNL A   1      38.340  32.880  29.749  1.00  0.00     0.135 A 
ATOM     70  F   UNL A   1      38.852  30.513  32.468  1.00  0.00    -0.206 F 
ATOM     71  C   UNL A   1      37.069  31.979  32.059  1.00  0.00     0.059 A 
ATOM     72  C   UNL A   1      37.114  33.430  30.113  1.00  0.00     0.059 A 
ATOM     73  F   UNL A   1      38.921  33.323  28.624  1.00  0.00    -0.206 F 
ATOM     74  C   UNL A   1      36.479  32.963  31.263  1.00  0.00     0.060 A 
BRANCH  74  75
ATOM     75  S   UNL A   1      34.874  33.623  31.758  1.00  0.00     0.124 S 
ATOM     76  O   UNL A   1      35.231  34.397  32.943  1.00  0.00    -0.237 OA
ATOM     77  O   UNL A   1      34.484  34.402  30.587  1.00  0.00    -0.237 OA
ATOM     78  O   UNL A   1      34.076  32.426  32.006  1.00  0.00    -0.744 OA
ENDBRANCH  74  75
ENDBRANCH  53  67
BRANCH  54  79
ATOM     79  C   UNL A   1      47.704  28.012  27.554  1.00  0.00     0.058 A 
ATOM     80  C   UNL A   1      48.579  27.362  28.439  1.00  0.00     0.135 A 
ATOM     81  C   UNL A   1      48.093  28.111  26.208  1.00  0.00     0.135 A 
ATOM     82  F   UNL A   1      48.255  27.246  29.737  1.00  0.00    -0.206 F 
ATOM     83  C   UNL A   1      49.799  26.847  28.013  1.00  0.00     0.059 A 
ATOM     84  C   UNL A   1      49.295  27.579  25.754  1.00  0.00     0.059 A 
ATOM     85  F   UNL A   1      47.286  28.707  25.317  1.00  0.00    -0.206 F 
ATOM     86  C   UNL A   1      50.147  26.958  26.666  1.00  0.00     0.060 A 
BRANCH  86  87
ATOM     87  S   UNL A   1      51.712  26.246  26.114  1.00  0.00     0.124 S 
ATOM     88  O   UNL A   1      52.680  27.104  26.788  1.00  0.00    -0.237 OA
ATOM     89  O   UNL A   1      51.616  24.877  26.611  1.00  0.00    -0.237 OA
ATOM     90  O   UNL A   1      51.649  26.382  24.662  1.00  0.00    -0.744 OA
ENDBRANCH  86  87
ENDBRANCH  54  79
BRANCH  66  91
ATOM     91  C   UNL A   1      45.862  34.008  30.623  1.00  0.00     0.058 A 
ATOM     92  C   UNL A   1      46.084  35.128  29.807  1.00  0.00     0.135 A 
ATOM     93  C   UNL A   1      46.354  34.046  31.937  1.00  0.00     0.135 A 
ATOM     94  F   UNL A   1      45.642  35.140  28.539  1.00  0.00    -0.206 F 
ATOM     95  C   UNL A   1      46.788  36.236  30.271  1.00  0.00     0.059 A 
ATOM     96  C   UNL A   1      47.030  35.155  32.432  1.00  0.00     0.059 A 
ATOM     97  F   UNL A   1      46.159  33.006  32.763  1.00  0.00    -0.206 F 
ATOM     98  C   UNL A   1      47.253  36.241  31.588  1.00  0.00     0.060 A 
BRANCH  98  99
ATOM     99  S   UNL A   1      48.129  37.701  32.187  1.00  0.00     0.124 S 
ATOM    100  O   UNL A   1      48.065  37.510  33.632  1.00  0.00    -0.237 OA
ATOM    101  O   UNL A   1      49.449  37.541  31.585  1.00  0.00    -0.237 OA
ATOM    102  O   UNL A   1      47.338  38.811  31.664  1.00  0.00    -0.744 OA
ENDBRANCH  98  99
ENDBRANCH  66  91
ENDBRANCH  40  41
ENDBRANCH  32  35
ENDBRANCH  30  31
ENDBRANCH   1  30
TORSDOF 17
ENDMDL
MODEL 3
REMARK VINA RESULT:     -11.7      2.970      5.307
REMARK SMILES CC(=O)Nc1ccc(/C(=C\c2ccc(S(C)(=O)=O)cc2)C(=O)NCCCNC(=O)c2ccc(-c3c4nc(c(-c5c(F)cc(S(=O)(=O)[O-])cc5F)c5ccc([nH]5)c(-c5c(F)cc(S(=O)(=O)[O-])cc5F)c5nc(c(-c6c(F)cc(S(=O)(=O)[O-])cc6F)c6ccc3[nH]6)C=C5)C=C4)cc2)cc1
REMARK SMILES IDX 25 1 24 2 23 3 21 4 22 5 9 7 10 8 8 9 5 10 6 11 97 12 7 13
REMARK SMILES IDX 96 14 4 15 1 16 2 17 3 18 11 20 12 21 20 22 13 23 19 24
REMARK SMILES IDX 14 25 15 26 16 27 17 28 18 29 26 30 27 31 28 32 29 34 30 35
REMARK SMILES IDX 31 36 95 37 32 38 94 39 33 40 34 41 35 42 88 43 36 44 93 45
REMARK SMILES IDX 87 46 89 47 37 48 92 49 86 50 85 51 38 53 72 54 51 55 71 56
REMARK SMILES IDX 52 57 55 58 70 59 90 60 53 61 54 62 69 64 91 65 56 66 39 67
REMARK SMILES IDX 40 68 49 69 41 70 42 71 48 72 50 73 43 74 44 75 45 76 46 77
REMARK SMILES IDX 47 78 73 79 74 80 83 81 75 82 76 83 82 84 84 85 77 86 78 87
REMARK SMILES IDX 79 88 80 89 81 90 57 91 58 92 67 93 59 94 60 95 66 96 68 97
REMARK SMILES IDX 61 98 62 99 63 100 64 101 65 102
REMARK H PARENT 23 6 4 19 27 33 89 52 55 63
REMARK Flexibility Score: inf
ROOT
ATOM      1  C   UNL A   1      38.428  19.751  25.088  1.00  0.00     0.042 C 
ENDROOT
BRANCH   1   2
ATOM      2  C   UNL A   1      37.645  20.954  24.559  1.00  0.00     0.118 C 
BRANCH   2   3
ATOM      3  N   UNL A   1      37.947  22.147  25.326  1.00  0.00    -0.352 N 
ATOM      4  C   UNL A   1      37.274  23.266  25.699  1.00  0.00     0.251 C 
ATOM      5  O   UNL A   1      37.952  24.028  26.394  1.00  0.00    -0.269 OA
ATOM      6  H   UNL A   1      38.873  22.146  25.660  1.00  0.00     0.163 HD
BRANCH   4   7
ATOM      7  C   UNL A   1      35.808  23.563  25.375  1.00  0.00     0.047 C 
ATOM      8  C   UNL A   1      35.459  24.855  25.166  1.00  0.00     0.022 C 
BRANCH   7   9
ATOM      9  C   UNL A   1      34.774  22.463  25.491  1.00  0.00    -0.013 A 
ATOM     10  C   UNL A   1      33.200  20.070  25.578  1.00  0.00     0.041 A 
ATOM     11  C   UNL A   1      33.623  20.696  26.751  1.00  0.00     0.027 A 
ATOM     12  C   UNL A   1      33.429  20.727  24.382  1.00  0.00     0.027 A 
ATOM     13  C   UNL A   1      34.366  21.892  26.707  1.00  0.00     0.011 A 
ATOM     14  C   UNL A   1      34.227  21.877  24.340  1.00  0.00     0.011 A 
BRANCH  10  15
ATOM     15  N   UNL A   1      32.561  18.823  25.686  1.00  0.00    -0.326 N 
ATOM     16  C   UNL A   1      34.249  17.301  24.626  1.00  0.00     0.114 C 
ATOM     17  C   UNL A   1      32.902  17.577  25.239  1.00  0.00     0.221 C 
ATOM     18  O   UNL A   1      32.091  16.657  25.388  1.00  0.00    -0.275 OA
ATOM     19  H   UNL A   1      31.708  18.853  26.176  1.00  0.00     0.169 HD
ENDBRANCH  10  15
ENDBRANCH   7   9
BRANCH   8  20
ATOM     20  C   UNL A   1      34.189  25.437  24.712  1.00  0.00    -0.025 A 
ATOM     21  C   UNL A   1      33.406  26.118  25.661  1.00  0.00     0.009 A 
ATOM     22  C   UNL A   1      33.761  25.370  23.384  1.00  0.00     0.009 A 
ATOM     23  C   UNL A   1      32.235  26.773  25.278  1.00  0.00     0.021 A 
ATOM     24  C   UNL A   1      32.592  26.030  22.992  1.00  0.00     0.021 A 
ATOM     25  C   UNL A   1      31.839  26.731  23.940  1.00  0.00     0.067 A 
BRANCH  25  26
ATOM     26  S   UNL A   1      30.414  27.667  23.437  1.00  0.00     0.175 S 
ATOM     27  C   UNL A   1      30.650  29.246  24.207  1.00  0.00     0.163 C 
ATOM     28  O   UNL A   1      30.506  27.842  22.000  1.00  0.00    -0.224 OA
ATOM     29  O   UNL A   1      29.245  27.043  24.029  1.00  0.00    -0.224 OA
ENDBRANCH  25  26
ENDBRANCH   8  20
ENDBRANCH   4   7
ENDBRANCH   2   3
ENDBRANCH   1   2
BRANCH   1  30
ATOM     30  C   UNL A   1      39.422  20.107  26.195  1.00  0.00     0.118 C 
BRANCH  30  31
ATOM     31  N   UNL A   1      40.565  19.206  26.206  1.00  0.00    -0.352 N 
ATOM     32  C   UNL A   1      41.907  19.480  26.126  1.00  0.00     0.251 C 
ATOM     33  H   UNL A   1      40.340  18.250  26.283  1.00  0.00     0.163 HD
ATOM     34  O   UNL A   1      42.689  18.572  25.863  1.00  0.00    -0.269 OA
BRANCH  32  35
ATOM     35  C   UNL A   1      42.411  20.851  26.357  1.00  0.00     0.039 A 
ATOM     36  C   UNL A   1      42.731  21.650  25.255  1.00  0.00     0.014 A 
ATOM     37  C   UNL A   1      42.625  21.332  27.652  1.00  0.00     0.014 A 
ATOM     38  C   UNL A   1      43.220  22.944  25.453  1.00  0.00     0.010 A 
ATOM     39  C   UNL A   1      43.038  22.647  27.847  1.00  0.00     0.010 A 
ATOM     40  C   UNL A   1      43.351  23.464  26.751  1.00  0.00    -0.014 A 
BRANCH  40  41
ATOM     41  C   UNL A   1      43.825  24.852  26.985  1.00  0.00     0.031 A 
ATOM     42  C   UNL A   1      45.282  25.191  26.814  1.00  0.00     0.074 A 
ATOM     43  C   UNL A   1      42.956  25.789  27.414  1.00  0.00     0.049 A 
ATOM     44  N   UNL A   1      45.903  26.316  27.057  1.00  0.00    -0.248 NA
ATOM     45  C   UNL A   1      46.163  24.113  26.335  1.00  0.00     0.031 C 
ATOM     46  C   UNL A   1      41.528  25.570  27.654  1.00  0.00     0.029 A 
ATOM     47  N   UNL A   1      43.147  27.109  27.738  1.00  0.00    -0.354 N 
ATOM     48  C   UNL A   1      47.244  26.080  26.775  1.00  0.00     0.074 A 
ATOM     49  C   UNL A   1      47.355  24.688  26.396  1.00  0.00     0.031 C 
ATOM     50  C   UNL A   1      40.969  26.719  28.068  1.00  0.00     0.029 A 
ATOM     51  C   UNL A   1      42.004  27.743  28.167  1.00  0.00     0.049 A 
ATOM     52  H   UNL A   1      44.019  27.559  27.669  1.00  0.00     0.167 HD
ATOM     53  C   UNL A   1      48.282  26.948  26.807  1.00  0.00     0.037 A 
ATOM     54  C   UNL A   1      41.814  29.004  28.604  1.00  0.00     0.037 A 
ATOM     55  C   UNL A   1      48.156  28.337  27.165  1.00  0.00     0.049 A 
ATOM     56  C   UNL A   1      42.986  29.947  28.641  1.00  0.00     0.074 A 
ATOM     57  C   UNL A   1      49.136  29.314  27.178  1.00  0.00     0.029 A 
ATOM     58  N   UNL A   1      46.978  28.948  27.573  1.00  0.00    -0.354 N 
ATOM     59  N   UNL A   1      44.237  29.722  28.316  1.00  0.00    -0.248 NA
ATOM     60  C   UNL A   1      42.722  31.318  29.100  1.00  0.00     0.031 C 
ATOM     61  C   UNL A   1      48.562  30.502  27.645  1.00  0.00     0.029 A 
ATOM     62  C   UNL A   1      47.211  30.282  27.863  1.00  0.00     0.049 A 
ATOM     63  H   UNL A   1      46.105  28.498  27.647  1.00  0.00     0.167 HD
ATOM     64  C   UNL A   1      44.901  30.930  28.498  1.00  0.00     0.074 A 
ATOM     65  C   UNL A   1      43.911  31.884  28.953  1.00  0.00     0.031 C 
ATOM     66  C   UNL A   1      46.210  31.223  28.303  1.00  0.00     0.037 A 
BRANCH  53  67
ATOM     67  C   UNL A   1      49.647  26.425  26.444  1.00  0.00     0.058 A 
ATOM     68  C   UNL A   1      50.428  25.701  27.360  1.00  0.00     0.135 A 
ATOM     69  C   UNL A   1      50.166  26.614  25.152  1.00  0.00     0.135 A 
ATOM     70  F   UNL A   1      49.990  25.501  28.614  1.00  0.00    -0.206 F 
ATOM     71  C   UNL A   1      51.684  25.211  27.018  1.00  0.00     0.059 A 
ATOM     72  C   UNL A   1      51.406  26.105  24.779  1.00  0.00     0.059 A 
ATOM     73  F   UNL A   1      49.463  27.299  24.236  1.00  0.00    -0.206 F 
ATOM     74  C   UNL A   1      52.164  25.416  25.724  1.00  0.00     0.060 A 
BRANCH  74  75
ATOM     75  S   UNL A   1      53.792  24.764  25.297  1.00  0.00     0.124 S 
ATOM     76  O   UNL A   1      54.145  25.592  24.148  1.00  0.00    -0.237 OA
ATOM     77  O   UNL A   1      54.556  25.013  26.515  1.00  0.00    -0.237 OA
ATOM     78  O   UNL A   1      53.529  23.359  25.001  1.00  0.00    -0.744 OA
ENDBRANCH  74  75
ENDBRANCH  53  67
BRANCH  54  79
ATOM     79  C   UNL A   1      40.458  29.449  29.023  1.00  0.00     0.058 A 
ATOM     80  C   UNL A   1      40.147  29.645  30.378  1.00  0.00     0.135 A 
ATOM     81  C   UNL A   1      39.447  29.696  28.080  1.00  0.00     0.135 A 
ATOM     82  F   UNL A   1      41.077  29.418  31.319  1.00  0.00    -0.206 F 
ATOM     83  C   UNL A   1      38.880  30.051  30.785  1.00  0.00     0.059 A 
ATOM     84  C   UNL A   1      38.182  30.130  28.462  1.00  0.00     0.059 A 
ATOM     85  F   UNL A   1      39.696  29.542  26.771  1.00  0.00    -0.206 F 
ATOM     86  C   UNL A   1      37.904  30.294  29.818  1.00  0.00     0.060 A 
BRANCH  86  87
ATOM     87  S   UNL A   1      36.276  30.865  30.354  1.00  0.00     0.124 S 
ATOM     88  O   UNL A   1      35.918  29.850  31.338  1.00  0.00    -0.237 OA
ATOM     89  O   UNL A   1      36.577  32.191  30.883  1.00  0.00    -0.237 OA
ATOM     90  O   UNL A   1      35.495  30.854  29.121  1.00  0.00    -0.744 OA
ENDBRANCH  86  87
ENDBRANCH  54  79
BRANCH  66  91
ATOM     91  C   UNL A   1      46.647  32.645  28.533  1.00  0.00     0.058 A 
ATOM     92  C   UNL A   1      46.610  33.606  27.512  1.00  0.00     0.135 A 
ATOM     93  C   UNL A   1      47.052  33.061  29.811  1.00  0.00     0.135 A 
ATOM     94  F   UNL A   1      46.237  33.260  26.269  1.00  0.00    -0.206 F 
ATOM     95  C   UNL A   1      46.983  34.927  27.745  1.00  0.00     0.059 A 
ATOM     96  C   UNL A   1      47.398  34.382  30.074  1.00  0.00     0.059 A 
ATOM     97  F   UNL A   1      47.096  32.184  30.826  1.00  0.00    -0.206 F 
ATOM     98  C   UNL A   1      47.371  35.306  29.031  1.00  0.00     0.060 A 
BRANCH  98  99
ATOM     99  S   UNL A   1      47.815  37.030  29.327  1.00  0.00     0.124 S 
ATOM    100  O   UNL A   1      48.836  37.251  28.309  1.00  0.00    -0.237 OA
ATOM    101  O   UNL A   1      46.546  37.719  29.112  1.00  0.00    -0.237 OA
ATOM    102  O   UNL A   1      48.293  37.026  30.706  1.00  0.00    -0.744 OA
ENDBRANCH  98  99
ENDBRANCH  66  91
ENDBRANCH  40  41
ENDBRANCH  32  35
ENDBRANCH  30  31
ENDBRANCH   1  30
TORSDOF 17
ENDMDL
