MODEL 1
REMARK VINA RESULT:     -11.2      0.000      0.000
REMARK SMILES CCCCCn1c(SCC(=O)NCCCNC(=O)c2ccc(-c3c4nc(c(-c5c(F)cc(S(=O)(=O)[O-])cc5F)c5ccc([nH]5)c(-c5c(F)cc(S(=O)(=O)[O-])cc5F)c5nc(c(-c6c(F)cc(S(=O)(=O)[O-])cc6F)c6ccc3[nH]6)C=C5)C=C4)cc2)nc2ccccc2c1=O
REMARK SMILES IDX 10 1 11 2 12 3 9 5 8 6 7 7 6 8 92 9 85 10 91 11 93 12 86 13
REMARK SMILES IDX 90 14 87 15 89 16 88 17 5 18 4 19 3 20 2 21 1 22 13 23 14 24
REMARK SMILES IDX 15 25 16 26 17 27 18 29 19 30 20 31 84 32 21 33 83 34 22 35
REMARK SMILES IDX 23 36 24 37 77 38 25 39 82 40 76 41 78 42 26 43 81 44 75 45
REMARK SMILES IDX 74 46 27 48 61 49 40 50 60 51 41 52 44 53 59 54 79 55 42 56
REMARK SMILES IDX 43 57 58 59 80 60 45 61 28 62 29 63 38 64 30 65 31 66 37 67
REMARK SMILES IDX 39 68 32 69 33 70 34 71 35 72 36 73 62 74 63 75 72 76 64 77
REMARK SMILES IDX 65 78 71 79 73 80 66 81 67 82 68 83 69 84 70 85 46 86 47 87
REMARK SMILES IDX 56 88 48 89 49 90 55 91 57 92 50 93 51 94 52 95 53 96 54 97
REMARK H PARENT 12 4 16 28 78 47 44 58
REMARK Flexibility Score: inf
ROOT
ATOM      1  C   UNL A   1      38.041  22.983  26.076  1.00  0.00     0.230 C 
ATOM      2  O   UNL A   1      37.539  24.106  26.173  1.00  0.00    -0.274 OA
ATOM      3  N   UNL A   1      39.262  22.797  26.648  1.00  0.00    -0.355 N 
ATOM      4  H   UNL A   1      39.666  23.610  27.030  1.00  0.00     0.163 HD
ENDROOT
BRANCH   1   5
ATOM      5  C   UNL A   1      37.281  21.844  25.425  1.00  0.00     0.178 C 
BRANCH   5   6
ATOM      6  S   UNL A   1      35.992  22.351  24.323  1.00  0.00    -0.078 SA
BRANCH   6   7
ATOM      7  C   UNL A   1      34.476  22.902  24.984  1.00  0.00     0.171 A 
ATOM      8  N   UNL A   1      33.426  22.166  25.519  1.00  0.00    -0.287 N 
ATOM      9  C   UNL A   1      32.202  22.811  25.764  1.00  0.00     0.262 A 
ATOM     10  N   UNL A   1      34.431  24.193  24.869  1.00  0.00    -0.224 NA
ATOM     11  C   UNL A   1      32.194  24.274  25.786  1.00  0.00     0.066 A 
ATOM     12  O   UNL A   1      31.131  22.230  25.929  1.00  0.00    -0.269 OA
ATOM     13  C   UNL A   1      33.325  24.910  25.311  1.00  0.00     0.079 A 
ATOM     14  C   UNL A   1      31.095  25.000  26.262  1.00  0.00     0.016 A 
ATOM     15  C   UNL A   1      33.348  26.305  25.275  1.00  0.00     0.029 A 
ATOM     16  C   UNL A   1      31.133  26.393  26.244  1.00  0.00     0.001 A 
ATOM     17  C   UNL A   1      32.257  27.046  25.738  1.00  0.00     0.002 A 
BRANCH   8  18
ATOM     18  C   UNL A   1      33.388  20.734  25.804  1.00  0.00     0.128 C 
BRANCH  18  19
ATOM     19  C   UNL A   1      33.296  19.852  24.542  1.00  0.00     0.022 C 
BRANCH  19  20
ATOM     20  C   UNL A   1      32.879  18.387  24.746  1.00  0.00     0.002 C 
BRANCH  20  21
ATOM     21  C   UNL A   1      33.042  17.465  23.532  1.00  0.00    -0.003 C 
ATOM     22  C   UNL A   1      32.433  18.020  22.254  1.00  0.00     0.004 C 
ENDBRANCH  20  21
ENDBRANCH  19  20
ENDBRANCH  18  19
ENDBRANCH   8  18
ENDBRANCH   6   7
ENDBRANCH   5   6
ENDBRANCH   1   5
BRANCH   3  23
ATOM     23  C   UNL A   1      40.068  21.595  26.789  1.00  0.00     0.117 C 
BRANCH  23  24
ATOM     24  C   UNL A   1      41.517  21.785  26.345  1.00  0.00     0.042 C 
BRANCH  24  25
ATOM     25  C   UNL A   1      42.165  23.084  26.811  1.00  0.00     0.118 C 
BRANCH  25  26
ATOM     26  N   UNL A   1      42.243  24.093  25.763  1.00  0.00    -0.352 N 
ATOM     27  C   UNL A   1      42.036  25.452  25.801  1.00  0.00     0.251 C 
ATOM     28  H   UNL A   1      42.486  23.741  24.876  1.00  0.00     0.163 HD
ATOM     29  O   UNL A   1      41.997  26.074  24.743  1.00  0.00    -0.269 OA
BRANCH  27  30
ATOM     30  C   UNL A   1      41.830  26.165  27.084  1.00  0.00     0.039 A 
ATOM     31  C   UNL A   1      40.813  25.802  27.968  1.00  0.00     0.014 A 
ATOM     32  C   UNL A   1      42.703  27.203  27.425  1.00  0.00     0.014 A 
ATOM     33  C   UNL A   1      40.561  26.581  29.094  1.00  0.00     0.010 A 
ATOM     34  C   UNL A   1      42.503  27.930  28.604  1.00  0.00     0.010 A 
ATOM     35  C   UNL A   1      41.397  27.660  29.425  1.00  0.00    -0.014 A 
BRANCH  35  36
ATOM     36  C   UNL A   1      41.085  28.493  30.617  1.00  0.00     0.031 A 
ATOM     37  C   UNL A   1      41.958  28.434  31.845  1.00  0.00     0.074 A 
ATOM     38  C   UNL A   1      40.049  29.355  30.573  1.00  0.00     0.049 A 
ATOM     39  N   UNL A   1      41.863  29.119  32.957  1.00  0.00    -0.248 NA
ATOM     40  C   UNL A   1      43.080  27.482  31.826  1.00  0.00     0.031 C 
ATOM     41  C   UNL A   1      39.129  29.508  29.443  1.00  0.00     0.029 A 
ATOM     42  N   UNL A   1      39.613  30.285  31.483  1.00  0.00    -0.354 N 
ATOM     43  C   UNL A   1      42.898  28.674  33.771  1.00  0.00     0.074 A 
ATOM     44  C   UNL A   1      43.591  27.636  33.039  1.00  0.00     0.031 C 
ATOM     45  C   UNL A   1      38.279  30.514  29.701  1.00  0.00     0.029 A 
ATOM     46  C   UNL A   1      38.556  31.042  31.034  1.00  0.00     0.049 A 
ATOM     47  H   UNL A   1      40.017  30.398  32.374  1.00  0.00     0.167 HD
ATOM     48  C   UNL A   1      43.251  29.103  35.007  1.00  0.00     0.037 A 
ATOM     49  C   UNL A   1      37.883  32.048  31.626  1.00  0.00     0.037 A 
ATOM     50  C   UNL A   1      42.582  30.156  35.722  1.00  0.00     0.049 A 
ATOM     51  C   UNL A   1      38.277  32.487  33.007  1.00  0.00     0.074 A 
ATOM     52  C   UNL A   1      42.884  30.675  36.970  1.00  0.00     0.029 A 
ATOM     53  N   UNL A   1      41.481  30.858  35.255  1.00  0.00    -0.354 N 
ATOM     54  N   UNL A   1      39.260  32.052  33.757  1.00  0.00    -0.248 NA
ATOM     55  C   UNL A   1      37.462  33.538  33.629  1.00  0.00     0.031 C 
ATOM     56  C   UNL A   1      41.946  31.669  37.270  1.00  0.00     0.029 A 
ATOM     57  C   UNL A   1      41.081  31.793  36.195  1.00  0.00     0.049 A 
ATOM     58  H   UNL A   1      41.048  30.712  34.382  1.00  0.00     0.167 HD
ATOM     59  C   UNL A   1      39.185  32.781  34.939  1.00  0.00     0.074 A 
ATOM     60  C   UNL A   1      38.072  33.697  34.796  1.00  0.00     0.031 C 
ATOM     61  C   UNL A   1      39.967  32.693  36.042  1.00  0.00     0.037 A 
BRANCH  48  62
ATOM     62  C   UNL A   1      44.422  28.432  35.669  1.00  0.00     0.058 A 
ATOM     63  C   UNL A   1      44.259  27.280  36.454  1.00  0.00     0.135 A 
ATOM     64  C   UNL A   1      45.726  28.916  35.476  1.00  0.00     0.135 A 
ATOM     65  F   UNL A   1      43.033  26.785  36.682  1.00  0.00    -0.206 F 
ATOM     66  C   UNL A   1      45.347  26.641  37.041  1.00  0.00     0.059 A 
ATOM     67  C   UNL A   1      46.832  28.281  36.037  1.00  0.00     0.059 A 
ATOM     68  F   UNL A   1      45.936  30.014  34.734  1.00  0.00    -0.206 F 
ATOM     69  C   UNL A   1      46.630  27.150  36.827  1.00  0.00     0.060 A 
BRANCH  69  70
ATOM     70  S   UNL A   1      48.031  26.305  37.591  1.00  0.00     0.124 S 
ATOM     71  O   UNL A   1      47.510  24.949  37.734  1.00  0.00    -0.237 OA
ATOM     72  O   UNL A   1      49.081  26.478  36.593  1.00  0.00    -0.237 OA
ATOM     73  O   UNL A   1      48.229  27.036  38.839  1.00  0.00    -0.744 OA
ENDBRANCH  69  70
ENDBRANCH  48  62
BRANCH  49  74
ATOM     74  C   UNL A   1      36.772  32.714  30.899  1.00  0.00     0.058 A 
ATOM     75  C   UNL A   1      35.436  32.426  31.208  1.00  0.00     0.135 A 
ATOM     76  C   UNL A   1      37.025  33.681  29.913  1.00  0.00     0.135 A 
ATOM     77  F   UNL A   1      35.146  31.503  32.138  1.00  0.00    -0.206 F 
ATOM     78  C   UNL A   1      34.385  33.074  30.567  1.00  0.00     0.059 A 
ATOM     79  C   UNL A   1      35.992  34.358  29.273  1.00  0.00     0.059 A 
ATOM     80  F   UNL A   1      38.288  34.000  29.591  1.00  0.00    -0.206 F 
ATOM     81  C   UNL A   1      34.675  34.044  29.604  1.00  0.00     0.060 A 
BRANCH  81  82
ATOM     82  S   UNL A   1      33.306  34.935  28.833  1.00  0.00     0.124 S 
ATOM     83  O   UNL A   1      32.455  35.220  29.983  1.00  0.00    -0.237 OA
ATOM     84  O   UNL A   1      33.981  36.083  28.238  1.00  0.00    -0.237 OA
ATOM     85  O   UNL A   1      32.774  33.968  27.877  1.00  0.00    -0.744 OA
ENDBRANCH  81  82
ENDBRANCH  49  74
BRANCH  61  86
ATOM     86  C   UNL A   1      39.648  33.605  37.191  1.00  0.00     0.058 A 
ATOM     87  C   UNL A   1      38.770  33.211  38.211  1.00  0.00     0.135 A 
ATOM     88  C   UNL A   1      40.284  34.851  37.313  1.00  0.00     0.135 A 
ATOM     89  F   UNL A   1      38.131  32.033  38.134  1.00  0.00    -0.206 F 
ATOM     90  C   UNL A   1      38.529  34.023  39.314  1.00  0.00     0.059 A 
ATOM     91  C   UNL A   1      40.073  35.670  38.418  1.00  0.00     0.059 A 
ATOM     92  F   UNL A   1      41.139  35.269  36.366  1.00  0.00    -0.206 F 
ATOM     93  C   UNL A   1      39.190  35.249  39.411  1.00  0.00     0.060 A 
BRANCH  93  94
ATOM     94  S   UNL A   1      38.912  36.266  40.876  1.00  0.00     0.124 S 
ATOM     95  O   UNL A   1      37.839  35.536  41.543  1.00  0.00    -0.237 OA
ATOM     96  O   UNL A   1      40.213  36.226  41.537  1.00  0.00    -0.237 OA
ATOM     97  O   UNL A   1      38.537  37.565  40.323  1.00  0.00    -0.744 OA
ENDBRANCH  93  94
ENDBRANCH  61  86
ENDBRANCH  35  36
ENDBRANCH  27  30
ENDBRANCH  25  26
ENDBRANCH  24  25
ENDBRANCH  23  24
ENDBRANCH   3  23
TORSDOF 19
ENDMDL
MODEL 2
REMARK VINA RESULT:     -11.1      6.324     12.158
REMARK SMILES CCCCCn1c(SCC(=O)NCCCNC(=O)c2ccc(-c3c4nc(c(-c5c(F)cc(S(=O)(=O)[O-])cc5F)c5ccc([nH]5)c(-c5c(F)cc(S(=O)(=O)[O-])cc5F)c5nc(c(-c6c(F)cc(S(=O)(=O)[O-])cc6F)c6ccc3[nH]6)C=C5)C=C4)cc2)nc2ccccc2c1=O
REMARK SMILES IDX 10 1 11 2 12 3 9 5 8 6 7 7 6 8 92 9 85 10 91 11 93 12 86 13
REMARK SMILES IDX 90 14 87 15 89 16 88 17 5 18 4 19 3 20 2 21 1 22 13 23 14 24
REMARK SMILES IDX 15 25 16 26 17 27 18 29 19 30 20 31 84 32 21 33 83 34 22 35
REMARK SMILES IDX 23 36 24 37 77 38 25 39 82 40 76 41 78 42 26 43 81 44 75 45
REMARK SMILES IDX 74 46 27 48 61 49 40 50 60 51 41 52 44 53 59 54 79 55 42 56
REMARK SMILES IDX 43 57 58 59 80 60 45 61 28 62 29 63 38 64 30 65 31 66 37 67
REMARK SMILES IDX 39 68 32 69 33 70 34 71 35 72 36 73 62 74 63 75 72 76 64 77
REMARK SMILES IDX 65 78 71 79 73 80 66 81 67 82 68 83 69 84 70 85 46 86 47 87
REMARK SMILES IDX 56 88 48 89 49 90 55 91 57 92 50 93 51 94 52 95 53 96 54 97
REMARK H PARENT 12 4 16 28 78 47 44 58
REMARK Flexibility Score: inf
ROOT
ATOM      1  C   UNL A   1      32.627  30.537  26.801  1.00  0.00     0.230 C 
ATOM      2  O   UNL A   1      31.464  30.881  26.575  1.00  0.00    -0.274 OA
ATOM      3  N   UNL A   1      33.468  31.481  27.306  1.00  0.00    -0.355 N 
ATOM      4  H   UNL A   1      33.079  32.382  27.377  1.00  0.00     0.163 HD
ENDROOT
BRANCH   1   5
ATOM      5  C   UNL A   1      33.065  29.098  26.607  1.00  0.00     0.178 C 
BRANCH   5   6
ATOM      6  S   UNL A   1      31.738  27.936  26.453  1.00  0.00    -0.078 SA
BRANCH   6   7
ATOM      7  C   UNL A   1      31.875  26.637  25.300  1.00  0.00     0.171 A 
ATOM      8  N   UNL A   1      30.918  26.117  24.437  1.00  0.00    -0.287 N 
ATOM      9  C   UNL A   1      31.187  24.907  23.775  1.00  0.00     0.262 A 
ATOM     10  N   UNL A   1      33.073  26.148  25.382  1.00  0.00    -0.224 NA
ATOM     11  C   UNL A   1      32.574  24.442  23.740  1.00  0.00     0.066 A 
ATOM     12  O   UNL A   1      30.332  24.196  23.251  1.00  0.00    -0.269 OA
ATOM     13  C   UNL A   1      33.468  25.086  24.575  1.00  0.00     0.079 A 
ATOM     14  C   UNL A   1      32.982  23.395  22.905  1.00  0.00     0.016 A 
ATOM     15  C   UNL A   1      34.793  24.652  24.607  1.00  0.00     0.029 A 
ATOM     16  C   UNL A   1      34.313  22.981  22.924  1.00  0.00     0.001 A 
ATOM     17  C   UNL A   1      35.217  23.602  23.786  1.00  0.00     0.002 A 
BRANCH   8  18
ATOM     18  C   UNL A   1      29.578  26.633  24.168  1.00  0.00     0.128 C 
BRANCH  18  19
ATOM     19  C   UNL A   1      29.570  27.946  23.360  1.00  0.00     0.022 C 
BRANCH  19  20
ATOM     20  C   UNL A   1      28.195  28.531  22.995  1.00  0.00     0.002 C 
BRANCH  20  21
ATOM     21  C   UNL A   1      28.196  29.961  22.442  1.00  0.00    -0.003 C 
ATOM     22  C   UNL A   1      27.663  30.997  23.418  1.00  0.00     0.004 C 
ENDBRANCH  20  21
ENDBRANCH  19  20
ENDBRANCH  18  19
ENDBRANCH   8  18
ENDBRANCH   6   7
ENDBRANCH   5   6
ENDBRANCH   1   5
BRANCH   3  23
ATOM     23  C   UNL A   1      34.846  31.376  27.759  1.00  0.00     0.117 C 
BRANCH  23  24
ATOM     24  C   UNL A   1      35.479  32.728  28.082  1.00  0.00     0.042 C 
BRANCH  24  25
ATOM     25  C   UNL A   1      36.341  32.748  29.340  1.00  0.00     0.118 C 
BRANCH  25  26
ATOM     26  N   UNL A   1      36.021  31.674  30.270  1.00  0.00    -0.352 N 
ATOM     27  C   UNL A   1      36.694  30.516  30.578  1.00  0.00     0.251 C 
ATOM     28  H   UNL A   1      35.178  31.800  30.763  1.00  0.00     0.163 HD
ATOM     29  O   UNL A   1      36.137  29.676  31.281  1.00  0.00    -0.269 OA
BRANCH  27  30
ATOM     30  C   UNL A   1      38.055  30.253  30.055  1.00  0.00     0.039 A 
ATOM     31  C   UNL A   1      38.290  30.047  28.695  1.00  0.00     0.014 A 
ATOM     32  C   UNL A   1      39.131  30.249  30.949  1.00  0.00     0.014 A 
ATOM     33  C   UNL A   1      39.556  29.665  28.259  1.00  0.00     0.010 A 
ATOM     34  C   UNL A   1      40.421  29.951  30.495  1.00  0.00     0.010 A 
ATOM     35  C   UNL A   1      40.638  29.604  29.153  1.00  0.00    -0.014 A 
BRANCH  35  36
ATOM     36  C   UNL A   1      41.972  29.163  28.664  1.00  0.00     0.031 A 
ATOM     37  C   UNL A   1      43.154  30.098  28.708  1.00  0.00     0.074 A 
ATOM     38  C   UNL A   1      42.136  27.895  28.237  1.00  0.00     0.049 A 
ATOM     39  N   UNL A   1      44.397  29.871  28.366  1.00  0.00    -0.248 NA
ATOM     40  C   UNL A   1      42.911  31.465  29.196  1.00  0.00     0.031 C 
ATOM     41  C   UNL A   1      41.073  26.892  28.146  1.00  0.00     0.029 A 
ATOM     42  N   UNL A   1      43.261  27.222  27.830  1.00  0.00    -0.354 N 
ATOM     43  C   UNL A   1      45.078  31.062  28.583  1.00  0.00     0.074 A 
ATOM     44  C   UNL A   1      44.105  32.023  29.055  1.00  0.00     0.031 C 
ATOM     45  C   UNL A   1      41.605  25.718  27.772  1.00  0.00     0.029 A 
ATOM     46  C   UNL A   1      43.036  25.895  27.544  1.00  0.00     0.049 A 
ATOM     47  H   UNL A   1      44.146  27.648  27.750  1.00  0.00     0.167 HD
ATOM     48  C   UNL A   1      46.397  31.329  28.421  1.00  0.00     0.037 A 
ATOM     49  C   UNL A   1      43.884  24.928  27.143  1.00  0.00     0.037 A 
ATOM     50  C   UNL A   1      47.371  30.367  27.980  1.00  0.00     0.049 A 
ATOM     51  C   UNL A   1      45.336  25.255  26.945  1.00  0.00     0.074 A 
ATOM     52  C   UNL A   1      48.734  30.539  27.809  1.00  0.00     0.029 A 
ATOM     53  N   UNL A   1      47.091  29.050  27.646  1.00  0.00    -0.354 N 
ATOM     54  N   UNL A   1      45.959  26.389  27.157  1.00  0.00    -0.248 NA
ATOM     55  C   UNL A   1      46.198  24.179  26.437  1.00  0.00     0.031 C 
ATOM     56  C   UNL A   1      49.273  29.336  27.342  1.00  0.00     0.029 A 
ATOM     57  C   UNL A   1      48.252  28.403  27.255  1.00  0.00     0.049 A 
ATOM     58  H   UNL A   1      46.198  28.636  27.683  1.00  0.00     0.167 HD
ATOM     59  C   UNL A   1      47.286  26.163  26.813  1.00  0.00     0.074 A 
ATOM     60  C   UNL A   1      47.381  24.778  26.397  1.00  0.00     0.031 C 
ATOM     61  C   UNL A   1      48.330  27.027  26.837  1.00  0.00     0.037 A 
BRANCH  48  62
ATOM     62  C   UNL A   1      46.869  32.723  28.725  1.00  0.00     0.058 A 
ATOM     63  C   UNL A   1      47.316  33.083  30.005  1.00  0.00     0.135 A 
ATOM     64  C   UNL A   1      46.923  33.696  27.713  1.00  0.00     0.135 A 
ATOM     65  F   UNL A   1      47.271  32.196  31.011  1.00  0.00    -0.206 F 
ATOM     66  C   UNL A   1      47.783  34.365  30.278  1.00  0.00     0.059 A 
ATOM     67  C   UNL A   1      47.406  34.979  27.958  1.00  0.00     0.059 A 
ATOM     68  F   UNL A   1      46.508  33.403  26.471  1.00  0.00    -0.206 F 
ATOM     69  C   UNL A   1      47.823  35.307  29.248  1.00  0.00     0.060 A 
BRANCH  69  70
ATOM     70  S   UNL A   1      48.437  36.964  29.617  1.00  0.00     0.124 S 
ATOM     71  O   UNL A   1      49.739  36.945  28.957  1.00  0.00    -0.237 OA
ATOM     72  O   UNL A   1      47.427  37.816  28.999  1.00  0.00    -0.237 OA
ATOM     73  O   UNL A   1      48.473  36.996  31.076  1.00  0.00    -0.744 OA
ENDBRANCH  69  70
ENDBRANCH  48  62
BRANCH  49  74
ATOM     74  C   UNL A   1      43.372  23.553  26.915  1.00  0.00     0.058 A 
ATOM     75  C   UNL A   1      43.128  23.082  25.617  1.00  0.00     0.135 A 
ATOM     76  C   UNL A   1      43.158  22.670  27.985  1.00  0.00     0.135 A 
ATOM     77  F   UNL A   1      43.311  23.893  24.564  1.00  0.00    -0.206 F 
ATOM     78  C   UNL A   1      42.690  21.782  25.385  1.00  0.00     0.059 A 
ATOM     79  C   UNL A   1      42.740  21.359  27.777  1.00  0.00     0.059 A 
ATOM     80  F   UNL A   1      43.389  23.071  29.245  1.00  0.00    -0.206 F 
ATOM     81  C   UNL A   1      42.506  20.926  26.473  1.00  0.00     0.060 A 
BRANCH  81  82
ATOM     82  S   UNL A   1      42.012  19.218  26.157  1.00  0.00     0.124 S 
ATOM     83  O   UNL A   1      42.833  18.884  24.998  1.00  0.00    -0.237 OA
ATOM     84  O   UNL A   1      42.372  18.556  27.407  1.00  0.00    -0.237 OA
ATOM     85  O   UNL A   1      40.578  19.325  25.906  1.00  0.00    -0.744 OA
ENDBRANCH  81  82
ENDBRANCH  49  74
BRANCH  61  86
ATOM     86  C   UNL A   1      49.668  26.509  26.396  1.00  0.00     0.058 A 
ATOM     87  C   UNL A   1      50.114  26.677  25.077  1.00  0.00     0.135 A 
ATOM     88  C   UNL A   1      50.542  25.911  27.318  1.00  0.00     0.135 A 
ATOM     89  F   UNL A   1      49.311  27.236  24.158  1.00  0.00    -0.206 F 
ATOM     90  C   UNL A   1      51.383  26.265  24.684  1.00  0.00     0.059 A 
ATOM     91  C   UNL A   1      51.823  25.510  26.950  1.00  0.00     0.059 A 
ATOM     92  F   UNL A   1      50.163  25.736  28.594  1.00  0.00    -0.206 F 
ATOM     93  C   UNL A   1      52.232  25.687  25.629  1.00  0.00     0.060 A 
BRANCH  93  94
ATOM     94  S   UNL A   1      53.897  25.209  25.118  1.00  0.00     0.124 S 
ATOM     95  O   UNL A   1      53.724  23.786  24.845  1.00  0.00    -0.237 OA
ATOM     96  O   UNL A   1      54.120  26.057  23.950  1.00  0.00    -0.237 OA
ATOM     97  O   UNL A   1      54.716  25.530  26.283  1.00  0.00    -0.744 OA
ENDBRANCH  93  94
ENDBRANCH  61  86
ENDBRANCH  35  36
ENDBRANCH  27  30
ENDBRANCH  25  26
ENDBRANCH  24  25
ENDBRANCH  23  24
ENDBRANCH   3  23
TORSDOF 19
ENDMDL
MODEL 3
REMARK VINA RESULT:     -11.0      6.325     11.676
REMARK SMILES CCCCCn1c(SCC(=O)NCCCNC(=O)c2ccc(-c3c4nc(c(-c5c(F)cc(S(=O)(=O)[O-])cc5F)c5ccc([nH]5)c(-c5c(F)cc(S(=O)(=O)[O-])cc5F)c5nc(c(-c6c(F)cc(S(=O)(=O)[O-])cc6F)c6ccc3[nH]6)C=C5)C=C4)cc2)nc2ccccc2c1=O
REMARK SMILES IDX 10 1 11 2 12 3 9 5 8 6 7 7 6 8 92 9 85 10 91 11 93 12 86 13
REMARK SMILES IDX 90 14 87 15 89 16 88 17 5 18 4 19 3 20 2 21 1 22 13 23 14 24
REMARK SMILES IDX 15 25 16 26 17 27 18 29 19 30 20 31 84 32 21 33 83 34 22 35
REMARK SMILES IDX 23 36 24 37 77 38 25 39 82 40 76 41 78 42 26 43 81 44 75 45
REMARK SMILES IDX 74 46 27 48 61 49 40 50 60 51 41 52 44 53 59 54 79 55 42 56
REMARK SMILES IDX 43 57 58 59 80 60 45 61 28 62 29 63 38 64 30 65 31 66 37 67
REMARK SMILES IDX 39 68 32 69 33 70 34 71 35 72 36 73 62 74 63 75 72 76 64 77
REMARK SMILES IDX 65 78 71 79 73 80 66 81 67 82 68 83 69 84 70 85 46 86 47 87
REMARK SMILES IDX 56 88 48 89 49 90 55 91 57 92 50 93 51 94 52 95 53 96 54 97
REMARK H PARENT 12 4 16 28 78 47 44 58
REMARK Flexibility Score: inf
ROOT
ATOM      1  C   UNL A   1      32.486  29.248  27.041  1.00  0.00     0.230 C 
ATOM      2  O   UNL A   1      31.564  28.702  27.654  1.00  0.00    -0.274 OA
ATOM      3  N   UNL A   1      33.474  29.818  27.782  1.00  0.00    -0.355 N 
ATOM      4  H   UNL A   1      33.320  29.803  28.755  1.00  0.00     0.163 HD
ENDROOT
BRANCH   1   5
ATOM      5  C   UNL A   1      32.550  29.198  25.526  1.00  0.00     0.178 C 
BRANCH   5   6
ATOM      6  S   UNL A   1      33.412  27.799  24.869  1.00  0.00    -0.078 SA
BRANCH   6   7
ATOM      7  C   UNL A   1      33.020  26.206  25.458  1.00  0.00     0.171 A 
ATOM      8  N   UNL A   1      31.788  25.676  25.819  1.00  0.00    -0.287 N 
ATOM      9  C   UNL A   1      31.751  24.447  26.501  1.00  0.00     0.262 A 
ATOM     10  N   UNL A   1      34.123  25.531  25.564  1.00  0.00    -0.224 NA
ATOM     11  C   UNL A   1      32.958  23.620  26.482  1.00  0.00     0.066 A 
ATOM     12  O   UNL A   1      30.785  24.035  27.139  1.00  0.00    -0.269 OA
ATOM     13  C   UNL A   1      34.116  24.218  26.021  1.00  0.00     0.079 A 
ATOM     14  C   UNL A   1      32.947  22.287  26.909  1.00  0.00     0.016 A 
ATOM     15  C   UNL A   1      35.301  23.482  26.022  1.00  0.00     0.029 A 
ATOM     16  C   UNL A   1      34.130  21.550  26.886  1.00  0.00     0.001 A 
ATOM     17  C   UNL A   1      35.311  22.152  26.453  1.00  0.00     0.002 A 
BRANCH   8  18
ATOM     18  C   UNL A   1      30.468  26.279  25.652  1.00  0.00     0.128 C 
BRANCH  18  19
ATOM     19  C   UNL A   1      30.022  26.399  24.181  1.00  0.00     0.022 C 
BRANCH  19  20
ATOM     20  C   UNL A   1      30.807  25.577  23.146  1.00  0.00     0.002 C 
BRANCH  20  21
ATOM     21  C   UNL A   1      31.377  26.359  21.957  1.00  0.00    -0.003 C 
ATOM     22  C   UNL A   1      32.485  25.628  21.216  1.00  0.00     0.004 C 
ENDBRANCH  20  21
ENDBRANCH  19  20
ENDBRANCH  18  19
ENDBRANCH   8  18
ENDBRANCH   6   7
ENDBRANCH   5   6
ENDBRANCH   1   5
BRANCH   3  23
ATOM     23  C   UNL A   1      34.721  30.447  27.375  1.00  0.00     0.117 C 
BRANCH  23  24
ATOM     24  C   UNL A   1      34.887  31.865  27.917  1.00  0.00     0.042 C 
BRANCH  24  25
ATOM     25  C   UNL A   1      35.990  32.028  28.957  1.00  0.00     0.118 C 
BRANCH  25  26
ATOM     26  N   UNL A   1      35.800  31.187  30.131  1.00  0.00    -0.352 N 
ATOM     27  C   UNL A   1      36.621  30.252  30.714  1.00  0.00     0.251 C 
ATOM     28  H   UNL A   1      34.934  31.310  30.584  1.00  0.00     0.163 HD
ATOM     29  O   UNL A   1      36.169  29.543  31.610  1.00  0.00    -0.269 OA
BRANCH  27  30
ATOM     30  C   UNL A   1      38.020  30.065  30.262  1.00  0.00     0.039 A 
ATOM     31  C   UNL A   1      38.347  29.991  28.907  1.00  0.00     0.014 A 
ATOM     32  C   UNL A   1      39.035  29.999  31.222  1.00  0.00     0.014 A 
ATOM     33  C   UNL A   1      39.649  29.676  28.523  1.00  0.00     0.010 A 
ATOM     34  C   UNL A   1      40.359  29.770  30.829  1.00  0.00     0.010 A 
ATOM     35  C   UNL A   1      40.671  29.554  29.479  1.00  0.00    -0.014 A 
BRANCH  35  36
ATOM     36  C   UNL A   1      42.045  29.186  29.042  1.00  0.00     0.031 A 
ATOM     37  C   UNL A   1      42.346  27.796  28.544  1.00  0.00     0.074 A 
ATOM     38  C   UNL A   1      43.012  30.125  29.032  1.00  0.00     0.049 A 
ATOM     39  N   UNL A   1      43.472  27.311  28.083  1.00  0.00    -0.248 NA
ATOM     40  C   UNL A   1      41.244  26.820  28.568  1.00  0.00     0.031 C 
ATOM     41  C   UNL A   1      42.849  31.507  29.487  1.00  0.00     0.029 A 
ATOM     42  N   UNL A   1      44.313  30.072  28.596  1.00  0.00    -0.354 N 
ATOM     43  C   UNL A   1      43.220  25.979  27.777  1.00  0.00     0.074 A 
ATOM     44  C   UNL A   1      41.842  25.719  28.135  1.00  0.00     0.031 C 
ATOM     45  C   UNL A   1      43.982  32.186  29.251  1.00  0.00     0.029 A 
ATOM     46  C   UNL A   1      44.971  31.277  28.678  1.00  0.00     0.049 A 
ATOM     47  H   UNL A   1      44.736  29.249  28.259  1.00  0.00     0.167 HD
ATOM     48  C   UNL A   1      44.053  25.060  27.231  1.00  0.00     0.037 A 
ATOM     49  C   UNL A   1      46.228  31.616  28.331  1.00  0.00     0.037 A 
ATOM     50  C   UNL A   1      45.413  25.325  26.847  1.00  0.00     0.049 A 
ATOM     51  C   UNL A   1      47.140  30.573  27.753  1.00  0.00     0.074 A 
ATOM     52  C   UNL A   1      46.326  24.462  26.264  1.00  0.00     0.029 A 
ATOM     53  N   UNL A   1      46.058  26.544  26.999  1.00  0.00    -0.354 N 
ATOM     54  N   UNL A   1      46.880  29.319  27.471  1.00  0.00    -0.248 NA
ATOM     55  C   UNL A   1      48.520  30.983  27.462  1.00  0.00     0.031 C 
ATOM     56  C   UNL A   1      47.532  25.151  26.093  1.00  0.00     0.029 A 
ATOM     57  C   UNL A   1      47.360  26.452  26.537  1.00  0.00     0.049 A 
ATOM     58  H   UNL A   1      45.649  27.355  27.379  1.00  0.00     0.167 HD
ATOM     59  C   UNL A   1      48.062  28.791  26.965  1.00  0.00     0.074 A 
ATOM     60  C   UNL A   1      49.033  29.866  26.961  1.00  0.00     0.031 C 
ATOM     61  C   UNL A   1      48.318  27.528  26.546  1.00  0.00     0.037 A 
BRANCH  48  62
ATOM     62  C   UNL A   1      43.514  23.674  27.013  1.00  0.00     0.058 A 
ATOM     63  C   UNL A   1      43.271  22.804  28.086  1.00  0.00     0.135 A 
ATOM     64  C   UNL A   1      43.190  23.228  25.721  1.00  0.00     0.135 A 
ATOM     65  F   UNL A   1      43.578  23.175  29.340  1.00  0.00    -0.206 F 
ATOM     66  C   UNL A   1      42.744  21.532  27.887  1.00  0.00     0.059 A 
ATOM     67  C   UNL A   1      42.642  21.968  25.499  1.00  0.00     0.059 A 
ATOM     68  F   UNL A   1      43.403  24.021  24.660  1.00  0.00    -0.206 F 
ATOM     69  C   UNL A   1      42.433  21.122  26.588  1.00  0.00     0.060 A 
BRANCH  69  70
ATOM     70  S   UNL A   1      41.743  19.471  26.347  1.00  0.00     0.124 S 
ATOM     71  O   UNL A   1      42.389  19.066  25.102  1.00  0.00    -0.237 OA
ATOM     72  O   UNL A   1      42.185  18.770  27.547  1.00  0.00    -0.237 OA
ATOM     73  O   UNL A   1      40.306  19.713  26.258  1.00  0.00    -0.744 OA
ENDBRANCH  69  70
ENDBRANCH  48  62
BRANCH  49  74
ATOM     74  C   UNL A   1      46.687  33.017  28.514  1.00  0.00     0.058 A 
ATOM     75  C   UNL A   1      46.606  33.943  27.466  1.00  0.00     0.135 A 
ATOM     76  C   UNL A   1      47.174  33.466  29.752  1.00  0.00     0.135 A 
ATOM     77  F   UNL A   1      46.154  33.557  26.263  1.00  0.00    -0.206 F 
ATOM     78  C   UNL A   1      46.990  35.269  27.636  1.00  0.00     0.059 A 
ATOM     79  C   UNL A   1      47.545  34.792  29.953  1.00  0.00     0.059 A 
ATOM     80  F   UNL A   1      47.259  32.619  30.789  1.00  0.00    -0.206 F 
ATOM     81  C   UNL A   1      47.452  35.685  28.887  1.00  0.00     0.060 A 
BRANCH  81  82
ATOM     82  S   UNL A   1      47.876  37.425  29.119  1.00  0.00     0.124 S 
ATOM     83  O   UNL A   1      46.557  38.049  29.136  1.00  0.00    -0.237 OA
ATOM     84  O   UNL A   1      48.587  37.402  30.393  1.00  0.00    -0.237 OA
ATOM     85  O   UNL A   1      48.703  37.726  27.955  1.00  0.00    -0.744 OA
ENDBRANCH  81  82
ENDBRANCH  49  74
BRANCH  61  86
ATOM     86  C   UNL A   1      49.703  27.230  26.052  1.00  0.00     0.058 A 
ATOM     87  C   UNL A   1      50.724  26.847  26.934  1.00  0.00     0.135 A 
ATOM     88  C   UNL A   1      49.992  27.251  24.678  1.00  0.00     0.135 A 
ATOM     89  F   UNL A   1      50.498  26.820  28.257  1.00  0.00    -0.206 F 
ATOM     90  C   UNL A   1      51.988  26.498  26.472  1.00  0.00     0.059 A 
ATOM     91  C   UNL A   1      51.245  26.887  24.193  1.00  0.00     0.059 A 
ATOM     92  F   UNL A   1      49.046  27.603  23.793  1.00  0.00    -0.206 F 
ATOM     93  C   UNL A   1      52.238  26.516  25.099  1.00  0.00     0.060 A 
BRANCH  93  94
ATOM     94  S   UNL A   1      53.867  26.006  24.511  1.00  0.00     0.124 S 
ATOM     95  O   UNL A   1      54.749  26.772  25.385  1.00  0.00    -0.237 OA
ATOM     96  O   UNL A   1      53.843  24.564  24.737  1.00  0.00    -0.237 OA
ATOM     97  O   UNL A   1      53.865  26.414  23.108  1.00  0.00    -0.744 OA
ENDBRANCH  93  94
ENDBRANCH  61  86
ENDBRANCH  35  36
ENDBRANCH  27  30
ENDBRANCH  25  26
ENDBRANCH  24  25
ENDBRANCH  23  24
ENDBRANCH   3  23
TORSDOF 19
ENDMDL
