MODEL 1
REMARK VINA RESULT:     -14.0      0.000      0.000
REMARK SMILES Cc1c(CC(=O)N2CCC(C(=O)NCCCNC(=O)c3ccc(-c4c5nc(c(-c6c(F)cc(S(=O)(=O)[O-])cc6F)c6ccc([nH]6)c(-c6c(F)cc(S(=O)(=O)[O-])cc6F)c6nc(c(-c7c(F)cc(S(=O)(=O)[O-])cc7F)c7ccc4[nH]7)C=C6)C=C5)cc3)(c3ccccc3)CC2)c(=O)oc2c(C)c(O)ccc12
REMARK SMILES IDX 15 1 14 2 13 3 11 4 12 5 10 7 5 8 6 9 7 10 8 11 93 12 9 13
REMARK SMILES IDX 92 14 4 15 3 16 1 17 2 18 104 19 94 20 97 21 103 22 95 23
REMARK SMILES IDX 96 24 98 25 102 26 99 27 100 28 101 29 86 31 87 32 91 33
REMARK SMILES IDX 88 34 90 35 89 36 16 37 17 38 18 39 19 41 20 42 21 43 85 44
REMARK SMILES IDX 22 45 84 46 23 47 24 48 25 49 78 50 26 51 83 52 77 53 79 54
REMARK SMILES IDX 27 55 82 56 76 57 75 58 28 60 62 61 41 62 61 63 42 64 45 65
REMARK SMILES IDX 60 66 80 67 43 68 44 69 59 71 81 72 46 73 29 74 30 75 39 76
REMARK SMILES IDX 31 77 32 78 38 79 40 80 33 81 34 82 35 83 36 84 37 85 63 86
REMARK SMILES IDX 64 87 73 88 65 89 66 90 72 91 74 92 67 93 68 94 69 95 70 96
REMARK SMILES IDX 71 97 47 98 48 99 57 100 49 101 50 102 56 103 58 104 51 105
REMARK SMILES IDX 52 106 53 107 54 108 55 109
REMARK H PARENT 13 6 101 30 17 40 79 59 45 70
REMARK Flexibility Score: inf
ROOT
ATOM      1  C   UNL A   1      34.091  30.328  26.910  1.00  0.00     0.042 C 
ENDROOT
BRANCH   1   2
ATOM      2  C   UNL A   1      33.470  29.229  26.054  1.00  0.00     0.117 C 
BRANCH   2   3
ATOM      3  N   UNL A   1      33.995  29.208  24.693  1.00  0.00    -0.355 N 
ATOM      4  C   UNL A   1      33.930  28.312  23.662  1.00  0.00     0.230 C 
ATOM      5  O   UNL A   1      34.383  28.766  22.608  1.00  0.00    -0.274 OA
ATOM      6  H   UNL A   1      34.508  30.018  24.468  1.00  0.00     0.163 HD
BRANCH   4   7
ATOM      7  C   UNL A   1      33.264  26.890  23.803  1.00  0.00     0.077 C 
ATOM      8  C   UNL A   1      35.521  23.215  23.973  1.00  0.00     0.227 C 
ATOM      9  O   UNL A   1      36.147  22.977  22.935  1.00  0.00    -0.275 OA
ATOM     10  N   UNL A   1      34.591  24.251  24.022  1.00  0.00    -0.342 N 
ATOM     11  C   UNL A   1      33.897  24.576  22.780  1.00  0.00     0.121 C 
ATOM     12  C   UNL A   1      34.044  24.836  25.234  1.00  0.00     0.121 C 
ATOM     13  C   UNL A   1      33.657  26.061  22.553  1.00  0.00     0.043 C 
ATOM     14  C   UNL A   1      33.827  26.340  25.144  1.00  0.00     0.043 C 
BRANCH   8  15
ATOM     15  C   UNL A   1      35.665  22.237  25.152  1.00  0.00     0.143 C 
BRANCH  15  16
ATOM     16  C   UNL A   1      35.221  20.811  24.947  1.00  0.00     0.051 A 
ATOM     17  C   UNL A   1      37.554  19.872  24.845  1.00  0.00     0.046 C 
ATOM     18  C   UNL A   1      36.052  19.747  24.883  1.00  0.00    -0.029 A 
ATOM     19  C   UNL A   1      35.471  18.391  24.935  1.00  0.00     0.021 A 
ATOM     20  C   UNL A   1      33.741  20.649  24.892  1.00  0.00     0.340 A 
ATOM     21  C   UNL A   1      34.084  18.237  24.899  1.00  0.00     0.145 A 
ATOM     22  C   UNL A   1      36.241  17.232  25.094  1.00  0.00     0.016 A 
ATOM     23  O   UNL A   1      32.974  21.604  24.953  1.00  0.00    -0.246 OA
ATOM     24  O   UNL A   1      33.249  19.364  24.790  1.00  0.00    -0.422 OA
ATOM     25  C   UNL A   1      33.443  16.990  25.005  1.00  0.00     0.034 A 
ATOM     26  C   UNL A   1      35.634  15.977  25.223  1.00  0.00     0.047 A 
ATOM     27  C   UNL A   1      31.943  16.905  24.967  1.00  0.00     0.052 C 
ATOM     28  C   UNL A   1      34.246  15.865  25.182  1.00  0.00     0.122 A 
BRANCH  28  29
ATOM     29  O   UNL A   1      33.658  14.641  25.329  1.00  0.00    -0.508 OA
ATOM     30  H   UNL A   1      33.055  14.493  26.031  1.00  0.00     0.293 HD
ENDBRANCH  28  29
ENDBRANCH  15  16
ENDBRANCH   8  15
BRANCH   7  31
ATOM     31  C   UNL A   1      31.697  26.872  23.903  1.00  0.00    -0.032 A 
ATOM     32  C   UNL A   1      30.966  25.985  24.709  1.00  0.00     0.005 A 
ATOM     33  C   UNL A   1      30.925  27.798  23.164  1.00  0.00     0.005 A 
ATOM     34  C   UNL A   1      29.562  25.972  24.718  1.00  0.00     0.000 A 
ATOM     35  C   UNL A   1      29.526  27.795  23.173  1.00  0.00     0.000 A 
ATOM     36  C   UNL A   1      28.841  26.870  23.942  1.00  0.00     0.000 A 
ENDBRANCH   7  31
ENDBRANCH   4   7
ENDBRANCH   2   3
ENDBRANCH   1   2
BRANCH   1  37
ATOM     37  C   UNL A   1      35.242  29.861  27.796  1.00  0.00     0.118 C 
BRANCH  37  38
ATOM     38  N   UNL A   1      35.207  30.464  29.121  1.00  0.00    -0.352 N 
ATOM     39  C   UNL A   1      36.202  30.547  30.065  1.00  0.00     0.251 C 
ATOM     40  H   UNL A   1      34.349  30.872  29.376  1.00  0.00     0.163 HD
ATOM     41  O   UNL A   1      35.928  30.902  31.209  1.00  0.00    -0.269 OA
BRANCH  39  42
ATOM     42  C   UNL A   1      37.591  30.187  29.710  1.00  0.00     0.039 A 
ATOM     43  C   UNL A   1      38.489  29.854  30.727  1.00  0.00     0.014 A 
ATOM     44  C   UNL A   1      38.009  30.195  28.376  1.00  0.00     0.014 A 
ATOM     45  C   UNL A   1      39.791  29.467  30.401  1.00  0.00     0.010 A 
ATOM     46  C   UNL A   1      39.285  29.748  28.048  1.00  0.00     0.010 A 
ATOM     47  C   UNL A   1      40.191  29.389  29.057  1.00  0.00    -0.014 A 
BRANCH  47  48
ATOM     48  C   UNL A   1      41.564  28.968  28.687  1.00  0.00     0.031 A 
ATOM     49  C   UNL A   1      42.672  29.982  28.652  1.00  0.00     0.074 A 
ATOM     50  C   UNL A   1      41.800  27.693  28.323  1.00  0.00     0.049 A 
ATOM     51  N   UNL A   1      43.926  29.823  28.319  1.00  0.00    -0.248 NA
ATOM     52  C   UNL A   1      42.316  31.362  29.020  1.00  0.00     0.031 C 
ATOM     53  C   UNL A   1      40.795  26.630  28.273  1.00  0.00     0.029 A 
ATOM     54  N   UNL A   1      42.957  27.079  27.915  1.00  0.00    -0.354 N 
ATOM     55  C   UNL A   1      44.508  31.080  28.428  1.00  0.00     0.074 A 
ATOM     56  C   UNL A   1      43.457  32.001  28.804  1.00  0.00     0.031 C 
ATOM     57  C   UNL A   1      41.383  25.492  27.869  1.00  0.00     0.029 A 
ATOM     58  C   UNL A   1      42.797  25.750  27.608  1.00  0.00     0.049 A 
ATOM     59  H   UNL A   1      43.820  27.548  27.847  1.00  0.00     0.167 HD
ATOM     60  C   UNL A   1      45.803  31.431  28.252  1.00  0.00     0.037 A 
ATOM     61  C   UNL A   1      43.688  24.841  27.166  1.00  0.00     0.037 A 
ATOM     62  C   UNL A   1      46.845  30.507  27.892  1.00  0.00     0.049 A 
ATOM     63  C   UNL A   1      45.121  25.250  26.968  1.00  0.00     0.074 A 
ATOM     64  C   UNL A   1      48.202  30.748  27.762  1.00  0.00     0.029 A 
ATOM     65  N   UNL A   1      46.646  29.167  27.593  1.00  0.00    -0.354 N 
ATOM     66  N   UNL A   1      45.673  26.426  27.152  1.00  0.00    -0.248 NA
ATOM     67  C   UNL A   1      46.055  24.212  26.509  1.00  0.00     0.031 C 
ATOM     68  C   UNL A   1      48.815  29.565  27.340  1.00  0.00     0.029 A 
ATOM     69  C   UNL A   1      47.849  28.574  27.249  1.00  0.00     0.049 A 
ATOM     70  H   UNL A   1      45.777  28.705  27.622  1.00  0.00     0.167 HD
ATOM     71  C   UNL A   1      47.020  26.268  26.844  1.00  0.00     0.074 A 
ATOM     72  C   UNL A   1      47.201  24.878  26.474  1.00  0.00     0.031 C 
ATOM     73  C   UNL A   1      48.013  27.191  26.869  1.00  0.00     0.037 A 
BRANCH  60  74
ATOM     74  C   UNL A   1      46.155  32.880  28.449  1.00  0.00     0.058 A 
ATOM     75  C   UNL A   1      46.486  33.391  29.714  1.00  0.00     0.135 A 
ATOM     76  C   UNL A   1      46.158  33.769  27.363  1.00  0.00     0.135 A 
ATOM     77  F   UNL A   1      46.484  32.587  30.790  1.00  0.00    -0.206 F 
ATOM     78  C   UNL A   1      46.765  34.740  29.904  1.00  0.00     0.059 A 
ATOM     79  C   UNL A   1      46.461  35.118  27.525  1.00  0.00     0.059 A 
ATOM     80  F   UNL A   1      45.849  33.333  26.132  1.00  0.00    -0.206 F 
ATOM     81  C   UNL A   1      46.742  35.597  28.804  1.00  0.00     0.060 A 
BRANCH  81  82
ATOM     82  S   UNL A   1      47.078  37.350  29.072  1.00  0.00     0.124 S 
ATOM     83  O   UNL A   1      46.272  37.621  30.259  1.00  0.00    -0.237 OA
ATOM     84  O   UNL A   1      48.522  37.366  29.270  1.00  0.00    -0.237 OA
ATOM     85  O   UNL A   1      46.609  37.978  27.841  1.00  0.00    -0.744 OA
ENDBRANCH  81  82
ENDBRANCH  60  74
BRANCH  61  86
ATOM     86  C   UNL A   1      43.239  23.446  26.923  1.00  0.00     0.058 A 
ATOM     87  C   UNL A   1      43.087  22.959  25.618  1.00  0.00     0.135 A 
ATOM     88  C   UNL A   1      43.036  22.550  27.985  1.00  0.00     0.135 A 
ATOM     89  F   UNL A   1      43.262  23.780  24.571  1.00  0.00    -0.206 F 
ATOM     90  C   UNL A   1      42.766  21.628  25.369  1.00  0.00     0.059 A 
ATOM     91  C   UNL A   1      42.731  21.210  27.762  1.00  0.00     0.059 A 
ATOM     92  F   UNL A   1      43.181  22.967  29.252  1.00  0.00    -0.206 F 
ATOM     93  C   UNL A   1      42.604  20.758  26.450  1.00  0.00     0.060 A 
BRANCH  93  94
ATOM     94  S   UNL A   1      42.297  19.011  26.109  1.00  0.00     0.124 S 
ATOM     95  O   UNL A   1      42.594  18.401  27.400  1.00  0.00    -0.237 OA
ATOM     96  O   UNL A   1      40.890  19.021  25.717  1.00  0.00    -0.237 OA
ATOM     97  O   UNL A   1      43.237  18.707  25.035  1.00  0.00    -0.744 OA
ENDBRANCH  93  94
ENDBRANCH  61  86
BRANCH  73  98
ATOM     98  C   UNL A   1      49.394  26.739  26.483  1.00  0.00     0.058 A 
ATOM     99  C   UNL A   1      50.201  26.017  27.373  1.00  0.00     0.135 A 
ATOM    100  C   UNL A   1      49.878  26.954  25.182  1.00  0.00     0.135 A 
ATOM    101  F   UNL A   1      49.787  25.788  28.630  1.00  0.00    -0.206 F 
ATOM    102  C   UNL A   1      51.447  25.529  26.991  1.00  0.00     0.059 A 
ATOM    103  C   UNL A   1      51.111  26.457  24.771  1.00  0.00     0.059 A 
ATOM    104  F   UNL A   1      49.140  27.632  24.289  1.00  0.00    -0.206 F 
ATOM    105  C   UNL A   1      51.891  25.749  25.685  1.00  0.00     0.060 A 
BRANCH 105 106
ATOM    106  S   UNL A   1      53.485  25.063  25.187  1.00  0.00     0.124 S 
ATOM    107  O   UNL A   1      54.391  25.710  26.130  1.00  0.00    -0.237 OA
ATOM    108  O   UNL A   1      53.283  23.631  25.383  1.00  0.00    -0.237 OA
ATOM    109  O   UNL A   1      53.619  25.487  23.797  1.00  0.00    -0.744 OA
ENDBRANCH 105 106
ENDBRANCH  73  98
ENDBRANCH  47  48
ENDBRANCH  39  42
ENDBRANCH  37  38
ENDBRANCH   1  37
TORSDOF 17
ENDMDL
MODEL 2
REMARK VINA RESULT:     -13.4      5.502      9.927
REMARK SMILES Cc1c(CC(=O)N2CCC(C(=O)NCCCNC(=O)c3ccc(-c4c5nc(c(-c6c(F)cc(S(=O)(=O)[O-])cc6F)c6ccc([nH]6)c(-c6c(F)cc(S(=O)(=O)[O-])cc6F)c6nc(c(-c7c(F)cc(S(=O)(=O)[O-])cc7F)c7ccc4[nH]7)C=C6)C=C5)cc3)(c3ccccc3)CC2)c(=O)oc2c(C)c(O)ccc12
REMARK SMILES IDX 15 1 14 2 13 3 11 4 12 5 10 7 5 8 6 9 7 10 8 11 93 12 9 13
REMARK SMILES IDX 92 14 4 15 3 16 1 17 2 18 104 19 94 20 97 21 103 22 95 23
REMARK SMILES IDX 96 24 98 25 102 26 99 27 100 28 101 29 86 31 87 32 91 33
REMARK SMILES IDX 88 34 90 35 89 36 16 37 17 38 18 39 19 41 20 42 21 43 85 44
REMARK SMILES IDX 22 45 84 46 23 47 24 48 25 49 78 50 26 51 83 52 77 53 79 54
REMARK SMILES IDX 27 55 82 56 76 57 75 58 28 60 62 61 41 62 61 63 42 64 45 65
REMARK SMILES IDX 60 66 80 67 43 68 44 69 59 71 81 72 46 73 29 74 30 75 39 76
REMARK SMILES IDX 31 77 32 78 38 79 40 80 33 81 34 82 35 83 36 84 37 85 63 86
REMARK SMILES IDX 64 87 73 88 65 89 66 90 72 91 74 92 67 93 68 94 69 95 70 96
REMARK SMILES IDX 71 97 47 98 48 99 57 100 49 101 50 102 56 103 58 104 51 105
REMARK SMILES IDX 52 106 53 107 54 108 55 109
REMARK H PARENT 13 6 101 30 17 40 79 59 45 70
REMARK Flexibility Score: inf
ROOT
ATOM      1  C   UNL A   1      32.674  30.001  27.123  1.00  0.00     0.042 C 
ENDROOT
BRANCH   1   2
ATOM      2  C   UNL A   1      32.076  29.736  25.745  1.00  0.00     0.117 C 
BRANCH   2   3
ATOM      3  N   UNL A   1      33.087  29.643  24.698  1.00  0.00    -0.355 N 
ATOM      4  C   UNL A   1      33.530  28.633  23.888  1.00  0.00     0.230 C 
ATOM      5  O   UNL A   1      34.303  29.029  23.013  1.00  0.00    -0.274 OA
ATOM      6  H   UNL A   1      33.555  30.496  24.540  1.00  0.00     0.163 HD
BRANCH   4   7
ATOM      7  C   UNL A   1      33.024  27.146  24.020  1.00  0.00     0.077 C 
ATOM      8  C   UNL A   1      35.666  23.733  24.060  1.00  0.00     0.227 C 
ATOM      9  O   UNL A   1      36.283  23.581  23.001  1.00  0.00    -0.275 OA
ATOM     10  N   UNL A   1      34.631  24.662  24.153  1.00  0.00    -0.342 N 
ATOM     11  C   UNL A   1      33.871  24.930  22.937  1.00  0.00     0.121 C 
ATOM     12  C   UNL A   1      34.061  25.165  25.390  1.00  0.00     0.121 C 
ATOM     13  C   UNL A   1      33.467  26.384  22.745  1.00  0.00     0.043 C 
ATOM     14  C   UNL A   1      33.681  26.638  25.335  1.00  0.00     0.043 C 
BRANCH   8  15
ATOM     15  C   UNL A   1      35.948  22.757  25.216  1.00  0.00     0.143 C 
BRANCH  15  16
ATOM     16  C   UNL A   1      37.385  22.512  25.599  1.00  0.00     0.051 A 
ATOM     17  C   UNL A   1      37.755  24.819  26.532  1.00  0.00     0.046 C 
ATOM     18  C   UNL A   1      38.170  23.397  26.250  1.00  0.00    -0.029 A 
ATOM     19  C   UNL A   1      39.467  22.936  26.785  1.00  0.00     0.021 A 
ATOM     20  C   UNL A   1      37.867  21.142  25.262  1.00  0.00     0.340 A 
ATOM     21  C   UNL A   1      39.913  21.648  26.482  1.00  0.00     0.145 A 
ATOM     22  C   UNL A   1      40.255  23.700  27.654  1.00  0.00     0.016 A 
ATOM     23  O   UNL A   1      37.165  20.326  24.675  1.00  0.00    -0.246 OA
ATOM     24  O   UNL A   1      39.146  20.808  25.655  1.00  0.00    -0.422 OA
ATOM     25  C   UNL A   1      41.103  21.103  26.998  1.00  0.00     0.034 A 
ATOM     26  C   UNL A   1      41.435  23.181  28.201  1.00  0.00     0.047 A 
ATOM     27  C   UNL A   1      41.514  19.705  26.633  1.00  0.00     0.052 C 
ATOM     28  C   UNL A   1      41.847  21.891  27.874  1.00  0.00     0.122 A 
BRANCH  28  29
ATOM     29  O   UNL A   1      42.987  21.382  28.427  1.00  0.00    -0.508 OA
ATOM     30  H   UNL A   1      43.580  20.882  27.900  1.00  0.00     0.293 HD
ENDBRANCH  28  29
ENDBRANCH  15  16
ENDBRANCH   8  15
BRANCH   7  31
ATOM     31  C   UNL A   1      31.471  26.957  24.162  1.00  0.00    -0.032 A 
ATOM     32  C   UNL A   1      30.855  26.194  25.167  1.00  0.00     0.005 A 
ATOM     33  C   UNL A   1      30.591  27.588  23.253  1.00  0.00     0.005 A 
ATOM     34  C   UNL A   1      29.464  26.011  25.214  1.00  0.00     0.000 A 
ATOM     35  C   UNL A   1      29.204  27.415  23.298  1.00  0.00     0.000 A 
ATOM     36  C   UNL A   1      28.638  26.612  24.274  1.00  0.00     0.000 A 
ENDBRANCH   7  31
ENDBRANCH   4   7
ENDBRANCH   2   3
ENDBRANCH   1   2
BRANCH   1  37
ATOM     37  C   UNL A   1      33.703  31.126  27.156  1.00  0.00     0.118 C 
BRANCH  37  38
ATOM     38  N   UNL A   1      33.112  32.414  27.490  1.00  0.00    -0.352 N 
ATOM     39  C   UNL A   1      33.465  33.304  28.476  1.00  0.00     0.251 C 
ATOM     40  H   UNL A   1      32.351  32.687  26.930  1.00  0.00     0.163 HD
ATOM     41  O   UNL A   1      32.718  34.240  28.747  1.00  0.00    -0.269 OA
BRANCH  39  42
ATOM     42  C   UNL A   1      34.729  33.120  29.220  1.00  0.00     0.039 A 
ATOM     43  C   UNL A   1      34.758  32.241  30.306  1.00  0.00     0.014 A 
ATOM     44  C   UNL A   1      35.879  33.825  28.855  1.00  0.00     0.014 A 
ATOM     45  C   UNL A   1      35.957  32.023  30.989  1.00  0.00     0.010 A 
ATOM     46  C   UNL A   1      37.087  33.559  29.493  1.00  0.00     0.010 A 
ATOM     47  C   UNL A   1      37.135  32.663  30.571  1.00  0.00    -0.014 A 
BRANCH  47  48
ATOM     48  C   UNL A   1      38.422  32.435  31.272  1.00  0.00     0.031 A 
ATOM     49  C   UNL A   1      39.448  31.517  30.670  1.00  0.00     0.074 A 
ATOM     50  C   UNL A   1      38.640  33.000  32.475  1.00  0.00     0.049 A 
ATOM     51  N   UNL A   1      40.613  31.159  31.143  1.00  0.00    -0.248 NA
ATOM     52  C   UNL A   1      39.108  30.905  29.375  1.00  0.00     0.031 C 
ATOM     53  C   UNL A   1      37.700  33.871  33.181  1.00  0.00     0.029 A 
ATOM     54  N   UNL A   1      39.718  32.915  33.320  1.00  0.00    -0.354 N 
ATOM     55  C   UNL A   1      41.142  30.275  30.211  1.00  0.00     0.074 A 
ATOM     56  C   UNL A   1      40.148  30.108  29.173  1.00  0.00     0.031 C 
ATOM     57  C   UNL A   1      38.248  34.251  34.346  1.00  0.00     0.029 A 
ATOM     58  C   UNL A   1      39.564  33.631  34.482  1.00  0.00     0.049 A 
ATOM     59  H   UNL A   1      40.525  32.391  33.113  1.00  0.00     0.167 HD
ATOM     60  C   UNL A   1      42.355  29.674  30.207  1.00  0.00     0.037 A 
ATOM     61  C   UNL A   1      40.388  33.771  35.539  1.00  0.00     0.037 A 
ATOM     62  C   UNL A   1      43.345  29.855  31.235  1.00  0.00     0.049 A 
ATOM     63  C   UNL A   1      41.729  33.090  35.523  1.00  0.00     0.074 A 
ATOM     64  C   UNL A   1      44.633  29.351  31.289  1.00  0.00     0.029 A 
ATOM     65  N   UNL A   1      43.155  30.591  32.396  1.00  0.00    -0.354 N 
ATOM     66  N   UNL A   1      42.248  32.320  34.596  1.00  0.00    -0.248 NA
ATOM     67  C   UNL A   1      42.598  33.300  36.689  1.00  0.00     0.031 C 
ATOM     68  C   UNL A   1      45.204  29.743  32.503  1.00  0.00     0.029 A 
ATOM     69  C   UNL A   1      44.290  30.529  33.188  1.00  0.00     0.049 A 
ATOM     70  H   UNL A   1      42.335  31.084  32.623  1.00  0.00     0.167 HD
ATOM     71  C   UNL A   1      43.509  31.962  35.060  1.00  0.00     0.074 A 
ATOM     72  C   UNL A   1      43.678  32.611  36.346  1.00  0.00     0.031 C 
ATOM     73  C   UNL A   1      44.440  31.170  34.473  1.00  0.00     0.037 A 
BRANCH  60  74
ATOM     74  C   UNL A   1      42.669  28.764  29.052  1.00  0.00     0.058 A 
ATOM     75  C   UNL A   1      42.464  27.378  29.130  1.00  0.00     0.135 A 
ATOM     76  C   UNL A   1      43.185  29.283  27.853  1.00  0.00     0.135 A 
ATOM     77  F   UNL A   1      41.987  26.827  30.259  1.00  0.00    -0.206 F 
ATOM     78  C   UNL A   1      42.800  26.532  28.079  1.00  0.00     0.059 A 
ATOM     79  C   UNL A   1      43.503  28.458  26.779  1.00  0.00     0.059 A 
ATOM     80  F   UNL A   1      43.401  30.601  27.725  1.00  0.00    -0.206 F 
ATOM     81  C   UNL A   1      43.326  27.081  26.909  1.00  0.00     0.060 A 
BRANCH  81  82
ATOM     82  S   UNL A   1      43.784  25.966  25.565  1.00  0.00     0.124 S 
ATOM     83  O   UNL A   1      44.996  26.603  25.061  1.00  0.00    -0.237 OA
ATOM     84  O   UNL A   1      43.976  24.700  26.262  1.00  0.00    -0.237 OA
ATOM     85  O   UNL A   1      42.631  26.019  24.673  1.00  0.00    -0.744 OA
ENDBRANCH  81  82
ENDBRANCH  60  74
BRANCH  61  86
ATOM     86  C   UNL A   1      39.968  34.630  36.676  1.00  0.00     0.058 A 
ATOM     87  C   UNL A   1      39.226  34.099  37.739  1.00  0.00     0.135 A 
ATOM     88  C   UNL A   1      40.370  35.973  36.763  1.00  0.00     0.135 A 
ATOM     89  F   UNL A   1      38.813  32.823  37.696  1.00  0.00    -0.206 F 
ATOM     90  C   UNL A   1      38.911  34.860  38.860  1.00  0.00     0.059 A 
ATOM     91  C   UNL A   1      40.081  36.751  37.881  1.00  0.00     0.059 A 
ATOM     92  F   UNL A   1      41.091  36.523  35.775  1.00  0.00    -0.206 F 
ATOM     93  C   UNL A   1      39.355  36.183  38.927  1.00  0.00     0.060 A 
BRANCH  93  94
ATOM     94  S   UNL A   1      39.033  37.124  40.434  1.00  0.00     0.124 S 
ATOM     95  O   UNL A   1      40.381  37.500  40.842  1.00  0.00    -0.237 OA
ATOM     96  O   UNL A   1      38.190  38.209  39.940  1.00  0.00    -0.237 OA
ATOM     97  O   UNL A   1      38.358  36.159  41.296  1.00  0.00    -0.744 OA
ENDBRANCH  93  94
ENDBRANCH  61  86
BRANCH  73  98
ATOM     98  C   UNL A   1      45.732  30.950  35.209  1.00  0.00     0.058 A 
ATOM     99  C   UNL A   1      45.911  29.849  36.058  1.00  0.00     0.135 A 
ATOM    100  C   UNL A   1      46.829  31.801  34.995  1.00  0.00     0.135 A 
ATOM    101  F   UNL A   1      44.892  29.008  36.300  1.00  0.00    -0.206 F 
ATOM    102  C   UNL A   1      47.131  29.601  36.678  1.00  0.00     0.059 A 
ATOM    103  C   UNL A   1      48.065  31.561  35.588  1.00  0.00     0.059 A 
ATOM    104  F   UNL A   1      46.712  32.865  34.184  1.00  0.00    -0.206 F 
ATOM    105  C   UNL A   1      48.205  30.460  36.431  1.00  0.00     0.060 A 
BRANCH 105 106
ATOM    106  S   UNL A   1      49.798  30.094  37.199  1.00  0.00     0.124 S 
ATOM    107  O   UNL A   1      49.438  29.028  38.129  1.00  0.00    -0.237 OA
ATOM    108  O   UNL A   1      50.610  29.691  36.056  1.00  0.00    -0.237 OA
ATOM    109  O   UNL A   1      50.177  31.361  37.815  1.00  0.00    -0.744 OA
ENDBRANCH 105 106
ENDBRANCH  73  98
ENDBRANCH  47  48
ENDBRANCH  39  42
ENDBRANCH  37  38
ENDBRANCH   1  37
TORSDOF 17
ENDMDL
MODEL 3
REMARK VINA RESULT:     -13.3      0.517      7.741
REMARK SMILES Cc1c(CC(=O)N2CCC(C(=O)NCCCNC(=O)c3ccc(-c4c5nc(c(-c6c(F)cc(S(=O)(=O)[O-])cc6F)c6ccc([nH]6)c(-c6c(F)cc(S(=O)(=O)[O-])cc6F)c6nc(c(-c7c(F)cc(S(=O)(=O)[O-])cc7F)c7ccc4[nH]7)C=C6)C=C5)cc3)(c3ccccc3)CC2)c(=O)oc2c(C)c(O)ccc12
REMARK SMILES IDX 15 1 14 2 13 3 11 4 12 5 10 7 5 8 6 9 7 10 8 11 93 12 9 13
REMARK SMILES IDX 92 14 4 15 3 16 1 17 2 18 104 19 94 20 97 21 103 22 95 23
REMARK SMILES IDX 96 24 98 25 102 26 99 27 100 28 101 29 86 31 87 32 91 33
REMARK SMILES IDX 88 34 90 35 89 36 16 37 17 38 18 39 19 41 20 42 21 43 85 44
REMARK SMILES IDX 22 45 84 46 23 47 24 48 25 49 78 50 26 51 83 52 77 53 79 54
REMARK SMILES IDX 27 55 82 56 76 57 75 58 28 60 62 61 41 62 61 63 42 64 45 65
REMARK SMILES IDX 60 66 80 67 43 68 44 69 59 71 81 72 46 73 29 74 30 75 39 76
REMARK SMILES IDX 31 77 32 78 38 79 40 80 33 81 34 82 35 83 36 84 37 85 63 86
REMARK SMILES IDX 64 87 73 88 65 89 66 90 72 91 74 92 67 93 68 94 69 95 70 96
REMARK SMILES IDX 71 97 47 98 48 99 57 100 49 101 50 102 56 103 58 104 51 105
REMARK SMILES IDX 52 106 53 107 54 108 55 109
REMARK H PARENT 13 6 101 30 17 40 79 59 45 70
REMARK Flexibility Score: inf
ROOT
ATOM      1  C   UNL A   1      33.969  28.493  26.830  1.00  0.00     0.042 C 
ENDROOT
BRANCH   1   2
ATOM      2  C   UNL A   1      33.288  29.383  25.795  1.00  0.00     0.117 C 
BRANCH   2   3
ATOM      3  N   UNL A   1      33.907  29.293  24.477  1.00  0.00    -0.355 N 
ATOM      4  C   UNL A   1      33.903  28.349  23.486  1.00  0.00     0.230 C 
ATOM      5  O   UNL A   1      34.435  28.748  22.447  1.00  0.00    -0.274 OA
ATOM      6  H   UNL A   1      34.446  30.085  24.252  1.00  0.00     0.163 HD
BRANCH   4   7
ATOM      7  C   UNL A   1      33.209  26.943  23.645  1.00  0.00     0.077 C 
ATOM      8  C   UNL A   1      35.396  23.234  23.936  1.00  0.00     0.227 C 
ATOM      9  O   UNL A   1      36.036  22.963  22.915  1.00  0.00    -0.275 OA
ATOM     10  N   UNL A   1      34.483  24.286  23.945  1.00  0.00    -0.342 N 
ATOM     11  C   UNL A   1      33.818  24.597  22.684  1.00  0.00     0.121 C 
ATOM     12  C   UNL A   1      33.926  24.907  25.134  1.00  0.00     0.121 C 
ATOM     13  C   UNL A   1      33.609  26.081  22.421  1.00  0.00     0.043 C 
ATOM     14  C   UNL A   1      33.737  26.412  25.008  1.00  0.00     0.043 C 
BRANCH   8  15
ATOM     15  C   UNL A   1      35.501  22.279  25.138  1.00  0.00     0.143 C 
BRANCH  15  16
ATOM     16  C   UNL A   1      35.091  20.842  24.938  1.00  0.00     0.051 A 
ATOM     17  C   UNL A   1      37.445  19.960  24.833  1.00  0.00     0.046 C 
ATOM     18  C   UNL A   1      35.947  19.798  24.876  1.00  0.00    -0.029 A 
ATOM     19  C   UNL A   1      35.400  18.428  24.932  1.00  0.00     0.021 A 
ATOM     20  C   UNL A   1      33.615  20.644  24.888  1.00  0.00     0.340 A 
ATOM     21  C   UNL A   1      34.016  18.241  24.900  1.00  0.00     0.145 A 
ATOM     22  C   UNL A   1      36.198  17.289  25.094  1.00  0.00     0.016 A 
ATOM     23  O   UNL A   1      32.825  21.580  24.947  1.00  0.00    -0.246 OA
ATOM     24  O   UNL A   1      33.154  19.347  24.791  1.00  0.00    -0.422 OA
ATOM     25  C   UNL A   1      33.406  16.979  25.012  1.00  0.00     0.034 A 
ATOM     26  C   UNL A   1      35.622  16.020  25.228  1.00  0.00     0.047 A 
ATOM     27  C   UNL A   1      31.909  16.858  24.978  1.00  0.00     0.052 C 
ATOM     28  C   UNL A   1      34.236  15.874  25.191  1.00  0.00     0.122 A 
BRANCH  28  29
ATOM     29  O   UNL A   1      33.679  14.637  25.343  1.00  0.00    -0.508 OA
ATOM     30  H   UNL A   1      33.707  14.021  24.638  1.00  0.00     0.293 HD
ENDBRANCH  28  29
ENDBRANCH  15  16
ENDBRANCH   8  15
BRANCH   7  31
ATOM     31  C   UNL A   1      31.640  26.955  23.716  1.00  0.00    -0.032 A 
ATOM     32  C   UNL A   1      30.822  27.849  23.007  1.00  0.00     0.005 A 
ATOM     33  C   UNL A   1      30.957  26.014  24.520  1.00  0.00     0.005 A 
ATOM     34  C   UNL A   1      29.426  27.855  23.152  1.00  0.00     0.000 A 
ATOM     35  C   UNL A   1      29.565  26.010  24.664  1.00  0.00     0.000 A 
ATOM     36  C   UNL A   1      28.797  26.942  23.988  1.00  0.00     0.000 A 
ENDBRANCH   7  31
ENDBRANCH   4   7
ENDBRANCH   2   3
ENDBRANCH   1   2
BRANCH   1  37
ATOM     37  C   UNL A   1      35.324  29.006  27.305  1.00  0.00     0.118 C 
BRANCH  37  38
ATOM     38  N   UNL A   1      35.235  29.741  28.559  1.00  0.00    -0.352 N 
ATOM     39  C   UNL A   1      36.219  30.022  29.475  1.00  0.00     0.251 C 
ATOM     40  H   UNL A   1      34.341  30.088  28.782  1.00  0.00     0.163 HD
ATOM     41  O   UNL A   1      35.916  30.469  30.578  1.00  0.00    -0.269 OA
BRANCH  39  42
ATOM     42  C   UNL A   1      37.636  29.766  29.140  1.00  0.00     0.039 A 
ATOM     43  C   UNL A   1      38.524  29.412  30.159  1.00  0.00     0.014 A 
ATOM     44  C   UNL A   1      38.090  29.889  27.823  1.00  0.00     0.014 A 
ATOM     45  C   UNL A   1      39.854  29.122  29.849  1.00  0.00     0.010 A 
ATOM     46  C   UNL A   1      39.398  29.537  27.505  1.00  0.00     0.010 A 
ATOM     47  C   UNL A   1      40.294  29.159  28.516  1.00  0.00    -0.014 A 
BRANCH  47  48
ATOM     48  C   UNL A   1      41.699  28.841  28.162  1.00  0.00     0.031 A 
ATOM     49  C   UNL A   1      42.080  27.431  27.812  1.00  0.00     0.074 A 
ATOM     50  C   UNL A   1      42.640  29.804  28.217  1.00  0.00     0.049 A 
ATOM     51  N   UNL A   1      43.256  26.943  27.513  1.00  0.00    -0.248 NA
ATOM     52  C   UNL A   1      40.998  26.433  27.821  1.00  0.00     0.031 C 
ATOM     53  C   UNL A   1      42.399  31.199  28.589  1.00  0.00     0.029 A 
ATOM     54  N   UNL A   1      43.989  29.750  27.971  1.00  0.00    -0.354 N 
ATOM     55  C   UNL A   1      43.059  25.583  27.307  1.00  0.00     0.074 A 
ATOM     56  C   UNL A   1      41.662  25.313  27.569  1.00  0.00     0.031 C 
ATOM     57  C   UNL A   1      43.560  31.871  28.534  1.00  0.00     0.029 A 
ATOM     58  C   UNL A   1      44.629  30.953  28.150  1.00  0.00     0.049 A 
ATOM     59  H   UNL A   1      44.454  28.928  27.695  1.00  0.00     0.167 HD
ATOM     60  C   UNL A   1      43.955  24.648  26.913  1.00  0.00     0.037 A 
ATOM     61  C   UNL A   1      45.930  31.278  28.020  1.00  0.00     0.037 A 
ATOM     62  C   UNL A   1      45.340  24.926  26.640  1.00  0.00     0.049 A 
ATOM     63  C   UNL A   1      46.914  30.226  27.591  1.00  0.00     0.074 A 
ATOM     64  C   UNL A   1      46.313  24.065  26.165  1.00  0.00     0.029 A 
ATOM     65  N   UNL A   1      45.952  26.158  26.828  1.00  0.00    -0.354 N 
ATOM     66  N   UNL A   1      46.697  28.960  27.322  1.00  0.00    -0.248 NA
ATOM     67  C   UNL A   1      48.314  30.643  27.439  1.00  0.00     0.031 C 
ATOM     68  C   UNL A   1      47.523  24.764  26.109  1.00  0.00     0.029 A 
ATOM     69  C   UNL A   1      47.297  26.072  26.508  1.00  0.00     0.049 A 
ATOM     70  H   UNL A   1      45.497  26.971  27.143  1.00  0.00     0.167 HD
ATOM     71  C   UNL A   1      47.931  28.431  26.958  1.00  0.00     0.074 A 
ATOM     72  C   UNL A   1      48.887  29.519  27.030  1.00  0.00     0.031 C 
ATOM     73  C   UNL A   1      48.240  27.161  26.597  1.00  0.00     0.037 A 
BRANCH  60  74
ATOM     74  C   UNL A   1      43.455  23.238  26.758  1.00  0.00     0.058 A 
ATOM     75  C   UNL A   1      43.182  22.428  27.871  1.00  0.00     0.135 A 
ATOM     76  C   UNL A   1      43.251  22.689  25.482  1.00  0.00     0.135 A 
ATOM     77  F   UNL A   1      43.375  22.899  29.114  1.00  0.00    -0.206 F 
ATOM     78  C   UNL A   1      42.766  21.109  27.727  1.00  0.00     0.059 A 
ATOM     79  C   UNL A   1      42.809  21.380  25.314  1.00  0.00     0.059 A 
ATOM     80  F   UNL A   1      43.497  23.420  24.384  1.00  0.00    -0.206 F 
ATOM     81  C   UNL A   1      42.589  20.592  26.443  1.00  0.00     0.060 A 
BRANCH  81  82
ATOM     82  S   UNL A   1      42.077  18.869  26.273  1.00  0.00     0.124 S 
ATOM     83  O   UNL A   1      40.686  19.021  25.856  1.00  0.00    -0.237 OA
ATOM     84  O   UNL A   1      42.993  18.370  25.254  1.00  0.00    -0.237 OA
ATOM     85  O   UNL A   1      42.274  18.322  27.611  1.00  0.00    -0.744 OA
ENDBRANCH  81  82
ENDBRANCH  60  74
BRANCH  61  86
ATOM     86  C   UNL A   1      46.353  32.681  28.267  1.00  0.00     0.058 A 
ATOM     87  C   UNL A   1      46.863  33.067  29.514  1.00  0.00     0.135 A 
ATOM     88  C   UNL A   1      46.335  33.639  27.240  1.00  0.00     0.135 A 
ATOM     89  F   UNL A   1      46.891  32.189  30.527  1.00  0.00    -0.206 F 
ATOM     90  C   UNL A   1      47.358  34.349  29.733  1.00  0.00     0.059 A 
ATOM     91  C   UNL A   1      46.840  34.922  27.429  1.00  0.00     0.059 A 
ATOM     92  F   UNL A   1      45.866  33.313  26.026  1.00  0.00    -0.206 F 
ATOM     93  C   UNL A   1      47.355  35.265  28.679  1.00  0.00     0.060 A 
BRANCH  93  94
ATOM     94  S   UNL A   1      48.101  36.888  28.947  1.00  0.00     0.124 S 
ATOM     95  O   UNL A   1      48.110  37.436  27.596  1.00  0.00    -0.237 OA
ATOM     96  O   UNL A   1      47.161  37.504  29.879  1.00  0.00    -0.237 OA
ATOM     97  O   UNL A   1      49.410  36.568  29.508  1.00  0.00    -0.744 OA
ENDBRANCH  93  94
ENDBRANCH  61  86
BRANCH  73  98
ATOM     98  C   UNL A   1      49.673  26.865  26.250  1.00  0.00     0.058 A 
ATOM     99  C   UNL A   1      50.546  26.290  27.185  1.00  0.00     0.135 A 
ATOM    100  C   UNL A   1      50.151  27.079  24.947  1.00  0.00     0.135 A 
ATOM    101  F   UNL A   1      50.140  26.071  28.445  1.00  0.00    -0.206 F 
ATOM    102  C   UNL A   1      51.849  25.943  26.842  1.00  0.00     0.059 A 
ATOM    103  C   UNL A   1      51.443  26.719  24.577  1.00  0.00     0.059 A 
ATOM    104  F   UNL A   1      49.352  27.618  24.013  1.00  0.00    -0.206 F 
ATOM    105  C   UNL A   1      52.287  26.156  25.533  1.00  0.00     0.060 A 
BRANCH 105 106
ATOM    106  S   UNL A   1      53.962  25.650  25.089  1.00  0.00     0.124 S 
ATOM    107  O   UNL A   1      54.766  26.481  25.979  1.00  0.00    -0.237 OA
ATOM    108  O   UNL A   1      53.949  24.223  25.395  1.00  0.00    -0.237 OA
ATOM    109  O   UNL A   1      54.053  25.980  23.670  1.00  0.00    -0.744 OA
ENDBRANCH 105 106
ENDBRANCH  73  98
ENDBRANCH  47  48
ENDBRANCH  39  42
ENDBRANCH  37  38
ENDBRANCH   1  37
TORSDOF 17
ENDMDL
