MODEL 1
REMARK VINA RESULT:     -13.4      0.000      0.000
REMARK SMILES NC(=O)c1c(-c2ccc(Cl)cc2)csc1NC(=O)[C@H]1[C@@H](C(=O)NCCCNC(=O)c2ccc(-c3c4nc(c(-c5c(F)cc(S(=O)(=O)[O-])cc5F)c5ccc([nH]5)c(-c5c(F)cc(S(=O)(=O)[O-])cc5F)c5nc(c(-c6c(F)cc(S(=O)(=O)[O-])cc6F)c6ccc3[nH]6)C=C5)C=C4)cc2)[C@@H]2CC[C@H]1O2
REMARK SMILES IDX 25 1 24 2 23 3 21 4 22 5 20 7 19 8 99 9 96 10 98 11 100 12
REMARK SMILES IDX 97 13 17 14 16 15 18 17 15 18 4 19 5 20 13 21 14 22 2 23
REMARK SMILES IDX 1 24 3 27 6 28 7 29 12 30 8 31 11 32 9 33 10 34 26 35 27 36
REMARK SMILES IDX 28 37 29 39 30 40 31 41 95 42 32 43 94 44 33 45 34 46 35 47
REMARK SMILES IDX 88 48 36 49 93 50 87 51 89 52 37 53 92 54 86 55 85 56 38 58
REMARK SMILES IDX 72 59 51 60 71 61 52 62 55 63 70 64 90 65 53 66 54 67 69 69
REMARK SMILES IDX 91 70 56 71 39 72 40 73 49 74 41 75 42 76 48 77 50 78 43 79
REMARK SMILES IDX 44 80 45 81 46 82 47 83 73 84 74 85 83 86 75 87 76 88 82 89
REMARK SMILES IDX 84 90 77 91 78 92 79 93 80 94 81 95 57 96 58 97 67 98 59 99
REMARK SMILES IDX 60 100 66 101 68 102 61 103 62 104 63 105 64 106 65 107
REMARK H PARENT 23 6 16 16 1 25 1 26 27 38 89 57 55 68
REMARK Flexibility Score: inf
ROOT
ATOM      1  C   UNL A   1      37.405  23.660  25.518  1.00  0.00     0.042 C 
ENDROOT
BRANCH   1   2
ATOM      2  C   UNL A   1      36.515  22.446  25.774  1.00  0.00     0.117 C 
BRANCH   2   3
ATOM      3  N   UNL A   1      35.549  22.567  26.852  1.00  0.00    -0.356 N 
ATOM      4  C   UNL A   1      34.175  22.505  26.805  1.00  0.00     0.226 C 
ATOM      5  O   UNL A   1      33.575  22.281  27.853  1.00  0.00    -0.275 OA
ATOM      6  H   UNL A   1      35.932  22.715  27.747  1.00  0.00     0.163 HD
BRANCH   4   7
ATOM      7  C   UNL A   1      33.486  22.721  25.466  1.00  0.00     0.122 C 
ATOM      8  C   UNL A   1      32.252  23.657  25.370  1.00  0.00     0.123 C 
ATOM      9  C   UNL A   1      31.194  22.673  24.804  1.00  0.00     0.132 C 
ATOM     10  C   UNL A   1      32.923  21.381  24.972  1.00  0.00     0.132 C 
ATOM     11  C   UNL A   1      31.485  22.335  23.339  1.00  0.00     0.035 C 
ATOM     12  O   UNL A   1      31.562  21.425  25.436  1.00  0.00    -0.373 OA
ATOM     13  C   UNL A   1      32.707  21.424  23.457  1.00  0.00     0.035 C 
BRANCH   8  14
ATOM     14  C   UNL A   1      31.664  24.393  26.578  1.00  0.00     0.231 C 
ATOM     15  N   UNL A   1      31.502  25.741  26.673  1.00  0.00    -0.317 N 
ATOM     16  H   UNL A   1      31.036  26.028  27.491  1.00  0.00     0.170 HD
ATOM     17  O   UNL A   1      31.203  23.746  27.531  1.00  0.00    -0.274 OA
BRANCH  15  18
ATOM     18  C   UNL A   1      31.861  26.778  25.846  1.00  0.00     0.108 A 
ATOM     19  C   UNL A   1      31.219  27.142  24.671  1.00  0.00     0.082 A 
ATOM     20  C   UNL A   1      31.527  28.524  24.396  1.00  0.00     0.007 A 
ATOM     21  C   UNL A   1      32.721  28.886  24.987  1.00  0.00     0.076 A 
ATOM     22  S   UNL A   1      33.260  27.701  26.095  1.00  0.00    -0.125 S 
BRANCH  19  23
ATOM     23  C   UNL A   1      30.258  26.294  23.981  1.00  0.00     0.252 C 
ATOM     24  N   UNL A   1      30.701  25.752  22.809  1.00  0.00    -0.365 N 
ATOM     25  H   UNL A   1      30.108  25.167  22.283  1.00  0.00     0.159 HD
ATOM     26  H   UNL A   1      31.611  25.946  22.490  1.00  0.00     0.159 HD
ATOM     27  O   UNL A   1      29.166  25.975  24.450  1.00  0.00    -0.269 OA
ENDBRANCH  19  23
BRANCH  20  28
ATOM     28  C   UNL A   1      30.684  29.498  23.714  1.00  0.00    -0.017 A 
ATOM     29  C   UNL A   1      30.070  30.550  24.395  1.00  0.00     0.010 A 
ATOM     30  C   UNL A   1      30.446  29.334  22.336  1.00  0.00     0.010 A 
ATOM     31  C   UNL A   1      29.206  31.415  23.709  1.00  0.00     0.021 A 
ATOM     32  C   UNL A   1      29.583  30.195  21.656  1.00  0.00     0.021 A 
ATOM     33  C   UNL A   1      28.960  31.229  22.349  1.00  0.00     0.041 A 
ATOM     34  Cl  UNL A   1      27.874  32.276  21.524  1.00  0.00    -0.084 Cl
ENDBRANCH  20  28
ENDBRANCH  15  18
ENDBRANCH   8  14
ENDBRANCH   4   7
ENDBRANCH   2   3
ENDBRANCH   1   2
BRANCH   1  35
ATOM     35  C   UNL A   1      38.412  24.081  26.594  1.00  0.00     0.118 C 
BRANCH  35  36
ATOM     36  N   UNL A   1      39.808  23.776  26.351  1.00  0.00    -0.352 N 
ATOM     37  C   UNL A   1      40.922  24.417  26.849  1.00  0.00     0.251 C 
ATOM     38  H   UNL A   1      39.983  23.013  25.754  1.00  0.00     0.163 HD
ATOM     39  O   UNL A   1      42.037  24.028  26.510  1.00  0.00    -0.269 OA
BRANCH  37  40
ATOM     40  C   UNL A   1      40.798  25.584  27.760  1.00  0.00     0.039 A 
ATOM     41  C   UNL A   1      39.685  25.666  28.605  1.00  0.00     0.014 A 
ATOM     42  C   UNL A   1      41.739  26.615  27.765  1.00  0.00     0.014 A 
ATOM     43  C   UNL A   1      39.559  26.736  29.503  1.00  0.00     0.010 A 
ATOM     44  C   UNL A   1      41.616  27.682  28.656  1.00  0.00     0.010 A 
ATOM     45  C   UNL A   1      40.539  27.738  29.552  1.00  0.00    -0.014 A 
BRANCH  45  46
ATOM     46  C   UNL A   1      40.543  28.770  30.618  1.00  0.00     0.031 A 
ATOM     47  C   UNL A   1      41.395  28.632  31.845  1.00  0.00     0.074 A 
ATOM     48  C   UNL A   1      39.663  29.785  30.515  1.00  0.00     0.049 A 
ATOM     49  N   UNL A   1      41.454  29.412  32.894  1.00  0.00    -0.248 NA
ATOM     50  C   UNL A   1      42.282  27.463  31.911  1.00  0.00     0.031 C 
ATOM     51  C   UNL A   1      38.747  29.989  29.390  1.00  0.00     0.029 A 
ATOM     52  N   UNL A   1      39.366  30.809  31.378  1.00  0.00    -0.354 N 
ATOM     53  C   UNL A   1      42.396  28.842  33.742  1.00  0.00     0.074 A 
ATOM     54  C   UNL A   1      42.851  27.624  33.100  1.00  0.00     0.031 C 
ATOM     55  C   UNL A   1      37.967  31.051  29.647  1.00  0.00     0.029 A 
ATOM     56  C   UNL A   1      38.321  31.596  30.955  1.00  0.00     0.049 A 
ATOM     57  H   UNL A   1      39.853  30.966  32.218  1.00  0.00     0.167 HD
ATOM     58  C   UNL A   1      42.845  29.301  34.937  1.00  0.00     0.037 A 
ATOM     59  C   UNL A   1      37.705  32.631  31.557  1.00  0.00     0.037 A 
ATOM     60  C   UNL A   1      42.372  30.508  35.572  1.00  0.00     0.049 A 
ATOM     61  C   UNL A   1      38.199  33.105  32.893  1.00  0.00     0.074 A 
ATOM     62  C   UNL A   1      42.822  31.100  36.740  1.00  0.00     0.029 A 
ATOM     63  N   UNL A   1      41.329  31.296  35.106  1.00  0.00    -0.354 N 
ATOM     64  N   UNL A   1      39.167  32.616  33.631  1.00  0.00    -0.248 NA
ATOM     65  C   UNL A   1      37.531  34.278  33.472  1.00  0.00     0.031 C 
ATOM     66  C   UNL A   1      42.021  32.218  37.005  1.00  0.00     0.029 A 
ATOM     67  C   UNL A   1      41.098  32.347  35.979  1.00  0.00     0.049 A 
ATOM     68  H   UNL A   1      40.826  31.132  34.275  1.00  0.00     0.167 HD
ATOM     69  C   UNL A   1      39.239  33.435  34.752  1.00  0.00     0.074 A 
ATOM     70  C   UNL A   1      38.221  34.455  34.591  1.00  0.00     0.031 C 
ATOM     71  C   UNL A   1      40.075  33.351  35.814  1.00  0.00     0.037 A 
BRANCH  58  72
ATOM     72  C   UNL A   1      43.909  28.505  35.641  1.00  0.00     0.058 A 
ATOM     73  C   UNL A   1      45.274  28.757  35.424  1.00  0.00     0.135 A 
ATOM     74  C   UNL A   1      43.568  27.527  36.589  1.00  0.00     0.135 A 
ATOM     75  F   UNL A   1      45.656  29.678  34.526  1.00  0.00    -0.206 F 
ATOM     76  C   UNL A   1      46.262  28.050  36.103  1.00  0.00     0.059 A 
ATOM     77  C   UNL A   1      44.540  26.824  37.297  1.00  0.00     0.059 A 
ATOM     78  F   UNL A   1      42.279  27.250  36.839  1.00  0.00    -0.206 F 
ATOM     79  C   UNL A   1      45.885  27.083  37.038  1.00  0.00     0.060 A 
BRANCH  79  80
ATOM     80  S   UNL A   1      47.178  26.179  37.913  1.00  0.00     0.124 S 
ATOM     81  O   UNL A   1      48.380  26.850  37.428  1.00  0.00    -0.237 OA
ATOM     82  O   UNL A   1      46.839  26.420  39.312  1.00  0.00    -0.237 OA
ATOM     83  O   UNL A   1      47.000  24.804  37.458  1.00  0.00    -0.744 OA
ENDBRANCH  79  80
ENDBRANCH  58  72
BRANCH  59  84
ATOM     84  C   UNL A   1      36.565  33.297  30.879  1.00  0.00     0.058 A 
ATOM     85  C   UNL A   1      35.254  33.128  31.344  1.00  0.00     0.135 A 
ATOM     86  C   UNL A   1      36.770  34.151  29.784  1.00  0.00     0.135 A 
ATOM     87  F   UNL A   1      35.012  32.319  32.387  1.00  0.00    -0.206 F 
ATOM     88  C   UNL A   1      34.181  33.780  30.746  1.00  0.00     0.059 A 
ATOM     89  C   UNL A   1      35.715  34.828  29.180  1.00  0.00     0.059 A 
ATOM     90  F   UNL A   1      38.010  34.360  29.316  1.00  0.00    -0.206 F 
ATOM     91  C   UNL A   1      34.424  34.632  29.666  1.00  0.00     0.060 A 
BRANCH  91  92
ATOM     92  S   UNL A   1      33.033  35.532  28.945  1.00  0.00     0.124 S 
ATOM     93  O   UNL A   1      33.716  36.606  28.235  1.00  0.00    -0.237 OA
ATOM     94  O   UNL A   1      32.405  34.511  28.113  1.00  0.00    -0.237 OA
ATOM     95  O   UNL A   1      32.258  35.937  30.114  1.00  0.00    -0.744 OA
ENDBRANCH  91  92
ENDBRANCH  59  84
BRANCH  71  96
ATOM     96  C   UNL A   1      39.934  34.395  36.886  1.00  0.00     0.058 A 
ATOM     97  C   UNL A   1      40.679  35.584  36.853  1.00  0.00     0.135 A 
ATOM     98  C   UNL A   1      39.015  34.225  37.934  1.00  0.00     0.135 A 
ATOM     99  F   UNL A   1      41.579  35.789  35.878  1.00  0.00    -0.206 F 
ATOM    100  C   UNL A   1      40.529  36.562  37.831  1.00  0.00     0.059 A 
ATOM    101  C   UNL A   1      38.833  35.200  38.910  1.00  0.00     0.059 A 
ATOM    102  F   UNL A   1      38.275  33.107  38.009  1.00  0.00    -0.206 F 
ATOM    103  C   UNL A   1      39.602  36.361  38.855  1.00  0.00     0.060 A 
BRANCH 103 104
ATOM    104  S   UNL A   1      39.391  37.655  40.097  1.00  0.00     0.124 S 
ATOM    105  O   UNL A   1      38.239  38.380  39.573  1.00  0.00    -0.237 OA
ATOM    106  O   UNL A   1      39.158  36.885  41.315  1.00  0.00    -0.237 OA
ATOM    107  O   UNL A   1      40.660  38.376  40.053  1.00  0.00    -0.744 OA
ENDBRANCH 103 104
ENDBRANCH  71  96
ENDBRANCH  45  46
ENDBRANCH  37  40
ENDBRANCH  35  36
ENDBRANCH   1  35
TORSDOF 17
ENDMDL
MODEL 2
REMARK VINA RESULT:     -13.4      6.605     12.128
REMARK SMILES NC(=O)c1c(-c2ccc(Cl)cc2)csc1NC(=O)[C@H]1[C@@H](C(=O)NCCCNC(=O)c2ccc(-c3c4nc(c(-c5c(F)cc(S(=O)(=O)[O-])cc5F)c5ccc([nH]5)c(-c5c(F)cc(S(=O)(=O)[O-])cc5F)c5nc(c(-c6c(F)cc(S(=O)(=O)[O-])cc6F)c6ccc3[nH]6)C=C5)C=C4)cc2)[C@@H]2CC[C@H]1O2
REMARK SMILES IDX 25 1 24 2 23 3 21 4 22 5 20 7 19 8 99 9 96 10 98 11 100 12
REMARK SMILES IDX 97 13 17 14 16 15 18 17 15 18 4 19 5 20 13 21 14 22 2 23
REMARK SMILES IDX 1 24 3 27 6 28 7 29 12 30 8 31 11 32 9 33 10 34 26 35 27 36
REMARK SMILES IDX 28 37 29 39 30 40 31 41 95 42 32 43 94 44 33 45 34 46 35 47
REMARK SMILES IDX 88 48 36 49 93 50 87 51 89 52 37 53 92 54 86 55 85 56 38 58
REMARK SMILES IDX 72 59 51 60 71 61 52 62 55 63 70 64 90 65 53 66 54 67 69 69
REMARK SMILES IDX 91 70 56 71 39 72 40 73 49 74 41 75 42 76 48 77 50 78 43 79
REMARK SMILES IDX 44 80 45 81 46 82 47 83 73 84 74 85 83 86 75 87 76 88 82 89
REMARK SMILES IDX 84 90 77 91 78 92 79 93 80 94 81 95 57 96 58 97 67 98 59 99
REMARK SMILES IDX 60 100 66 101 68 102 61 103 62 104 63 105 64 106 65 107
REMARK H PARENT 23 6 16 16 1 25 1 26 27 38 89 57 55 68
REMARK Flexibility Score: inf
ROOT
ATOM      1  C   UNL A   1      33.828  28.967  27.261  1.00  0.00     0.042 C 
ENDROOT
BRANCH   1   2
ATOM      2  C   UNL A   1      33.115  29.619  26.079  1.00  0.00     0.117 C 
BRANCH   2   3
ATOM      3  N   UNL A   1      33.706  29.405  24.768  1.00  0.00    -0.356 N 
ATOM      4  C   UNL A   1      33.222  28.687  23.699  1.00  0.00     0.226 C 
ATOM      5  O   UNL A   1      33.697  28.920  22.590  1.00  0.00    -0.275 OA
ATOM      6  H   UNL A   1      34.580  29.836  24.625  1.00  0.00     0.163 HD
BRANCH   4   7
ATOM      7  C   UNL A   1      32.139  27.651  23.954  1.00  0.00     0.122 C 
ATOM      8  C   UNL A   1      32.293  26.211  23.395  1.00  0.00     0.123 C 
ATOM      9  C   UNL A   1      31.013  26.107  22.524  1.00  0.00     0.132 C 
ATOM     10  C   UNL A   1      30.832  28.121  23.298  1.00  0.00     0.132 C 
ATOM     11  C   UNL A   1      29.760  26.004  23.399  1.00  0.00     0.035 C 
ATOM     12  O   UNL A   1      30.868  27.456  22.023  1.00  0.00    -0.373 OA
ATOM     13  C   UNL A   1      29.634  27.425  23.947  1.00  0.00     0.035 C 
BRANCH   8  14
ATOM     14  C   UNL A   1      33.503  25.759  22.571  1.00  0.00     0.231 C 
ATOM     15  N   UNL A   1      34.286  24.682  22.853  1.00  0.00    -0.317 N 
ATOM     16  H   UNL A   1      34.971  24.499  22.169  1.00  0.00     0.170 HD
ATOM     17  O   UNL A   1      33.775  26.335  21.506  1.00  0.00    -0.274 OA
BRANCH  15  18
ATOM     18  C   UNL A   1      34.304  23.800  23.906  1.00  0.00     0.108 A 
ATOM     19  C   UNL A   1      33.448  22.723  24.080  1.00  0.00     0.082 A 
ATOM     20  C   UNL A   1      34.089  21.770  24.952  1.00  0.00     0.007 A 
ATOM     21  C   UNL A   1      35.019  22.395  25.760  1.00  0.00     0.076 A 
ATOM     22  S   UNL A   1      35.329  23.995  25.241  1.00  0.00    -0.125 S 
BRANCH  19  23
ATOM     23  C   UNL A   1      32.210  22.547  23.333  1.00  0.00     0.252 C 
ATOM     24  N   UNL A   1      32.348  21.951  22.114  1.00  0.00    -0.365 N 
ATOM     25  H   UNL A   1      31.557  21.799  21.548  1.00  0.00     0.159 HD
ATOM     26  H   UNL A   1      33.239  21.674  21.800  1.00  0.00     0.159 HD
ATOM     27  O   UNL A   1      31.095  22.798  23.789  1.00  0.00    -0.269 OA
ENDBRANCH  19  23
BRANCH  20  28
ATOM     28  C   UNL A   1      33.930  20.322  24.948  1.00  0.00    -0.017 A 
ATOM     29  C   UNL A   1      34.974  19.463  24.603  1.00  0.00     0.010 A 
ATOM     30  C   UNL A   1      32.665  19.784  25.253  1.00  0.00     0.010 A 
ATOM     31  C   UNL A   1      34.750  18.081  24.539  1.00  0.00     0.021 A 
ATOM     32  C   UNL A   1      32.443  18.406  25.185  1.00  0.00     0.021 A 
ATOM     33  C   UNL A   1      33.486  17.560  24.821  1.00  0.00     0.041 A 
ATOM     34  Cl  UNL A   1      33.212  15.868  24.707  1.00  0.00    -0.084 Cl
ENDBRANCH  20  28
ENDBRANCH  15  18
ENDBRANCH   8  14
ENDBRANCH   4   7
ENDBRANCH   2   3
ENDBRANCH   1   2
BRANCH   1  35
ATOM     35  C   UNL A   1      35.191  29.515  27.699  1.00  0.00     0.118 C 
BRANCH  35  36
ATOM     36  N   UNL A   1      35.221  30.350  28.883  1.00  0.00    -0.352 N 
ATOM     37  C   UNL A   1      36.291  30.626  29.707  1.00  0.00     0.251 C 
ATOM     38  H   UNL A   1      34.368  30.775  29.130  1.00  0.00     0.163 HD
ATOM     39  O   UNL A   1      36.119  31.343  30.689  1.00  0.00    -0.269 OA
BRANCH  37  40
ATOM     40  C   UNL A   1      37.634  30.046  29.448  1.00  0.00     0.039 A 
ATOM     41  C   UNL A   1      38.036  29.837  28.123  1.00  0.00     0.014 A 
ATOM     42  C   UNL A   1      38.485  29.670  30.490  1.00  0.00     0.014 A 
ATOM     43  C   UNL A   1      39.312  29.328  27.846  1.00  0.00     0.010 A 
ATOM     44  C   UNL A   1      39.756  29.161  30.217  1.00  0.00     0.010 A 
ATOM     45  C   UNL A   1      40.191  29.011  28.892  1.00  0.00    -0.014 A 
BRANCH  45  46
ATOM     46  C   UNL A   1      41.610  28.661  28.637  1.00  0.00     0.031 A 
ATOM     47  C   UNL A   1      42.678  29.712  28.557  1.00  0.00     0.074 A 
ATOM     48  C   UNL A   1      41.902  27.377  28.355  1.00  0.00     0.049 A 
ATOM     49  N   UNL A   1      43.947  29.571  28.271  1.00  0.00    -0.248 NA
ATOM     50  C   UNL A   1      42.267  31.099  28.815  1.00  0.00     0.031 C 
ATOM     51  C   UNL A   1      40.931  26.279  28.351  1.00  0.00     0.029 A 
ATOM     52  N   UNL A   1      43.079  26.783  27.981  1.00  0.00    -0.354 N 
ATOM     53  C   UNL A   1      44.496  30.846  28.330  1.00  0.00     0.074 A 
ATOM     54  C   UNL A   1      43.409  31.754  28.637  1.00  0.00     0.031 C 
ATOM     55  C   UNL A   1      41.546  25.152  27.959  1.00  0.00     0.029 A 
ATOM     56  C   UNL A   1      42.948  25.449  27.677  1.00  0.00     0.049 A 
ATOM     57  H   UNL A   1      43.936  27.264  27.934  1.00  0.00     0.167 HD
ATOM     58  C   UNL A   1      45.789  31.218  28.155  1.00  0.00     0.037 A 
ATOM     59  C   UNL A   1      43.849  24.565  27.209  1.00  0.00     0.037 A 
ATOM     60  C   UNL A   1      46.860  30.305  27.834  1.00  0.00     0.049 A 
ATOM     61  C   UNL A   1      45.269  25.004  26.995  1.00  0.00     0.074 A 
ATOM     62  C   UNL A   1      48.213  30.571  27.718  1.00  0.00     0.029 A 
ATOM     63  N   UNL A   1      46.698  28.955  27.556  1.00  0.00    -0.354 N 
ATOM     64  N   UNL A   1      45.793  26.195  27.161  1.00  0.00    -0.248 NA
ATOM     65  C   UNL A   1      46.222  23.981  26.544  1.00  0.00     0.031 C 
ATOM     66  C   UNL A   1      48.863  29.395  27.324  1.00  0.00     0.029 A 
ATOM     67  C   UNL A   1      47.918  28.384  27.235  1.00  0.00     0.049 A 
ATOM     68  H   UNL A   1      45.839  28.473  27.583  1.00  0.00     0.167 HD
ATOM     69  C   UNL A   1      47.143  26.059  26.857  1.00  0.00     0.074 A 
ATOM     70  C   UNL A   1      47.355  24.670  26.504  1.00  0.00     0.031 C 
ATOM     71  C   UNL A   1      48.117  27.001  26.874  1.00  0.00     0.037 A 
BRANCH  58  72
ATOM     72  C   UNL A   1      46.129  32.675  28.314  1.00  0.00     0.058 A 
ATOM     73  C   UNL A   1      46.553  33.196  29.547  1.00  0.00     0.135 A 
ATOM     74  C   UNL A   1      46.094  33.547  27.213  1.00  0.00     0.135 A 
ATOM     75  F   UNL A   1      46.601  32.408  30.633  1.00  0.00    -0.206 F 
ATOM     76  C   UNL A   1      46.908  34.534  29.689  1.00  0.00     0.059 A 
ATOM     77  C   UNL A   1      46.466  34.884  27.327  1.00  0.00     0.059 A 
ATOM     78  F   UNL A   1      45.701  33.100  26.010  1.00  0.00    -0.206 F 
ATOM     79  C   UNL A   1      46.860  35.372  28.572  1.00  0.00     0.060 A 
BRANCH  79  80
ATOM     80  S   UNL A   1      47.326  37.104  28.772  1.00  0.00     0.124 S 
ATOM     81  O   UNL A   1      46.185  37.783  28.169  1.00  0.00    -0.237 OA
ATOM     82  O   UNL A   1      47.446  37.232  30.221  1.00  0.00    -0.237 OA
ATOM     83  O   UNL A   1      48.580  37.206  28.032  1.00  0.00    -0.744 OA
ENDBRANCH  79  80
ENDBRANCH  58  72
BRANCH  59  84
ATOM     84  C   UNL A   1      43.428  23.167  26.935  1.00  0.00     0.058 A 
ATOM     85  C   UNL A   1      43.305  22.699  25.620  1.00  0.00     0.135 A 
ATOM     86  C   UNL A   1      43.188  22.264  27.981  1.00  0.00     0.135 A 
ATOM     87  F   UNL A   1      43.523  23.529  24.590  1.00  0.00    -0.206 F 
ATOM     88  C   UNL A   1      42.953  21.381  25.349  1.00  0.00     0.059 A 
ATOM     89  C   UNL A   1      42.853  20.936  27.736  1.00  0.00     0.059 A 
ATOM     90  F   UNL A   1      43.315  22.661  29.257  1.00  0.00    -0.206 F 
ATOM     91  C   UNL A   1      42.734  20.506  26.415  1.00  0.00     0.060 A 
BRANCH  91  92
ATOM     92  S   UNL A   1      42.352  18.778  26.052  1.00  0.00     0.124 S 
ATOM     93  O   UNL A   1      40.948  18.862  25.670  1.00  0.00    -0.237 OA
ATOM     94  O   UNL A   1      43.292  18.476  24.976  1.00  0.00    -0.237 OA
ATOM     95  O   UNL A   1      42.626  18.104  27.317  1.00  0.00    -0.744 OA
ENDBRANCH  91  92
ENDBRANCH  59  84
BRANCH  71  96
ATOM     96  C   UNL A   1      49.507  26.560  26.509  1.00  0.00     0.058 A 
ATOM     97  C   UNL A   1      50.356  25.960  27.451  1.00  0.00     0.135 A 
ATOM     98  C   UNL A   1      49.979  26.702  25.195  1.00  0.00     0.135 A 
ATOM     99  F   UNL A   1      49.955  25.813  28.724  1.00  0.00    -0.206 F 
ATOM    100  C   UNL A   1      51.633  25.529  27.107  1.00  0.00     0.059 A 
ATOM    101  C   UNL A   1      51.245  26.258  24.823  1.00  0.00     0.059 A 
ATOM    102  F   UNL A   1      49.205  27.266  24.255  1.00  0.00    -0.206 F 
ATOM    103  C   UNL A   1      52.068  25.681  25.790  1.00  0.00     0.060 A 
BRANCH 103 104
ATOM    104  S   UNL A   1      53.713  25.083  25.347  1.00  0.00     0.124 S 
ATOM    105  O   UNL A   1      54.528  25.642  26.419  1.00  0.00    -0.237 OA
ATOM    106  O   UNL A   1      53.538  23.634  25.371  1.00  0.00    -0.237 OA
ATOM    107  O   UNL A   1      53.937  25.658  24.023  1.00  0.00    -0.744 OA
ENDBRANCH 103 104
ENDBRANCH  71  96
ENDBRANCH  45  46
ENDBRANCH  37  40
ENDBRANCH  35  36
ENDBRANCH   1  35
TORSDOF 17
ENDMDL
MODEL 3
REMARK VINA RESULT:     -13.4      2.914      9.083
REMARK SMILES NC(=O)c1c(-c2ccc(Cl)cc2)csc1NC(=O)[C@H]1[C@@H](C(=O)NCCCNC(=O)c2ccc(-c3c4nc(c(-c5c(F)cc(S(=O)(=O)[O-])cc5F)c5ccc([nH]5)c(-c5c(F)cc(S(=O)(=O)[O-])cc5F)c5nc(c(-c6c(F)cc(S(=O)(=O)[O-])cc6F)c6ccc3[nH]6)C=C5)C=C4)cc2)[C@@H]2CC[C@H]1O2
REMARK SMILES IDX 25 1 24 2 23 3 21 4 22 5 20 7 19 8 99 9 96 10 98 11 100 12
REMARK SMILES IDX 97 13 17 14 16 15 18 17 15 18 4 19 5 20 13 21 14 22 2 23
REMARK SMILES IDX 1 24 3 27 6 28 7 29 12 30 8 31 11 32 9 33 10 34 26 35 27 36
REMARK SMILES IDX 28 37 29 39 30 40 31 41 95 42 32 43 94 44 33 45 34 46 35 47
REMARK SMILES IDX 88 48 36 49 93 50 87 51 89 52 37 53 92 54 86 55 85 56 38 58
REMARK SMILES IDX 72 59 51 60 71 61 52 62 55 63 70 64 90 65 53 66 54 67 69 69
REMARK SMILES IDX 91 70 56 71 39 72 40 73 49 74 41 75 42 76 48 77 50 78 43 79
REMARK SMILES IDX 44 80 45 81 46 82 47 83 73 84 74 85 83 86 75 87 76 88 82 89
REMARK SMILES IDX 84 90 77 91 78 92 79 93 80 94 81 95 57 96 58 97 67 98 59 99
REMARK SMILES IDX 60 100 66 101 68 102 61 103 62 104 63 105 64 106 65 107
REMARK H PARENT 23 6 16 16 1 25 1 26 27 38 89 57 55 68
REMARK Flexibility Score: inf
ROOT
ATOM      1  C   UNL A   1      31.854  31.965  26.760  1.00  0.00     0.042 C 
ENDROOT
BRANCH   1   2
ATOM      2  C   UNL A   1      32.146  30.477  26.573  1.00  0.00     0.117 C 
BRANCH   2   3
ATOM      3  N   UNL A   1      32.919  30.112  25.398  1.00  0.00    -0.356 N 
ATOM      4  C   UNL A   1      32.568  29.310  24.337  1.00  0.00     0.226 C 
ATOM      5  O   UNL A   1      33.219  29.414  23.300  1.00  0.00    -0.275 OA
ATOM      6  H   UNL A   1      33.826  30.494  25.356  1.00  0.00     0.163 HD
BRANCH   4   7
ATOM      7  C   UNL A   1      31.406  28.345  24.512  1.00  0.00     0.122 C 
ATOM      8  C   UNL A   1      31.659  26.913  25.053  1.00  0.00     0.123 C 
ATOM      9  C   UNL A   1      31.092  26.065  23.884  1.00  0.00     0.132 C 
ATOM     10  C   UNL A   1      30.771  28.073  23.140  1.00  0.00     0.132 C 
ATOM     11  C   UNL A   1      29.564  26.148  23.835  1.00  0.00     0.035 C 
ATOM     12  O   UNL A   1      31.432  26.863  22.727  1.00  0.00    -0.373 OA
ATOM     13  C   UNL A   1      29.337  27.566  23.311  1.00  0.00     0.035 C 
BRANCH   8  14
ATOM     14  C   UNL A   1      33.052  26.394  25.425  1.00  0.00     0.231 C 
ATOM     15  N   UNL A   1      33.412  25.083  25.482  1.00  0.00    -0.317 N 
ATOM     16  H   UNL A   1      34.369  24.941  25.663  1.00  0.00     0.170 HD
ATOM     17  O   UNL A   1      33.981  27.196  25.611  1.00  0.00    -0.274 OA
BRANCH  15  18
ATOM     18  C   UNL A   1      32.697  23.919  25.333  1.00  0.00     0.108 A 
ATOM     19  C   UNL A   1      32.802  23.029  24.274  1.00  0.00     0.082 A 
ATOM     20  C   UNL A   1      32.332  21.740  24.717  1.00  0.00     0.007 A 
ATOM     21  C   UNL A   1      31.449  21.876  25.769  1.00  0.00     0.076 A 
ATOM     22  S   UNL A   1      31.459  23.466  26.398  1.00  0.00    -0.125 S 
BRANCH  19  23
ATOM     23  C   UNL A   1      33.460  23.348  23.015  1.00  0.00     0.252 C 
ATOM     24  N   UNL A   1      32.672  23.239  21.906  1.00  0.00    -0.365 N 
ATOM     25  H   UNL A   1      33.045  23.437  21.016  1.00  0.00     0.159 HD
ATOM     26  H   UNL A   1      31.732  22.962  21.995  1.00  0.00     0.159 HD
ATOM     27  O   UNL A   1      34.602  23.798  22.935  1.00  0.00    -0.269 OA
ENDBRANCH  19  23
BRANCH  20  28
ATOM     28  C   UNL A   1      32.781  20.431  24.259  1.00  0.00    -0.017 A 
ATOM     29  C   UNL A   1      32.171  19.770  23.192  1.00  0.00     0.010 A 
ATOM     30  C   UNL A   1      33.830  19.799  24.954  1.00  0.00     0.010 A 
ATOM     31  C   UNL A   1      32.588  18.480  22.839  1.00  0.00     0.021 A 
ATOM     32  C   UNL A   1      34.242  18.511  24.602  1.00  0.00     0.021 A 
ATOM     33  C   UNL A   1      33.613  17.854  23.549  1.00  0.00     0.041 A 
ATOM     34  Cl  UNL A   1      34.095  16.259  23.129  1.00  0.00    -0.084 Cl
ENDBRANCH  20  28
ENDBRANCH  15  18
ENDBRANCH   8  14
ENDBRANCH   4   7
ENDBRANCH   2   3
ENDBRANCH   1   2
BRANCH   1  35
ATOM     35  C   UNL A   1      32.961  32.876  27.298  1.00  0.00     0.118 C 
BRANCH  35  36
ATOM     36  N   UNL A   1      32.576  34.206  27.727  1.00  0.00    -0.352 N 
ATOM     37  C   UNL A   1      33.108  34.962  28.750  1.00  0.00     0.251 C 
ATOM     38  H   UNL A   1      31.840  34.623  27.223  1.00  0.00     0.163 HD
ATOM     39  O   UNL A   1      32.632  36.069  28.985  1.00  0.00    -0.269 OA
BRANCH  37  40
ATOM     40  C   UNL A   1      34.222  34.449  29.588  1.00  0.00     0.039 A 
ATOM     41  C   UNL A   1      33.940  33.993  30.882  1.00  0.00     0.014 A 
ATOM     42  C   UNL A   1      35.543  34.447  29.135  1.00  0.00     0.014 A 
ATOM     43  C   UNL A   1      34.963  33.467  31.683  1.00  0.00     0.010 A 
ATOM     44  C   UNL A   1      36.565  33.926  29.931  1.00  0.00     0.010 A 
ATOM     45  C   UNL A   1      36.279  33.407  31.201  1.00  0.00    -0.014 A 
BRANCH  45  46
ATOM     46  C   UNL A   1      37.344  32.680  31.936  1.00  0.00     0.031 A 
ATOM     47  C   UNL A   1      37.912  33.205  33.222  1.00  0.00     0.074 A 
ATOM     48  C   UNL A   1      37.880  31.591  31.354  1.00  0.00     0.049 A 
ATOM     49  N   UNL A   1      38.892  32.722  33.942  1.00  0.00    -0.248 NA
ATOM     50  C   UNL A   1      37.315  34.434  33.761  1.00  0.00     0.031 C 
ATOM     51  C   UNL A   1      37.442  31.023  30.076  1.00  0.00     0.029 A 
ATOM     52  N   UNL A   1      38.928  30.792  31.732  1.00  0.00    -0.354 N 
ATOM     53  C   UNL A   1      39.023  33.576  35.031  1.00  0.00     0.074 A 
ATOM     54  C   UNL A   1      38.047  34.633  34.851  1.00  0.00     0.031 C 
ATOM     55  C   UNL A   1      38.237  29.988  29.761  1.00  0.00     0.029 A 
ATOM     56  C   UNL A   1      39.243  29.825  30.807  1.00  0.00     0.049 A 
ATOM     57  H   UNL A   1      39.409  30.899  32.585  1.00  0.00     0.167 HD
ATOM     58  C   UNL A   1      39.872  33.477  36.085  1.00  0.00     0.037 A 
ATOM     59  C   UNL A   1      40.238  28.919  30.792  1.00  0.00     0.037 A 
ATOM     60  C   UNL A   1      40.849  32.427  36.244  1.00  0.00     0.049 A 
ATOM     61  C   UNL A   1      41.185  28.845  31.955  1.00  0.00     0.074 A 
ATOM     62  C   UNL A   1      41.696  32.194  37.314  1.00  0.00     0.029 A 
ATOM     63  N   UNL A   1      41.127  31.449  35.300  1.00  0.00    -0.354 N 
ATOM     64  N   UNL A   1      41.224  29.596  33.030  1.00  0.00    -0.248 NA
ATOM     65  C   UNL A   1      42.211  27.795  31.914  1.00  0.00     0.031 C 
ATOM     66  C   UNL A   1      42.518  31.105  36.997  1.00  0.00     0.029 A 
ATOM     67  C   UNL A   1      42.155  30.633  35.745  1.00  0.00     0.049 A 
ATOM     68  H   UNL A   1      40.662  31.350  34.437  1.00  0.00     0.167 HD
ATOM     69  C   UNL A   1      42.264  29.095  33.804  1.00  0.00     0.074 A 
ATOM     70  C   UNL A   1      42.823  27.973  33.077  1.00  0.00     0.031 C 
ATOM     71  C   UNL A   1      42.711  29.525  35.009  1.00  0.00     0.037 A 
BRANCH  58  72
ATOM     72  C   UNL A   1      39.781  34.524  37.160  1.00  0.00     0.058 A 
ATOM     73  C   UNL A   1      40.489  35.733  37.065  1.00  0.00     0.135 A 
ATOM     74  C   UNL A   1      38.930  34.351  38.265  1.00  0.00     0.135 A 
ATOM     75  F   UNL A   1      41.319  35.950  36.033  1.00  0.00    -0.206 F 
ATOM     76  C   UNL A   1      40.376  36.722  38.037  1.00  0.00     0.059 A 
ATOM     77  C   UNL A   1      38.785  35.337  39.238  1.00  0.00     0.059 A 
ATOM     78  F   UNL A   1      38.226  33.217  38.403  1.00  0.00    -0.206 F 
ATOM     79  C   UNL A   1      39.522  36.514  39.123  1.00  0.00     0.060 A 
BRANCH  79  80
ATOM     80  S   UNL A   1      39.384  37.808  40.373  1.00  0.00     0.124 S 
ATOM     81  O   UNL A   1      40.650  38.513  40.202  1.00  0.00    -0.237 OA
ATOM     82  O   UNL A   1      38.193  38.533  39.945  1.00  0.00    -0.237 OA
ATOM     83  O   UNL A   1      39.245  37.062  41.620  1.00  0.00    -0.744 OA
ENDBRANCH  79  80
ENDBRANCH  58  72
BRANCH  59  84
ATOM     84  C   UNL A   1      40.368  27.995  29.637  1.00  0.00     0.058 A 
ATOM     85  C   UNL A   1      41.303  28.241  28.622  1.00  0.00     0.135 A 
ATOM     86  C   UNL A   1      39.595  26.828  29.551  1.00  0.00     0.135 A 
ATOM     87  F   UNL A   1      42.062  29.346  28.663  1.00  0.00    -0.206 F 
ATOM     88  C   UNL A   1      41.466  27.363  27.556  1.00  0.00     0.059 A 
ATOM     89  C   UNL A   1      39.752  25.925  28.504  1.00  0.00     0.059 A 
ATOM     90  F   UNL A   1      38.701  26.540  30.510  1.00  0.00    -0.206 F 
ATOM     91  C   UNL A   1      40.687  26.204  27.510  1.00  0.00     0.060 A 
BRANCH  91  92
ATOM     92  S   UNL A   1      40.960  25.032  26.162  1.00  0.00     0.124 S 
ATOM     93  O   UNL A   1      41.387  25.918  25.085  1.00  0.00    -0.237 OA
ATOM     94  O   UNL A   1      41.989  24.159  26.718  1.00  0.00    -0.237 OA
ATOM     95  O   UNL A   1      39.650  24.411  25.991  1.00  0.00    -0.744 OA
ENDBRANCH  91  92
ENDBRANCH  59  84
BRANCH  71  96
ATOM     96  C   UNL A   1      43.857  28.773  35.625  1.00  0.00     0.058 A 
ATOM     97  C   UNL A   1      43.643  27.663  36.456  1.00  0.00     0.135 A 
ATOM     98  C   UNL A   1      45.184  29.141  35.350  1.00  0.00     0.135 A 
ATOM     99  F   UNL A   1      42.393  27.278  36.759  1.00  0.00    -0.206 F 
ATOM    100  C   UNL A   1      44.705  26.952  37.006  1.00  0.00     0.059 A 
ATOM    101  C   UNL A   1      46.261  28.431  35.872  1.00  0.00     0.059 A 
ATOM    102  F   UNL A   1      45.443  30.193  34.557  1.00  0.00    -0.206 F 
ATOM    103  C   UNL A   1      46.010  27.343  36.706  1.00  0.00     0.060 A 
BRANCH 103 104
ATOM    104  S   UNL A   1      47.380  26.389  37.396  1.00  0.00     0.124 S 
ATOM    105  O   UNL A   1      47.073  25.046  36.917  1.00  0.00    -0.237 OA
ATOM    106  O   UNL A   1      48.544  27.029  36.792  1.00  0.00    -0.237 OA
ATOM    107  O   UNL A   1      47.240  26.590  38.837  1.00  0.00    -0.744 OA
ENDBRANCH 103 104
ENDBRANCH  71  96
ENDBRANCH  45  46
ENDBRANCH  37  40
ENDBRANCH  35  36
ENDBRANCH   1  35
TORSDOF 17
ENDMDL
