MODEL 1
REMARK VINA RESULT:     -12.1      0.000      0.000
REMARK SMILES C[C@@H]1CCC[C@H]1NC(=O)c1csc(/C=C/C(=O)NCCCNC(=O)c2ccc(-c3c4nc(c(-c5c(F)cc(S(=O)(=O)[O-])cc5F)c5ccc([nH]5)c(-c5c(F)cc(S(=O)(=O)[O-])cc5F)c5nc(c(-c6c(F)cc(S(=O)(=O)[O-])cc6F)c6ccc3[nH]6)C=C5)C=C4)cc2)c1
REMARK SMILES IDX 20 1 19 2 18 3 16 4 17 5 15 7 14 8 13 9 10 10 11 11 91 12
REMARK SMILES IDX 12 13 8 14 7 15 9 17 6 18 1 19 2 20 3 21 4 22 5 23 21 24
REMARK SMILES IDX 22 25 23 26 24 28 25 29 26 30 90 31 27 32 89 33 28 34 29 35
REMARK SMILES IDX 30 36 83 37 31 38 88 39 82 40 84 41 32 42 87 43 81 44 80 45
REMARK SMILES IDX 33 47 67 48 46 49 66 50 47 51 50 52 65 53 85 54 48 55 49 56
REMARK SMILES IDX 64 58 86 59 51 60 34 61 35 62 44 63 36 64 37 65 43 66 45 67
REMARK SMILES IDX 38 68 39 69 40 70 41 71 42 72 68 73 69 74 78 75 70 76 71 77
REMARK SMILES IDX 77 78 79 79 72 80 73 81 74 82 75 83 76 84 52 85 53 86 62 87
REMARK SMILES IDX 54 88 55 89 61 90 63 91 56 92 57 93 58 94 59 95 60 96
REMARK H PARENT 18 6 7 16 22 27 84 46 50 57
REMARK Flexibility Score: inf
ROOT
ATOM      1  C   UNL A   1      38.016  22.802  25.983  1.00  0.00     0.042 C 
ENDROOT
BRANCH   1   2
ATOM      2  C   UNL A   1      36.522  23.066  25.814  1.00  0.00     0.118 C 
BRANCH   2   3
ATOM      3  N   UNL A   1      36.101  22.888  24.433  1.00  0.00    -0.352 N 
ATOM      4  C   UNL A   1      35.080  23.456  23.734  1.00  0.00     0.244 C 
ATOM      5  O   UNL A   1      34.979  23.252  22.527  1.00  0.00    -0.270 OA
ATOM      6  H   UNL A   1      36.645  22.250  23.917  1.00  0.00     0.163 HD
BRANCH   4   7
ATOM      7  C   UNL A   1      34.151  24.399  24.390  1.00  0.00     0.072 C 
ATOM      8  C   UNL A   1      33.695  25.514  23.803  1.00  0.00     0.024 C 
BRANCH   8   9
ATOM      9  C   UNL A   1      32.752  26.390  24.414  1.00  0.00     0.028 A 
ATOM     10  C   UNL A   1      31.653  28.389  25.027  1.00  0.00     0.051 A 
ATOM     11  C   UNL A   1      30.944  27.444  25.741  1.00  0.00     0.079 A 
ATOM     12  C   UNL A   1      32.665  27.759  24.232  1.00  0.00     0.033 A 
ATOM     13  S   UNL A   1      31.557  25.865  25.534  1.00  0.00    -0.144 S 
BRANCH  10  14
ATOM     14  C   UNL A   1      31.378  29.819  25.016  1.00  0.00     0.252 C 
ATOM     15  N   UNL A   1      30.429  30.309  24.158  1.00  0.00    -0.349 N 
ATOM     16  H   UNL A   1      30.347  31.291  24.142  1.00  0.00     0.164 HD
ATOM     17  O   UNL A   1      31.947  30.588  25.786  1.00  0.00    -0.269 OA
BRANCH  15  18
ATOM     18  C   UNL A   1      29.522  29.598  23.262  1.00  0.00     0.085 C 
ATOM     19  C   UNL A   1      27.095  28.905  23.036  1.00  0.00     0.010 C 
ATOM     20  C   UNL A   1      28.059  29.989  23.520  1.00  0.00     0.008 C 
ATOM     21  C   UNL A   1      27.898  31.286  22.727  1.00  0.00     0.005 C 
ATOM     22  C   UNL A   1      28.774  31.116  21.489  1.00  0.00     0.002 C 
ATOM     23  C   UNL A   1      29.784  30.015  21.813  1.00  0.00     0.025 C 
ENDBRANCH  15  18
ENDBRANCH  10  14
ENDBRANCH   8   9
ENDBRANCH   4   7
ENDBRANCH   2   3
ENDBRANCH   1   2
BRANCH   1  24
ATOM     24  C   UNL A   1      38.797  24.021  26.470  1.00  0.00     0.118 C 
BRANCH  24  25
ATOM     25  N   UNL A   1      40.209  23.940  26.121  1.00  0.00    -0.352 N 
ATOM     26  C   UNL A   1      41.254  24.763  26.460  1.00  0.00     0.251 C 
ATOM     27  H   UNL A   1      40.452  23.173  25.554  1.00  0.00     0.163 HD
ATOM     28  O   UNL A   1      42.327  24.637  25.875  1.00  0.00    -0.269 OA
BRANCH  26  29
ATOM     29  C   UNL A   1      41.099  25.798  27.506  1.00  0.00     0.039 A 
ATOM     30  C   UNL A   1      40.073  25.658  28.444  1.00  0.00     0.014 A 
ATOM     31  C   UNL A   1      41.922  26.929  27.537  1.00  0.00     0.014 A 
ATOM     32  C   UNL A   1      39.906  26.621  29.443  1.00  0.00     0.010 A 
ATOM     33  C   UNL A   1      41.797  27.852  28.573  1.00  0.00     0.010 A 
ATOM     34  C   UNL A   1      40.785  27.711  29.534  1.00  0.00    -0.014 A 
BRANCH  34  35
ATOM     35  C   UNL A   1      40.663  28.711  30.627  1.00  0.00     0.031 A 
ATOM     36  C   UNL A   1      41.521  28.602  31.858  1.00  0.00     0.074 A 
ATOM     37  C   UNL A   1      39.731  29.680  30.536  1.00  0.00     0.049 A 
ATOM     38  N   UNL A   1      41.505  29.330  32.944  1.00  0.00    -0.248 NA
ATOM     39  C   UNL A   1      42.511  27.512  31.882  1.00  0.00     0.031 C 
ATOM     40  C   UNL A   1      38.806  29.862  29.415  1.00  0.00     0.029 A 
ATOM     41  N   UNL A   1      39.395  30.686  31.408  1.00  0.00    -0.354 N 
ATOM     42  C   UNL A   1      42.465  28.780  33.786  1.00  0.00     0.074 A 
ATOM     43  C   UNL A   1      43.014  27.628  33.104  1.00  0.00     0.031 C 
ATOM     44  C   UNL A   1      38.022  30.923  29.658  1.00  0.00     0.029 A 
ATOM     45  C   UNL A   1      38.359  31.475  30.966  1.00  0.00     0.049 A 
ATOM     46  H   UNL A   1      39.852  30.829  32.267  1.00  0.00     0.167 HD
ATOM     47  C   UNL A   1      42.867  29.209  35.008  1.00  0.00     0.037 A 
ATOM     48  C   UNL A   1      37.741  32.519  31.553  1.00  0.00     0.037 A 
ATOM     49  C   UNL A   1      42.335  30.373  35.668  1.00  0.00     0.049 A 
ATOM     50  C   UNL A   1      38.211  32.981  32.905  1.00  0.00     0.074 A 
ATOM     51  C   UNL A   1      42.718  30.926  36.878  1.00  0.00     0.029 A 
ATOM     52  N   UNL A   1      41.305  31.163  35.177  1.00  0.00    -0.354 N 
ATOM     53  N   UNL A   1      39.163  32.487  33.660  1.00  0.00    -0.248 NA
ATOM     54  C   UNL A   1      37.527  34.147  33.484  1.00  0.00     0.031 C 
ATOM     55  C   UNL A   1      41.891  32.025  37.137  1.00  0.00     0.029 A 
ATOM     56  C   UNL A   1      41.026  32.186  36.067  1.00  0.00     0.049 A 
ATOM     57  H   UNL A   1      40.841  31.016  34.321  1.00  0.00     0.167 HD
ATOM     58  C   UNL A   1      39.210  33.295  34.790  1.00  0.00     0.074 A 
ATOM     59  C   UNL A   1      38.198  34.318  34.615  1.00  0.00     0.031 C 
ATOM     60  C   UNL A   1      40.018  33.200  35.875  1.00  0.00     0.037 A 
BRANCH  47  61
ATOM     61  C   UNL A   1      43.937  28.416  35.709  1.00  0.00     0.058 A 
ATOM     62  C   UNL A   1      43.620  27.370  36.592  1.00  0.00     0.135 A 
ATOM     63  C   UNL A   1      45.295  28.680  35.470  1.00  0.00     0.135 A 
ATOM     64  F   UNL A   1      42.338  27.083  36.868  1.00  0.00    -0.206 F 
ATOM     65  C   UNL A   1      44.611  26.635  37.234  1.00  0.00     0.059 A 
ATOM     66  C   UNL A   1      46.304  27.938  36.081  1.00  0.00     0.059 A 
ATOM     67  F   UNL A   1      45.655  29.666  34.634  1.00  0.00    -0.206 F 
ATOM     68  C   UNL A   1      45.950  26.928  36.974  1.00  0.00     0.060 A 
BRANCH  68  69
ATOM     69  S   UNL A   1      47.223  25.964  37.817  1.00  0.00     0.124 S 
ATOM     70  O   UNL A   1      46.658  25.846  39.158  1.00  0.00    -0.237 OA
ATOM     71  O   UNL A   1      47.255  24.734  37.033  1.00  0.00    -0.237 OA
ATOM     72  O   UNL A   1      48.412  26.804  37.709  1.00  0.00    -0.744 OA
ENDBRANCH  68  69
ENDBRANCH  47  61
BRANCH  48  73
ATOM     73  C   UNL A   1      36.626  33.210  30.852  1.00  0.00     0.058 A 
ATOM     74  C   UNL A   1      35.291  32.969  31.207  1.00  0.00     0.135 A 
ATOM     75  C   UNL A   1      36.873  34.139  29.830  1.00  0.00     0.135 A 
ATOM     76  F   UNL A   1      35.004  32.085  32.176  1.00  0.00    -0.206 F 
ATOM     77  C   UNL A   1      34.238  33.612  30.565  1.00  0.00     0.059 A 
ATOM     78  C   UNL A   1      35.838  34.814  29.189  1.00  0.00     0.059 A 
ATOM     79  F   UNL A   1      38.134  34.419  29.464  1.00  0.00    -0.206 F 
ATOM     80  C   UNL A   1      34.523  34.536  29.558  1.00  0.00     0.060 A 
BRANCH  80  81
ATOM     81  S   UNL A   1      33.151  35.405  28.767  1.00  0.00     0.124 S 
ATOM     82  O   UNL A   1      33.858  36.352  27.912  1.00  0.00    -0.237 OA
ATOM     83  O   UNL A   1      32.455  34.321  28.081  1.00  0.00    -0.237 OA
ATOM     84  O   UNL A   1      32.430  35.989  29.894  1.00  0.00    -0.744 OA
ENDBRANCH  80  81
ENDBRANCH  48  73
BRANCH  60  85
ATOM     85  C   UNL A   1      39.865  34.245  36.945  1.00  0.00     0.058 A 
ATOM     86  C   UNL A   1      40.562  35.462  36.892  1.00  0.00     0.135 A 
ATOM     87  C   UNL A   1      38.971  34.046  38.009  1.00  0.00     0.135 A 
ATOM     88  F   UNL A   1      41.434  35.699  35.899  1.00  0.00    -0.206 F 
ATOM     89  C   UNL A   1      40.395  36.437  37.870  1.00  0.00     0.059 A 
ATOM     90  C   UNL A   1      38.769  35.018  38.984  1.00  0.00     0.059 A 
ATOM     91  F   UNL A   1      38.272  32.904  38.101  1.00  0.00    -0.206 F 
ATOM     92  C   UNL A   1      39.496  36.206  38.912  1.00  0.00     0.060 A 
BRANCH  92  93
ATOM     93  S   UNL A   1      39.263  37.492  40.157  1.00  0.00     0.124 S 
ATOM     94  O   UNL A   1      38.874  36.706  41.323  1.00  0.00    -0.237 OA
ATOM     95  O   UNL A   1      40.584  38.110  40.221  1.00  0.00    -0.237 OA
ATOM     96  O   UNL A   1      38.212  38.331  39.587  1.00  0.00    -0.744 OA
ENDBRANCH  92  93
ENDBRANCH  60  85
ENDBRANCH  34  35
ENDBRANCH  26  29
ENDBRANCH  24  25
ENDBRANCH   1  24
TORSDOF 16
ENDMDL
MODEL 2
REMARK VINA RESULT:     -12.1      6.520     12.426
REMARK SMILES C[C@@H]1CCC[C@H]1NC(=O)c1csc(/C=C/C(=O)NCCCNC(=O)c2ccc(-c3c4nc(c(-c5c(F)cc(S(=O)(=O)[O-])cc5F)c5ccc([nH]5)c(-c5c(F)cc(S(=O)(=O)[O-])cc5F)c5nc(c(-c6c(F)cc(S(=O)(=O)[O-])cc6F)c6ccc3[nH]6)C=C5)C=C4)cc2)c1
REMARK SMILES IDX 20 1 19 2 18 3 16 4 17 5 15 7 14 8 13 9 10 10 11 11 91 12
REMARK SMILES IDX 12 13 8 14 7 15 9 17 6 18 1 19 2 20 3 21 4 22 5 23 21 24
REMARK SMILES IDX 22 25 23 26 24 28 25 29 26 30 90 31 27 32 89 33 28 34 29 35
REMARK SMILES IDX 30 36 83 37 31 38 88 39 82 40 84 41 32 42 87 43 81 44 80 45
REMARK SMILES IDX 33 47 67 48 46 49 66 50 47 51 50 52 65 53 85 54 48 55 49 56
REMARK SMILES IDX 64 58 86 59 51 60 34 61 35 62 44 63 36 64 37 65 43 66 45 67
REMARK SMILES IDX 38 68 39 69 40 70 41 71 42 72 68 73 69 74 78 75 70 76 71 77
REMARK SMILES IDX 77 78 79 79 72 80 73 81 74 82 75 83 76 84 52 85 53 86 62 87
REMARK SMILES IDX 54 88 55 89 61 90 63 91 56 92 57 93 58 94 59 95 60 96
REMARK H PARENT 18 6 7 16 22 27 84 46 50 57
REMARK Flexibility Score: inf
ROOT
ATOM      1  C   UNL A   1      34.345  31.276  27.727  1.00  0.00     0.042 C 
ENDROOT
BRANCH   1   2
ATOM      2  C   UNL A   1      34.197  29.872  27.146  1.00  0.00     0.118 C 
BRANCH   2   3
ATOM      3  N   UNL A   1      33.712  29.908  25.775  1.00  0.00    -0.352 N 
ATOM      4  C   UNL A   1      33.146  28.938  25.007  1.00  0.00     0.244 C 
ATOM      5  O   UNL A   1      32.691  29.223  23.902  1.00  0.00    -0.270 OA
ATOM      6  H   UNL A   1      33.809  30.780  25.329  1.00  0.00     0.163 HD
BRANCH   4   7
ATOM      7  C   UNL A   1      32.977  27.566  25.528  1.00  0.00     0.072 C 
ATOM      8  C   UNL A   1      32.824  26.492  24.742  1.00  0.00     0.024 C 
BRANCH   8   9
ATOM      9  C   UNL A   1      32.723  25.162  25.245  1.00  0.00     0.028 A 
ATOM     10  C   UNL A   1      33.312  23.153  26.338  1.00  0.00     0.051 A 
ATOM     11  C   UNL A   1      32.069  22.843  25.822  1.00  0.00     0.079 A 
ATOM     12  C   UNL A   1      33.655  24.510  26.034  1.00  0.00     0.033 A 
ATOM     13  S   UNL A   1      31.397  24.119  24.911  1.00  0.00    -0.144 S 
BRANCH  10  14
ATOM     14  C   UNL A   1      34.136  22.262  27.142  1.00  0.00     0.252 C 
ATOM     15  N   UNL A   1      35.059  21.463  26.520  1.00  0.00    -0.349 N 
ATOM     16  H   UNL A   1      35.527  20.827  27.109  1.00  0.00     0.164 HD
ATOM     17  O   UNL A   1      34.050  22.238  28.367  1.00  0.00    -0.269 OA
BRANCH  15  18
ATOM     18  C   UNL A   1      35.455  21.411  25.115  1.00  0.00     0.085 C 
ATOM     19  C   UNL A   1      36.637  22.773  23.335  1.00  0.00     0.010 C 
ATOM     20  C   UNL A   1      36.593  22.398  24.817  1.00  0.00     0.008 C 
ATOM     21  C   UNL A   1      37.844  21.629  25.244  1.00  0.00     0.005 C 
ATOM     22  C   UNL A   1      37.557  20.168  24.907  1.00  0.00     0.002 C 
ATOM     23  C   UNL A   1      36.038  20.035  24.786  1.00  0.00     0.025 C 
ENDBRANCH  15  18
ENDBRANCH  10  14
ENDBRANCH   8   9
ENDBRANCH   4   7
ENDBRANCH   2   3
ENDBRANCH   1   2
BRANCH   1  24
ATOM     24  C   UNL A   1      35.668  31.497  28.456  1.00  0.00     0.118 C 
BRANCH  24  25
ATOM     25  N   UNL A   1      35.574  31.163  29.871  1.00  0.00    -0.352 N 
ATOM     26  C   UNL A   1      36.440  30.464  30.676  1.00  0.00     0.251 C 
ATOM     27  H   UNL A   1      34.762  31.492  30.321  1.00  0.00     0.163 HD
ATOM     28  O   UNL A   1      36.061  30.106  31.789  1.00  0.00    -0.269 OA
BRANCH  26  29
ATOM     29  C   UNL A   1      37.807  30.134  30.217  1.00  0.00     0.039 A 
ATOM     30  C   UNL A   1      38.806  29.930  31.173  1.00  0.00     0.014 A 
ATOM     31  C   UNL A   1      38.123  30.075  28.856  1.00  0.00     0.014 A 
ATOM     32  C   UNL A   1      40.106  29.616  30.767  1.00  0.00     0.010 A 
ATOM     33  C   UNL A   1      39.402  29.696  28.454  1.00  0.00     0.010 A 
ATOM     34  C   UNL A   1      40.408  29.467  29.404  1.00  0.00    -0.014 A 
BRANCH  34  35
ATOM     35  C   UNL A   1      41.769  29.070  28.956  1.00  0.00     0.031 A 
ATOM     36  C   UNL A   1      42.870  30.092  28.871  1.00  0.00     0.074 A 
ATOM     37  C   UNL A   1      41.992  27.801  28.563  1.00  0.00     0.049 A 
ATOM     38  N   UNL A   1      44.094  29.953  28.432  1.00  0.00    -0.248 NA
ATOM     39  C   UNL A   1      42.543  31.458  29.313  1.00  0.00     0.031 C 
ATOM     40  C   UNL A   1      40.993  26.729  28.554  1.00  0.00     0.029 A 
ATOM     41  N   UNL A   1      43.127  27.197  28.081  1.00  0.00    -0.354 N 
ATOM     42  C   UNL A   1      44.678  31.211  28.528  1.00  0.00     0.074 A 
ATOM     43  C   UNL A   1      43.660  32.112  29.023  1.00  0.00     0.031 C 
ATOM     44  C   UNL A   1      41.562  25.600  28.107  1.00  0.00     0.029 A 
ATOM     45  C   UNL A   1      42.953  25.871  27.762  1.00  0.00     0.049 A 
ATOM     46  H   UNL A   1      43.984  27.669  27.974  1.00  0.00     0.167 HD
ATOM     47  C   UNL A   1      45.953  31.577  28.248  1.00  0.00     0.037 A 
ATOM     48  C   UNL A   1      43.815  24.976  27.239  1.00  0.00     0.037 A 
ATOM     49  C   UNL A   1      46.968  30.669  27.781  1.00  0.00     0.049 A 
ATOM     50  C   UNL A   1      45.227  25.404  26.944  1.00  0.00     0.074 A 
ATOM     51  C   UNL A   1      48.304  30.927  27.528  1.00  0.00     0.029 A 
ATOM     52  N   UNL A   1      46.761  29.327  27.495  1.00  0.00    -0.354 N 
ATOM     53  N   UNL A   1      45.779  26.584  27.101  1.00  0.00    -0.248 NA
ATOM     54  C   UNL A   1      46.134  24.380  26.409  1.00  0.00     0.031 C 
ATOM     55  C   UNL A   1      48.894  29.752  27.050  1.00  0.00     0.029 A 
ATOM     56  C   UNL A   1      47.939  28.749  27.051  1.00  0.00     0.049 A 
ATOM     57  H   UNL A   1      45.903  28.854  27.594  1.00  0.00     0.167 HD
ATOM     58  C   UNL A   1      47.104  26.438  26.706  1.00  0.00     0.074 A 
ATOM     59  C   UNL A   1      47.273  25.052  26.317  1.00  0.00     0.031 C 
ATOM     60  C   UNL A   1      48.092  27.366  26.671  1.00  0.00     0.037 A 
BRANCH  47  61
ATOM     61  C   UNL A   1      46.323  33.023  28.441  1.00  0.00     0.058 A 
ATOM     62  C   UNL A   1      46.784  33.508  29.676  1.00  0.00     0.135 A 
ATOM     63  C   UNL A   1      46.250  33.930  27.371  1.00  0.00     0.135 A 
ATOM     64  F   UNL A   1      46.861  32.689  30.738  1.00  0.00    -0.206 F 
ATOM     65  C   UNL A   1      47.130  34.843  29.851  1.00  0.00     0.059 A 
ATOM     66  C   UNL A   1      46.617  35.265  27.516  1.00  0.00     0.059 A 
ATOM     67  F   UNL A   1      45.818  33.521  26.168  1.00  0.00    -0.206 F 
ATOM     68  C   UNL A   1      47.041  35.715  28.765  1.00  0.00     0.060 A 
BRANCH  68  69
ATOM     69  S   UNL A   1      47.495  37.446  29.009  1.00  0.00     0.124 S 
ATOM     70  O   UNL A   1      46.286  37.978  29.632  1.00  0.00    -0.237 OA
ATOM     71  O   UNL A   1      48.663  37.344  29.878  1.00  0.00    -0.237 OA
ATOM     72  O   UNL A   1      47.764  37.921  27.656  1.00  0.00    -0.744 OA
ENDBRANCH  68  69
ENDBRANCH  47  61
BRANCH  48  73
ATOM     73  C   UNL A   1      43.369  23.581  26.982  1.00  0.00     0.058 A 
ATOM     74  C   UNL A   1      43.075  23.145  25.682  1.00  0.00     0.135 A 
ATOM     75  C   UNL A   1      43.247  22.651  28.026  1.00  0.00     0.135 A 
ATOM     76  F   UNL A   1      43.172  23.999  24.651  1.00  0.00    -0.206 F 
ATOM     77  C   UNL A   1      42.663  21.841  25.425  1.00  0.00     0.059 A 
ATOM     78  C   UNL A   1      42.860  21.335  27.792  1.00  0.00     0.059 A 
ATOM     79  F   UNL A   1      43.533  23.013  29.287  1.00  0.00    -0.206 F 
ATOM     80  C   UNL A   1      42.560  20.942  26.488  1.00  0.00     0.060 A 
BRANCH  80  81
ATOM     81  S   UNL A   1      42.076  19.238  26.138  1.00  0.00     0.124 S 
ATOM     82  O   UNL A   1      40.637  19.376  25.948  1.00  0.00    -0.237 OA
ATOM     83  O   UNL A   1      42.854  18.937  24.941  1.00  0.00    -0.237 OA
ATOM     84  O   UNL A   1      42.487  18.520  27.341  1.00  0.00    -0.744 OA
ENDBRANCH  80  81
ENDBRANCH  48  73
BRANCH  60  85
ATOM     85  C   UNL A   1      49.453  26.910  26.225  1.00  0.00     0.058 A 
ATOM     86  C   UNL A   1      50.331  26.248  27.097  1.00  0.00     0.135 A 
ATOM     87  C   UNL A   1      49.864  27.094  24.895  1.00  0.00     0.135 A 
ATOM     88  F   UNL A   1      49.990  26.053  28.381  1.00  0.00    -0.206 F 
ATOM     89  C   UNL A   1      51.579  25.803  26.672  1.00  0.00     0.059 A 
ATOM     90  C   UNL A   1      51.096  26.635  24.441  1.00  0.00     0.059 A 
ATOM     91  F   UNL A   1      49.057  27.712  24.019  1.00  0.00    -0.206 F 
ATOM     92  C   UNL A   1      51.952  26.001  25.341  1.00  0.00     0.060 A 
BRANCH  92  93
ATOM     93  S   UNL A   1      53.559  25.390  24.792  1.00  0.00     0.124 S 
ATOM     94  O   UNL A   1      53.442  25.517  23.343  1.00  0.00    -0.237 OA
ATOM     95  O   UNL A   1      54.484  26.317  25.436  1.00  0.00    -0.237 OA
ATOM     96  O   UNL A   1      53.595  24.022  25.301  1.00  0.00    -0.744 OA
ENDBRANCH  92  93
ENDBRANCH  60  85
ENDBRANCH  34  35
ENDBRANCH  26  29
ENDBRANCH  24  25
ENDBRANCH   1  24
TORSDOF 16
ENDMDL
MODEL 3
REMARK VINA RESULT:     -12.0      1.587      2.568
REMARK SMILES C[C@@H]1CCC[C@H]1NC(=O)c1csc(/C=C/C(=O)NCCCNC(=O)c2ccc(-c3c4nc(c(-c5c(F)cc(S(=O)(=O)[O-])cc5F)c5ccc([nH]5)c(-c5c(F)cc(S(=O)(=O)[O-])cc5F)c5nc(c(-c6c(F)cc(S(=O)(=O)[O-])cc6F)c6ccc3[nH]6)C=C5)C=C4)cc2)c1
REMARK SMILES IDX 20 1 19 2 18 3 16 4 17 5 15 7 14 8 13 9 10 10 11 11 91 12
REMARK SMILES IDX 12 13 8 14 7 15 9 17 6 18 1 19 2 20 3 21 4 22 5 23 21 24
REMARK SMILES IDX 22 25 23 26 24 28 25 29 26 30 90 31 27 32 89 33 28 34 29 35
REMARK SMILES IDX 30 36 83 37 31 38 88 39 82 40 84 41 32 42 87 43 81 44 80 45
REMARK SMILES IDX 33 47 67 48 46 49 66 50 47 51 50 52 65 53 85 54 48 55 49 56
REMARK SMILES IDX 64 58 86 59 51 60 34 61 35 62 44 63 36 64 37 65 43 66 45 67
REMARK SMILES IDX 38 68 39 69 40 70 41 71 42 72 68 73 69 74 78 75 70 76 71 77
REMARK SMILES IDX 77 78 79 79 72 80 73 81 74 82 75 83 76 84 52 85 53 86 62 87
REMARK SMILES IDX 54 88 55 89 61 90 63 91 56 92 57 93 58 94 59 95 60 96
REMARK H PARENT 18 6 7 16 22 27 84 46 50 57
REMARK Flexibility Score: inf
ROOT
ATOM      1  C   UNL A   1      38.184  23.818  26.381  1.00  0.00     0.042 C 
ENDROOT
BRANCH   1   2
ATOM      2  C   UNL A   1      37.525  22.540  25.866  1.00  0.00     0.118 C 
BRANCH   2   3
ATOM      3  N   UNL A   1      37.483  22.508  24.413  1.00  0.00    -0.352 N 
ATOM      4  C   UNL A   1      36.521  22.920  23.542  1.00  0.00     0.244 C 
ATOM      5  O   UNL A   1      36.747  22.912  22.335  1.00  0.00    -0.270 OA
ATOM      6  H   UNL A   1      38.282  22.123  23.987  1.00  0.00     0.163 HD
BRANCH   4   7
ATOM      7  C   UNL A   1      35.245  23.477  24.037  1.00  0.00     0.072 C 
ATOM      8  C   UNL A   1      34.119  22.759  24.144  1.00  0.00     0.024 C 
BRANCH   8   9
ATOM      9  C   UNL A   1      32.906  23.282  24.679  1.00  0.00     0.028 A 
ATOM     10  C   UNL A   1      31.132  24.783  25.100  1.00  0.00     0.051 A 
ATOM     11  C   UNL A   1      30.810  23.723  25.924  1.00  0.00     0.079 A 
ATOM     12  C   UNL A   1      32.321  24.493  24.355  1.00  0.00     0.033 A 
ATOM     13  S   UNL A   1      31.969  22.472  25.873  1.00  0.00    -0.144 S 
BRANCH  10  14
ATOM     14  C   UNL A   1      30.345  25.998  24.944  1.00  0.00     0.252 C 
ATOM     15  N   UNL A   1      30.739  27.136  25.598  1.00  0.00    -0.349 N 
ATOM     16  H   UNL A   1      30.121  27.900  25.515  1.00  0.00     0.164 HD
ATOM     17  O   UNL A   1      29.361  26.036  24.211  1.00  0.00    -0.269 OA
BRANCH  15  18
ATOM     18  C   UNL A   1      31.934  27.390  26.397  1.00  0.00     0.085 C 
ATOM     19  C   UNL A   1      34.386  27.983  26.165  1.00  0.00     0.010 C 
ATOM     20  C   UNL A   1      32.979  28.189  25.604  1.00  0.00     0.008 C 
ATOM     21  C   UNL A   1      32.510  29.635  25.765  1.00  0.00     0.005 C 
ATOM     22  C   UNL A   1      31.918  29.716  27.169  1.00  0.00     0.002 C 
ATOM     23  C   UNL A   1      31.586  28.283  27.589  1.00  0.00     0.025 C 
ENDBRANCH  15  18
ENDBRANCH  10  14
ENDBRANCH   8   9
ENDBRANCH   4   7
ENDBRANCH   2   3
ENDBRANCH   1   2
BRANCH   1  24
ATOM     24  C   UNL A   1      39.588  23.597  26.939  1.00  0.00     0.118 C 
BRANCH  24  25
ATOM     25  N   UNL A   1      40.615  24.146  26.064  1.00  0.00    -0.352 N 
ATOM     26  C   UNL A   1      41.252  25.362  26.100  1.00  0.00     0.251 C 
ATOM     27  H   UNL A   1      40.899  23.550  25.333  1.00  0.00     0.163 HD
ATOM     28  O   UNL A   1      41.927  25.711  25.135  1.00  0.00    -0.269 OA
BRANCH  26  29
ATOM     29  C   UNL A   1      41.125  26.253  27.275  1.00  0.00     0.039 A 
ATOM     30  C   UNL A   1      41.969  27.363  27.370  1.00  0.00     0.014 A 
ATOM     31  C   UNL A   1      40.221  25.974  28.304  1.00  0.00     0.014 A 
ATOM     32  C   UNL A   1      41.870  28.221  28.469  1.00  0.00     0.010 A 
ATOM     33  C   UNL A   1      40.077  26.867  29.365  1.00  0.00     0.010 A 
ATOM     34  C   UNL A   1      40.902  27.997  29.461  1.00  0.00    -0.014 A 
BRANCH  34  35
ATOM     35  C   UNL A   1      40.738  28.934  30.603  1.00  0.00     0.031 A 
ATOM     36  C   UNL A   1      41.583  28.781  31.840  1.00  0.00     0.074 A 
ATOM     37  C   UNL A   1      39.781  29.881  30.550  1.00  0.00     0.049 A 
ATOM     38  N   UNL A   1      41.533  29.450  32.962  1.00  0.00    -0.248 NA
ATOM     39  C   UNL A   1      42.601  27.718  31.820  1.00  0.00     0.031 C 
ATOM     40  C   UNL A   1      38.867  30.099  29.427  1.00  0.00     0.029 A 
ATOM     41  N   UNL A   1      39.407  30.830  31.469  1.00  0.00    -0.354 N 
ATOM     42  C   UNL A   1      42.495  28.882  33.787  1.00  0.00     0.074 A 
ATOM     43  C   UNL A   1      43.084  27.782  33.054  1.00  0.00     0.031 C 
ATOM     44  C   UNL A   1      38.051  31.124  29.714  1.00  0.00     0.029 A 
ATOM     45  C   UNL A   1      38.356  31.614  31.054  1.00  0.00     0.049 A 
ATOM     46  H   UNL A   1      39.849  30.939  32.342  1.00  0.00     0.167 HD
ATOM     47  C   UNL A   1      42.870  29.255  35.036  1.00  0.00     0.037 A 
ATOM     48  C   UNL A   1      37.703  32.609  31.687  1.00  0.00     0.037 A 
ATOM     49  C   UNL A   1      42.298  30.368  35.749  1.00  0.00     0.049 A 
ATOM     50  C   UNL A   1      38.142  33.011  33.068  1.00  0.00     0.074 A 
ATOM     51  C   UNL A   1      42.650  30.866  36.992  1.00  0.00     0.029 A 
ATOM     52  N   UNL A   1      41.254  31.155  35.286  1.00  0.00    -0.354 N 
ATOM     53  N   UNL A   1      39.097  32.502  33.810  1.00  0.00    -0.248 NA
ATOM     54  C   UNL A   1      37.419  34.125  33.698  1.00  0.00     0.031 C 
ATOM     55  C   UNL A   1      41.791  31.927  37.297  1.00  0.00     0.029 A 
ATOM     56  C   UNL A   1      40.935  32.123  36.225  1.00  0.00     0.049 A 
ATOM     57  H   UNL A   1      40.805  31.043  34.417  1.00  0.00     0.167 HD
ATOM     58  C   UNL A   1      39.107  33.249  34.982  1.00  0.00     0.074 A 
ATOM     59  C   UNL A   1      38.071  34.253  34.845  1.00  0.00     0.031 C 
ATOM     60  C   UNL A   1      39.903  33.118  36.072  1.00  0.00     0.037 A 
BRANCH  47  61
ATOM     61  C   UNL A   1      43.951  28.454  35.710  1.00  0.00     0.058 A 
ATOM     62  C   UNL A   1      43.651  27.370  36.552  1.00  0.00     0.135 A 
ATOM     63  C   UNL A   1      45.306  28.749  35.485  1.00  0.00     0.135 A 
ATOM     64  F   UNL A   1      42.373  27.052  36.813  1.00  0.00    -0.206 F 
ATOM     65  C   UNL A   1      44.652  26.629  37.169  1.00  0.00     0.059 A 
ATOM     66  C   UNL A   1      46.325  28.003  36.070  1.00  0.00     0.059 A 
ATOM     67  F   UNL A   1      45.651  29.772  34.688  1.00  0.00    -0.206 F 
ATOM     68  C   UNL A   1      45.987  26.954  36.924  1.00  0.00     0.060 A 
BRANCH  68  69
ATOM     69  S   UNL A   1      47.274  25.979  37.733  1.00  0.00     0.124 S 
ATOM     70  O   UNL A   1      48.481  26.529  37.123  1.00  0.00    -0.237 OA
ATOM     71  O   UNL A   1      47.073  26.303  39.141  1.00  0.00    -0.237 OA
ATOM     72  O   UNL A   1      46.950  24.608  37.354  1.00  0.00    -0.744 OA
ENDBRANCH  68  69
ENDBRANCH  47  61
BRANCH  48  73
ATOM     73  C   UNL A   1      36.579  33.307  31.007  1.00  0.00     0.058 A 
ATOM     74  C   UNL A   1      36.819  34.230  29.979  1.00  0.00     0.135 A 
ATOM     75  C   UNL A   1      35.244  33.050  31.357  1.00  0.00     0.135 A 
ATOM     76  F   UNL A   1      38.079  34.514  29.613  1.00  0.00    -0.206 F 
ATOM     77  C   UNL A   1      35.778  34.886  29.330  1.00  0.00     0.059 A 
ATOM     78  C   UNL A   1      34.185  33.675  30.705  1.00  0.00     0.059 A 
ATOM     79  F   UNL A   1      34.960  32.162  32.322  1.00  0.00    -0.206 F 
ATOM     80  C   UNL A   1      34.463  34.600  29.700  1.00  0.00     0.060 A 
BRANCH  80  81
ATOM     81  S   UNL A   1      33.117  35.417  28.815  1.00  0.00     0.124 S 
ATOM     82  O   UNL A   1      32.357  36.002  29.914  1.00  0.00    -0.237 OA
ATOM     83  O   UNL A   1      33.836  36.357  27.962  1.00  0.00    -0.237 OA
ATOM     84  O   UNL A   1      32.463  34.317  28.111  1.00  0.00    -0.744 OA
ENDBRANCH  80  81
ENDBRANCH  48  73
BRANCH  60  85
ATOM     85  C   UNL A   1      39.708  34.100  37.193  1.00  0.00     0.058 A 
ATOM     86  C   UNL A   1      38.952  33.780  38.331  1.00  0.00     0.135 A 
ATOM     87  C   UNL A   1      40.327  35.360  37.149  1.00  0.00     0.135 A 
ATOM     88  F   UNL A   1      38.334  32.591  38.420  1.00  0.00    -0.206 F 
ATOM     89  C   UNL A   1      38.798  34.683  39.378  1.00  0.00     0.059 A 
ATOM     90  C   UNL A   1      40.207  36.269  38.196  1.00  0.00     0.059 A 
ATOM     91  F   UNL A   1      41.069  35.712  36.087  1.00  0.00    -0.206 F 
ATOM     92  C   UNL A   1      39.430  35.925  39.301  1.00  0.00     0.060 A 
BRANCH  92  93
ATOM     93  S   UNL A   1      39.251  37.075  40.681  1.00  0.00     0.124 S 
ATOM     94  O   UNL A   1      38.364  38.083  40.109  1.00  0.00    -0.237 OA
ATOM     95  O   UNL A   1      38.665  36.232  41.718  1.00  0.00    -0.237 OA
ATOM     96  O   UNL A   1      40.619  37.516  40.937  1.00  0.00    -0.744 OA
ENDBRANCH  92  93
ENDBRANCH  60  85
ENDBRANCH  34  35
ENDBRANCH  26  29
ENDBRANCH  24  25
ENDBRANCH   1  24
TORSDOF 16
ENDMDL
