MODEL 1
REMARK VINA RESULT:     -12.1      0.000      0.000
REMARK SMILES C[C@H]1[C@H](C(=O)NCCCNC(=O)c2ccc(-c3c4nc(c(-c5c(F)cc(S(=O)(=O)[O-])cc5F)c5ccc([nH]5)c(-c5c(F)cc(S(=O)(=O)[O-])cc5F)c5nc(c(-c6c(F)cc(S(=O)(=O)[O-])cc6F)c6ccc3[nH]6)C=C5)C=C4)cc2)CCN1C(=O)NCc1cnn(C)c1
REMARK SMILES IDX 8 1 7 2 6 3 4 4 5 5 3 7 1 8 2 9 81 10 79 11 80 12 82 13
REMARK SMILES IDX 83 14 84 15 85 17 86 18 87 19 91 20 88 21 89 22 90 23 9 24
REMARK SMILES IDX 10 25 11 26 12 28 13 29 14 30 78 31 15 32 77 33 16 34 17 35
REMARK SMILES IDX 18 36 71 37 19 38 76 39 70 40 72 41 20 42 75 43 69 44 68 45
REMARK SMILES IDX 21 47 55 48 34 49 54 50 35 51 38 52 53 53 73 54 36 55 37 56
REMARK SMILES IDX 52 58 74 59 39 60 22 61 23 62 32 63 24 64 25 65 31 66 33 67
REMARK SMILES IDX 26 68 27 69 28 70 29 71 30 72 56 73 57 74 66 75 58 76 59 77
REMARK SMILES IDX 65 78 67 79 60 80 61 81 62 82 63 83 64 84 40 85 41 86 50 87
REMARK SMILES IDX 42 88 43 89 49 90 51 91 44 92 45 93 46 94 47 95 48 96
REMARK H PARENT 6 6 84 16 10 27 72 46 38 57
REMARK Flexibility Score: inf
ROOT
ATOM      1  C   UNL A   1      37.996  23.591  26.428  1.00  0.00     0.042 C 
ENDROOT
BRANCH   1   2
ATOM      2  C   UNL A   1      37.549  22.316  25.727  1.00  0.00     0.117 C 
BRANCH   2   3
ATOM      3  N   UNL A   1      37.411  22.483  24.288  1.00  0.00    -0.356 N 
ATOM      4  C   UNL A   1      36.367  22.873  23.514  1.00  0.00     0.225 C 
ATOM      5  O   UNL A   1      36.562  22.918  22.295  1.00  0.00    -0.275 OA
ATOM      6  H   UNL A   1      38.228  22.273  23.782  1.00  0.00     0.163 HD
BRANCH   4   7
ATOM      7  C   UNL A   1      34.992  23.223  24.061  1.00  0.00     0.102 C 
ATOM      8  C   UNL A   1      34.366  25.136  25.559  1.00  0.00     0.032 C 
ATOM      9  C   UNL A   1      34.751  24.740  24.127  1.00  0.00     0.096 C 
ATOM     10  N   UNL A   1      33.643  24.991  23.211  1.00  0.00    -0.321 N 
ATOM     11  C   UNL A   1      33.811  22.613  23.313  1.00  0.00     0.037 C 
ATOM     12  C   UNL A   1      32.873  23.773  23.015  1.00  0.00     0.122 C 
BRANCH  10  13
ATOM     13  C   UNL A   1      33.260  26.114  22.549  1.00  0.00     0.317 C 
ATOM     14  O   UNL A   1      33.719  26.374  21.431  1.00  0.00    -0.249 OA
ATOM     15  N   UNL A   1      32.395  27.013  23.036  1.00  0.00    -0.334 N 
ATOM     16  H   UNL A   1      32.371  27.823  22.477  1.00  0.00     0.165 HD
BRANCH  15  17
ATOM     17  C   UNL A   1      31.484  27.125  24.155  1.00  0.00     0.157 C 
BRANCH  17  18
ATOM     18  C   UNL A   1      31.828  28.324  24.956  1.00  0.00     0.009 A 
ATOM     19  C   UNL A   1      31.240  29.608  24.866  1.00  0.00     0.140 A 
ATOM     20  C   UNL A   1      32.806  28.479  25.921  1.00  0.00     0.113 A 
ATOM     21  N   UNL A   1      31.764  30.480  25.729  1.00  0.00    -0.181 NA
ATOM     22  N   UNL A   1      32.740  29.778  26.337  1.00  0.00    -0.275 N 
ATOM     23  C   UNL A   1      33.574  30.421  27.324  1.00  0.00     0.173 C 
ENDBRANCH  17  18
ENDBRANCH  15  17
ENDBRANCH  10  13
ENDBRANCH   4   7
ENDBRANCH   2   3
ENDBRANCH   1   2
BRANCH   1  24
ATOM     24  C   UNL A   1      39.407  23.544  27.006  1.00  0.00     0.118 C 
BRANCH  24  25
ATOM     25  N   UNL A   1      40.399  24.123  26.111  1.00  0.00    -0.352 N 
ATOM     26  C   UNL A   1      41.025  25.343  26.144  1.00  0.00     0.251 C 
ATOM     27  H   UNL A   1      40.662  23.545  25.359  1.00  0.00     0.163 HD
ATOM     28  O   UNL A   1      41.689  25.696  25.168  1.00  0.00    -0.269 OA
BRANCH  26  29
ATOM     29  C   UNL A   1      40.910  26.242  27.315  1.00  0.00     0.039 A 
ATOM     30  C   UNL A   1      41.833  27.285  27.450  1.00  0.00     0.014 A 
ATOM     31  C   UNL A   1      39.948  26.041  28.307  1.00  0.00     0.014 A 
ATOM     32  C   UNL A   1      41.758  28.151  28.545  1.00  0.00     0.010 A 
ATOM     33  C   UNL A   1      39.828  26.947  29.361  1.00  0.00     0.010 A 
ATOM     34  C   UNL A   1      40.736  28.008  29.495  1.00  0.00    -0.014 A 
BRANCH  34  35
ATOM     35  C   UNL A   1      40.598  28.961  30.627  1.00  0.00     0.031 A 
ATOM     36  C   UNL A   1      41.428  28.793  31.873  1.00  0.00     0.074 A 
ATOM     37  C   UNL A   1      39.678  29.943  30.560  1.00  0.00     0.049 A 
ATOM     38  N   UNL A   1      41.405  29.491  32.979  1.00  0.00    -0.248 NA
ATOM     39  C   UNL A   1      42.399  27.688  31.880  1.00  0.00     0.031 C 
ATOM     40  C   UNL A   1      38.788  30.193  29.424  1.00  0.00     0.029 A 
ATOM     41  N   UNL A   1      39.320  30.900  31.476  1.00  0.00    -0.354 N 
ATOM     42  C   UNL A   1      42.358  28.915  33.812  1.00  0.00     0.074 A 
ATOM     43  C   UNL A   1      42.897  27.772  33.106  1.00  0.00     0.031 C 
ATOM     44  C   UNL A   1      37.978  31.224  29.716  1.00  0.00     0.029 A 
ATOM     45  C   UNL A   1      38.283  31.701  31.061  1.00  0.00     0.049 A 
ATOM     46  H   UNL A   1      39.765  31.004  32.348  1.00  0.00     0.167 HD
ATOM     47  C   UNL A   1      42.768  29.317  35.040  1.00  0.00     0.037 A 
ATOM     48  C   UNL A   1      37.644  32.705  31.691  1.00  0.00     0.037 A 
ATOM     49  C   UNL A   1      42.240  30.462  35.734  1.00  0.00     0.049 A 
ATOM     50  C   UNL A   1      38.108  33.130  33.055  1.00  0.00     0.074 A 
ATOM     51  C   UNL A   1      42.627  30.984  36.958  1.00  0.00     0.029 A 
ATOM     52  N   UNL A   1      41.207  31.264  35.270  1.00  0.00    -0.354 N 
ATOM     53  N   UNL A   1      39.057  32.615  33.799  1.00  0.00    -0.248 NA
ATOM     54  C   UNL A   1      37.432  34.288  33.656  1.00  0.00     0.031 C 
ATOM     55  C   UNL A   1      41.803  32.078  37.249  1.00  0.00     0.029 A 
ATOM     56  C   UNL A   1      40.932  32.264  36.188  1.00  0.00     0.049 A 
ATOM     57  H   UNL A   1      40.738  31.140  34.413  1.00  0.00     0.167 HD
ATOM     58  C   UNL A   1      39.111  33.401  34.943  1.00  0.00     0.074 A 
ATOM     59  C   UNL A   1      38.106  34.433  34.788  1.00  0.00     0.031 C 
ATOM     60  C   UNL A   1      39.924  33.283  36.023  1.00  0.00     0.037 A 
BRANCH  47  61
ATOM     61  C   UNL A   1      43.855  28.516  35.704  1.00  0.00     0.058 A 
ATOM     62  C   UNL A   1      45.214  28.802  35.485  1.00  0.00     0.135 A 
ATOM     63  C   UNL A   1      43.542  27.472  36.588  1.00  0.00     0.135 A 
ATOM     64  F   UNL A   1      45.570  29.783  34.640  1.00  0.00    -0.206 F 
ATOM     65  C   UNL A   1      46.221  28.061  36.092  1.00  0.00     0.059 A 
ATOM     66  C   UNL A   1      44.535  26.733  37.227  1.00  0.00     0.059 A 
ATOM     67  F   UNL A   1      42.261  27.156  36.836  1.00  0.00    -0.206 F 
ATOM     68  C   UNL A   1      45.872  27.025  36.961  1.00  0.00     0.060 A 
BRANCH  68  69
ATOM     69  S   UNL A   1      47.191  26.069  37.739  1.00  0.00     0.124 S 
ATOM     70  O   UNL A   1      48.368  26.572  37.037  1.00  0.00    -0.237 OA
ATOM     71  O   UNL A   1      47.076  26.460  39.141  1.00  0.00    -0.237 OA
ATOM     72  O   UNL A   1      46.828  24.687  37.446  1.00  0.00    -0.744 OA
ENDBRANCH  68  69
ENDBRANCH  47  61
BRANCH  48  73
ATOM     73  C   UNL A   1      36.513  33.391  31.016  1.00  0.00     0.058 A 
ATOM     74  C   UNL A   1      35.198  33.245  31.479  1.00  0.00     0.135 A 
ATOM     75  C   UNL A   1      36.731  34.235  29.916  1.00  0.00     0.135 A 
ATOM     76  F   UNL A   1      34.941  32.450  32.529  1.00  0.00    -0.206 F 
ATOM     77  C   UNL A   1      34.134  33.901  30.869  1.00  0.00     0.059 A 
ATOM     78  C   UNL A   1      35.686  34.916  29.299  1.00  0.00     0.059 A 
ATOM     79  F   UNL A   1      37.977  34.430  29.453  1.00  0.00    -0.206 F 
ATOM     80  C   UNL A   1      34.390  34.737  29.779  1.00  0.00     0.060 A 
BRANCH  80  81
ATOM     81  S   UNL A   1      33.012  35.633  29.032  1.00  0.00     0.124 S 
ATOM     82  O   UNL A   1      32.265  36.058  30.209  1.00  0.00    -0.237 OA
ATOM     83  O   UNL A   1      33.698  36.689  28.294  1.00  0.00    -0.237 OA
ATOM     84  O   UNL A   1      32.366  34.620  28.203  1.00  0.00    -0.744 OA
ENDBRANCH  80  81
ENDBRANCH  48  73
BRANCH  60  85
ATOM     85  C   UNL A   1      39.773  34.309  37.111  1.00  0.00     0.058 A 
ATOM     86  C   UNL A   1      38.938  34.090  38.218  1.00  0.00     0.135 A 
ATOM     87  C   UNL A   1      40.489  35.515  37.057  1.00  0.00     0.135 A 
ATOM     88  F   UNL A   1      38.226  32.956  38.315  1.00  0.00    -0.206 F 
ATOM     89  C   UNL A   1      38.795  35.046  39.219  1.00  0.00     0.059 A 
ATOM     90  C   UNL A   1      40.381  36.474  38.059  1.00  0.00     0.059 A 
ATOM     91  F   UNL A   1      41.309  35.770  36.025  1.00  0.00    -0.206 F 
ATOM     92  C   UNL A   1      39.518  36.237  39.129  1.00  0.00     0.060 A 
BRANCH  92  93
ATOM     93  S   UNL A   1      39.335  37.464  40.439  1.00  0.00     0.124 S 
ATOM     94  O   UNL A   1      39.038  36.620  41.592  1.00  0.00    -0.237 OA
ATOM     95  O   UNL A   1      40.641  38.114  40.449  1.00  0.00    -0.237 OA
ATOM     96  O   UNL A   1      38.231  38.298  39.971  1.00  0.00    -0.744 OA
ENDBRANCH  92  93
ENDBRANCH  60  85
ENDBRANCH  34  35
ENDBRANCH  26  29
ENDBRANCH  24  25
ENDBRANCH   1  24
TORSDOF 16
ENDMDL
MODEL 2
REMARK VINA RESULT:     -12.1      6.649     12.296
REMARK SMILES C[C@H]1[C@H](C(=O)NCCCNC(=O)c2ccc(-c3c4nc(c(-c5c(F)cc(S(=O)(=O)[O-])cc5F)c5ccc([nH]5)c(-c5c(F)cc(S(=O)(=O)[O-])cc5F)c5nc(c(-c6c(F)cc(S(=O)(=O)[O-])cc6F)c6ccc3[nH]6)C=C5)C=C4)cc2)CCN1C(=O)NCc1cnn(C)c1
REMARK SMILES IDX 8 1 7 2 6 3 4 4 5 5 3 7 1 8 2 9 81 10 79 11 80 12 82 13
REMARK SMILES IDX 83 14 84 15 85 17 86 18 87 19 91 20 88 21 89 22 90 23 9 24
REMARK SMILES IDX 10 25 11 26 12 28 13 29 14 30 78 31 15 32 77 33 16 34 17 35
REMARK SMILES IDX 18 36 71 37 19 38 76 39 70 40 72 41 20 42 75 43 69 44 68 45
REMARK SMILES IDX 21 47 55 48 34 49 54 50 35 51 38 52 53 53 73 54 36 55 37 56
REMARK SMILES IDX 52 58 74 59 39 60 22 61 23 62 32 63 24 64 25 65 31 66 33 67
REMARK SMILES IDX 26 68 27 69 28 70 29 71 30 72 56 73 57 74 66 75 58 76 59 77
REMARK SMILES IDX 65 78 67 79 60 80 61 81 62 82 63 83 64 84 40 85 41 86 50 87
REMARK SMILES IDX 42 88 43 89 49 90 51 91 44 92 45 93 46 94 47 95 48 96
REMARK H PARENT 6 6 84 16 10 27 72 46 38 57
REMARK Flexibility Score: inf
ROOT
ATOM      1  C   UNL A   1      34.188  31.312  27.617  1.00  0.00     0.042 C 
ENDROOT
BRANCH   1   2
ATOM      2  C   UNL A   1      33.789  30.002  26.954  1.00  0.00     0.117 C 
BRANCH   2   3
ATOM      3  N   UNL A   1      32.686  29.340  27.633  1.00  0.00    -0.356 N 
ATOM      4  C   UNL A   1      31.947  28.247  27.315  1.00  0.00     0.225 C 
ATOM      5  O   UNL A   1      31.059  27.922  28.111  1.00  0.00    -0.275 OA
ATOM      6  H   UNL A   1      32.427  29.764  28.482  1.00  0.00     0.163 HD
BRANCH   4   7
ATOM      7  C   UNL A   1      32.138  27.438  26.042  1.00  0.00     0.102 C 
ATOM      8  C   UNL A   1      34.010  25.867  25.475  1.00  0.00     0.032 C 
ATOM      9  C   UNL A   1      32.734  26.046  26.309  1.00  0.00     0.096 C 
ATOM     10  N   UNL A   1      31.706  25.102  25.884  1.00  0.00    -0.321 N 
ATOM     11  C   UNL A   1      30.883  27.234  25.197  1.00  0.00     0.037 C 
ATOM     12  C   UNL A   1      30.808  25.738  24.933  1.00  0.00     0.122 C 
BRANCH  10  13
ATOM     13  C   UNL A   1      31.473  23.809  26.232  1.00  0.00     0.317 C 
ATOM     14  O   UNL A   1      30.836  23.538  27.256  1.00  0.00    -0.249 OA
ATOM     15  N   UNL A   1      31.907  22.754  25.531  1.00  0.00    -0.334 N 
ATOM     16  H   UNL A   1      31.770  21.916  26.029  1.00  0.00     0.165 HD
BRANCH  15  17
ATOM     17  C   UNL A   1      32.523  22.502  24.245  1.00  0.00     0.157 C 
BRANCH  17  18
ATOM     18  C   UNL A   1      33.832  21.836  24.445  1.00  0.00     0.009 A 
ATOM     19  C   UNL A   1      34.058  20.515  24.897  1.00  0.00     0.140 A 
ATOM     20  C   UNL A   1      35.106  22.347  24.281  1.00  0.00     0.113 A 
ATOM     21  N   UNL A   1      35.352  20.204  24.966  1.00  0.00    -0.181 NA
ATOM     22  N   UNL A   1      35.973  21.348  24.619  1.00  0.00    -0.275 N 
ATOM     23  C   UNL A   1      37.415  21.410  24.624  1.00  0.00     0.173 C 
ENDBRANCH  17  18
ENDBRANCH  15  17
ENDBRANCH  10  13
ENDBRANCH   4   7
ENDBRANCH   2   3
ENDBRANCH   1   2
BRANCH   1  24
ATOM     24  C   UNL A   1      35.568  31.308  28.267  1.00  0.00     0.118 C 
BRANCH  24  25
ATOM     25  N   UNL A   1      35.510  31.085  29.704  1.00  0.00    -0.352 N 
ATOM     26  C   UNL A   1      36.411  30.493  30.551  1.00  0.00     0.251 C 
ATOM     27  H   UNL A   1      34.689  31.413  30.139  1.00  0.00     0.163 HD
ATOM     28  O   UNL A   1      36.063  30.241  31.706  1.00  0.00    -0.269 OA
BRANCH  26  29
ATOM     29  C   UNL A   1      37.779  30.143  30.107  1.00  0.00     0.039 A 
ATOM     30  C   UNL A   1      38.762  29.921  31.078  1.00  0.00     0.014 A 
ATOM     31  C   UNL A   1      38.123  30.086  28.754  1.00  0.00     0.014 A 
ATOM     32  C   UNL A   1      40.066  29.593  30.695  1.00  0.00     0.010 A 
ATOM     33  C   UNL A   1      39.404  29.688  28.372  1.00  0.00     0.010 A 
ATOM     34  C   UNL A   1      40.392  29.444  29.338  1.00  0.00    -0.014 A 
BRANCH  34  35
ATOM     35  C   UNL A   1      41.754  29.027  28.915  1.00  0.00     0.031 A 
ATOM     36  C   UNL A   1      42.864  30.040  28.808  1.00  0.00     0.074 A 
ATOM     37  C   UNL A   1      41.977  27.746  28.564  1.00  0.00     0.049 A 
ATOM     38  N   UNL A   1      44.097  29.872  28.404  1.00  0.00    -0.248 NA
ATOM     39  C   UNL A   1      42.541  31.423  29.191  1.00  0.00     0.031 C 
ATOM     40  C   UNL A   1      40.979  26.674  28.591  1.00  0.00     0.029 A 
ATOM     41  N   UNL A   1      43.109  27.129  28.093  1.00  0.00    -0.354 N 
ATOM     42  C   UNL A   1      44.699  31.122  28.488  1.00  0.00     0.074 A 
ATOM     43  C   UNL A   1      43.677  32.052  28.921  1.00  0.00     0.031 C 
ATOM     44  C   UNL A   1      41.537  25.539  28.143  1.00  0.00     0.029 A 
ATOM     45  C   UNL A   1      42.928  25.802  27.786  1.00  0.00     0.049 A 
ATOM     46  H   UNL A   1      43.970  27.594  27.986  1.00  0.00     0.167 HD
ATOM     47  C   UNL A   1      45.989  31.462  28.253  1.00  0.00     0.037 A 
ATOM     48  C   UNL A   1      43.781  24.896  27.273  1.00  0.00     0.037 A 
ATOM     49  C   UNL A   1      47.007  30.534  27.834  1.00  0.00     0.049 A 
ATOM     50  C   UNL A   1      45.207  25.294  27.012  1.00  0.00     0.074 A 
ATOM     51  C   UNL A   1      48.355  30.769  27.623  1.00  0.00     0.029 A 
ATOM     52  N   UNL A   1      46.791  29.191  27.559  1.00  0.00    -0.354 N 
ATOM     53  N   UNL A   1      45.773  26.468  27.162  1.00  0.00    -0.248 NA
ATOM     54  C   UNL A   1      46.114  24.242  26.536  1.00  0.00     0.031 C 
ATOM     55  C   UNL A   1      48.945  29.577  27.184  1.00  0.00     0.029 A 
ATOM     56  C   UNL A   1      47.973  28.590  27.164  1.00  0.00     0.049 A 
ATOM     57  H   UNL A   1      45.922  28.733  27.633  1.00  0.00     0.167 HD
ATOM     58  C   UNL A   1      47.110  26.289  26.824  1.00  0.00     0.074 A 
ATOM     59  C   UNL A   1      47.268  24.892  26.473  1.00  0.00     0.031 C 
ATOM     60  C   UNL A   1      48.116  27.198  26.811  1.00  0.00     0.037 A 
BRANCH  47  61
ATOM     61  C   UNL A   1      46.376  32.902  28.460  1.00  0.00     0.058 A 
ATOM     62  C   UNL A   1      46.826  33.368  29.707  1.00  0.00     0.135 A 
ATOM     63  C   UNL A   1      46.324  33.821  27.400  1.00  0.00     0.135 A 
ATOM     64  F   UNL A   1      46.885  32.534  30.758  1.00  0.00    -0.206 F 
ATOM     65  C   UNL A   1      47.179  34.699  29.903  1.00  0.00     0.059 A 
ATOM     66  C   UNL A   1      46.696  35.153  27.567  1.00  0.00     0.059 A 
ATOM     67  F   UNL A   1      45.903  33.431  26.186  1.00  0.00    -0.206 F 
ATOM     68  C   UNL A   1      47.108  35.585  28.828  1.00  0.00     0.060 A 
BRANCH  68  69
ATOM     69  S   UNL A   1      47.565  37.311  29.099  1.00  0.00     0.124 S 
ATOM     70  O   UNL A   1      46.260  37.965  29.073  1.00  0.00    -0.237 OA
ATOM     71  O   UNL A   1      48.220  37.260  30.403  1.00  0.00    -0.237 OA
ATOM     72  O   UNL A   1      48.441  37.612  27.973  1.00  0.00    -0.744 OA
ENDBRANCH  68  69
ENDBRANCH  47  61
BRANCH  48  73
ATOM     73  C   UNL A   1      43.308  23.515  27.002  1.00  0.00     0.058 A 
ATOM     74  C   UNL A   1      43.040  23.086  25.694  1.00  0.00     0.135 A 
ATOM     75  C   UNL A   1      43.150  22.587  28.042  1.00  0.00     0.135 A 
ATOM     76  F   UNL A   1      43.178  23.938  24.667  1.00  0.00    -0.206 F 
ATOM     77  C   UNL A   1      42.617  21.789  25.426  1.00  0.00     0.059 A 
ATOM     78  C   UNL A   1      42.746  21.278  27.798  1.00  0.00     0.059 A 
ATOM     79  F   UNL A   1      43.423  22.941  29.309  1.00  0.00    -0.206 F 
ATOM     80  C   UNL A   1      42.476  20.890  26.486  1.00  0.00     0.060 A 
BRANCH  80  81
ATOM     81  S   UNL A   1      41.988  19.190  26.123  1.00  0.00     0.124 S 
ATOM     82  O   UNL A   1      40.556  19.338  25.892  1.00  0.00    -0.237 OA
ATOM     83  O   UNL A   1      42.797  18.884  24.947  1.00  0.00    -0.237 OA
ATOM     84  O   UNL A   1      42.363  18.470  27.336  1.00  0.00    -0.744 OA
ENDBRANCH  80  81
ENDBRANCH  48  73
BRANCH  60  85
ATOM     85  C   UNL A   1      49.482  26.703  26.426  1.00  0.00     0.058 A 
ATOM     86  C   UNL A   1      49.974  26.844  25.119  1.00  0.00     0.135 A 
ATOM     87  C   UNL A   1      50.319  26.104  27.381  1.00  0.00     0.135 A 
ATOM     88  F   UNL A   1      49.211  27.405  24.166  1.00  0.00    -0.206 F 
ATOM     89  C   UNL A   1      51.236  26.378  24.764  1.00  0.00     0.059 A 
ATOM     90  C   UNL A   1      51.593  25.654  27.055  1.00  0.00     0.059 A 
ATOM     91  F   UNL A   1      49.900  25.955  28.648  1.00  0.00    -0.206 F 
ATOM     92  C   UNL A   1      52.037  25.781  25.739  1.00  0.00     0.060 A 
BRANCH  92  93
ATOM     93  S   UNL A   1      53.678  25.191  25.271  1.00  0.00     0.124 S 
ATOM     94  O   UNL A   1      53.780  25.671  23.896  1.00  0.00    -0.237 OA
ATOM     95  O   UNL A   1      54.541  25.857  26.240  1.00  0.00    -0.237 OA
ATOM     96  O   UNL A   1      53.574  23.743  25.424  1.00  0.00    -0.744 OA
ENDBRANCH  92  93
ENDBRANCH  60  85
ENDBRANCH  34  35
ENDBRANCH  26  29
ENDBRANCH  24  25
ENDBRANCH   1  24
TORSDOF 16
ENDMDL
MODEL 3
REMARK VINA RESULT:     -12.0      2.480      4.136
REMARK SMILES C[C@H]1[C@H](C(=O)NCCCNC(=O)c2ccc(-c3c4nc(c(-c5c(F)cc(S(=O)(=O)[O-])cc5F)c5ccc([nH]5)c(-c5c(F)cc(S(=O)(=O)[O-])cc5F)c5nc(c(-c6c(F)cc(S(=O)(=O)[O-])cc6F)c6ccc3[nH]6)C=C5)C=C4)cc2)CCN1C(=O)NCc1cnn(C)c1
REMARK SMILES IDX 8 1 7 2 6 3 4 4 5 5 3 7 1 8 2 9 81 10 79 11 80 12 82 13
REMARK SMILES IDX 83 14 84 15 85 17 86 18 87 19 91 20 88 21 89 22 90 23 9 24
REMARK SMILES IDX 10 25 11 26 12 28 13 29 14 30 78 31 15 32 77 33 16 34 17 35
REMARK SMILES IDX 18 36 71 37 19 38 76 39 70 40 72 41 20 42 75 43 69 44 68 45
REMARK SMILES IDX 21 47 55 48 34 49 54 50 35 51 38 52 53 53 73 54 36 55 37 56
REMARK SMILES IDX 52 58 74 59 39 60 22 61 23 62 32 63 24 64 25 65 31 66 33 67
REMARK SMILES IDX 26 68 27 69 28 70 29 71 30 72 56 73 57 74 66 75 58 76 59 77
REMARK SMILES IDX 65 78 67 79 60 80 61 81 62 82 63 83 64 84 40 85 41 86 50 87
REMARK SMILES IDX 42 88 43 89 49 90 51 91 44 92 45 93 46 94 47 95 48 96
REMARK H PARENT 6 6 84 16 10 27 72 46 38 57
REMARK Flexibility Score: inf
ROOT
ATOM      1  C   UNL A   1      40.800  21.642  27.311  1.00  0.00     0.042 C 
ENDROOT
BRANCH   1   2
ATOM      2  C   UNL A   1      39.872  21.871  26.127  1.00  0.00     0.117 C 
BRANCH   2   3
ATOM      3  N   UNL A   1      38.911  22.938  26.362  1.00  0.00    -0.356 N 
ATOM      4  C   UNL A   1      37.681  23.184  25.846  1.00  0.00     0.225 C 
ATOM      5  O   UNL A   1      37.095  24.193  26.253  1.00  0.00    -0.275 OA
ATOM      6  H   UNL A   1      39.209  23.606  27.020  1.00  0.00     0.163 HD
BRANCH   4   7
ATOM      7  C   UNL A   1      37.015  22.310  24.794  1.00  0.00     0.102 C 
ATOM      8  C   UNL A   1      36.507  19.856  24.918  1.00  0.00     0.032 C 
ATOM      9  C   UNL A   1      36.086  21.249  25.407  1.00  0.00     0.096 C 
ATOM     10  N   UNL A   1      34.752  21.582  24.922  1.00  0.00    -0.321 N 
ATOM     11  C   UNL A   1      36.207  23.055  23.735  1.00  0.00     0.037 C 
ATOM     12  C   UNL A   1      34.848  22.373  23.705  1.00  0.00     0.122 C 
BRANCH  10  13
ATOM     13  C   UNL A   1      33.518  21.293  25.411  1.00  0.00     0.317 C 
ATOM     14  O   UNL A   1      33.109  21.833  26.445  1.00  0.00    -0.249 OA
ATOM     15  N   UNL A   1      32.673  20.421  24.848  1.00  0.00    -0.334 N 
ATOM     16  H   UNL A   1      31.904  20.239  25.436  1.00  0.00     0.165 HD
BRANCH  15  17
ATOM     17  C   UNL A   1      32.574  19.670  23.614  1.00  0.00     0.157 C 
BRANCH  17  18
ATOM     18  C   UNL A   1      32.878  18.243  23.877  1.00  0.00     0.009 A 
ATOM     19  C   UNL A   1      33.660  17.375  23.079  1.00  0.00     0.140 A 
ATOM     20  C   UNL A   1      32.446  17.434  24.912  1.00  0.00     0.113 A 
ATOM     21  N   UNL A   1      33.755  16.146  23.587  1.00  0.00    -0.181 NA
ATOM     22  N   UNL A   1      32.978  16.197  24.686  1.00  0.00    -0.275 N 
ATOM     23  C   UNL A   1      32.796  15.010  25.489  1.00  0.00     0.173 C 
ENDBRANCH  17  18
ENDBRANCH  15  17
ENDBRANCH  10  13
ENDBRANCH   4   7
ENDBRANCH   2   3
ENDBRANCH   1   2
BRANCH   1  24
ATOM     24  C   UNL A   1      41.809  22.757  27.562  1.00  0.00     0.118 C 
BRANCH  24  25
ATOM     25  N   UNL A   1      42.013  23.601  26.392  1.00  0.00    -0.352 N 
ATOM     26  C   UNL A   1      41.884  24.957  26.239  1.00  0.00     0.251 C 
ATOM     27  H   UNL A   1      42.289  23.118  25.579  1.00  0.00     0.163 HD
ATOM     28  O   UNL A   1      41.921  25.431  25.101  1.00  0.00    -0.269 OA
BRANCH  26  29
ATOM     29  C   UNL A   1      41.690  25.855  27.400  1.00  0.00     0.039 A 
ATOM     30  C   UNL A   1      42.710  26.755  27.727  1.00  0.00     0.014 A 
ATOM     31  C   UNL A   1      40.550  25.784  28.203  1.00  0.00     0.014 A 
ATOM     32  C   UNL A   1      42.564  27.615  28.820  1.00  0.00     0.010 A 
ATOM     33  C   UNL A   1      40.372  26.690  29.249  1.00  0.00     0.010 A 
ATOM     34  C   UNL A   1      41.380  27.611  29.573  1.00  0.00    -0.014 A 
BRANCH  34  35
ATOM     35  C   UNL A   1      41.178  28.565  30.694  1.00  0.00     0.031 A 
ATOM     36  C   UNL A   1      41.979  28.434  31.963  1.00  0.00     0.074 A 
ATOM     37  C   UNL A   1      40.225  29.512  30.596  1.00  0.00     0.049 A 
ATOM     38  N   UNL A   1      41.902  29.138  33.064  1.00  0.00    -0.248 NA
ATOM     39  C   UNL A   1      42.989  27.365  32.004  1.00  0.00     0.031 C 
ATOM     40  C   UNL A   1      39.358  29.724  29.435  1.00  0.00     0.029 A 
ATOM     41  N   UNL A   1      39.809  30.462  31.495  1.00  0.00    -0.354 N 
ATOM     42  C   UNL A   1      42.852  28.601  33.926  1.00  0.00     0.074 A 
ATOM     43  C   UNL A   1      43.450  27.474  33.242  1.00  0.00     0.031 C 
ATOM     44  C   UNL A   1      38.505  30.726  29.697  1.00  0.00     0.029 A 
ATOM     45  C   UNL A   1      38.756  31.222  31.047  1.00  0.00     0.049 A 
ATOM     46  H   UNL A   1      40.227  30.587  32.378  1.00  0.00     0.167 HD
ATOM     47  C   UNL A   1      43.214  29.025  35.161  1.00  0.00     0.037 A 
ATOM     48  C   UNL A   1      38.064  32.206  31.653  1.00  0.00     0.037 A 
ATOM     49  C   UNL A   1      42.626  30.154  35.833  1.00  0.00     0.049 A 
ATOM     50  C   UNL A   1      38.475  32.657  33.026  1.00  0.00     0.074 A 
ATOM     51  C   UNL A   1      42.961  30.697  37.063  1.00  0.00     0.029 A 
ATOM     52  N   UNL A   1      41.579  30.916  35.336  1.00  0.00    -0.354 N 
ATOM     53  N   UNL A   1      39.423  32.180  33.798  1.00  0.00    -0.248 NA
ATOM     54  C   UNL A   1      37.743  33.792  33.600  1.00  0.00     0.031 C 
ATOM     55  C   UNL A   1      42.091  31.763  37.324  1.00  0.00     0.029 A 
ATOM     56  C   UNL A   1      41.243  31.911  36.239  1.00  0.00     0.049 A 
ATOM     57  H   UNL A   1      41.138  30.770  34.468  1.00  0.00     0.167 HD
ATOM     58  C   UNL A   1      39.417  32.974  34.938  1.00  0.00     0.074 A 
ATOM     59  C   UNL A   1      38.381  33.968  34.749  1.00  0.00     0.031 C 
ATOM     60  C   UNL A   1      40.204  32.892  36.040  1.00  0.00     0.037 A 
BRANCH  47  61
ATOM     61  C   UNL A   1      44.310  28.267  35.859  1.00  0.00     0.058 A 
ATOM     62  C   UNL A   1      45.663  28.602  35.677  1.00  0.00     0.135 A 
ATOM     63  C   UNL A   1      44.011  27.216  36.740  1.00  0.00     0.135 A 
ATOM     64  F   UNL A   1      46.007  29.593  34.838  1.00  0.00    -0.206 F 
ATOM     65  C   UNL A   1      46.680  27.901  36.317  1.00  0.00     0.059 A 
ATOM     66  C   UNL A   1      45.012  26.516  37.411  1.00  0.00     0.059 A 
ATOM     67  F   UNL A   1      42.736  26.854  36.954  1.00  0.00    -0.206 F 
ATOM     68  C   UNL A   1      46.344  26.857  37.180  1.00  0.00     0.060 A 
BRANCH  68  69
ATOM     69  S   UNL A   1      47.675  25.953  38.000  1.00  0.00     0.124 S 
ATOM     70  O   UNL A   1      47.265  24.569  37.782  1.00  0.00    -0.237 OA
ATOM     71  O   UNL A   1      48.854  26.388  37.255  1.00  0.00    -0.237 OA
ATOM     72  O   UNL A   1      47.604  26.420  39.380  1.00  0.00    -0.744 OA
ENDBRANCH  68  69
ENDBRANCH  47  61
BRANCH  48  73
ATOM     73  C   UNL A   1      36.928  32.848  30.943  1.00  0.00     0.058 A 
ATOM     74  C   UNL A   1      37.148  33.783  29.922  1.00  0.00     0.135 A 
ATOM     75  C   UNL A   1      35.600  32.510  31.248  1.00  0.00     0.135 A 
ATOM     76  F   UNL A   1      38.401  34.136  29.596  1.00  0.00    -0.206 F 
ATOM     77  C   UNL A   1      36.093  34.374  29.236  1.00  0.00     0.059 A 
ATOM     78  C   UNL A   1      34.528  33.073  30.564  1.00  0.00     0.059 A 
ATOM     79  F   UNL A   1      35.339  31.597  32.198  1.00  0.00    -0.206 F 
ATOM     80  C   UNL A   1      34.785  34.009  29.563  1.00  0.00     0.060 A 
BRANCH  80  81
ATOM     81  S   UNL A   1      33.423  34.733  28.624  1.00  0.00     0.124 S 
ATOM     82  O   UNL A   1      33.077  33.643  27.720  1.00  0.00    -0.237 OA
ATOM     83  O   UNL A   1      32.451  35.027  29.673  1.00  0.00    -0.237 OA
ATOM     84  O   UNL A   1      34.033  35.904  28.001  1.00  0.00    -0.744 OA
ENDBRANCH  80  81
ENDBRANCH  48  73
BRANCH  60  85
ATOM     85  C   UNL A   1      39.987  33.919  37.116  1.00  0.00     0.058 A 
ATOM     86  C   UNL A   1      40.585  35.187  37.054  1.00  0.00     0.135 A 
ATOM     87  C   UNL A   1      39.151  33.640  38.210  1.00  0.00     0.135 A 
ATOM     88  F   UNL A   1      41.398  35.502  36.032  1.00  0.00    -0.206 F 
ATOM     89  C   UNL A   1      40.388  36.133  38.055  1.00  0.00     0.059 A 
ATOM     90  C   UNL A   1      38.920  34.579  39.209  1.00  0.00     0.059 A 
ATOM     91  F   UNL A   1      38.547  32.446  38.312  1.00  0.00    -0.206 F 
ATOM     92  C   UNL A   1      39.556  35.817  39.131  1.00  0.00     0.060 A 
BRANCH  92  93
ATOM     93  S   UNL A   1      39.297  37.056  40.419  1.00  0.00     0.124 S 
ATOM     94  O   UNL A   1      38.526  36.300  41.401  1.00  0.00    -0.237 OA
ATOM     95  O   UNL A   1      40.662  37.395  40.810  1.00  0.00    -0.237 OA
ATOM     96  O   UNL A   1      38.569  38.116  39.728  1.00  0.00    -0.744 OA
ENDBRANCH  92  93
ENDBRANCH  60  85
ENDBRANCH  34  35
ENDBRANCH  26  29
ENDBRANCH  24  25
ENDBRANCH   1  24
TORSDOF 16
ENDMDL
