MODEL 1
REMARK VINA RESULT:     -12.2      0.000      0.000
REMARK SMILES O=C(CCCN1C(=O)/C(=C/c2cc(Br)ccc2O)SC1=S)NCCCNC(=O)c1ccc(-c2c3nc(c(-c4c(F)cc(S(=O)(=O)[O-])cc4F)c4ccc([nH]4)c(-c4c(F)cc(S(=O)(=O)[O-])cc4F)c4nc(c(-c5c(F)cc(S(=O)(=O)[O-])cc5F)c5ccc2[nH]5)C=C4)C=C3)cc1
REMARK SMILES IDX 23 1 22 2 1 3 2 4 3 6 4 7 5 8 6 9 7 10 20 11 8 12 9 13 19 14
REMARK SMILES IDX 21 15 10 16 11 17 12 18 17 19 13 20 16 21 14 22 15 23 18 24
REMARK SMILES IDX 24 26 25 27 26 28 27 29 28 31 29 32 30 33 94 34 31 35 93 36
REMARK SMILES IDX 32 37 33 38 34 39 87 40 35 41 92 42 86 43 88 44 36 45 91 46
REMARK SMILES IDX 85 47 84 48 37 50 71 51 50 52 70 53 51 54 54 55 69 56 89 57
REMARK SMILES IDX 52 58 53 59 68 61 90 62 55 63 38 64 39 65 48 66 40 67 41 68
REMARK SMILES IDX 47 69 49 70 42 71 43 72 44 73 45 74 46 75 72 76 73 77 82 78
REMARK SMILES IDX 74 79 75 80 81 81 83 82 76 83 77 84 78 85 79 86 80 87 56 88
REMARK SMILES IDX 57 89 66 90 58 91 59 92 65 93 67 94 60 95 61 96 62 97 63 98
REMARK SMILES IDX 64 99
REMARK H PARENT 22 5 18 25 26 30 88 49 54 60
REMARK Flexibility Score: inf
ROOT
ATOM      1  C   UNL A   1      34.105  30.817  27.633  1.00  0.00     0.117 C 
ENDROOT
BRANCH   1   2
ATOM      2  N   UNL A   1      34.136  30.092  26.377  1.00  0.00    -0.356 N 
ATOM      3  O   UNL A   1      31.859  29.884  26.174  1.00  0.00    -0.275 OA
ATOM      4  C   UNL A   1      32.987  29.698  25.728  1.00  0.00     0.220 C 
ATOM      5  H   UNL A   1      35.008  29.874  25.975  1.00  0.00     0.163 HD
BRANCH   4   6
ATOM      6  C   UNL A   1      33.206  29.047  24.371  1.00  0.00     0.102 C 
BRANCH   6   7
ATOM      7  C   UNL A   1      31.913  28.951  23.559  1.00  0.00     0.032 C 
BRANCH   7   8
ATOM      8  C   UNL A   1      31.575  27.561  23.004  1.00  0.00     0.128 C 
BRANCH   8   9
ATOM      9  N   UNL A   1      32.385  26.455  23.525  1.00  0.00    -0.293 N 
ATOM     10  C   UNL A   1      33.423  25.927  22.762  1.00  0.00     0.266 C 
ATOM     11  C   UNL A   1      32.270  25.918  24.788  1.00  0.00     0.148 C 
ATOM     12  O   UNL A   1      33.715  26.233  21.615  1.00  0.00    -0.268 OA
ATOM     13  C   UNL A   1      34.108  24.862  23.548  1.00  0.00     0.081 C 
ATOM     14  S   UNL A   1      33.732  25.072  25.212  1.00  0.00    -0.054 SA
ATOM     15  S   UNL A   1      30.983  25.927  25.825  1.00  0.00    -0.052 S 
ATOM     16  C   UNL A   1      34.720  23.793  23.019  1.00  0.00     0.033 C 
BRANCH  16  17
ATOM     17  C   UNL A   1      35.032  22.625  23.863  1.00  0.00     0.019 A 
ATOM     18  C   UNL A   1      34.043  21.678  24.142  1.00  0.00     0.027 A 
ATOM     19  C   UNL A   1      36.362  22.360  24.244  1.00  0.00     0.122 A 
ATOM     20  C   UNL A   1      34.391  20.486  24.782  1.00  0.00     0.018 A 
ATOM     21  C   UNL A   1      36.707  21.168  24.878  1.00  0.00     0.048 A 
ATOM     22  Br  UNL A   1      33.060  19.189  25.130  1.00  0.00    -0.051 Br
ATOM     23  C   UNL A   1      35.715  20.225  25.144  1.00  0.00     0.019 A 
BRANCH  19  24
ATOM     24  O   UNL A   1      37.342  23.266  23.929  1.00  0.00    -0.507 OA
ATOM     25  H   UNL A   1      37.301  24.138  24.270  1.00  0.00     0.293 HD
ENDBRANCH  19  24
ENDBRANCH  16  17
ENDBRANCH   8   9
ENDBRANCH   7   8
ENDBRANCH   6   7
ENDBRANCH   4   6
ENDBRANCH   1   2
BRANCH   1  26
ATOM     26  C   UNL A   1      35.056  32.015  27.695  1.00  0.00     0.042 C 
BRANCH  26  27
ATOM     27  C   UNL A   1      35.834  32.231  28.993  1.00  0.00     0.118 C 
BRANCH  27  28
ATOM     28  N   UNL A   1      35.542  31.299  30.067  1.00  0.00    -0.352 N 
ATOM     29  C   UNL A   1      36.391  30.373  30.633  1.00  0.00     0.251 C 
ATOM     30  H   UNL A   1      34.629  31.333  30.435  1.00  0.00     0.163 HD
ATOM     31  O   UNL A   1      35.991  29.637  31.529  1.00  0.00    -0.269 OA
BRANCH  29  32
ATOM     32  C   UNL A   1      37.773  30.229  30.116  1.00  0.00     0.039 A 
ATOM     33  C   UNL A   1      38.834  30.377  31.012  1.00  0.00     0.014 A 
ATOM     34  C   UNL A   1      38.025  29.925  28.774  1.00  0.00     0.014 A 
ATOM     35  C   UNL A   1      40.144  30.139  30.585  1.00  0.00     0.010 A 
ATOM     36  C   UNL A   1      39.332  29.656  28.357  1.00  0.00     0.010 A 
ATOM     37  C   UNL A   1      40.401  29.734  29.264  1.00  0.00    -0.014 A 
BRANCH  37  38
ATOM     38  C   UNL A   1      41.766  29.306  28.855  1.00  0.00     0.031 A 
ATOM     39  C   UNL A   1      42.899  30.289  28.769  1.00  0.00     0.074 A 
ATOM     40  C   UNL A   1      41.969  28.019  28.506  1.00  0.00     0.049 A 
ATOM     41  N   UNL A   1      44.137  30.086  28.394  1.00  0.00    -0.248 NA
ATOM     42  C   UNL A   1      42.601  31.680  29.138  1.00  0.00     0.031 C 
ATOM     43  C   UNL A   1      40.944  26.973  28.511  1.00  0.00     0.029 A 
ATOM     44  N   UNL A   1      43.100  27.373  28.071  1.00  0.00    -0.354 N 
ATOM     45  C   UNL A   1      44.769  31.319  28.481  1.00  0.00     0.074 A 
ATOM     46  C   UNL A   1      43.765  32.274  28.909  1.00  0.00     0.031 C 
ATOM     47  C   UNL A   1      41.495  25.816  28.107  1.00  0.00     0.029 A 
ATOM     48  C   UNL A   1      42.900  26.043  27.784  1.00  0.00     0.049 A 
ATOM     49  H   UNL A   1      43.971  27.820  27.973  1.00  0.00     0.167 HD
ATOM     50  C   UNL A   1      46.068  31.626  28.241  1.00  0.00     0.037 A 
ATOM     51  C   UNL A   1      43.747  25.110  27.306  1.00  0.00     0.037 A 
ATOM     52  C   UNL A   1      47.068  30.676  27.824  1.00  0.00     0.049 A 
ATOM     53  C   UNL A   1      45.176  25.481  27.024  1.00  0.00     0.074 A 
ATOM     54  C   UNL A   1      48.421  30.886  27.616  1.00  0.00     0.029 A 
ATOM     55  N   UNL A   1      46.826  29.340  27.540  1.00  0.00    -0.354 N 
ATOM     56  N   UNL A   1      45.771  26.640  27.175  1.00  0.00    -0.248 NA
ATOM     57  C   UNL A   1      46.049  24.419  26.506  1.00  0.00     0.031 C 
ATOM     58  C   UNL A   1      48.989  29.688  27.166  1.00  0.00     0.029 A 
ATOM     59  C   UNL A   1      47.998  28.721  27.131  1.00  0.00     0.049 A 
ATOM     60  H   UNL A   1      45.952  28.895  27.617  1.00  0.00     0.167 HD
ATOM     61  C   UNL A   1      47.090  26.442  26.787  1.00  0.00     0.074 A 
ATOM     62  C   UNL A   1      47.212  25.049  26.408  1.00  0.00     0.031 C 
ATOM     63  C   UNL A   1      48.110  27.335  26.748  1.00  0.00     0.037 A 
BRANCH  50  64
ATOM     64  C   UNL A   1      46.489  33.058  28.425  1.00  0.00     0.058 A 
ATOM     65  C   UNL A   1      46.958  33.531  29.661  1.00  0.00     0.135 A 
ATOM     66  C   UNL A   1      46.467  33.955  27.345  1.00  0.00     0.135 A 
ATOM     67  F   UNL A   1      46.990  32.719  30.728  1.00  0.00    -0.206 F 
ATOM     68  C   UNL A   1      47.365  34.851  29.826  1.00  0.00     0.059 A 
ATOM     69  C   UNL A   1      46.891  35.273  27.481  1.00  0.00     0.059 A 
ATOM     70  F   UNL A   1      46.031  33.552  26.141  1.00  0.00    -0.206 F 
ATOM     71  C   UNL A   1      47.325  35.716  28.731  1.00  0.00     0.060 A 
BRANCH  71  72
ATOM     72  S   UNL A   1      47.856  37.427  28.960  1.00  0.00     0.124 S 
ATOM     73  O   UNL A   1      47.518  38.010  27.666  1.00  0.00    -0.237 OA
ATOM     74  O   UNL A   1      47.035  37.862  30.085  1.00  0.00    -0.237 OA
ATOM     75  O   UNL A   1      49.283  37.305  29.240  1.00  0.00    -0.744 OA
ENDBRANCH  71  72
ENDBRANCH  50  64
BRANCH  51  76
ATOM     76  C   UNL A   1      43.262  23.727  27.068  1.00  0.00     0.058 A 
ATOM     77  C   UNL A   1      42.927  23.292  25.778  1.00  0.00     0.135 A 
ATOM     78  C   UNL A   1      43.135  22.809  28.122  1.00  0.00     0.135 A 
ATOM     79  F   UNL A   1      43.024  24.137  24.740  1.00  0.00    -0.206 F 
ATOM     80  C   UNL A   1      42.473  21.998  25.540  1.00  0.00     0.059 A 
ATOM     81  C   UNL A   1      42.705  21.504  27.907  1.00  0.00     0.059 A 
ATOM     82  F   UNL A   1      43.455  23.174  29.374  1.00  0.00    -0.206 F 
ATOM     83  C   UNL A   1      42.368  21.111  26.612  1.00  0.00     0.060 A 
BRANCH  83  84
ATOM     84  S   UNL A   1      41.832  19.417  26.287  1.00  0.00     0.124 S 
ATOM     85  O   UNL A   1      42.589  19.098  25.083  1.00  0.00    -0.237 OA
ATOM     86  O   UNL A   1      42.243  18.724  27.504  1.00  0.00    -0.237 OA
ATOM     87  O   UNL A   1      40.389  19.552  26.110  1.00  0.00    -0.744 OA
ENDBRANCH  83  84
ENDBRANCH  51  76
BRANCH  63  88
ATOM     88  C   UNL A   1      49.451  26.835  26.289  1.00  0.00     0.058 A 
ATOM     89  C   UNL A   1      50.309  26.139  27.153  1.00  0.00     0.135 A 
ATOM     90  C   UNL A   1      49.864  27.017  24.959  1.00  0.00     0.135 A 
ATOM     91  F   UNL A   1      49.965  25.945  28.436  1.00  0.00    -0.206 F 
ATOM     92  C   UNL A   1      51.541  25.656  26.720  1.00  0.00     0.059 A 
ATOM     93  C   UNL A   1      51.081  26.524  24.500  1.00  0.00     0.059 A 
ATOM     94  F   UNL A   1      49.077  27.671  24.090  1.00  0.00    -0.206 F 
ATOM     95  C   UNL A   1      51.919  25.853  25.391  1.00  0.00     0.060 A 
BRANCH  95  96
ATOM     96  S   UNL A   1      53.504  25.193  24.831  1.00  0.00     0.124 S 
ATOM     97  O   UNL A   1      53.393  23.792  25.226  1.00  0.00    -0.237 OA
ATOM     98  O   UNL A   1      53.462  25.451  23.395  1.00  0.00    -0.237 OA
ATOM     99  O   UNL A   1      54.481  25.981  25.576  1.00  0.00    -0.744 OA
ENDBRANCH  95  96
ENDBRANCH  63  88
ENDBRANCH  37  38
ENDBRANCH  29  32
ENDBRANCH  27  28
ENDBRANCH  26  27
ENDBRANCH   1  26
TORSDOF 18
ENDMDL
MODEL 2
REMARK VINA RESULT:     -12.1      6.473     12.115
REMARK SMILES O=C(CCCN1C(=O)/C(=C/c2cc(Br)ccc2O)SC1=S)NCCCNC(=O)c1ccc(-c2c3nc(c(-c4c(F)cc(S(=O)(=O)[O-])cc4F)c4ccc([nH]4)c(-c4c(F)cc(S(=O)(=O)[O-])cc4F)c4nc(c(-c5c(F)cc(S(=O)(=O)[O-])cc5F)c5ccc2[nH]5)C=C4)C=C3)cc1
REMARK SMILES IDX 23 1 22 2 1 3 2 4 3 6 4 7 5 8 6 9 7 10 20 11 8 12 9 13 19 14
REMARK SMILES IDX 21 15 10 16 11 17 12 18 17 19 13 20 16 21 14 22 15 23 18 24
REMARK SMILES IDX 24 26 25 27 26 28 27 29 28 31 29 32 30 33 94 34 31 35 93 36
REMARK SMILES IDX 32 37 33 38 34 39 87 40 35 41 92 42 86 43 88 44 36 45 91 46
REMARK SMILES IDX 85 47 84 48 37 50 71 51 50 52 70 53 51 54 54 55 69 56 89 57
REMARK SMILES IDX 52 58 53 59 68 61 90 62 55 63 38 64 39 65 48 66 40 67 41 68
REMARK SMILES IDX 47 69 49 70 42 71 43 72 44 73 45 74 46 75 72 76 73 77 82 78
REMARK SMILES IDX 74 79 75 80 81 81 83 82 76 83 77 84 78 85 79 86 80 87 56 88
REMARK SMILES IDX 57 89 66 90 58 91 59 92 65 93 67 94 60 95 61 96 62 97 63 98
REMARK SMILES IDX 64 99
REMARK H PARENT 22 5 18 25 26 30 88 49 54 60
REMARK Flexibility Score: inf
ROOT
ATOM      1  C   UNL A   1      39.707  21.576  26.111  1.00  0.00     0.117 C 
ENDROOT
BRANCH   1   2
ATOM      2  N   UNL A   1      38.381  22.163  26.063  1.00  0.00    -0.356 N 
ATOM      3  O   UNL A   1      37.424  20.475  24.837  1.00  0.00    -0.275 OA
ATOM      4  C   UNL A   1      37.324  21.540  25.437  1.00  0.00     0.220 C 
ATOM      5  H   UNL A   1      38.232  23.036  26.494  1.00  0.00     0.163 HD
BRANCH   4   6
ATOM      6  C   UNL A   1      35.984  22.246  25.582  1.00  0.00     0.102 C 
BRANCH   6   7
ATOM      7  C   UNL A   1      34.805  21.276  25.486  1.00  0.00     0.032 C 
BRANCH   7   8
ATOM      8  C   UNL A   1      33.899  21.446  24.260  1.00  0.00     0.128 C 
BRANCH   8   9
ATOM      9  N   UNL A   1      33.190  22.728  24.167  1.00  0.00    -0.293 N 
ATOM     10  C   UNL A   1      33.638  23.712  23.289  1.00  0.00     0.266 C 
ATOM     11  C   UNL A   1      32.024  23.036  24.829  1.00  0.00     0.148 C 
ATOM     12  O   UNL A   1      34.648  23.673  22.601  1.00  0.00    -0.268 OA
ATOM     13  C   UNL A   1      32.711  24.878  23.356  1.00  0.00     0.081 C 
ATOM     14  S   UNL A   1      31.219  24.361  24.035  1.00  0.00    -0.054 SA
ATOM     15  S   UNL A   1      31.396  22.392  26.216  1.00  0.00    -0.052 S 
ATOM     16  C   UNL A   1      33.065  26.152  23.139  1.00  0.00     0.033 C 
BRANCH  16  17
ATOM     17  C   UNL A   1      32.192  27.251  23.589  1.00  0.00     0.019 A 
ATOM     18  C   UNL A   1      32.390  27.837  24.842  1.00  0.00     0.027 A 
ATOM     19  C   UNL A   1      31.271  27.836  22.697  1.00  0.00     0.122 A 
ATOM     20  C   UNL A   1      31.685  28.993  25.182  1.00  0.00     0.018 A 
ATOM     21  C   UNL A   1      30.572  28.992  23.038  1.00  0.00     0.048 A 
ATOM     22  Br  UNL A   1      31.978  29.807  26.863  1.00  0.00    -0.051 Br
ATOM     23  C   UNL A   1      30.784  29.575  24.286  1.00  0.00     0.019 A 
BRANCH  19  24
ATOM     24  O   UNL A   1      31.109  27.291  21.449  1.00  0.00    -0.507 OA
ATOM     25  H   UNL A   1      31.562  27.656  20.715  1.00  0.00     0.293 HD
ENDBRANCH  19  24
ENDBRANCH  16  17
ENDBRANCH   8   9
ENDBRANCH   7   8
ENDBRANCH   6   7
ENDBRANCH   4   6
ENDBRANCH   1   2
BRANCH   1  26
ATOM     26  C   UNL A   1      40.493  21.891  27.385  1.00  0.00     0.042 C 
BRANCH  26  27
ATOM     27  C   UNL A   1      41.534  23.007  27.313  1.00  0.00     0.118 C 
BRANCH  27  28
ATOM     28  N   UNL A   1      41.449  23.877  26.154  1.00  0.00    -0.352 N 
ATOM     29  C   UNL A   1      41.343  25.251  26.139  1.00  0.00     0.251 C 
ATOM     30  H   UNL A   1      41.469  23.433  25.276  1.00  0.00     0.163 HD
ATOM     31  O   UNL A   1      41.261  25.850  25.072  1.00  0.00    -0.269 OA
BRANCH  29  32
ATOM     32  C   UNL A   1      41.268  25.998  27.416  1.00  0.00     0.039 A 
ATOM     33  C   UNL A   1      42.340  26.823  27.765  1.00  0.00     0.014 A 
ATOM     34  C   UNL A   1      40.150  25.912  28.251  1.00  0.00     0.014 A 
ATOM     35  C   UNL A   1      42.258  27.627  28.906  1.00  0.00     0.010 A 
ATOM     36  C   UNL A   1      40.055  26.741  29.374  1.00  0.00     0.010 A 
ATOM     37  C   UNL A   1      41.097  27.626  29.696  1.00  0.00    -0.014 A 
BRANCH  37  38
ATOM     38  C   UNL A   1      40.932  28.607  30.803  1.00  0.00     0.031 A 
ATOM     39  C   UNL A   1      41.758  28.518  32.054  1.00  0.00     0.074 A 
ATOM     40  C   UNL A   1      39.985  29.561  30.693  1.00  0.00     0.049 A 
ATOM     41  N   UNL A   1      41.713  29.270  33.125  1.00  0.00    -0.248 NA
ATOM     42  C   UNL A   1      42.753  27.438  32.118  1.00  0.00     0.031 C 
ATOM     43  C   UNL A   1      39.091  29.733  29.546  1.00  0.00     0.029 A 
ATOM     44  N   UNL A   1      39.607  30.557  31.560  1.00  0.00    -0.354 N 
ATOM     45  C   UNL A   1      42.670  28.759  33.992  1.00  0.00     0.074 A 
ATOM     46  C   UNL A   1      43.255  27.607  33.335  1.00  0.00     0.031 C 
ATOM     47  C   UNL A   1      38.277  30.777  29.776  1.00  0.00     0.029 A 
ATOM     48  C   UNL A   1      38.567  31.327  31.096  1.00  0.00     0.049 A 
ATOM     49  H   UNL A   1      40.041  30.705  32.431  1.00  0.00     0.167 HD
ATOM     50  C   UNL A   1      43.038  29.215  35.214  1.00  0.00     0.037 A 
ATOM     51  C   UNL A   1      37.910  32.354  31.670  1.00  0.00     0.037 A 
ATOM     52  C   UNL A   1      42.462  30.365  35.865  1.00  0.00     0.049 A 
ATOM     53  C   UNL A   1      38.320  32.825  33.038  1.00  0.00     0.074 A 
ATOM     54  C   UNL A   1      42.815  30.935  37.076  1.00  0.00     0.029 A 
ATOM     55  N   UNL A   1      41.408  31.115  35.366  1.00  0.00    -0.354 N 
ATOM     56  N   UNL A   1      39.273  32.369  33.814  1.00  0.00    -0.248 NA
ATOM     57  C   UNL A   1      37.566  33.950  33.608  1.00  0.00     0.031 C 
ATOM     58  C   UNL A   1      41.947  32.003  37.330  1.00  0.00     0.029 A 
ATOM     59  C   UNL A   1      41.078  32.124  36.258  1.00  0.00     0.049 A 
ATOM     60  H   UNL A   1      40.959  30.956  34.504  1.00  0.00     0.167 HD
ATOM     61  C   UNL A   1      39.243  33.161  34.955  1.00  0.00     0.074 A 
ATOM     62  C   UNL A   1      38.189  34.135  34.763  1.00  0.00     0.031 C 
ATOM     63  C   UNL A   1      40.022  33.087  36.063  1.00  0.00     0.037 A 
BRANCH  50  64
ATOM     64  C   UNL A   1      44.123  28.466  35.938  1.00  0.00     0.058 A 
ATOM     65  C   UNL A   1      43.826  27.410  36.813  1.00  0.00     0.135 A 
ATOM     66  C   UNL A   1      45.475  28.777  35.721  1.00  0.00     0.135 A 
ATOM     67  F   UNL A   1      42.550  27.078  37.064  1.00  0.00    -0.206 F 
ATOM     68  C   UNL A   1      44.831  26.705  37.469  1.00  0.00     0.059 A 
ATOM     69  C   UNL A   1      46.497  28.071  36.347  1.00  0.00     0.059 A 
ATOM     70  F   UNL A   1      45.813  29.776  34.890  1.00  0.00    -0.206 F 
ATOM     71  C   UNL A   1      46.164  27.045  37.232  1.00  0.00     0.060 A 
BRANCH  71  72
ATOM     72  S   UNL A   1      47.457  26.122  38.090  1.00  0.00     0.124 S 
ATOM     73  O   UNL A   1      48.599  27.019  37.942  1.00  0.00    -0.237 OA
ATOM     74  O   UNL A   1      46.915  26.002  39.439  1.00  0.00    -0.237 OA
ATOM     75  O   UNL A   1      47.539  24.873  37.338  1.00  0.00    -0.744 OA
ENDBRANCH  71  72
ENDBRANCH  50  64
BRANCH  51  76
ATOM     76  C   UNL A   1      36.793  33.012  30.945  1.00  0.00     0.058 A 
ATOM     77  C   UNL A   1      35.458  32.741  31.278  1.00  0.00     0.135 A 
ATOM     78  C   UNL A   1      37.037  33.933  29.914  1.00  0.00     0.135 A 
ATOM     79  F   UNL A   1      35.176  31.861  32.251  1.00  0.00    -0.206 F 
ATOM     80  C   UNL A   1      34.402  33.351  30.609  1.00  0.00     0.059 A 
ATOM     81  C   UNL A   1      35.999  34.573  29.245  1.00  0.00     0.059 A 
ATOM     82  F   UNL A   1      38.298  34.236  29.568  1.00  0.00    -0.206 F 
ATOM     83  C   UNL A   1      34.684  34.268  29.594  1.00  0.00     0.060 A 
BRANCH  83  84
ATOM     84  S   UNL A   1      33.309  35.099  28.769  1.00  0.00     0.124 S 
ATOM     85  O   UNL A   1      32.752  34.015  27.967  1.00  0.00    -0.237 OA
ATOM     86  O   UNL A   1      32.496  35.544  29.896  1.00  0.00    -0.237 OA
ATOM     87  O   UNL A   1      33.966  36.166  28.020  1.00  0.00    -0.744 OA
ENDBRANCH  83  84
ENDBRANCH  51  76
BRANCH  63  88
ATOM     88  C   UNL A   1      39.770  34.091  37.153  1.00  0.00     0.058 A 
ATOM     89  C   UNL A   1      39.042  33.755  38.305  1.00  0.00     0.135 A 
ATOM     90  C   UNL A   1      40.296  35.389  37.065  1.00  0.00     0.135 A 
ATOM     91  F   UNL A   1      38.510  32.530  38.435  1.00  0.00    -0.206 F 
ATOM     92  C   UNL A   1      38.828  34.678  39.324  1.00  0.00     0.059 A 
ATOM     93  C   UNL A   1      40.113  36.322  38.082  1.00  0.00     0.059 A 
ATOM     94  F   UNL A   1      41.005  35.759  35.986  1.00  0.00    -0.206 F 
ATOM     95  C   UNL A   1      39.368  35.960  39.204  1.00  0.00     0.060 A 
BRANCH  95  96
ATOM     96  S   UNL A   1      39.114  37.139  40.548  1.00  0.00     0.124 S 
ATOM     97  O   UNL A   1      38.175  36.416  41.399  1.00  0.00    -0.237 OA
ATOM     98  O   UNL A   1      40.463  37.299  41.085  1.00  0.00    -0.237 OA
ATOM     99  O   UNL A   1      38.574  38.314  39.870  1.00  0.00    -0.744 OA
ENDBRANCH  95  96
ENDBRANCH  63  88
ENDBRANCH  37  38
ENDBRANCH  29  32
ENDBRANCH  27  28
ENDBRANCH  26  27
ENDBRANCH   1  26
TORSDOF 18
ENDMDL
MODEL 3
REMARK VINA RESULT:     -12.0      6.503     12.166
REMARK SMILES O=C(CCCN1C(=O)/C(=C/c2cc(Br)ccc2O)SC1=S)NCCCNC(=O)c1ccc(-c2c3nc(c(-c4c(F)cc(S(=O)(=O)[O-])cc4F)c4ccc([nH]4)c(-c4c(F)cc(S(=O)(=O)[O-])cc4F)c4nc(c(-c5c(F)cc(S(=O)(=O)[O-])cc5F)c5ccc2[nH]5)C=C4)C=C3)cc1
REMARK SMILES IDX 23 1 22 2 1 3 2 4 3 6 4 7 5 8 6 9 7 10 20 11 8 12 9 13 19 14
REMARK SMILES IDX 21 15 10 16 11 17 12 18 17 19 13 20 16 21 14 22 15 23 18 24
REMARK SMILES IDX 24 26 25 27 26 28 27 29 28 31 29 32 30 33 94 34 31 35 93 36
REMARK SMILES IDX 32 37 33 38 34 39 87 40 35 41 92 42 86 43 88 44 36 45 91 46
REMARK SMILES IDX 85 47 84 48 37 50 71 51 50 52 70 53 51 54 54 55 69 56 89 57
REMARK SMILES IDX 52 58 53 59 68 61 90 62 55 63 38 64 39 65 48 66 40 67 41 68
REMARK SMILES IDX 47 69 49 70 42 71 43 72 44 73 45 74 46 75 72 76 73 77 82 78
REMARK SMILES IDX 74 79 75 80 81 81 83 82 76 83 77 84 78 85 79 86 80 87 56 88
REMARK SMILES IDX 57 89 66 90 58 91 59 92 65 93 67 94 60 95 61 96 62 97 63 98
REMARK SMILES IDX 64 99
REMARK H PARENT 22 5 18 25 26 30 88 49 54 60
REMARK Flexibility Score: inf
ROOT
ATOM      1  C   UNL A   1      39.089  21.887  25.813  1.00  0.00     0.117 C 
ENDROOT
BRANCH   1   2
ATOM      2  N   UNL A   1      37.689  22.069  26.150  1.00  0.00    -0.356 N 
ATOM      3  O   UNL A   1      36.901  20.419  24.763  1.00  0.00    -0.275 OA
ATOM      4  C   UNL A   1      36.695  21.289  25.603  1.00  0.00     0.220 C 
ATOM      5  H   UNL A   1      37.442  22.773  26.792  1.00  0.00     0.163 HD
BRANCH   4   6
ATOM      6  C   UNL A   1      35.300  21.545  26.153  1.00  0.00     0.102 C 
BRANCH   6   7
ATOM      7  C   UNL A   1      34.206  20.987  25.241  1.00  0.00     0.032 C 
BRANCH   7   8
ATOM      8  C   UNL A   1      32.820  21.628  25.392  1.00  0.00     0.128 C 
BRANCH   8   9
ATOM      9  N   UNL A   1      32.791  23.094  25.350  1.00  0.00    -0.293 N 
ATOM     10  C   UNL A   1      32.277  23.815  26.425  1.00  0.00     0.266 C 
ATOM     11  C   UNL A   1      33.322  23.867  24.342  1.00  0.00     0.148 C 
ATOM     12  O   UNL A   1      31.748  23.355  27.426  1.00  0.00    -0.268 OA
ATOM     13  C   UNL A   1      32.419  25.272  26.143  1.00  0.00     0.081 C 
ATOM     14  S   UNL A   1      33.605  25.486  24.917  1.00  0.00    -0.054 SA
ATOM     15  S   UNL A   1      33.627  23.479  22.765  1.00  0.00    -0.052 S 
ATOM     16  C   UNL A   1      31.596  26.224  26.602  1.00  0.00     0.033 C 
BRANCH  16  17
ATOM     17  C   UNL A   1      31.588  27.560  25.978  1.00  0.00     0.019 A 
ATOM     18  C   UNL A   1      30.964  27.754  24.743  1.00  0.00     0.027 A 
ATOM     19  C   UNL A   1      32.047  28.682  26.697  1.00  0.00     0.122 A 
ATOM     20  C   UNL A   1      30.798  29.050  24.249  1.00  0.00     0.018 A 
ATOM     21  C   UNL A   1      31.876  29.974  26.204  1.00  0.00     0.048 A 
ATOM     22  Br  UNL A   1      29.924  29.315  22.594  1.00  0.00    -0.051 Br
ATOM     23  C   UNL A   1      31.244  30.158  24.974  1.00  0.00     0.019 A 
BRANCH  19  24
ATOM     24  O   UNL A   1      32.617  28.499  27.931  1.00  0.00    -0.507 OA
ATOM     25  H   UNL A   1      32.143  28.731  28.705  1.00  0.00     0.293 HD
ENDBRANCH  19  24
ENDBRANCH  16  17
ENDBRANCH   8   9
ENDBRANCH   7   8
ENDBRANCH   6   7
ENDBRANCH   4   6
ENDBRANCH   1   2
BRANCH   1  26
ATOM     26  C   UNL A   1      40.033  21.879  27.017  1.00  0.00     0.042 C 
BRANCH  26  27
ATOM     27  C   UNL A   1      40.916  23.108  27.230  1.00  0.00     0.118 C 
BRANCH  27  28
ATOM     28  N   UNL A   1      41.048  23.996  26.089  1.00  0.00    -0.352 N 
ATOM     29  C   UNL A   1      41.165  25.369  26.100  1.00  0.00     0.251 C 
ATOM     30  H   UNL A   1      41.056  23.566  25.203  1.00  0.00     0.163 HD
ATOM     31  O   UNL A   1      41.252  25.988  25.045  1.00  0.00    -0.269 OA
BRANCH  29  32
ATOM     32  C   UNL A   1      41.126  26.101  27.388  1.00  0.00     0.039 A 
ATOM     33  C   UNL A   1      42.215  26.908  27.725  1.00  0.00     0.014 A 
ATOM     34  C   UNL A   1      40.024  26.018  28.245  1.00  0.00     0.014 A 
ATOM     35  C   UNL A   1      42.166  27.698  28.877  1.00  0.00     0.010 A 
ATOM     36  C   UNL A   1      39.963  26.834  29.379  1.00  0.00     0.010 A 
ATOM     37  C   UNL A   1      41.022  27.702  29.691  1.00  0.00    -0.014 A 
BRANCH  37  38
ATOM     38  C   UNL A   1      40.892  28.671  30.812  1.00  0.00     0.031 A 
ATOM     39  C   UNL A   1      41.746  28.559  32.043  1.00  0.00     0.074 A 
ATOM     40  C   UNL A   1      39.952  29.635  30.737  1.00  0.00     0.049 A 
ATOM     41  N   UNL A   1      41.733  29.299  33.123  1.00  0.00    -0.248 NA
ATOM     42  C   UNL A   1      42.732  27.470  32.070  1.00  0.00     0.031 C 
ATOM     43  C   UNL A   1      39.033  29.829  29.613  1.00  0.00     0.029 A 
ATOM     44  N   UNL A   1      39.604  30.624  31.623  1.00  0.00    -0.354 N 
ATOM     45  C   UNL A   1      42.706  28.769  33.962  1.00  0.00     0.074 A 
ATOM     46  C   UNL A   1      43.265  27.620  33.277  1.00  0.00     0.031 C 
ATOM     47  C   UNL A   1      38.234  30.877  29.874  1.00  0.00     0.029 A 
ATOM     48  C   UNL A   1      38.560  31.409  31.194  1.00  0.00     0.049 A 
ATOM     49  H   UNL A   1      40.059  30.758  32.486  1.00  0.00     0.167 HD
ATOM     50  C   UNL A   1      43.107  29.207  35.180  1.00  0.00     0.037 A 
ATOM     51  C   UNL A   1      37.926  32.435  31.795  1.00  0.00     0.037 A 
ATOM     52  C   UNL A   1      42.557  30.354  35.857  1.00  0.00     0.049 A 
ATOM     53  C   UNL A   1      38.372  32.886  33.158  1.00  0.00     0.074 A 
ATOM     54  C   UNL A   1      42.943  30.906  37.067  1.00  0.00     0.029 A 
ATOM     55  N   UNL A   1      41.498  31.120  35.393  1.00  0.00    -0.354 N 
ATOM     56  N   UNL A   1      39.339  32.411  33.906  1.00  0.00    -0.248 NA
ATOM     57  C   UNL A   1      37.643  34.010  33.759  1.00  0.00     0.031 C 
ATOM     58  C   UNL A   1      42.091  31.979  37.354  1.00  0.00     0.029 A 
ATOM     59  C   UNL A   1      41.199  32.121  36.304  1.00  0.00     0.049 A 
ATOM     60  H   UNL A   1      41.028  30.975  34.540  1.00  0.00     0.167 HD
ATOM     61  C   UNL A   1      39.344  33.189  35.057  1.00  0.00     0.074 A 
ATOM     62  C   UNL A   1      38.294  34.175  34.902  1.00  0.00     0.031 C 
ATOM     63  C   UNL A   1      40.147  33.095  36.145  1.00  0.00     0.037 A 
BRANCH  50  64
ATOM     64  C   UNL A   1      44.201  28.439  35.869  1.00  0.00     0.058 A 
ATOM     65  C   UNL A   1      43.915  27.382  36.747  1.00  0.00     0.135 A 
ATOM     66  C   UNL A   1      45.550  28.733  35.615  1.00  0.00     0.135 A 
ATOM     67  F   UNL A   1      42.642  27.066  37.033  1.00  0.00    -0.206 F 
ATOM     68  C   UNL A   1      44.928  26.661  37.371  1.00  0.00     0.059 A 
ATOM     69  C   UNL A   1      46.580  28.010  36.209  1.00  0.00     0.059 A 
ATOM     70  F   UNL A   1      45.879  29.732  34.780  1.00  0.00    -0.206 F 
ATOM     71  C   UNL A   1      46.258  26.984  37.098  1.00  0.00     0.060 A 
BRANCH  71  72
ATOM     72  S   UNL A   1      47.562  26.039  37.914  1.00  0.00     0.124 S 
ATOM     73  O   UNL A   1      48.276  27.091  38.631  1.00  0.00    -0.237 OA
ATOM     74  O   UNL A   1      46.804  25.109  38.745  1.00  0.00    -0.237 OA
ATOM     75  O   UNL A   1      48.289  25.432  36.803  1.00  0.00    -0.744 OA
ENDBRANCH  71  72
ENDBRANCH  50  64
BRANCH  51  76
ATOM     76  C   UNL A   1      36.798  33.111  31.104  1.00  0.00     0.058 A 
ATOM     77  C   UNL A   1      37.030  33.996  30.042  1.00  0.00     0.135 A 
ATOM     78  C   UNL A   1      35.468  32.877  31.484  1.00  0.00     0.135 A 
ATOM     79  F   UNL A   1      38.286  34.257  29.649  1.00  0.00    -0.206 F 
ATOM     80  C   UNL A   1      35.983  34.634  29.385  1.00  0.00     0.059 A 
ATOM     81  C   UNL A   1      34.403  33.485  30.829  1.00  0.00     0.059 A 
ATOM     82  F   UNL A   1      35.194  32.027  32.488  1.00  0.00    -0.206 F 
ATOM     83  C   UNL A   1      34.672  34.370  29.785  1.00  0.00     0.060 A 
BRANCH  83  84
ATOM     84  S   UNL A   1      33.316  35.159  28.891  1.00  0.00     0.124 S 
ATOM     85  O   UNL A   1      32.473  35.622  29.987  1.00  0.00    -0.237 OA
ATOM     86  O   UNL A   1      34.008  36.197  28.133  1.00  0.00    -0.237 OA
ATOM     87  O   UNL A   1      32.767  34.069  28.089  1.00  0.00    -0.744 OA
ENDBRANCH  83  84
ENDBRANCH  51  76
BRANCH  63  88
ATOM     88  C   UNL A   1      39.930  34.088  37.253  1.00  0.00     0.058 A 
ATOM     89  C   UNL A   1      40.510  35.365  37.217  1.00  0.00     0.135 A 
ATOM     90  C   UNL A   1      39.102  33.774  38.343  1.00  0.00     0.135 A 
ATOM     91  F   UNL A   1      41.317  35.712  36.202  1.00  0.00    -0.206 F 
ATOM     92  C   UNL A   1      40.291  36.292  38.231  1.00  0.00     0.059 A 
ATOM     93  C   UNL A   1      38.851  34.693  39.357  1.00  0.00     0.059 A 
ATOM     94  F   UNL A   1      38.518  32.568  38.422  1.00  0.00    -0.206 F 
ATOM     95  C   UNL A   1      39.459  35.947  39.298  1.00  0.00     0.060 A 
BRANCH  95  96
ATOM     96  S   UNL A   1      39.153  37.169  40.592  1.00  0.00     0.124 S 
ATOM     97  O   UNL A   1      38.239  38.086  39.918  1.00  0.00    -0.237 OA
ATOM     98  O   UNL A   1      38.569  36.360  41.657  1.00  0.00    -0.237 OA
ATOM     99  O   UNL A   1      40.483  37.702  40.876  1.00  0.00    -0.744 OA
ENDBRANCH  95  96
ENDBRANCH  63  88
ENDBRANCH  37  38
ENDBRANCH  29  32
ENDBRANCH  27  28
ENDBRANCH  26  27
ENDBRANCH   1  26
TORSDOF 18
ENDMDL
