MODEL 1
REMARK VINA RESULT:      -9.3      0.000      0.000
REMARK SMILES C[C@@H](Nc1cccc(Cl)c1)[C@@H](C)C(=O)NCCCNC(=O)c1ccc(-c2c3nc(c(-c4c(F)cc(S(=O)(=O)[O-])cc4F)c4ccc([nH]4)c(-c4c(F)cc(S(=O)(=O)[O-])cc4F)c4nc(c(-c5c(F)cc(S(=O)(=O)[O-])cc5F)c5ccc2[nH]5)C=C4)C=C3)cc1
REMARK SMILES IDX 17 1 16 2 15 3 13 4 14 5 11 7 12 8 2 9 1 10 3 11 4 13 5 14
REMARK SMILES IDX 10 15 6 16 8 17 7 18 9 19 18 20 19 21 20 22 21 24 22 25
REMARK SMILES IDX 23 26 87 27 24 28 86 29 25 30 26 31 27 32 80 33 28 34 85 35
REMARK SMILES IDX 79 36 81 37 29 38 84 39 78 40 77 41 30 43 64 44 43 45 63 46
REMARK SMILES IDX 44 47 47 48 62 49 82 50 45 51 46 52 61 54 83 55 48 56 31 57
REMARK SMILES IDX 32 58 41 59 33 60 34 61 40 62 42 63 35 64 36 65 37 66 38 67
REMARK SMILES IDX 39 68 65 69 66 70 75 71 67 72 68 73 74 74 76 75 69 76 70 77
REMARK SMILES IDX 71 78 72 79 73 80 49 81 50 82 59 83 51 84 52 85 58 86 60 87
REMARK SMILES IDX 53 88 54 89 55 90 56 91 57 92
REMARK H PARENT 15 6 3 12 19 23 81 42 47 53
REMARK Flexibility Score: inf
ROOT
ATOM      1  C   UNL A   1      33.612  33.732  28.358  1.00  0.00     0.042 C 
ENDROOT
BRANCH   1   2
ATOM      2  C   UNL A   1      33.957  34.276  29.743  1.00  0.00     0.117 C 
BRANCH   2   3
ATOM      3  N   UNL A   1      34.176  33.237  30.733  1.00  0.00    -0.356 N 
ATOM      4  C   UNL A   1      35.250  32.903  31.495  1.00  0.00     0.224 C 
ATOM      5  O   UNL A   1      35.042  32.068  32.383  1.00  0.00    -0.275 OA
ATOM      6  H   UNL A   1      33.391  32.661  30.882  1.00  0.00     0.163 HD
BRANCH   4   7
ATOM      7  C   UNL A   1      36.624  33.559  31.367  1.00  0.00     0.097 C 
ATOM      8  C   UNL A   1      37.334  32.835  30.211  1.00  0.00     0.020 C 
BRANCH   7   9
ATOM      9  C   UNL A   1      37.436  33.689  32.685  1.00  0.00     0.088 C 
ATOM     10  C   UNL A   1      36.783  34.698  33.654  1.00  0.00     0.031 C 
BRANCH   9  11
ATOM     11  N   UNL A   1      37.582  32.454  33.473  1.00  0.00    -0.382 N 
ATOM     12  H   UNL A   1      36.829  32.258  34.076  1.00  0.00     0.160 HD
BRANCH  11  13
ATOM     13  C   UNL A   1      38.599  31.531  33.506  1.00  0.00     0.036 A 
ATOM     14  C   UNL A   1      39.920  31.826  33.839  1.00  0.00     0.026 A 
ATOM     15  C   UNL A   1      38.306  30.216  33.123  1.00  0.00     0.046 A 
ATOM     16  C   UNL A   1      40.934  30.870  33.715  1.00  0.00     0.004 A 
ATOM     17  C   UNL A   1      39.310  29.254  33.011  1.00  0.00     0.043 A 
ATOM     18  C   UNL A   1      40.631  29.581  33.288  1.00  0.00     0.020 A 
ATOM     19  Cl  UNL A   1      38.909  27.658  32.503  1.00  0.00    -0.084 Cl
ENDBRANCH  11  13
ENDBRANCH   9  11
ENDBRANCH   7   9
ENDBRANCH   4   7
ENDBRANCH   2   3
ENDBRANCH   1   2
BRANCH   1  20
ATOM     20  C   UNL A   1      34.525  32.619  27.854  1.00  0.00     0.118 C 
BRANCH  20  21
ATOM     21  N   UNL A   1      33.878  31.316  27.846  1.00  0.00    -0.352 N 
ATOM     22  C   UNL A   1      34.402  30.048  27.892  1.00  0.00     0.251 C 
ATOM     23  H   UNL A   1      32.895  31.349  27.799  1.00  0.00     0.163 HD
ATOM     24  O   UNL A   1      33.662  29.094  27.668  1.00  0.00    -0.269 OA
BRANCH  22  25
ATOM     25  C   UNL A   1      35.836  29.813  28.183  1.00  0.00     0.039 A 
ATOM     26  C   UNL A   1      36.200  29.393  29.467  1.00  0.00     0.014 A 
ATOM     27  C   UNL A   1      36.828  30.051  27.229  1.00  0.00     0.014 A 
ATOM     28  C   UNL A   1      37.542  29.150  29.770  1.00  0.00     0.010 A 
ATOM     29  C   UNL A   1      38.157  29.730  27.507  1.00  0.00     0.010 A 
ATOM     30  C   UNL A   1      38.530  29.279  28.781  1.00  0.00    -0.014 A 
BRANCH  30  31
ATOM     31  C   UNL A   1      39.953  28.947  29.060  1.00  0.00     0.031 A 
ATOM     32  C   UNL A   1      40.882  29.989  29.628  1.00  0.00     0.074 A 
ATOM     33  C   UNL A   1      40.428  27.727  28.739  1.00  0.00     0.049 A 
ATOM     34  N   UNL A   1      42.167  29.911  29.859  1.00  0.00    -0.248 NA
ATOM     35  C   UNL A   1      40.293  31.298  29.953  1.00  0.00     0.031 C 
ATOM     36  C   UNL A   1      39.642  26.645  28.138  1.00  0.00     0.029 A 
ATOM     37  N   UNL A   1      41.687  27.193  28.856  1.00  0.00    -0.354 N 
ATOM     38  C   UNL A   1      42.544  31.162  30.337  1.00  0.00     0.074 A 
ATOM     39  C   UNL A   1      41.360  31.993  30.318  1.00  0.00     0.031 C 
ATOM     40  C   UNL A   1      40.431  25.575  27.957  1.00  0.00     0.029 A 
ATOM     41  C   UNL A   1      41.786  25.903  28.390  1.00  0.00     0.049 A 
ATOM     42  H   UNL A   1      42.448  27.687  29.239  1.00  0.00     0.167 HD
ATOM     43  C   UNL A   1      43.760  31.573  30.771  1.00  0.00     0.037 A 
ATOM     44  C   UNL A   1      42.850  25.080  28.306  1.00  0.00     0.037 A 
ATOM     45  C   UNL A   1      44.928  30.731  30.817  1.00  0.00     0.049 A 
ATOM     46  C   UNL A   1      44.188  25.556  28.802  1.00  0.00     0.074 A 
ATOM     47  C   UNL A   1      46.189  31.035  31.301  1.00  0.00     0.029 A 
ATOM     48  N   UNL A   1      44.981  29.421  30.360  1.00  0.00    -0.354 N 
ATOM     49  N   UNL A   1      44.510  26.721  29.309  1.00  0.00    -0.248 NA
ATOM     50  C   UNL A   1      45.305  24.604  28.720  1.00  0.00     0.031 C 
ATOM     51  C   UNL A   1      47.016  29.925  31.097  1.00  0.00     0.029 A 
ATOM     52  C   UNL A   1      46.257  28.912  30.532  1.00  0.00     0.049 A 
ATOM     53  H   UNL A   1      44.223  28.928  29.971  1.00  0.00     0.167 HD
ATOM     54  C   UNL A   1      45.861  26.635  29.631  1.00  0.00     0.074 A 
ATOM     55  C   UNL A   1      46.291  25.299  29.271  1.00  0.00     0.031 C 
ATOM     56  C   UNL A   1      46.670  27.577  30.175  1.00  0.00     0.037 A 
BRANCH  43  57
ATOM     57  C   UNL A   1      43.890  32.997  31.239  1.00  0.00     0.058 A 
ATOM     58  C   UNL A   1      43.802  33.339  32.599  1.00  0.00     0.135 A 
ATOM     59  C   UNL A   1      44.147  34.030  30.322  1.00  0.00     0.135 A 
ATOM     60  F   UNL A   1      43.545  32.395  33.518  1.00  0.00    -0.206 F 
ATOM     61  C   UNL A   1      43.932  34.656  33.028  1.00  0.00     0.059 A 
ATOM     62  C   UNL A   1      44.309  35.351  30.733  1.00  0.00     0.059 A 
ATOM     63  F   UNL A   1      44.243  33.761  29.010  1.00  0.00    -0.206 F 
ATOM     64  C   UNL A   1      44.185  35.655  32.087  1.00  0.00     0.060 A 
BRANCH  64  65
ATOM     65  S   UNL A   1      44.356  37.357  32.664  1.00  0.00     0.124 S 
ATOM     66  O   UNL A   1      43.452  37.369  33.809  1.00  0.00    -0.237 OA
ATOM     67  O   UNL A   1      45.778  37.440  32.979  1.00  0.00    -0.237 OA
ATOM     68  O   UNL A   1      43.925  38.150  31.516  1.00  0.00    -0.744 OA
ENDBRANCH  64  65
ENDBRANCH  43  57
BRANCH  44  69
ATOM     69  C   UNL A   1      42.686  23.711  27.746  1.00  0.00     0.058 A 
ATOM     70  C   UNL A   1      42.729  23.487  26.362  1.00  0.00     0.135 A 
ATOM     71  C   UNL A   1      42.503  22.599  28.583  1.00  0.00     0.135 A 
ATOM     72  F   UNL A   1      42.895  24.519  25.522  1.00  0.00    -0.206 F 
ATOM     73  C   UNL A   1      42.581  22.212  25.825  1.00  0.00     0.059 A 
ATOM     74  C   UNL A   1      42.380  21.312  28.070  1.00  0.00     0.059 A 
ATOM     75  F   UNL A   1      42.473  22.757  29.916  1.00  0.00    -0.206 F 
ATOM     76  C   UNL A   1      42.411  21.129  26.689  1.00  0.00     0.060 A 
BRANCH  76  77
ATOM     77  S   UNL A   1      42.277  19.471  25.984  1.00  0.00     0.124 S 
ATOM     78  O   UNL A   1      43.191  19.560  24.852  1.00  0.00    -0.237 OA
ATOM     79  O   UNL A   1      42.713  18.630  27.094  1.00  0.00    -0.237 OA
ATOM     80  O   UNL A   1      40.861  19.365  25.647  1.00  0.00    -0.744 OA
ENDBRANCH  76  77
ENDBRANCH  44  69
BRANCH  56  81
ATOM     81  C   UNL A   1      48.098  27.190  30.447  1.00  0.00     0.058 A 
ATOM     82  C   UNL A   1      49.138  27.542  29.574  1.00  0.00     0.135 A 
ATOM     83  C   UNL A   1      48.434  26.502  31.625  1.00  0.00     0.135 A 
ATOM     84  F   UNL A   1      48.870  28.192  28.430  1.00  0.00    -0.206 F 
ATOM     85  C   UNL A   1      50.461  27.205  29.847  1.00  0.00     0.059 A 
ATOM     86  C   UNL A   1      49.752  26.180  31.932  1.00  0.00     0.059 A 
ATOM     87  F   UNL A   1      47.477  26.151  32.499  1.00  0.00    -0.206 F 
ATOM     88  C   UNL A   1      50.758  26.527  31.030  1.00  0.00     0.060 A 
BRANCH  88  89
ATOM     89  S   UNL A   1      52.481  26.127  31.389  1.00  0.00     0.124 S 
ATOM     90  O   UNL A   1      53.061  26.094  30.051  1.00  0.00    -0.237 OA
ATOM     91  O   UNL A   1      52.893  27.245  32.231  1.00  0.00    -0.237 OA
ATOM     92  O   UNL A   1      52.396  24.838  32.069  1.00  0.00    -0.744 OA
ENDBRANCH  88  89
ENDBRANCH  56  81
ENDBRANCH  30  31
ENDBRANCH  22  25
ENDBRANCH  20  21
ENDBRANCH   1  20
TORSDOF 16
ENDMDL
MODEL 2
REMARK VINA RESULT:      -9.0      3.201     10.648
REMARK SMILES C[C@@H](Nc1cccc(Cl)c1)[C@@H](C)C(=O)NCCCNC(=O)c1ccc(-c2c3nc(c(-c4c(F)cc(S(=O)(=O)[O-])cc4F)c4ccc([nH]4)c(-c4c(F)cc(S(=O)(=O)[O-])cc4F)c4nc(c(-c5c(F)cc(S(=O)(=O)[O-])cc5F)c5ccc2[nH]5)C=C4)C=C3)cc1
REMARK SMILES IDX 17 1 16 2 15 3 13 4 14 5 11 7 12 8 2 9 1 10 3 11 4 13 5 14
REMARK SMILES IDX 10 15 6 16 8 17 7 18 9 19 18 20 19 21 20 22 21 24 22 25
REMARK SMILES IDX 23 26 87 27 24 28 86 29 25 30 26 31 27 32 80 33 28 34 85 35
REMARK SMILES IDX 79 36 81 37 29 38 84 39 78 40 77 41 30 43 64 44 43 45 63 46
REMARK SMILES IDX 44 47 47 48 62 49 82 50 45 51 46 52 61 54 83 55 48 56 31 57
REMARK SMILES IDX 32 58 41 59 33 60 34 61 40 62 42 63 35 64 36 65 37 66 38 67
REMARK SMILES IDX 39 68 65 69 66 70 75 71 67 72 68 73 74 74 76 75 69 76 70 77
REMARK SMILES IDX 71 78 72 79 73 80 49 81 50 82 59 83 51 84 52 85 58 86 60 87
REMARK SMILES IDX 53 88 54 89 55 90 56 91 57 92
REMARK H PARENT 15 6 3 12 19 23 81 42 47 53
REMARK Flexibility Score: inf
ROOT
ATOM      1  C   UNL A   1      41.858  22.267  26.942  1.00  0.00     0.042 C 
ENDROOT
BRANCH   1   2
ATOM      2  C   UNL A   1      42.501  22.185  25.559  1.00  0.00     0.117 C 
BRANCH   2   3
ATOM      3  N   UNL A   1      43.868  21.698  25.586  1.00  0.00    -0.356 N 
ATOM      4  C   UNL A   1      45.071  22.330  25.563  1.00  0.00     0.224 C 
ATOM      5  O   UNL A   1      46.057  21.619  25.787  1.00  0.00    -0.275 OA
ATOM      6  H   UNL A   1      43.938  20.717  25.631  1.00  0.00     0.163 HD
BRANCH   4   7
ATOM      7  C   UNL A   1      45.240  23.836  25.373  1.00  0.00     0.097 C 
ATOM      8  C   UNL A   1      46.640  24.034  24.771  1.00  0.00     0.020 C 
BRANCH   7   9
ATOM      9  C   UNL A   1      44.904  24.715  26.609  1.00  0.00     0.088 C 
ATOM     10  C   UNL A   1      45.314  24.019  27.925  1.00  0.00     0.031 C 
BRANCH   9  11
ATOM     11  N   UNL A   1      45.565  26.031  26.659  1.00  0.00    -0.382 N 
ATOM     12  H   UNL A   1      46.541  26.006  26.540  1.00  0.00     0.160 HD
BRANCH  11  13
ATOM     13  C   UNL A   1      45.040  27.286  26.848  1.00  0.00     0.036 A 
ATOM     14  C   UNL A   1      45.607  28.262  27.664  1.00  0.00     0.026 A 
ATOM     15  C   UNL A   1      43.823  27.590  26.225  1.00  0.00     0.046 A 
ATOM     16  C   UNL A   1      44.948  29.469  27.925  1.00  0.00     0.004 A 
ATOM     17  C   UNL A   1      43.167  28.797  26.468  1.00  0.00     0.043 A 
ATOM     18  C   UNL A   1      43.717  29.734  27.333  1.00  0.00     0.020 A 
ATOM     19  Cl  UNL A   1      41.655  29.114  25.708  1.00  0.00    -0.084 Cl
ENDBRANCH  11  13
ENDBRANCH   9  11
ENDBRANCH   7   9
ENDBRANCH   4   7
ENDBRANCH   2   3
ENDBRANCH   1   2
BRANCH   1  20
ATOM     20  C   UNL A   1      40.559  21.485  27.100  1.00  0.00     0.118 C 
BRANCH  20  21
ATOM     21  N   UNL A   1      39.536  21.887  26.148  1.00  0.00    -0.352 N 
ATOM     22  C   UNL A   1      38.855  23.069  26.001  1.00  0.00     0.251 C 
ATOM     23  H   UNL A   1      39.289  21.191  25.496  1.00  0.00     0.163 HD
ATOM     24  O   UNL A   1      37.887  23.104  25.246  1.00  0.00    -0.269 OA
BRANCH  22  25
ATOM     25  C   UNL A   1      39.248  24.288  26.747  1.00  0.00     0.039 A 
ATOM     26  C   UNL A   1      38.770  24.459  28.051  1.00  0.00     0.014 A 
ATOM     27  C   UNL A   1      40.032  25.286  26.164  1.00  0.00     0.014 A 
ATOM     28  C   UNL A   1      39.133  25.591  28.786  1.00  0.00     0.010 A 
ATOM     29  C   UNL A   1      40.460  26.374  26.926  1.00  0.00     0.010 A 
ATOM     30  C   UNL A   1      40.012  26.541  28.244  1.00  0.00    -0.014 A 
BRANCH  30  31
ATOM     31  C   UNL A   1      40.475  27.710  29.039  1.00  0.00     0.031 A 
ATOM     32  C   UNL A   1      41.805  27.672  29.746  1.00  0.00     0.074 A 
ATOM     33  C   UNL A   1      39.668  28.780  29.182  1.00  0.00     0.049 A 
ATOM     34  N   UNL A   1      42.338  28.556  30.550  1.00  0.00    -0.248 NA
ATOM     35  C   UNL A   1      42.631  26.471  29.546  1.00  0.00     0.031 C 
ATOM     36  C   UNL A   1      38.336  28.920  28.588  1.00  0.00     0.029 A 
ATOM     37  N   UNL A   1      39.839  29.948  29.883  1.00  0.00    -0.354 N 
ATOM     38  C   UNL A   1      43.549  28.012  30.965  1.00  0.00     0.074 A 
ATOM     39  C   UNL A   1      43.649  26.702  30.361  1.00  0.00     0.031 C 
ATOM     40  C   UNL A   1      37.821  30.109  28.934  1.00  0.00     0.029 A 
ATOM     41  C   UNL A   1      38.764  30.802  29.805  1.00  0.00     0.049 A 
ATOM     42  H   UNL A   1      40.656  30.156  30.392  1.00  0.00     0.167 HD
ATOM     43  C   UNL A   1      44.499  28.563  31.758  1.00  0.00     0.037 A 
ATOM     44  C   UNL A   1      38.555  32.002  30.381  1.00  0.00     0.037 A 
ATOM     45  C   UNL A   1      44.407  29.881  32.331  1.00  0.00     0.049 A 
ATOM     46  C   UNL A   1      39.627  32.598  31.252  1.00  0.00     0.074 A 
ATOM     47  C   UNL A   1      45.346  30.554  33.095  1.00  0.00     0.029 A 
ATOM     48  N   UNL A   1      43.313  30.727  32.208  1.00  0.00    -0.354 N 
ATOM     49  N   UNL A   1      40.793  32.094  31.581  1.00  0.00    -0.248 NA
ATOM     50  C   UNL A   1      39.360  33.924  31.825  1.00  0.00     0.031 C 
ATOM     51  C   UNL A   1      44.802  31.788  33.469  1.00  0.00     0.029 A 
ATOM     52  C   UNL A   1      43.545  31.905  32.897  1.00  0.00     0.049 A 
ATOM     53  H   UNL A   1      42.494  30.519  31.704  1.00  0.00     0.167 HD
ATOM     54  C   UNL A   1      41.409  33.054  32.378  1.00  0.00     0.074 A 
ATOM     55  C   UNL A   1      40.491  34.171  32.471  1.00  0.00     0.031 C 
ATOM     56  C   UNL A   1      42.625  33.012  32.977  1.00  0.00     0.037 A 
BRANCH  43  57
ATOM     57  C   UNL A   1      45.727  27.744  32.050  1.00  0.00     0.058 A 
ATOM     58  C   UNL A   1      46.946  27.978  31.392  1.00  0.00     0.135 A 
ATOM     59  C   UNL A   1      45.698  26.737  33.030  1.00  0.00     0.135 A 
ATOM     60  F   UNL A   1      47.028  28.919  30.437  1.00  0.00    -0.206 F 
ATOM     61  C   UNL A   1      48.081  27.224  31.671  1.00  0.00     0.059 A 
ATOM     62  C   UNL A   1      46.830  25.990  33.346  1.00  0.00     0.059 A 
ATOM     63  F   UNL A   1      44.561  26.470  33.691  1.00  0.00    -0.206 F 
ATOM     64  C   UNL A   1      48.013  26.232  32.650  1.00  0.00     0.060 A 
BRANCH  64  65
ATOM     65  S   UNL A   1      49.497  25.267  33.002  1.00  0.00     0.124 S 
ATOM     66  O   UNL A   1      48.963  24.212  33.857  1.00  0.00    -0.237 OA
ATOM     67  O   UNL A   1      49.922  24.849  31.670  1.00  0.00    -0.237 OA
ATOM     68  O   UNL A   1      50.377  26.226  33.665  1.00  0.00    -0.744 OA
ENDBRANCH  64  65
ENDBRANCH  43  57
BRANCH  44  69
ATOM     69  C   UNL A   1      37.280  32.730  30.135  1.00  0.00     0.058 A 
ATOM     70  C   UNL A   1      37.169  33.657  29.088  1.00  0.00     0.135 A 
ATOM     71  C   UNL A   1      36.145  32.499  30.927  1.00  0.00     0.135 A 
ATOM     72  F   UNL A   1      38.228  33.917  28.307  1.00  0.00    -0.206 F 
ATOM     73  C   UNL A   1      35.983  34.341  28.843  1.00  0.00     0.059 A 
ATOM     74  C   UNL A   1      34.940  33.152  30.685  1.00  0.00     0.059 A 
ATOM     75  F   UNL A   1      36.193  31.608  31.929  1.00  0.00    -0.206 F 
ATOM     76  C   UNL A   1      34.871  34.079  29.646  1.00  0.00     0.060 A 
BRANCH  76  77
ATOM     77  S   UNL A   1      33.320  34.930  29.285  1.00  0.00     0.124 S 
ATOM     78  O   UNL A   1      32.683  34.949  30.596  1.00  0.00    -0.237 OA
ATOM     79  O   UNL A   1      33.787  36.218  28.782  1.00  0.00    -0.237 OA
ATOM     80  O   UNL A   1      32.691  34.069  28.289  1.00  0.00    -0.744 OA
ENDBRANCH  76  77
ENDBRANCH  44  69
BRANCH  56  81
ATOM     81  C   UNL A   1      43.051  34.222  33.763  1.00  0.00     0.058 A 
ATOM     82  C   UNL A   1      42.761  34.356  35.128  1.00  0.00     0.135 A 
ATOM     83  C   UNL A   1      43.807  35.235  33.149  1.00  0.00     0.135 A 
ATOM     84  F   UNL A   1      42.035  33.420  35.760  1.00  0.00    -0.206 F 
ATOM     85  C   UNL A   1      43.184  35.465  35.855  1.00  0.00     0.059 A 
ATOM     86  C   UNL A   1      44.264  36.338  33.863  1.00  0.00     0.059 A 
ATOM     87  F   UNL A   1      44.121  35.150  31.847  1.00  0.00    -0.206 F 
ATOM     88  C   UNL A   1      43.937  36.449  35.214  1.00  0.00     0.060 A 
BRANCH  88  89
ATOM     89  S   UNL A   1      44.510  37.865  36.177  1.00  0.00     0.124 S 
ATOM     90  O   UNL A   1      43.987  38.982  35.396  1.00  0.00    -0.237 OA
ATOM     91  O   UNL A   1      43.873  37.642  37.470  1.00  0.00    -0.237 OA
ATOM     92  O   UNL A   1      45.962  37.718  36.166  1.00  0.00    -0.744 OA
ENDBRANCH  88  89
ENDBRANCH  56  81
ENDBRANCH  30  31
ENDBRANCH  22  25
ENDBRANCH  20  21
ENDBRANCH   1  20
TORSDOF 16
ENDMDL
MODEL 3
REMARK VINA RESULT:      -9.0      4.146      6.470
REMARK SMILES C[C@@H](Nc1cccc(Cl)c1)[C@@H](C)C(=O)NCCCNC(=O)c1ccc(-c2c3nc(c(-c4c(F)cc(S(=O)(=O)[O-])cc4F)c4ccc([nH]4)c(-c4c(F)cc(S(=O)(=O)[O-])cc4F)c4nc(c(-c5c(F)cc(S(=O)(=O)[O-])cc5F)c5ccc2[nH]5)C=C4)C=C3)cc1
REMARK SMILES IDX 17 1 16 2 15 3 13 4 14 5 11 7 12 8 2 9 1 10 3 11 4 13 5 14
REMARK SMILES IDX 10 15 6 16 8 17 7 18 9 19 18 20 19 21 20 22 21 24 22 25
REMARK SMILES IDX 23 26 87 27 24 28 86 29 25 30 26 31 27 32 80 33 28 34 85 35
REMARK SMILES IDX 79 36 81 37 29 38 84 39 78 40 77 41 30 43 64 44 43 45 63 46
REMARK SMILES IDX 44 47 47 48 62 49 82 50 45 51 46 52 61 54 83 55 48 56 31 57
REMARK SMILES IDX 32 58 41 59 33 60 34 61 40 62 42 63 35 64 36 65 37 66 38 67
REMARK SMILES IDX 39 68 65 69 66 70 75 71 67 72 68 73 74 74 76 75 69 76 70 77
REMARK SMILES IDX 71 78 72 79 73 80 49 81 50 82 59 83 51 84 52 85 58 86 60 87
REMARK SMILES IDX 53 88 54 89 55 90 56 91 57 92
REMARK H PARENT 15 6 3 12 19 23 81 42 47 53
REMARK Flexibility Score: inf
ROOT
ATOM      1  C   UNL A   1      34.113  29.546  27.563  1.00  0.00     0.042 C 
ENDROOT
BRANCH   1   2
ATOM      2  C   UNL A   1      33.153  30.103  26.513  1.00  0.00     0.117 C 
BRANCH   2   3
ATOM      3  N   UNL A   1      33.539  29.781  25.151  1.00  0.00    -0.356 N 
ATOM      4  C   UNL A   1      32.980  28.991  24.198  1.00  0.00     0.224 C 
ATOM      5  O   UNL A   1      33.470  29.082  23.067  1.00  0.00    -0.275 OA
ATOM      6  H   UNL A   1      34.370  30.224  24.860  1.00  0.00     0.163 HD
BRANCH   4   7
ATOM      7  C   UNL A   1      31.759  28.103  24.434  1.00  0.00     0.097 C 
ATOM      8  C   UNL A   1      32.243  26.945  25.322  1.00  0.00     0.020 C 
BRANCH   7   9
ATOM      9  C   UNL A   1      30.964  27.696  23.164  1.00  0.00     0.088 C 
ATOM     10  C   UNL A   1      29.613  27.043  23.528  1.00  0.00     0.031 C 
BRANCH   9  11
ATOM     11  N   UNL A   1      30.614  28.793  22.246  1.00  0.00    -0.382 N 
ATOM     12  H   UNL A   1      31.024  28.730  21.354  1.00  0.00     0.160 HD
BRANCH  11  13
ATOM     13  C   UNL A   1      29.811  29.891  22.433  1.00  0.00     0.036 A 
ATOM     14  C   UNL A   1      29.358  30.334  23.675  1.00  0.00     0.026 A 
ATOM     15  C   UNL A   1      29.367  30.582  21.298  1.00  0.00     0.046 A 
ATOM     16  C   UNL A   1      28.427  31.373  23.784  1.00  0.00     0.004 A 
ATOM     17  C   UNL A   1      28.451  31.629  21.400  1.00  0.00     0.043 A 
ATOM     18  C   UNL A   1      27.962  32.017  22.641  1.00  0.00     0.020 A 
ATOM     19  Cl  UNL A   1      27.905  32.427  19.976  1.00  0.00    -0.084 Cl
ENDBRANCH  11  13
ENDBRANCH   9  11
ENDBRANCH   7   9
ENDBRANCH   4   7
ENDBRANCH   2   3
ENDBRANCH   1   2
BRANCH   1  20
ATOM     20  C   UNL A   1      35.263  30.472  27.944  1.00  0.00     0.118 C 
BRANCH  20  21
ATOM     21  N   UNL A   1      35.293  30.783  29.365  1.00  0.00    -0.352 N 
ATOM     22  C   UNL A   1      36.288  30.639  30.299  1.00  0.00     0.251 C 
ATOM     23  H   UNL A   1      34.455  31.163  29.717  1.00  0.00     0.163 HD
ATOM     24  O   UNL A   1      36.009  30.785  31.486  1.00  0.00    -0.269 OA
BRANCH  22  25
ATOM     25  C   UNL A   1      37.674  30.291  29.908  1.00  0.00     0.039 A 
ATOM     26  C   UNL A   1      38.539  29.785  30.884  1.00  0.00     0.014 A 
ATOM     27  C   UNL A   1      38.148  30.506  28.612  1.00  0.00     0.014 A 
ATOM     28  C   UNL A   1      39.849  29.435  30.545  1.00  0.00     0.010 A 
ATOM     29  C   UNL A   1      39.429  30.080  28.256  1.00  0.00     0.010 A 
ATOM     30  C   UNL A   1      40.295  29.544  29.218  1.00  0.00    -0.014 A 
BRANCH  30  31
ATOM     31  C   UNL A   1      41.658  29.100  28.821  1.00  0.00     0.031 A 
ATOM     32  C   UNL A   1      42.791  30.092  28.747  1.00  0.00     0.074 A 
ATOM     33  C   UNL A   1      41.863  27.818  28.460  1.00  0.00     0.049 A 
ATOM     34  N   UNL A   1      44.022  29.910  28.343  1.00  0.00    -0.248 NA
ATOM     35  C   UNL A   1      42.492  31.474  29.155  1.00  0.00     0.031 C 
ATOM     36  C   UNL A   1      40.838  26.771  28.442  1.00  0.00     0.029 A 
ATOM     37  N   UNL A   1      42.995  27.177  28.024  1.00  0.00    -0.354 N 
ATOM     38  C   UNL A   1      44.638  31.155  28.429  1.00  0.00     0.074 A 
ATOM     39  C   UNL A   1      43.631  32.091  28.879  1.00  0.00     0.031 C 
ATOM     40  C   UNL A   1      41.392  25.619  28.034  1.00  0.00     0.029 A 
ATOM     41  C   UNL A   1      42.799  25.849  27.725  1.00  0.00     0.049 A 
ATOM     42  H   UNL A   1      43.868  27.625  27.935  1.00  0.00     0.167 HD
ATOM     43  C   UNL A   1      45.928  31.481  28.177  1.00  0.00     0.037 A 
ATOM     44  C   UNL A   1      43.651  24.923  27.242  1.00  0.00     0.037 A 
ATOM     45  C   UNL A   1      46.933  30.538  27.759  1.00  0.00     0.049 A 
ATOM     46  C   UNL A   1      45.081  25.308  26.977  1.00  0.00     0.074 A 
ATOM     47  C   UNL A   1      48.282  30.758  27.541  1.00  0.00     0.029 A 
ATOM     48  N   UNL A   1      46.700  29.196  27.492  1.00  0.00    -0.354 N 
ATOM     49  N   UNL A   1      45.660  26.475  27.125  1.00  0.00    -0.248 NA
ATOM     50  C   UNL A   1      45.974  24.250  26.485  1.00  0.00     0.031 C 
ATOM     51  C   UNL A   1      48.856  29.560  27.101  1.00  0.00     0.029 A 
ATOM     52  C   UNL A   1      47.875  28.581  27.093  1.00  0.00     0.049 A 
ATOM     53  H   UNL A   1      45.828  28.747  27.575  1.00  0.00     0.167 HD
ATOM     54  C   UNL A   1      46.991  26.286  26.769  1.00  0.00     0.074 A 
ATOM     55  C   UNL A   1      47.133  24.890  26.410  1.00  0.00     0.031 C 
ATOM     56  C   UNL A   1      48.003  27.189  26.743  1.00  0.00     0.037 A 
BRANCH  43  57
ATOM     57  C   UNL A   1      46.332  32.920  28.352  1.00  0.00     0.058 A 
ATOM     58  C   UNL A   1      46.814  33.408  29.577  1.00  0.00     0.135 A 
ATOM     59  C   UNL A   1      46.274  33.815  27.271  1.00  0.00     0.135 A 
ATOM     60  F   UNL A   1      46.878  32.601  30.649  1.00  0.00    -0.206 F 
ATOM     61  C   UNL A   1      47.195  34.737  29.733  1.00  0.00     0.059 A 
ATOM     62  C   UNL A   1      46.677  35.142  27.396  1.00  0.00     0.059 A 
ATOM     63  F   UNL A   1      45.822  33.403  26.075  1.00  0.00    -0.206 F 
ATOM     64  C   UNL A   1      47.122  35.597  28.636  1.00  0.00     0.060 A 
BRANCH  64  65
ATOM     65  S   UNL A   1      47.625  37.317  28.855  1.00  0.00     0.124 S 
ATOM     66  O   UNL A   1      48.948  37.160  29.451  1.00  0.00    -0.237 OA
ATOM     67  O   UNL A   1      47.604  37.826  27.487  1.00  0.00    -0.237 OA
ATOM     68  O   UNL A   1      46.599  37.862  29.739  1.00  0.00    -0.744 OA
ENDBRANCH  64  65
ENDBRANCH  43  57
BRANCH  44  69
ATOM     69  C   UNL A   1      43.175  23.535  26.996  1.00  0.00     0.058 A 
ATOM     70  C   UNL A   1      42.870  23.095  25.700  1.00  0.00     0.135 A 
ATOM     71  C   UNL A   1      43.036  22.616  28.048  1.00  0.00     0.135 A 
ATOM     72  F   UNL A   1      42.981  23.938  24.663  1.00  0.00    -0.206 F 
ATOM     73  C   UNL A   1      42.429  21.798  25.455  1.00  0.00     0.059 A 
ATOM     74  C   UNL A   1      42.623  21.307  27.824  1.00  0.00     0.059 A 
ATOM     75  F   UNL A   1      43.334  22.982  29.305  1.00  0.00    -0.206 F 
ATOM     76  C   UNL A   1      42.312  20.910  26.525  1.00  0.00     0.060 A 
BRANCH  76  77
ATOM     77  S   UNL A   1      41.793  19.212  26.189  1.00  0.00     0.124 S 
ATOM     78  O   UNL A   1      42.702  18.836  25.113  1.00  0.00    -0.237 OA
ATOM     79  O   UNL A   1      42.019  18.562  27.476  1.00  0.00    -0.237 OA
ATOM     80  O   UNL A   1      40.392  19.361  25.809  1.00  0.00    -0.744 OA
ENDBRANCH  76  77
ENDBRANCH  44  69
BRANCH  56  81
ATOM     81  C   UNL A   1      49.365  26.689  26.344  1.00  0.00     0.058 A 
ATOM     82  C   UNL A   1      49.837  26.802  25.028  1.00  0.00     0.135 A 
ATOM     83  C   UNL A   1      50.229  26.138  27.306  1.00  0.00     0.135 A 
ATOM     84  F   UNL A   1      49.048  27.314  24.069  1.00  0.00    -0.206 F 
ATOM     85  C   UNL A   1      51.109  26.365  24.672  1.00  0.00     0.059 A 
ATOM     86  C   UNL A   1      51.515  25.721  26.978  1.00  0.00     0.059 A 
ATOM     87  F   UNL A   1      49.831  26.018  28.582  1.00  0.00    -0.206 F 
ATOM     88  C   UNL A   1      51.942  25.828  25.655  1.00  0.00     0.060 A 
BRANCH  88  89
ATOM     89  S   UNL A   1      53.603  25.297  25.187  1.00  0.00     0.124 S 
ATOM     90  O   UNL A   1      54.428  26.056  26.121  1.00  0.00    -0.237 OA
ATOM     91  O   UNL A   1      53.546  23.857  25.416  1.00  0.00    -0.237 OA
ATOM     92  O   UNL A   1      53.706  25.699  23.788  1.00  0.00    -0.744 OA
ENDBRANCH  88  89
ENDBRANCH  56  81
ENDBRANCH  30  31
ENDBRANCH  22  25
ENDBRANCH  20  21
ENDBRANCH   1  20
TORSDOF 16
ENDMDL
