MODEL 1
REMARK VINA RESULT:     -11.7      0.000      0.000
REMARK SMILES O=C(Cc1cccc(-c2ccn(C(F)F)c(=O)c2)c1)NCCCNC(=O)c1ccc(-c2c3nc(c(-c4c(F)cc(S(=O)(=O)[O-])cc4F)c4ccc([nH]4)c(-c4c(F)cc(S(=O)(=O)[O-])cc4F)c4nc(c(-c5c(F)cc(S(=O)(=O)[O-])cc5F)c5ccc2[nH]5)C=C4)C=C3)cc1
REMARK SMILES IDX 22 1 21 2 20 3 1 4 2 5 3 7 4 8 5 9 19 10 6 11 8 12 7 13 9 14
REMARK SMILES IDX 10 15 18 16 11 17 16 18 12 19 17 20 13 21 14 22 15 23 23 24
REMARK SMILES IDX 24 25 25 26 26 28 27 29 28 30 92 31 29 32 91 33 30 34 31 35
REMARK SMILES IDX 32 36 85 37 33 38 90 39 84 40 86 41 34 42 89 43 83 44 82 45
REMARK SMILES IDX 35 47 69 48 48 49 68 50 49 51 52 52 67 53 87 54 50 55 51 56
REMARK SMILES IDX 66 58 88 59 53 60 36 61 37 62 46 63 38 64 39 65 45 66 47 67
REMARK SMILES IDX 40 68 41 69 42 70 43 71 44 72 70 73 71 74 80 75 72 76 73 77
REMARK SMILES IDX 79 78 81 79 74 80 75 81 76 82 77 83 78 84 54 85 55 86 64 87
REMARK SMILES IDX 56 88 57 89 63 90 65 91 58 92 59 93 60 94 61 95 62 96
REMARK H PARENT 20 6 24 27 86 46 52 57
REMARK Flexibility Score: inf
ROOT
ATOM      1  C   UNL A   1      44.975  23.744  27.833  1.00  0.00     0.042 C 
ENDROOT
BRANCH   1   2
ATOM      2  C   UNL A   1      44.624  22.500  27.030  1.00  0.00     0.117 C 
BRANCH   2   3
ATOM      3  N   UNL A   1      43.248  22.085  27.211  1.00  0.00    -0.356 N 
ATOM      4  O   UNL A   1      42.617  22.315  25.011  1.00  0.00    -0.275 OA
ATOM      5  C   UNL A   1      42.363  21.957  26.158  1.00  0.00     0.224 C 
ATOM      6  H   UNL A   1      42.931  21.886  28.120  1.00  0.00     0.163 HD
BRANCH   5   7
ATOM      7  C   UNL A   1      41.028  21.322  26.532  1.00  0.00     0.135 C 
BRANCH   7   8
ATOM      8  C   UNL A   1      39.836  22.251  26.401  1.00  0.00    -0.038 A 
ATOM      9  C   UNL A   1      39.897  23.553  26.910  1.00  0.00     0.004 A 
ATOM     10  C   UNL A   1      38.659  21.839  25.759  1.00  0.00     0.013 A 
ATOM     11  C   UNL A   1      38.787  24.400  26.825  1.00  0.00     0.001 A 
ATOM     12  C   UNL A   1      37.527  22.663  25.709  1.00  0.00    -0.018 A 
ATOM     13  C   UNL A   1      37.599  23.952  26.240  1.00  0.00     0.009 A 
BRANCH  12  14
ATOM     14  C   UNL A   1      36.286  22.106  25.145  1.00  0.00    -0.011 A 
ATOM     15  C   UNL A   1      35.210  22.960  24.677  1.00  0.00     0.027 A 
ATOM     16  C   UNL A   1      36.111  20.774  25.146  1.00  0.00     0.080 A 
ATOM     17  C   UNL A   1      34.036  22.438  24.312  1.00  0.00     0.095 A 
ATOM     18  C   UNL A   1      34.815  20.176  24.715  1.00  0.00     0.255 A 
ATOM     19  N   UNL A   1      33.827  21.073  24.340  1.00  0.00    -0.258 N 
ATOM     20  O   UNL A   1      34.699  18.954  24.738  1.00  0.00    -0.269 OA
BRANCH  19  21
ATOM     21  C   UNL A   1      32.538  20.528  24.001  1.00  0.00     0.451 C 
ATOM     22  F   UNL A   1      31.680  20.598  25.048  1.00  0.00    -0.185 F 
ATOM     23  F   UNL A   1      31.987  21.204  22.962  1.00  0.00    -0.185 F 
ENDBRANCH  19  21
ENDBRANCH  12  14
ENDBRANCH   7   8
ENDBRANCH   5   7
ENDBRANCH   2   3
ENDBRANCH   1   2
BRANCH   1  24
ATOM     24  C   UNL A   1      45.095  25.023  27.011  1.00  0.00     0.118 C 
BRANCH  24  25
ATOM     25  N   UNL A   1      44.089  25.133  25.965  1.00  0.00    -0.352 N 
ATOM     26  C   UNL A   1      42.884  25.795  25.957  1.00  0.00     0.251 C 
ATOM     27  H   UNL A   1      44.305  24.658  25.131  1.00  0.00     0.163 HD
ATOM     28  O   UNL A   1      42.132  25.636  24.997  1.00  0.00    -0.269 OA
BRANCH  26  29
ATOM     29  C   UNL A   1      42.472  26.663  27.086  1.00  0.00     0.039 A 
ATOM     30  C   UNL A   1      41.684  26.109  28.099  1.00  0.00     0.014 A 
ATOM     31  C   UNL A   1      42.822  28.015  27.149  1.00  0.00     0.014 A 
ATOM     32  C   UNL A   1      41.302  26.890  29.194  1.00  0.00     0.010 A 
ATOM     33  C   UNL A   1      42.512  28.770  28.282  1.00  0.00     0.010 A 
ATOM     34  C   UNL A   1      41.743  28.219  29.317  1.00  0.00    -0.014 A 
BRANCH  34  35
ATOM     35  C   UNL A   1      41.413  29.017  30.531  1.00  0.00     0.031 A 
ATOM     36  C   UNL A   1      42.237  28.895  31.787  1.00  0.00     0.074 A 
ATOM     37  C   UNL A   1      40.348  29.843  30.507  1.00  0.00     0.049 A 
ATOM     38  N   UNL A   1      42.114  29.543  32.919  1.00  0.00    -0.248 NA
ATOM     39  C   UNL A   1      43.321  27.901  31.784  1.00  0.00     0.031 C 
ATOM     40  C   UNL A   1      39.428  30.002  29.378  1.00  0.00     0.029 A 
ATOM     41  N   UNL A   1      39.859  30.710  31.453  1.00  0.00    -0.354 N 
ATOM     42  C   UNL A   1      43.100  29.037  33.759  1.00  0.00     0.074 A 
ATOM     43  C   UNL A   1      43.771  27.984  33.029  1.00  0.00     0.031 C 
ATOM     44  C   UNL A   1      38.516  30.940  29.679  1.00  0.00     0.029 A 
ATOM     45  C   UNL A   1      38.760  31.425  31.034  1.00  0.00     0.049 A 
ATOM     46  H   UNL A   1      40.257  30.812  32.348  1.00  0.00     0.167 HD
ATOM     47  C   UNL A   1      43.435  29.430  35.013  1.00  0.00     0.037 A 
ATOM     48  C   UNL A   1      38.035  32.370  31.663  1.00  0.00     0.037 A 
ATOM     49  C   UNL A   1      42.771  30.489  35.733  1.00  0.00     0.049 A 
ATOM     50  C   UNL A   1      38.436  32.799  33.048  1.00  0.00     0.074 A 
ATOM     51  C   UNL A   1      43.070  30.998  36.985  1.00  0.00     0.029 A 
ATOM     52  N   UNL A   1      41.671  31.197  35.270  1.00  0.00    -0.354 N 
ATOM     53  N   UNL A   1      39.422  32.363  33.796  1.00  0.00    -0.248 NA
ATOM     54  C   UNL A   1      37.635  33.863  33.668  1.00  0.00     0.031 C 
ATOM     55  C   UNL A   1      42.122  31.976  37.301  1.00  0.00     0.029 A 
ATOM     56  C   UNL A   1      41.267  32.122  36.220  1.00  0.00     0.049 A 
ATOM     57  H   UNL A   1      41.240  31.062  34.394  1.00  0.00     0.167 HD
ATOM     58  C   UNL A   1      39.375  33.118  34.963  1.00  0.00     0.074 A 
ATOM     59  C   UNL A   1      38.280  34.053  34.810  1.00  0.00     0.031 C 
ATOM     60  C   UNL A   1      40.170  33.045  36.061  1.00  0.00     0.037 A 
BRANCH  47  61
ATOM     61  C   UNL A   1      44.578  28.716  35.689  1.00  0.00     0.058 A 
ATOM     62  C   UNL A   1      44.365  27.610  36.528  1.00  0.00     0.135 A 
ATOM     63  C   UNL A   1      45.905  29.115  35.464  1.00  0.00     0.135 A 
ATOM     64  F   UNL A   1      43.116  27.191  36.792  1.00  0.00    -0.206 F 
ATOM     65  C   UNL A   1      45.421  26.945  37.142  1.00  0.00     0.059 A 
ATOM     66  C   UNL A   1      46.980  28.446  36.042  1.00  0.00     0.059 A 
ATOM     67  F   UNL A   1      46.170  30.165  34.671  1.00  0.00    -0.206 F 
ATOM     68  C   UNL A   1      46.727  27.371  36.893  1.00  0.00     0.060 A 
BRANCH  68  69
ATOM     69  S   UNL A   1      48.086  26.493  37.694  1.00  0.00     0.124 S 
ATOM     70  O   UNL A   1      49.220  26.897  36.867  1.00  0.00    -0.237 OA
ATOM     71  O   UNL A   1      48.060  27.045  39.045  1.00  0.00    -0.237 OA
ATOM     72  O   UNL A   1      47.699  25.091  37.584  1.00  0.00    -0.744 OA
ENDBRANCH  68  69
ENDBRANCH  47  61
BRANCH  48  73
ATOM     73  C   UNL A   1      36.876  32.998  30.974  1.00  0.00     0.058 A 
ATOM     74  C   UNL A   1      35.557  32.663  31.319  1.00  0.00     0.135 A 
ATOM     75  C   UNL A   1      37.061  33.952  29.961  1.00  0.00     0.135 A 
ATOM     76  F   UNL A   1      35.326  31.753  32.277  1.00  0.00    -0.206 F 
ATOM     77  C   UNL A   1      34.465  33.234  30.671  1.00  0.00     0.059 A 
ATOM     78  C   UNL A   1      35.985  34.560  29.321  1.00  0.00     0.059 A 
ATOM     79  F   UNL A   1      38.301  34.323  29.606  1.00  0.00    -0.206 F 
ATOM     80  C   UNL A   1      34.691  34.185  29.675  1.00  0.00     0.060 A 
BRANCH  80  81
ATOM     81  S   UNL A   1      33.267  34.954  28.875  1.00  0.00     0.124 S 
ATOM     82  O   UNL A   1      32.420  35.270  30.020  1.00  0.00    -0.237 OA
ATOM     83  O   UNL A   1      33.876  36.094  28.196  1.00  0.00    -0.237 OA
ATOM     84  O   UNL A   1      32.769  33.902  27.993  1.00  0.00    -0.744 OA
ENDBRANCH  80  81
ENDBRANCH  48  73
BRANCH  60  85
ATOM     85  C   UNL A   1      39.901  34.029  37.169  1.00  0.00     0.058 A 
ATOM     86  C   UNL A   1      40.546  35.277  37.230  1.00  0.00     0.135 A 
ATOM     87  C   UNL A   1      38.983  33.721  38.186  1.00  0.00     0.135 A 
ATOM     88  F   UNL A   1      41.434  35.624  36.284  1.00  0.00    -0.206 F 
ATOM     89  C   UNL A   1      40.333  36.156  38.286  1.00  0.00     0.059 A 
ATOM     90  C   UNL A   1      38.726  34.601  39.233  1.00  0.00     0.059 A 
ATOM     91  F   UNL A   1      38.324  32.552  38.171  1.00  0.00    -0.206 F 
ATOM     92  C   UNL A   1      39.426  35.805  39.287  1.00  0.00     0.060 A 
BRANCH  92  93
ATOM     93  S   UNL A   1      39.171  36.946  40.663  1.00  0.00     0.124 S 
ATOM     94  O   UNL A   1      38.574  36.068  41.665  1.00  0.00    -0.237 OA
ATOM     95  O   UNL A   1      40.527  37.401  40.948  1.00  0.00    -0.237 OA
ATOM     96  O   UNL A   1      38.280  37.958  40.106  1.00  0.00    -0.744 OA
ENDBRANCH  92  93
ENDBRANCH  60  85
ENDBRANCH  34  35
ENDBRANCH  26  29
ENDBRANCH  24  25
ENDBRANCH   1  24
TORSDOF 16
ENDMDL
MODEL 2
REMARK VINA RESULT:     -11.5      4.858     11.582
REMARK SMILES O=C(Cc1cccc(-c2ccn(C(F)F)c(=O)c2)c1)NCCCNC(=O)c1ccc(-c2c3nc(c(-c4c(F)cc(S(=O)(=O)[O-])cc4F)c4ccc([nH]4)c(-c4c(F)cc(S(=O)(=O)[O-])cc4F)c4nc(c(-c5c(F)cc(S(=O)(=O)[O-])cc5F)c5ccc2[nH]5)C=C4)C=C3)cc1
REMARK SMILES IDX 22 1 21 2 20 3 1 4 2 5 3 7 4 8 5 9 19 10 6 11 8 12 7 13 9 14
REMARK SMILES IDX 10 15 18 16 11 17 16 18 12 19 17 20 13 21 14 22 15 23 23 24
REMARK SMILES IDX 24 25 25 26 26 28 27 29 28 30 92 31 29 32 91 33 30 34 31 35
REMARK SMILES IDX 32 36 85 37 33 38 90 39 84 40 86 41 34 42 89 43 83 44 82 45
REMARK SMILES IDX 35 47 69 48 48 49 68 50 49 51 52 52 67 53 87 54 50 55 51 56
REMARK SMILES IDX 66 58 88 59 53 60 36 61 37 62 46 63 38 64 39 65 45 66 47 67
REMARK SMILES IDX 40 68 41 69 42 70 43 71 44 72 70 73 71 74 80 75 72 76 73 77
REMARK SMILES IDX 79 78 81 79 74 80 75 81 76 82 77 83 78 84 54 85 55 86 64 87
REMARK SMILES IDX 56 88 57 89 63 90 65 91 58 92 59 93 60 94 61 95 62 96
REMARK H PARENT 20 6 24 27 86 46 52 57
REMARK Flexibility Score: inf
ROOT
ATOM      1  C   UNL A   1      33.827  33.953  28.713  1.00  0.00     0.042 C 
ENDROOT
BRANCH   1   2
ATOM      2  C   UNL A   1      34.374  34.347  30.078  1.00  0.00     0.117 C 
BRANCH   2   3
ATOM      3  N   UNL A   1      35.166  33.299  30.688  1.00  0.00    -0.356 N 
ATOM      4  O   UNL A   1      33.898  33.095  32.597  1.00  0.00    -0.275 OA
ATOM      5  C   UNL A   1      34.816  32.700  31.884  1.00  0.00     0.224 C 
ATOM      6  H   UNL A   1      35.985  33.000  30.233  1.00  0.00     0.163 HD
BRANCH   5   7
ATOM      7  C   UNL A   1      35.668  31.491  32.254  1.00  0.00     0.135 C 
BRANCH   7   8
ATOM      8  C   UNL A   1      37.004  31.836  32.883  1.00  0.00    -0.038 A 
ATOM      9  C   UNL A   1      37.365  33.174  33.083  1.00  0.00     0.004 A 
ATOM     10  C   UNL A   1      37.897  30.835  33.293  1.00  0.00     0.013 A 
ATOM     11  C   UNL A   1      38.612  33.497  33.628  1.00  0.00     0.001 A 
ATOM     12  C   UNL A   1      39.165  31.150  33.798  1.00  0.00    -0.018 A 
ATOM     13  C   UNL A   1      39.517  32.489  33.971  1.00  0.00     0.009 A 
BRANCH  12  14
ATOM     14  C   UNL A   1      40.098  30.043  34.070  1.00  0.00    -0.011 A 
ATOM     15  C   UNL A   1      40.315  28.975  33.111  1.00  0.00     0.027 A 
ATOM     16  C   UNL A   1      40.695  29.975  35.272  1.00  0.00     0.080 A 
ATOM     17  C   UNL A   1      41.045  27.904  33.438  1.00  0.00     0.095 A 
ATOM     18  C   UNL A   1      41.536  28.800  35.639  1.00  0.00     0.255 A 
ATOM     19  N   UNL A   1      41.637  27.802  34.682  1.00  0.00    -0.258 N 
ATOM     20  O   UNL A   1      42.057  28.778  36.751  1.00  0.00    -0.269 OA
BRANCH  19  21
ATOM     21  C   UNL A   1      42.372  26.617  35.041  1.00  0.00     0.451 C 
ATOM     22  F   UNL A   1      41.542  25.567  35.255  1.00  0.00    -0.185 F 
ATOM     23  F   UNL A   1      43.241  26.271  34.059  1.00  0.00    -0.185 F 
ENDBRANCH  19  21
ENDBRANCH  12  14
ENDBRANCH   7   8
ENDBRANCH   5   7
ENDBRANCH   2   3
ENDBRANCH   1   2
BRANCH   1  24
ATOM     24  C   UNL A   1      34.615  32.859  28.000  1.00  0.00     0.118 C 
BRANCH  24  25
ATOM     25  N   UNL A   1      33.843  31.647  27.771  1.00  0.00    -0.352 N 
ATOM     26  C   UNL A   1      34.241  30.332  27.740  1.00  0.00     0.251 C 
ATOM     27  H   UNL A   1      32.882  31.792  27.612  1.00  0.00     0.163 HD
ATOM     28  O   UNL A   1      33.426  29.479  27.393  1.00  0.00    -0.269 OA
BRANCH  26  29
ATOM     29  C   UNL A   1      35.627  29.936  28.088  1.00  0.00     0.039 A 
ATOM     30  C   UNL A   1      36.612  30.023  27.099  1.00  0.00     0.014 A 
ATOM     31  C   UNL A   1      35.966  29.456  29.356  1.00  0.00     0.014 A 
ATOM     32  C   UNL A   1      37.935  29.686  27.399  1.00  0.00     0.010 A 
ATOM     33  C   UNL A   1      37.301  29.202  29.678  1.00  0.00     0.010 A 
ATOM     34  C   UNL A   1      38.302  29.308  28.702  1.00  0.00    -0.014 A 
BRANCH  34  35
ATOM     35  C   UNL A   1      39.728  29.043  29.040  1.00  0.00     0.031 A 
ATOM     36  C   UNL A   1      40.373  27.722  28.707  1.00  0.00     0.074 A 
ATOM     37  C   UNL A   1      40.443  29.996  29.673  1.00  0.00     0.049 A 
ATOM     38  N   UNL A   1      41.612  27.340  28.894  1.00  0.00    -0.248 NA
ATOM     39  C   UNL A   1      39.514  26.689  28.111  1.00  0.00     0.031 C 
ATOM     40  C   UNL A   1      39.919  31.291  30.115  1.00  0.00     0.029 A 
ATOM     41  N   UNL A   1      41.762  30.029  30.052  1.00  0.00    -0.354 N 
ATOM     42  C   UNL A   1      41.679  26.027  28.441  1.00  0.00     0.074 A 
ATOM     43  C   UNL A   1      40.343  25.657  28.030  1.00  0.00     0.031 C 
ATOM     44  C   UNL A   1      40.914  32.007  30.662  1.00  0.00     0.029 A 
ATOM     45  C   UNL A   1      42.138  31.213  30.645  1.00  0.00     0.049 A 
ATOM     46  H   UNL A   1      42.382  29.277  29.912  1.00  0.00     0.167 HD
ATOM     47  C   UNL A   1      42.760  25.211  28.350  1.00  0.00     0.037 A 
ATOM     48  C   UNL A   1      43.334  31.618  31.117  1.00  0.00     0.037 A 
ATOM     49  C   UNL A   1      44.093  25.588  28.750  1.00  0.00     0.049 A 
ATOM     50  C   UNL A   1      44.520  30.701  30.991  1.00  0.00     0.074 A 
ATOM     51  C   UNL A   1      45.262  24.854  28.648  1.00  0.00     0.029 A 
ATOM     52  N   UNL A   1      44.436  26.800  29.334  1.00  0.00    -0.354 N 
ATOM     53  N   UNL A   1      44.579  29.491  30.487  1.00  0.00    -0.248 NA
ATOM     54  C   UNL A   1      45.806  31.212  31.482  1.00  0.00     0.031 C 
ATOM     55  C   UNL A   1      46.300  25.599  29.217  1.00  0.00     0.029 A 
ATOM     56  C   UNL A   1      45.792  26.824  29.618  1.00  0.00     0.049 A 
ATOM     57  H   UNL A   1      43.806  27.534  29.521  1.00  0.00     0.167 HD
ATOM     58  C   UNL A   1      45.914  29.108  30.576  1.00  0.00     0.074 A 
ATOM     59  C   UNL A   1      46.628  30.224  31.160  1.00  0.00     0.031 C 
ATOM     60  C   UNL A   1      46.494  27.938  30.206  1.00  0.00     0.037 A 
BRANCH  47  61
ATOM     61  C   UNL A   1      42.548  23.828  27.789  1.00  0.00     0.058 A 
ATOM     62  C   UNL A   1      42.474  23.595  26.406  1.00  0.00     0.135 A 
ATOM     63  C   UNL A   1      42.462  22.715  28.642  1.00  0.00     0.135 A 
ATOM     64  F   UNL A   1      42.536  24.622  25.543  1.00  0.00    -0.206 F 
ATOM     65  C   UNL A   1      42.291  22.316  25.890  1.00  0.00     0.059 A 
ATOM     66  C   UNL A   1      42.311  21.423  28.147  1.00  0.00     0.059 A 
ATOM     67  F   UNL A   1      42.528  22.876  29.973  1.00  0.00    -0.206 F 
ATOM     68  C   UNL A   1      42.211  21.235  26.769  1.00  0.00     0.060 A 
BRANCH  68  69
ATOM     69  S   UNL A   1      41.979  19.582  26.082  1.00  0.00     0.124 S 
ATOM     70  O   UNL A   1      40.542  19.574  25.823  1.00  0.00    -0.237 OA
ATOM     71  O   UNL A   1      42.836  19.612  24.901  1.00  0.00    -0.237 OA
ATOM     72  O   UNL A   1      42.426  18.700  27.155  1.00  0.00    -0.744 OA
ENDBRANCH  68  69
ENDBRANCH  47  61
BRANCH  48  73
ATOM     73  C   UNL A   1      43.475  32.971  31.720  1.00  0.00     0.058 A 
ATOM     74  C   UNL A   1      43.301  33.173  33.098  1.00  0.00     0.135 A 
ATOM     75  C   UNL A   1      43.793  34.089  30.933  1.00  0.00     0.135 A 
ATOM     76  F   UNL A   1      42.991  32.138  33.893  1.00  0.00    -0.206 F 
ATOM     77  C   UNL A   1      43.416  34.436  33.671  1.00  0.00     0.059 A 
ATOM     78  C   UNL A   1      43.944  35.356  31.487  1.00  0.00     0.059 A 
ATOM     79  F   UNL A   1      43.988  33.947  29.612  1.00  0.00    -0.206 F 
ATOM     80  C   UNL A   1      43.742  35.521  32.856  1.00  0.00     0.060 A 
BRANCH  80  81
ATOM     81  S   UNL A   1      43.936  37.147  33.617  1.00  0.00     0.124 S 
ATOM     82  O   UNL A   1      42.729  37.236  34.432  1.00  0.00    -0.237 OA
ATOM     83  O   UNL A   1      45.191  36.996  34.346  1.00  0.00    -0.237 OA
ATOM     84  O   UNL A   1      43.991  38.049  32.470  1.00  0.00    -0.744 OA
ENDBRANCH  80  81
ENDBRANCH  48  73
BRANCH  60  85
ATOM     85  C   UNL A   1      47.984  27.824  30.392  1.00  0.00     0.058 A 
ATOM     86  C   UNL A   1      48.554  27.404  31.605  1.00  0.00     0.135 A 
ATOM     87  C   UNL A   1      48.858  28.141  29.338  1.00  0.00     0.135 A 
ATOM     88  F   UNL A   1      47.767  27.089  32.647  1.00  0.00    -0.206 F 
ATOM     89  C   UNL A   1      49.933  27.356  31.785  1.00  0.00     0.059 A 
ATOM     90  C   UNL A   1      50.240  28.065  29.483  1.00  0.00     0.059 A 
ATOM     91  F   UNL A   1      48.371  28.532  28.149  1.00  0.00    -0.206 F 
ATOM     92  C   UNL A   1      50.767  27.695  30.719  1.00  0.00     0.060 A 
BRANCH  92  93
ATOM     93  S   UNL A   1      52.555  27.647  30.969  1.00  0.00     0.124 S 
ATOM     94  O   UNL A   1      52.696  28.386  32.219  1.00  0.00    -0.237 OA
ATOM     95  O   UNL A   1      52.821  26.214  31.045  1.00  0.00    -0.237 OA
ATOM     96  O   UNL A   1      53.082  28.314  29.783  1.00  0.00    -0.744 OA
ENDBRANCH  92  93
ENDBRANCH  60  85
ENDBRANCH  34  35
ENDBRANCH  26  29
ENDBRANCH  24  25
ENDBRANCH   1  24
TORSDOF 16
ENDMDL
MODEL 3
REMARK VINA RESULT:     -11.5      6.421     12.344
REMARK SMILES O=C(Cc1cccc(-c2ccn(C(F)F)c(=O)c2)c1)NCCCNC(=O)c1ccc(-c2c3nc(c(-c4c(F)cc(S(=O)(=O)[O-])cc4F)c4ccc([nH]4)c(-c4c(F)cc(S(=O)(=O)[O-])cc4F)c4nc(c(-c5c(F)cc(S(=O)(=O)[O-])cc5F)c5ccc2[nH]5)C=C4)C=C3)cc1
REMARK SMILES IDX 22 1 21 2 20 3 1 4 2 5 3 7 4 8 5 9 19 10 6 11 8 12 7 13 9 14
REMARK SMILES IDX 10 15 18 16 11 17 16 18 12 19 17 20 13 21 14 22 15 23 23 24
REMARK SMILES IDX 24 25 25 26 26 28 27 29 28 30 92 31 29 32 91 33 30 34 31 35
REMARK SMILES IDX 32 36 85 37 33 38 90 39 84 40 86 41 34 42 89 43 83 44 82 45
REMARK SMILES IDX 35 47 69 48 48 49 68 50 49 51 52 52 67 53 87 54 50 55 51 56
REMARK SMILES IDX 66 58 88 59 53 60 36 61 37 62 46 63 38 64 39 65 45 66 47 67
REMARK SMILES IDX 40 68 41 69 42 70 43 71 44 72 70 73 71 74 80 75 72 76 73 77
REMARK SMILES IDX 79 78 81 79 74 80 75 81 76 82 77 83 78 84 54 85 55 86 64 87
REMARK SMILES IDX 56 88 57 89 63 90 65 91 58 92 59 93 60 94 61 95 62 96
REMARK H PARENT 20 6 24 27 86 46 52 57
REMARK Flexibility Score: inf
ROOT
ATOM      1  C   UNL A   1      35.653  32.248  28.003  1.00  0.00     0.042 C 
ENDROOT
BRANCH   1   2
ATOM      2  C   UNL A   1      34.132  32.187  27.976  1.00  0.00     0.117 C 
BRANCH   2   3
ATOM      3  N   UNL A   1      33.627  30.834  27.869  1.00  0.00    -0.356 N 
ATOM      4  O   UNL A   1      31.740  31.356  26.662  1.00  0.00    -0.275 OA
ATOM      5  C   UNL A   1      32.491  30.516  27.149  1.00  0.00     0.224 C 
ATOM      6  H   UNL A   1      34.112  30.111  28.327  1.00  0.00     0.163 HD
BRANCH   5   7
ATOM      7  C   UNL A   1      32.241  29.020  26.997  1.00  0.00     0.135 C 
BRANCH   7   8
ATOM      8  C   UNL A   1      32.803  28.418  25.724  1.00  0.00    -0.038 A 
ATOM      9  C   UNL A   1      32.860  29.177  24.550  1.00  0.00     0.004 A 
ATOM     10  C   UNL A   1      33.291  27.103  25.693  1.00  0.00     0.013 A 
ATOM     11  C   UNL A   1      33.343  28.614  23.364  1.00  0.00     0.001 A 
ATOM     12  C   UNL A   1      33.733  26.516  24.501  1.00  0.00    -0.018 A 
ATOM     13  C   UNL A   1      33.764  27.281  23.335  1.00  0.00     0.009 A 
BRANCH  12  14
ATOM     14  C   UNL A   1      34.094  25.088  24.522  1.00  0.00    -0.011 A 
ATOM     15  C   UNL A   1      33.402  24.114  23.698  1.00  0.00     0.027 A 
ATOM     16  C   UNL A   1      35.026  24.664  25.392  1.00  0.00     0.080 A 
ATOM     17  C   UNL A   1      33.640  22.807  23.843  1.00  0.00     0.095 A 
ATOM     18  C   UNL A   1      35.322  23.211  25.545  1.00  0.00     0.255 A 
ATOM     19  N   UNL A   1      34.570  22.352  24.758  1.00  0.00    -0.258 N 
ATOM     20  O   UNL A   1      36.178  22.870  26.356  1.00  0.00    -0.269 OA
BRANCH  19  21
ATOM     21  C   UNL A   1      34.773  20.940  24.946  1.00  0.00     0.451 C 
ATOM     22  F   UNL A   1      33.833  20.214  24.293  1.00  0.00    -0.185 F 
ATOM     23  F   UNL A   1      35.990  20.560  24.482  1.00  0.00    -0.185 F 
ENDBRANCH  19  21
ENDBRANCH  12  14
ENDBRANCH   7   8
ENDBRANCH   5   7
ENDBRANCH   2   3
ENDBRANCH   1   2
BRANCH   1  24
ATOM     24  C   UNL A   1      36.257  32.546  29.372  1.00  0.00     0.118 C 
BRANCH  24  25
ATOM     25  N   UNL A   1      35.966  31.523  30.365  1.00  0.00    -0.352 N 
ATOM     26  C   UNL A   1      36.672  30.397  30.715  1.00  0.00     0.251 C 
ATOM     27  H   UNL A   1      35.130  31.659  30.866  1.00  0.00     0.163 HD
ATOM     28  O   UNL A   1      36.159  29.601  31.499  1.00  0.00    -0.269 OA
BRANCH  26  29
ATOM     29  C   UNL A   1      38.013  30.119  30.147  1.00  0.00     0.039 A 
ATOM     30  C   UNL A   1      39.108  30.071  31.016  1.00  0.00     0.014 A 
ATOM     31  C   UNL A   1      38.215  29.936  28.776  1.00  0.00     0.014 A 
ATOM     32  C   UNL A   1      40.382  29.783  30.520  1.00  0.00     0.010 A 
ATOM     33  C   UNL A   1      39.472  29.565  28.294  1.00  0.00     0.010 A 
ATOM     34  C   UNL A   1      40.573  29.490  29.158  1.00  0.00    -0.014 A 
BRANCH  34  35
ATOM     35  C   UNL A   1      41.915  29.089  28.651  1.00  0.00     0.031 A 
ATOM     36  C   UNL A   1      43.041  30.088  28.561  1.00  0.00     0.074 A 
ATOM     37  C   UNL A   1      42.116  27.818  28.248  1.00  0.00     0.049 A 
ATOM     38  N   UNL A   1      44.280  29.901  28.180  1.00  0.00    -0.248 NA
ATOM     39  C   UNL A   1      42.731  31.481  28.917  1.00  0.00     0.031 C 
ATOM     40  C   UNL A   1      41.091  26.771  28.219  1.00  0.00     0.029 A 
ATOM     41  N   UNL A   1      43.245  27.185  27.792  1.00  0.00    -0.354 N 
ATOM     42  C   UNL A   1      44.895  31.146  28.251  1.00  0.00     0.074 A 
ATOM     43  C   UNL A   1      43.876  32.093  28.648  1.00  0.00     0.031 C 
ATOM     44  C   UNL A   1      41.649  25.619  27.812  1.00  0.00     0.029 A 
ATOM     45  C   UNL A   1      43.059  25.850  27.517  1.00  0.00     0.049 A 
ATOM     46  H   UNL A   1      44.109  27.643  27.673  1.00  0.00     0.167 HD
ATOM     47  C   UNL A   1      46.194  31.469  28.032  1.00  0.00     0.037 A 
ATOM     48  C   UNL A   1      43.925  24.913  27.082  1.00  0.00     0.037 A 
ATOM     49  C   UNL A   1      47.209  30.519  27.648  1.00  0.00     0.049 A 
ATOM     50  C   UNL A   1      45.363  25.293  26.861  1.00  0.00     0.074 A 
ATOM     51  C   UNL A   1      48.562  30.736  27.456  1.00  0.00     0.029 A 
ATOM     52  N   UNL A   1      46.984  29.174  27.392  1.00  0.00    -0.354 N 
ATOM     53  N   UNL A   1      45.943  26.461  27.009  1.00  0.00    -0.248 NA
ATOM     54  C   UNL A   1      46.271  24.221  26.429  1.00  0.00     0.031 C 
ATOM     55  C   UNL A   1      49.145  29.537  27.032  1.00  0.00     0.029 A 
ATOM     56  C   UNL A   1      48.167  28.555  27.021  1.00  0.00     0.049 A 
ATOM     57  H   UNL A   1      46.110  28.725  27.461  1.00  0.00     0.167 HD
ATOM     58  C   UNL A   1      47.287  26.257  26.716  1.00  0.00     0.074 A 
ATOM     59  C   UNL A   1      47.437  24.850  26.405  1.00  0.00     0.031 C 
ATOM     60  C   UNL A   1      48.305  27.155  26.707  1.00  0.00     0.037 A 
BRANCH  47  61
ATOM     61  C   UNL A   1      46.598  32.910  28.209  1.00  0.00     0.058 A 
ATOM     62  C   UNL A   1      47.077  33.398  29.436  1.00  0.00     0.135 A 
ATOM     63  C   UNL A   1      46.546  33.806  27.128  1.00  0.00     0.135 A 
ATOM     64  F   UNL A   1      47.136  32.592  30.508  1.00  0.00    -0.206 F 
ATOM     65  C   UNL A   1      47.460  34.726  29.594  1.00  0.00     0.059 A 
ATOM     66  C   UNL A   1      46.954  35.131  27.255  1.00  0.00     0.059 A 
ATOM     67  F   UNL A   1      46.098  33.396  25.932  1.00  0.00    -0.206 F 
ATOM     68  C   UNL A   1      47.395  35.586  28.496  1.00  0.00     0.060 A 
BRANCH  68  69
ATOM     69  S   UNL A   1      47.902  37.305  28.718  1.00  0.00     0.124 S 
ATOM     70  O   UNL A   1      48.993  37.165  29.677  1.00  0.00    -0.237 OA
ATOM     71  O   UNL A   1      48.292  37.691  27.365  1.00  0.00    -0.237 OA
ATOM     72  O   UNL A   1      46.698  37.952  29.229  1.00  0.00    -0.744 OA
ENDBRANCH  68  69
ENDBRANCH  47  61
BRANCH  48  73
ATOM     73  C   UNL A   1      43.460  23.517  26.862  1.00  0.00     0.058 A 
ATOM     74  C   UNL A   1      43.296  23.002  25.566  1.00  0.00     0.135 A 
ATOM     75  C   UNL A   1      43.177  22.665  27.942  1.00  0.00     0.135 A 
ATOM     76  F   UNL A   1      43.548  23.777  24.501  1.00  0.00    -0.206 F 
ATOM     77  C   UNL A   1      42.849  21.703  25.349  1.00  0.00     0.059 A 
ATOM     78  C   UNL A   1      42.759  21.352  27.749  1.00  0.00     0.059 A 
ATOM     79  F   UNL A   1      43.336  23.101  29.201  1.00  0.00    -0.206 F 
ATOM     80  C   UNL A   1      42.586  20.884  26.448  1.00  0.00     0.060 A 
BRANCH  80  81
ATOM     81  S   UNL A   1      42.052  19.184  26.153  1.00  0.00     0.124 S 
ATOM     82  O   UNL A   1      42.821  18.836  24.964  1.00  0.00    -0.237 OA
ATOM     83  O   UNL A   1      42.450  18.520  27.391  1.00  0.00    -0.237 OA
ATOM     84  O   UNL A   1      40.611  19.316  25.957  1.00  0.00    -0.744 OA
ENDBRANCH  80  81
ENDBRANCH  48  73
BRANCH  60  85
ATOM     85  C   UNL A   1      49.679  26.629  26.382  1.00  0.00     0.058 A 
ATOM     86  C   UNL A   1      50.180  26.613  25.069  1.00  0.00     0.135 A 
ATOM     87  C   UNL A   1      50.509  26.132  27.401  1.00  0.00     0.135 A 
ATOM     88  F   UNL A   1      49.429  27.075  24.055  1.00  0.00    -0.206 F 
ATOM     89  C   UNL A   1      51.427  26.074  24.771  1.00  0.00     0.059 A 
ATOM     90  C   UNL A   1      51.775  25.621  27.132  1.00  0.00     0.059 A 
ATOM     91  F   UNL A   1      50.091  26.138  28.677  1.00  0.00    -0.206 F 
ATOM     92  C   UNL A   1      52.215  25.574  25.810  1.00  0.00     0.060 A 
BRANCH  92  93
ATOM     93  S   UNL A   1      53.823  24.860  25.410  1.00  0.00     0.124 S 
ATOM     94  O   UNL A   1      54.247  25.697  24.292  1.00  0.00    -0.237 OA
ATOM     95  O   UNL A   1      54.564  25.041  26.654  1.00  0.00    -0.237 OA
ATOM     96  O   UNL A   1      53.506  23.476  25.072  1.00  0.00    -0.744 OA
ENDBRANCH  92  93
ENDBRANCH  60  85
ENDBRANCH  34  35
ENDBRANCH  26  29
ENDBRANCH  24  25
ENDBRANCH   1  24
TORSDOF 16
ENDMDL
