MODEL 1
REMARK VINA RESULT:     -12.6      0.000      0.000
REMARK SMILES Cc1cscc1-c1nnnn1C[C@@H](C)C(=O)NCCCNC(=O)c1ccc(-c2c3nc(c(-c4c(F)cc(S(=O)(=O)[O-])cc4F)c4ccc([nH]4)c(-c4c(F)cc(S(=O)(=O)[O-])cc4F)c4nc(c(-c5c(F)cc(S(=O)(=O)[O-])cc5F)c5ccc2[nH]5)C=C4)C=C3)cc1
REMARK SMILES IDX 19 1 18 2 17 3 15 4 16 5 13 7 14 8 12 9 11 10 7 11 8 12 9 13
REMARK SMILES IDX 10 14 6 15 1 16 2 17 3 18 4 19 5 20 20 21 21 22 22 23 23 25
REMARK SMILES IDX 24 26 25 27 89 28 26 29 88 30 27 31 28 32 29 33 82 34 30 35
REMARK SMILES IDX 87 36 81 37 83 38 31 39 86 40 80 41 79 42 32 44 66 45 45 46
REMARK SMILES IDX 65 47 46 48 49 49 64 50 84 51 47 52 48 53 63 55 85 56 50 57
REMARK SMILES IDX 33 58 34 59 43 60 35 61 36 62 42 63 44 64 37 65 38 66 39 67
REMARK SMILES IDX 40 68 41 69 67 70 68 71 77 72 69 73 70 74 76 75 78 76 71 77
REMARK SMILES IDX 72 78 73 79 74 80 75 81 51 82 52 83 61 84 53 85 54 86 60 87
REMARK SMILES IDX 62 88 55 89 56 90 57 91 58 92 59 93
REMARK H PARENT 17 6 21 24 83 43 49 54
REMARK Flexibility Score: inf
ROOT
ATOM      1  C   UNL A   1      37.035  22.605  24.444  1.00  0.00     0.042 C 
ENDROOT
BRANCH   1   2
ATOM      2  C   UNL A   1      35.510  22.458  24.377  1.00  0.00     0.117 C 
BRANCH   2   3
ATOM      3  N   UNL A   1      34.907  23.083  23.206  1.00  0.00    -0.356 N 
ATOM      4  C   UNL A   1      33.617  23.137  22.769  1.00  0.00     0.224 C 
ATOM      5  O   UNL A   1      33.372  23.831  21.781  1.00  0.00    -0.275 OA
ATOM      6  H   UNL A   1      35.548  23.554  22.625  1.00  0.00     0.163 HD
BRANCH   4   7
ATOM      7  C   UNL A   1      32.499  22.362  23.450  1.00  0.00     0.097 C 
ATOM      8  C   UNL A   1      32.158  21.093  22.674  1.00  0.00     0.020 C 
BRANCH   7   9
ATOM      9  C   UNL A   1      31.367  23.336  23.788  1.00  0.00     0.161 C 
BRANCH   9  10
ATOM     10  N   UNL A   1      31.108  23.586  25.180  1.00  0.00    -0.225 N 
ATOM     11  C   UNL A   1      31.319  24.716  25.920  1.00  0.00     0.183 A 
ATOM     12  N   UNL A   1      31.150  24.388  27.187  1.00  0.00    -0.108 NA
ATOM     13  N   UNL A   1      30.658  23.105  27.191  1.00  0.00    -0.023 NA
ATOM     14  N   UNL A   1      30.596  22.620  25.960  1.00  0.00    -0.045 NA
BRANCH  11  15
ATOM     15  C   UNL A   1      31.731  26.063  25.439  1.00  0.00     0.034 A 
ATOM     16  C   UNL A   1      34.347  25.806  25.484  1.00  0.00     0.046 C 
ATOM     17  C   UNL A   1      33.074  26.573  25.308  1.00  0.00    -0.029 A 
ATOM     18  C   UNL A   1      33.044  27.898  24.904  1.00  0.00     0.069 A 
ATOM     19  S   UNL A   1      31.464  28.474  24.605  1.00  0.00    -0.151 S 
ATOM     20  C   UNL A   1      30.781  26.964  25.009  1.00  0.00     0.077 A 
ENDBRANCH  11  15
ENDBRANCH   9  10
ENDBRANCH   7   9
ENDBRANCH   4   7
ENDBRANCH   2   3
ENDBRANCH   1   2
BRANCH   1  21
ATOM     21  C   UNL A   1      37.528  22.957  25.830  1.00  0.00     0.118 C 
BRANCH  21  22
ATOM     22  N   UNL A   1      38.641  22.114  26.284  1.00  0.00    -0.352 N 
ATOM     23  C   UNL A   1      39.900  22.509  26.729  1.00  0.00     0.251 C 
ATOM     24  H   UNL A   1      38.477  21.144  26.273  1.00  0.00     0.163 HD
ATOM     25  O   UNL A   1      40.825  21.722  26.769  1.00  0.00    -0.269 OA
BRANCH  23  26
ATOM     26  C   UNL A   1      40.072  23.915  27.142  1.00  0.00     0.039 A 
ATOM     27  C   UNL A   1      39.046  24.862  27.083  1.00  0.00     0.014 A 
ATOM     28  C   UNL A   1      41.298  24.241  27.694  1.00  0.00     0.014 A 
ATOM     29  C   UNL A   1      39.262  26.110  27.669  1.00  0.00     0.010 A 
ATOM     30  C   UNL A   1      41.382  25.313  28.526  1.00  0.00     0.010 A 
ATOM     31  C   UNL A   1      40.437  26.317  28.407  1.00  0.00    -0.014 A 
BRANCH  31  32
ATOM     32  C   UNL A   1      40.735  27.561  29.103  1.00  0.00     0.031 A 
ATOM     33  C   UNL A   1      41.813  28.378  28.496  1.00  0.00     0.074 A 
ATOM     34  C   UNL A   1      39.904  28.057  30.050  1.00  0.00     0.049 A 
ATOM     35  N   UNL A   1      42.993  28.614  28.965  1.00  0.00    -0.248 NA
ATOM     36  C   UNL A   1      41.610  28.876  27.125  1.00  0.00     0.031 C 
ATOM     37  C   UNL A   1      38.600  27.538  30.500  1.00  0.00     0.029 A 
ATOM     38  N   UNL A   1      39.995  29.226  30.732  1.00  0.00    -0.354 N 
ATOM     39  C   UNL A   1      43.589  29.493  28.065  1.00  0.00     0.074 A 
ATOM     40  C   UNL A   1      42.795  29.432  26.866  1.00  0.00     0.031 C 
ATOM     41  C   UNL A   1      37.932  28.499  31.172  1.00  0.00     0.029 A 
ATOM     42  C   UNL A   1      38.827  29.618  31.376  1.00  0.00     0.049 A 
ATOM     43  H   UNL A   1      40.825  29.755  30.768  1.00  0.00     0.167 HD
ATOM     44  C   UNL A   1      44.531  30.392  28.469  1.00  0.00     0.037 A 
ATOM     45  C   UNL A   1      38.612  30.792  32.016  1.00  0.00     0.037 A 
ATOM     46  C   UNL A   1      45.024  30.066  29.786  1.00  0.00     0.049 A 
ATOM     47  C   UNL A   1      39.953  31.360  32.321  1.00  0.00     0.074 A 
ATOM     48  C   UNL A   1      45.640  28.961  30.343  1.00  0.00     0.029 A 
ATOM     49  N   UNL A   1      44.541  30.794  30.848  1.00  0.00    -0.354 N 
ATOM     50  N   UNL A   1      40.809  30.801  33.135  1.00  0.00    -0.248 NA
ATOM     51  C   UNL A   1      40.527  32.284  31.356  1.00  0.00     0.031 C 
ATOM     52  C   UNL A   1      45.061  28.832  31.640  1.00  0.00     0.029 A 
ATOM     53  C   UNL A   1      44.186  29.903  31.831  1.00  0.00     0.049 A 
ATOM     54  H   UNL A   1      44.463  31.774  30.896  1.00  0.00     0.167 HD
ATOM     55  C   UNL A   1      42.048  30.974  32.529  1.00  0.00     0.074 A 
ATOM     56  C   UNL A   1      41.818  31.967  31.482  1.00  0.00     0.031 C 
ATOM     57  C   UNL A   1      43.071  30.090  32.738  1.00  0.00     0.037 A 
BRANCH  44  58
ATOM     58  C   UNL A   1      44.744  31.754  27.845  1.00  0.00     0.058 A 
ATOM     59  C   UNL A   1      45.950  32.017  27.162  1.00  0.00     0.135 A 
ATOM     60  C   UNL A   1      43.943  32.886  28.113  1.00  0.00     0.135 A 
ATOM     61  F   UNL A   1      46.795  31.019  26.856  1.00  0.00    -0.206 F 
ATOM     62  C   UNL A   1      46.364  33.312  26.842  1.00  0.00     0.059 A 
ATOM     63  C   UNL A   1      44.307  34.178  27.751  1.00  0.00     0.059 A 
ATOM     64  F   UNL A   1      42.815  32.817  28.828  1.00  0.00    -0.206 F 
ATOM     65  C   UNL A   1      45.540  34.387  27.157  1.00  0.00     0.060 A 
BRANCH  65  66
ATOM     66  S   UNL A   1      46.118  36.066  26.859  1.00  0.00     0.124 S 
ATOM     67  O   UNL A   1      44.867  36.814  26.908  1.00  0.00    -0.237 OA
ATOM     68  O   UNL A   1      47.034  36.273  27.974  1.00  0.00    -0.237 OA
ATOM     69  O   UNL A   1      46.748  35.974  25.546  1.00  0.00    -0.744 OA
ENDBRANCH  65  66
ENDBRANCH  44  58
BRANCH  45  70
ATOM     70  C   UNL A   1      37.358  31.590  32.055  1.00  0.00     0.058 A 
ATOM     71  C   UNL A   1      36.798  32.005  33.274  1.00  0.00     0.135 A 
ATOM     72  C   UNL A   1      36.839  32.200  30.893  1.00  0.00     0.135 A 
ATOM     73  F   UNL A   1      37.245  31.489  34.430  1.00  0.00    -0.206 F 
ATOM     74  C   UNL A   1      35.819  33.003  33.345  1.00  0.00     0.059 A 
ATOM     75  C   UNL A   1      35.857  33.189  30.937  1.00  0.00     0.059 A 
ATOM     76  F   UNL A   1      37.340  31.917  29.680  1.00  0.00    -0.206 F 
ATOM     77  C   UNL A   1      35.371  33.607  32.170  1.00  0.00     0.060 A 
BRANCH  77  78
ATOM     78  S   UNL A   1      34.249  35.023  32.269  1.00  0.00     0.124 S 
ATOM     79  O   UNL A   1      33.088  34.443  32.934  1.00  0.00    -0.237 OA
ATOM     80  O   UNL A   1      35.025  35.976  33.055  1.00  0.00    -0.237 OA
ATOM     81  O   UNL A   1      34.047  35.394  30.870  1.00  0.00    -0.744 OA
ENDBRANCH  77  78
ENDBRANCH  45  70
BRANCH  57  82
ATOM     82  C   UNL A   1      42.934  29.080  33.854  1.00  0.00     0.058 A 
ATOM     83  C   UNL A   1      43.192  29.351  35.211  1.00  0.00     0.135 A 
ATOM     84  C   UNL A   1      42.355  27.838  33.555  1.00  0.00     0.135 A 
ATOM     85  F   UNL A   1      43.647  30.546  35.601  1.00  0.00    -0.206 F 
ATOM     86  C   UNL A   1      42.920  28.419  36.216  1.00  0.00     0.059 A 
ATOM     87  C   UNL A   1      42.047  26.906  34.543  1.00  0.00     0.059 A 
ATOM     88  F   UNL A   1      42.025  27.539  32.287  1.00  0.00    -0.206 F 
ATOM     89  C   UNL A   1      42.344  27.197  35.872  1.00  0.00     0.060 A 
BRANCH  89  90
ATOM     90  S   UNL A   1      41.914  26.028  37.180  1.00  0.00     0.124 S 
ATOM     91  O   UNL A   1      42.894  26.349  38.213  1.00  0.00    -0.237 OA
ATOM     92  O   UNL A   1      40.531  26.385  37.486  1.00  0.00    -0.237 OA
ATOM     93  O   UNL A   1      42.084  24.724  36.542  1.00  0.00    -0.744 OA
ENDBRANCH  89  90
ENDBRANCH  57  82
ENDBRANCH  31  32
ENDBRANCH  23  26
ENDBRANCH  21  22
ENDBRANCH   1  21
TORSDOF 16
ENDMDL
MODEL 2
REMARK VINA RESULT:     -12.4      3.347      8.028
REMARK SMILES Cc1cscc1-c1nnnn1C[C@@H](C)C(=O)NCCCNC(=O)c1ccc(-c2c3nc(c(-c4c(F)cc(S(=O)(=O)[O-])cc4F)c4ccc([nH]4)c(-c4c(F)cc(S(=O)(=O)[O-])cc4F)c4nc(c(-c5c(F)cc(S(=O)(=O)[O-])cc5F)c5ccc2[nH]5)C=C4)C=C3)cc1
REMARK SMILES IDX 19 1 18 2 17 3 15 4 16 5 13 7 14 8 12 9 11 10 7 11 8 12 9 13
REMARK SMILES IDX 10 14 6 15 1 16 2 17 3 18 4 19 5 20 20 21 21 22 22 23 23 25
REMARK SMILES IDX 24 26 25 27 89 28 26 29 88 30 27 31 28 32 29 33 82 34 30 35
REMARK SMILES IDX 87 36 81 37 83 38 31 39 86 40 80 41 79 42 32 44 66 45 45 46
REMARK SMILES IDX 65 47 46 48 49 49 64 50 84 51 47 52 48 53 63 55 85 56 50 57
REMARK SMILES IDX 33 58 34 59 43 60 35 61 36 62 42 63 44 64 37 65 38 66 39 67
REMARK SMILES IDX 40 68 41 69 67 70 68 71 77 72 69 73 70 74 76 75 78 76 71 77
REMARK SMILES IDX 72 78 73 79 74 80 75 81 51 82 52 83 61 84 53 85 54 86 60 87
REMARK SMILES IDX 62 88 55 89 56 90 57 91 58 92 59 93
REMARK H PARENT 17 6 21 24 83 43 49 54
REMARK Flexibility Score: inf
ROOT
ATOM      1  C   UNL A   1      37.770  19.664  24.937  1.00  0.00     0.042 C 
ENDROOT
BRANCH   1   2
ATOM      2  C   UNL A   1      36.622  20.674  25.044  1.00  0.00     0.117 C 
BRANCH   2   3
ATOM      3  N   UNL A   1      37.045  22.009  25.449  1.00  0.00    -0.356 N 
ATOM      4  C   UNL A   1      36.340  23.147  25.703  1.00  0.00     0.224 C 
ATOM      5  O   UNL A   1      36.956  24.123  26.132  1.00  0.00    -0.275 OA
ATOM      6  H   UNL A   1      38.019  22.106  25.561  1.00  0.00     0.163 HD
BRANCH   4   7
ATOM      7  C   UNL A   1      34.841  23.242  25.457  1.00  0.00     0.097 C 
ATOM      8  C   UNL A   1      34.494  24.495  24.658  1.00  0.00     0.020 C 
BRANCH   7   9
ATOM      9  C   UNL A   1      34.114  22.997  26.782  1.00  0.00     0.161 C 
BRANCH   9  10
ATOM     10  N   UNL A   1      32.681  22.890  26.736  1.00  0.00    -0.225 N 
ATOM     11  C   UNL A   1      31.889  22.055  25.998  1.00  0.00     0.183 A 
ATOM     12  N   UNL A   1      30.649  22.490  26.117  1.00  0.00    -0.108 NA
ATOM     13  N   UNL A   1      30.676  23.476  27.074  1.00  0.00    -0.023 NA
ATOM     14  N   UNL A   1      31.915  23.701  27.484  1.00  0.00    -0.045 NA
BRANCH  11  15
ATOM     15  C   UNL A   1      32.308  20.906  25.150  1.00  0.00     0.034 A 
ATOM     16  C   UNL A   1      32.133  21.988  22.761  1.00  0.00     0.046 C 
ATOM     17  C   UNL A   1      32.354  20.852  23.709  1.00  0.00    -0.029 A 
ATOM     18  C   UNL A   1      32.720  19.583  23.291  1.00  0.00     0.069 A 
ATOM     19  S   UNL A   1      33.085  18.528  24.584  1.00  0.00    -0.151 S 
ATOM     20  C   UNL A   1      32.761  19.745  25.735  1.00  0.00     0.077 A 
ENDBRANCH  11  15
ENDBRANCH   9  10
ENDBRANCH   7   9
ENDBRANCH   4   7
ENDBRANCH   2   3
ENDBRANCH   1   2
BRANCH   1  21
ATOM     21  C   UNL A   1      39.035  20.143  25.615  1.00  0.00     0.118 C 
BRANCH  21  22
ATOM     22  N   UNL A   1      40.065  19.104  25.729  1.00  0.00    -0.352 N 
ATOM     23  C   UNL A   1      41.427  19.257  25.974  1.00  0.00     0.251 C 
ATOM     24  H   UNL A   1      39.753  18.176  25.618  1.00  0.00     0.163 HD
ATOM     25  O   UNL A   1      42.212  18.363  25.730  1.00  0.00    -0.269 OA
BRANCH  23  26
ATOM     26  C   UNL A   1      41.882  20.545  26.534  1.00  0.00     0.039 A 
ATOM     27  C   UNL A   1      42.435  21.565  25.755  1.00  0.00     0.014 A 
ATOM     28  C   UNL A   1      41.645  20.739  27.883  1.00  0.00     0.014 A 
ATOM     29  C   UNL A   1      42.659  22.806  26.354  1.00  0.00     0.010 A 
ATOM     30  C   UNL A   1      41.565  22.009  28.361  1.00  0.00     0.010 A 
ATOM     31  C   UNL A   1      42.201  23.020  27.662  1.00  0.00    -0.014 A 
BRANCH  31  32
ATOM     32  C   UNL A   1      42.334  24.292  28.357  1.00  0.00     0.031 A 
ATOM     33  C   UNL A   1      41.221  25.248  28.139  1.00  0.00     0.074 A 
ATOM     34  C   UNL A   1      43.248  24.468  29.340  1.00  0.00     0.049 A 
ATOM     35  N   UNL A   1      41.246  26.363  27.489  1.00  0.00    -0.248 NA
ATOM     36  C   UNL A   1      39.872  24.843  28.569  1.00  0.00     0.031 C 
ATOM     37  C   UNL A   1      44.181  23.486  29.921  1.00  0.00     0.029 A 
ATOM     38  N   UNL A   1      43.450  25.553  30.129  1.00  0.00    -0.354 N 
ATOM     39  C   UNL A   1      39.979  26.919  27.643  1.00  0.00     0.074 A 
ATOM     40  C   UNL A   1      39.132  25.852  28.107  1.00  0.00     0.031 C 
ATOM     41  C   UNL A   1      44.649  23.941  31.102  1.00  0.00     0.029 A 
ATOM     42  C   UNL A   1      44.217  25.314  31.263  1.00  0.00     0.049 A 
ATOM     43  H   UNL A   1      43.082  26.440  29.914  1.00  0.00     0.167 HD
ATOM     44  C   UNL A   1      39.789  28.269  27.625  1.00  0.00     0.037 A 
ATOM     45  C   UNL A   1      44.463  26.185  32.271  1.00  0.00     0.037 A 
ATOM     46  C   UNL A   1      40.953  28.948  27.107  1.00  0.00     0.049 A 
ATOM     47  C   UNL A   1      44.185  27.544  31.733  1.00  0.00     0.074 A 
ATOM     48  C   UNL A   1      41.657  28.893  25.919  1.00  0.00     0.029 A 
ATOM     49  N   UNL A   1      41.800  29.544  28.011  1.00  0.00    -0.354 N 
ATOM     50  N   UNL A   1      44.874  28.098  30.771  1.00  0.00    -0.248 NA
ATOM     51  C   UNL A   1      42.850  28.085  31.931  1.00  0.00     0.031 C 
ATOM     52  C   UNL A   1      43.029  28.989  26.300  1.00  0.00     0.029 A 
ATOM     53  C   UNL A   1      43.081  29.173  27.682  1.00  0.00     0.049 A 
ATOM     54  H   UNL A   1      41.538  30.130  28.758  1.00  0.00     0.167 HD
ATOM     55  C   UNL A   1      43.934  28.753  29.986  1.00  0.00     0.074 A 
ATOM     56  C   UNL A   1      42.720  28.781  30.798  1.00  0.00     0.031 C 
ATOM     57  C   UNL A   1      44.140  28.953  28.648  1.00  0.00     0.037 A 
BRANCH  44  58
ATOM     58  C   UNL A   1      38.714  28.997  28.402  1.00  0.00     0.058 A 
ATOM     59  C   UNL A   1      37.860  29.892  27.724  1.00  0.00     0.135 A 
ATOM     60  C   UNL A   1      38.655  29.059  29.813  1.00  0.00     0.135 A 
ATOM     61  F   UNL A   1      37.832  29.927  26.382  1.00  0.00    -0.206 F 
ATOM     62  C   UNL A   1      37.071  30.829  28.394  1.00  0.00     0.059 A 
ATOM     63  C   UNL A   1      37.832  29.943  30.501  1.00  0.00     0.059 A 
ATOM     64  F   UNL A   1      39.463  28.339  30.599  1.00  0.00    -0.206 F 
ATOM     65  C   UNL A   1      37.079  30.856  29.784  1.00  0.00     0.060 A 
BRANCH  65  66
ATOM     66  S   UNL A   1      36.159  32.138  30.653  1.00  0.00     0.124 S 
ATOM     67  O   UNL A   1      37.192  33.149  30.851  1.00  0.00    -0.237 OA
ATOM     68  O   UNL A   1      35.115  32.466  29.690  1.00  0.00    -0.237 OA
ATOM     69  O   UNL A   1      35.700  31.459  31.861  1.00  0.00    -0.744 OA
ENDBRANCH  65  66
ENDBRANCH  44  58
BRANCH  45  70
ATOM     70  C   UNL A   1      44.571  25.887  33.724  1.00  0.00     0.058 A 
ATOM     71  C   UNL A   1      45.823  25.733  34.343  1.00  0.00     0.135 A 
ATOM     72  C   UNL A   1      43.463  26.025  34.588  1.00  0.00     0.135 A 
ATOM     73  F   UNL A   1      46.932  25.613  33.597  1.00  0.00    -0.206 F 
ATOM     74  C   UNL A   1      45.977  25.768  35.734  1.00  0.00     0.059 A 
ATOM     75  C   UNL A   1      43.591  26.052  35.976  1.00  0.00     0.059 A 
ATOM     76  F   UNL A   1      42.230  26.232  34.102  1.00  0.00    -0.206 F 
ATOM     77  C   UNL A   1      44.856  25.952  36.543  1.00  0.00     0.060 A 
BRANCH  77  78
ATOM     78  S   UNL A   1      45.071  26.186  38.324  1.00  0.00     0.124 S 
ATOM     79  O   UNL A   1      43.694  26.347  38.775  1.00  0.00    -0.237 OA
ATOM     80  O   UNL A   1      45.731  24.947  38.720  1.00  0.00    -0.237 OA
ATOM     81  O   UNL A   1      45.901  27.385  38.410  1.00  0.00    -0.744 OA
ENDBRANCH  77  78
ENDBRANCH  45  70
BRANCH  57  82
ATOM     82  C   UNL A   1      45.521  28.706  28.087  1.00  0.00     0.058 A 
ATOM     83  C   UNL A   1      45.953  27.483  27.539  1.00  0.00     0.135 A 
ATOM     84  C   UNL A   1      46.385  29.802  27.947  1.00  0.00     0.135 A 
ATOM     85  F   UNL A   1      45.155  26.409  27.534  1.00  0.00    -0.206 F 
ATOM     86  C   UNL A   1      47.196  27.349  26.914  1.00  0.00     0.059 A 
ATOM     87  C   UNL A   1      47.615  29.700  27.301  1.00  0.00     0.059 A 
ATOM     88  F   UNL A   1      46.009  31.012  28.392  1.00  0.00    -0.206 F 
ATOM     89  C   UNL A   1      48.021  28.467  26.797  1.00  0.00     0.060 A 
BRANCH  89  90
ATOM     90  S   UNL A   1      49.589  28.314  25.914  1.00  0.00     0.124 S 
ATOM     91  O   UNL A   1      50.257  27.250  26.657  1.00  0.00    -0.237 OA
ATOM     92  O   UNL A   1      49.161  27.970  24.561  1.00  0.00    -0.237 OA
ATOM     93  O   UNL A   1      50.188  29.640  26.050  1.00  0.00    -0.744 OA
ENDBRANCH  89  90
ENDBRANCH  57  82
ENDBRANCH  31  32
ENDBRANCH  23  26
ENDBRANCH  21  22
ENDBRANCH   1  21
TORSDOF 16
ENDMDL
MODEL 3
REMARK VINA RESULT:     -12.4      1.902      2.759
REMARK SMILES Cc1cscc1-c1nnnn1C[C@@H](C)C(=O)NCCCNC(=O)c1ccc(-c2c3nc(c(-c4c(F)cc(S(=O)(=O)[O-])cc4F)c4ccc([nH]4)c(-c4c(F)cc(S(=O)(=O)[O-])cc4F)c4nc(c(-c5c(F)cc(S(=O)(=O)[O-])cc5F)c5ccc2[nH]5)C=C4)C=C3)cc1
REMARK SMILES IDX 19 1 18 2 17 3 15 4 16 5 13 7 14 8 12 9 11 10 7 11 8 12 9 13
REMARK SMILES IDX 10 14 6 15 1 16 2 17 3 18 4 19 5 20 20 21 21 22 22 23 23 25
REMARK SMILES IDX 24 26 25 27 89 28 26 29 88 30 27 31 28 32 29 33 82 34 30 35
REMARK SMILES IDX 87 36 81 37 83 38 31 39 86 40 80 41 79 42 32 44 66 45 45 46
REMARK SMILES IDX 65 47 46 48 49 49 64 50 84 51 47 52 48 53 63 55 85 56 50 57
REMARK SMILES IDX 33 58 34 59 43 60 35 61 36 62 42 63 44 64 37 65 38 66 39 67
REMARK SMILES IDX 40 68 41 69 67 70 68 71 77 72 69 73 70 74 76 75 78 76 71 77
REMARK SMILES IDX 72 78 73 79 74 80 75 81 51 82 52 83 61 84 53 85 54 86 60 87
REMARK SMILES IDX 62 88 55 89 56 90 57 91 58 92 59 93
REMARK H PARENT 17 6 21 24 83 43 49 54
REMARK Flexibility Score: inf
ROOT
ATOM      1  C   UNL A   1      38.890  22.048  26.316  1.00  0.00     0.042 C 
ENDROOT
BRANCH   1   2
ATOM      2  C   UNL A   1      38.012  23.203  25.819  1.00  0.00     0.117 C 
BRANCH   2   3
ATOM      3  N   UNL A   1      37.627  23.091  24.417  1.00  0.00    -0.356 N 
ATOM      4  C   UNL A   1      36.412  23.142  23.803  1.00  0.00     0.224 C 
ATOM      5  O   UNL A   1      36.387  23.117  22.572  1.00  0.00    -0.275 OA
ATOM      6  H   UNL A   1      38.383  22.954  23.801  1.00  0.00     0.163 HD
BRANCH   4   7
ATOM      7  C   UNL A   1      35.111  23.211  24.588  1.00  0.00     0.097 C 
ATOM      8  C   UNL A   1      34.969  24.555  25.299  1.00  0.00     0.020 C 
BRANCH   7   9
ATOM      9  C   UNL A   1      34.973  21.931  25.416  1.00  0.00     0.161 C 
BRANCH   9  10
ATOM     10  N   UNL A   1      33.989  20.974  24.990  1.00  0.00    -0.225 N 
ATOM     11  C   UNL A   1      32.667  21.151  24.691  1.00  0.00     0.183 A 
ATOM     12  N   UNL A   1      32.128  19.952  24.583  1.00  0.00    -0.108 NA
ATOM     13  N   UNL A   1      33.168  19.056  24.636  1.00  0.00    -0.023 NA
ATOM     14  N   UNL A   1      34.317  19.679  24.850  1.00  0.00    -0.045 NA
BRANCH  11  15
ATOM     15  C   UNL A   1      31.918  22.432  24.571  1.00  0.00     0.034 A 
ATOM     16  C   UNL A   1      31.833  23.175  27.091  1.00  0.00     0.046 C 
ATOM     17  C   UNL A   1      31.488  23.300  25.641  1.00  0.00    -0.029 A 
ATOM     18  C   UNL A   1      30.750  24.355  25.131  1.00  0.00     0.069 A 
ATOM     19  S   UNL A   1      30.658  24.351  23.425  1.00  0.00    -0.151 S 
ATOM     20  C   UNL A   1      31.605  22.935  23.327  1.00  0.00     0.077 A 
ENDBRANCH  11  15
ENDBRANCH   9  10
ENDBRANCH   7   9
ENDBRANCH   4   7
ENDBRANCH   2   3
ENDBRANCH   1   2
BRANCH   1  21
ATOM     21  C   UNL A   1      40.123  22.526  27.051  1.00  0.00     0.118 C 
BRANCH  21  22
ATOM     22  N   UNL A   1      41.371  22.271  26.322  1.00  0.00    -0.352 N 
ATOM     23  C   UNL A   1      42.261  23.194  25.780  1.00  0.00     0.251 C 
ATOM     24  H   UNL A   1      41.612  21.324  26.201  1.00  0.00     0.163 HD
ATOM     25  O   UNL A   1      43.072  22.862  24.938  1.00  0.00    -0.269 OA
BRANCH  23  26
ATOM     26  C   UNL A   1      42.179  24.588  26.257  1.00  0.00     0.039 A 
ATOM     27  C   UNL A   1      41.334  25.544  25.686  1.00  0.00     0.014 A 
ATOM     28  C   UNL A   1      42.923  24.890  27.384  1.00  0.00     0.014 A 
ATOM     29  C   UNL A   1      41.198  26.776  26.329  1.00  0.00     0.010 A 
ATOM     30  C   UNL A   1      42.546  25.941  28.159  1.00  0.00     0.010 A 
ATOM     31  C   UNL A   1      41.802  26.955  27.583  1.00  0.00    -0.014 A 
BRANCH  31  32
ATOM     32  C   UNL A   1      41.676  28.179  28.362  1.00  0.00     0.031 A 
ATOM     33  C   UNL A   1      42.754  29.175  28.145  1.00  0.00     0.074 A 
ATOM     34  C   UNL A   1      40.527  28.493  29.005  1.00  0.00     0.049 A 
ATOM     35  N   UNL A   1      43.679  29.538  28.969  1.00  0.00    -0.248 NA
ATOM     36  C   UNL A   1      42.914  29.730  26.791  1.00  0.00     0.031 C 
ATOM     37  C   UNL A   1      39.243  27.771  29.008  1.00  0.00     0.029 A 
ATOM     38  N   UNL A   1      40.224  29.615  29.705  1.00  0.00    -0.354 N 
ATOM     39  C   UNL A   1      44.386  30.549  28.322  1.00  0.00     0.074 A 
ATOM     40  C   UNL A   1      44.024  30.459  26.933  1.00  0.00     0.031 C 
ATOM     41  C   UNL A   1      38.261  28.584  29.452  1.00  0.00     0.029 A 
ATOM     42  C   UNL A   1      38.869  29.799  29.952  1.00  0.00     0.049 A 
ATOM     43  H   UNL A   1      40.912  30.249  30.013  1.00  0.00     0.167 HD
ATOM     44  C   UNL A   1      45.008  31.539  29.023  1.00  0.00     0.037 A 
ATOM     45  C   UNL A   1      38.291  30.888  30.514  1.00  0.00     0.037 A 
ATOM     46  C   UNL A   1      45.111  31.197  30.421  1.00  0.00     0.049 A 
ATOM     47  C   UNL A   1      39.369  31.612  31.239  1.00  0.00     0.074 A 
ATOM     48  C   UNL A   1      45.682  30.152  31.123  1.00  0.00     0.029 A 
ATOM     49  N   UNL A   1      44.217  31.779  31.289  1.00  0.00    -0.354 N 
ATOM     50  N   UNL A   1      40.003  31.123  32.272  1.00  0.00    -0.248 NA
ATOM     51  C   UNL A   1      40.068  32.668  30.525  1.00  0.00     0.031 C 
ATOM     52  C   UNL A   1      44.755  29.859  32.167  1.00  0.00     0.029 A 
ATOM     53  C   UNL A   1      43.713  30.784  32.091  1.00  0.00     0.049 A 
ATOM     54  H   UNL A   1      43.981  32.734  31.329  1.00  0.00     0.167 HD
ATOM     55  C   UNL A   1      41.327  31.503  32.094  1.00  0.00     0.074 A 
ATOM     56  C   UNL A   1      41.288  32.524  31.049  1.00  0.00     0.031 C 
ATOM     57  C   UNL A   1      42.356  30.757  32.600  1.00  0.00     0.037 A 
BRANCH  44  58
ATOM     58  C   UNL A   1      45.197  32.955  28.526  1.00  0.00     0.058 A 
ATOM     59  C   UNL A   1      46.500  33.494  28.457  1.00  0.00     0.135 A 
ATOM     60  C   UNL A   1      44.150  33.891  28.370  1.00  0.00     0.135 A 
ATOM     61  F   UNL A   1      47.575  32.701  28.595  1.00  0.00    -0.206 F 
ATOM     62  C   UNL A   1      46.740  34.863  28.324  1.00  0.00     0.059 A 
ATOM     63  C   UNL A   1      44.366  35.251  28.177  1.00  0.00     0.059 A 
ATOM     64  F   UNL A   1      42.861  33.555  28.497  1.00  0.00    -0.206 F 
ATOM     65  C   UNL A   1      45.663  35.734  28.201  1.00  0.00     0.060 A 
BRANCH  65  66
ATOM     66  S   UNL A   1      45.958  37.510  28.151  1.00  0.00     0.124 S 
ATOM     67  O   UNL A   1      47.375  37.556  27.809  1.00  0.00    -0.237 OA
ATOM     68  O   UNL A   1      45.032  37.941  27.111  1.00  0.00    -0.237 OA
ATOM     69  O   UNL A   1      45.619  37.943  29.503  1.00  0.00    -0.744 OA
ENDBRANCH  65  66
ENDBRANCH  44  58
BRANCH  45  70
ATOM     70  C   UNL A   1      36.982  31.502  30.168  1.00  0.00     0.058 A 
ATOM     71  C   UNL A   1      36.172  32.091  31.154  1.00  0.00     0.135 A 
ATOM     72  C   UNL A   1      36.628  31.774  28.829  1.00  0.00     0.135 A 
ATOM     73  F   UNL A   1      36.448  31.899  32.453  1.00  0.00    -0.206 F 
ATOM     74  C   UNL A   1      35.108  32.942  30.835  1.00  0.00     0.059 A 
ATOM     75  C   UNL A   1      35.566  32.611  28.486  1.00  0.00     0.059 A 
ATOM     76  F   UNL A   1      37.366  31.307  27.810  1.00  0.00    -0.206 F 
ATOM     77  C   UNL A   1      34.827  33.216  29.496  1.00  0.00     0.060 A 
BRANCH  77  78
ATOM     78  S   UNL A   1      33.579  34.459  29.084  1.00  0.00     0.124 S 
ATOM     79  O   UNL A   1      34.391  35.519  28.497  1.00  0.00    -0.237 OA
ATOM     80  O   UNL A   1      32.715  33.733  28.160  1.00  0.00    -0.237 OA
ATOM     81  O   UNL A   1      32.976  34.776  30.376  1.00  0.00    -0.744 OA
ENDBRANCH  77  78
ENDBRANCH  45  70
BRANCH  57  82
ATOM     82  C   UNL A   1      42.032  29.665  33.594  1.00  0.00     0.058 A 
ATOM     83  C   UNL A   1      41.778  28.324  33.252  1.00  0.00     0.135 A 
ATOM     84  C   UNL A   1      42.151  29.958  34.961  1.00  0.00     0.135 A 
ATOM     85  F   UNL A   1      41.749  27.932  31.973  1.00  0.00    -0.206 F 
ATOM     86  C   UNL A   1      41.616  27.330  34.221  1.00  0.00     0.059 A 
ATOM     87  C   UNL A   1      42.025  28.979  35.943  1.00  0.00     0.059 A 
ATOM     88  F   UNL A   1      42.455  31.206  35.355  1.00  0.00    -0.206 F 
ATOM     89  C   UNL A   1      41.744  27.667  35.567  1.00  0.00     0.060 A 
BRANCH  89  90
ATOM     90  S   UNL A   1      41.620  26.368  36.815  1.00  0.00     0.124 S 
ATOM     91  O   UNL A   1      40.348  26.682  37.460  1.00  0.00    -0.237 OA
ATOM     92  O   UNL A   1      41.638  25.149  36.010  1.00  0.00    -0.237 OA
ATOM     93  O   UNL A   1      42.806  26.574  37.643  1.00  0.00    -0.744 OA
ENDBRANCH  89  90
ENDBRANCH  57  82
ENDBRANCH  31  32
ENDBRANCH  23  26
ENDBRANCH  21  22
ENDBRANCH   1  21
TORSDOF 16
ENDMDL
