MODEL 1
REMARK VINA RESULT:     -13.0      0.000      0.000
REMARK SMILES Cc1c(CCC(=O)N2CCC[C@H]2C(=O)NCCCNC(=O)c2ccc(-c3c4nc(c(-c5c(F)cc(S(=O)(=O)[O-])cc5F)c5ccc([nH]5)c(-c5c(F)cc(S(=O)(=O)[O-])cc5F)c5nc(c(-c6c(F)cc(S(=O)(=O)[O-])cc6F)c6ccc3[nH]6)C=C5)C=C4)cc2)c(=O)oc2cc3oc4c(c3cc12)CCCC4
REMARK SMILES IDX 16 1 15 2 13 3 14 4 12 6 8 7 9 8 10 9 11 10 6 11 7 12 5 13
REMARK SMILES IDX 4 14 3 15 1 16 2 17 99 18 88 19 91 20 98 21 89 22 90 23
REMARK SMILES IDX 92 24 97 25 93 26 96 27 94 28 95 29 100 30 103 31 101 32
REMARK SMILES IDX 102 33 17 34 18 35 19 36 20 37 21 39 22 40 23 41 87 42 24 43
REMARK SMILES IDX 86 44 25 45 26 46 27 47 80 48 28 49 85 50 79 51 81 52 29 53
REMARK SMILES IDX 84 54 78 55 77 56 30 58 64 59 43 60 63 61 44 62 47 63 62 64
REMARK SMILES IDX 82 65 45 66 46 67 61 69 83 70 48 71 31 72 32 73 41 74 33 75
REMARK SMILES IDX 34 76 40 77 42 78 35 79 36 80 37 81 38 82 39 83 65 84 66 85
REMARK SMILES IDX 75 86 67 87 68 88 74 89 76 90 69 91 70 92 71 93 72 94 73 95
REMARK SMILES IDX 49 96 50 97 59 98 51 99 52 100 58 101 60 102 53 103 54 104
REMARK SMILES IDX 55 105 56 106 57 107
REMARK H PARENT 15 5 19 38 81 57 47 68
REMARK Flexibility Score: inf
ROOT
ATOM      1  C   UNL A   1      33.019  29.368  26.922  1.00  0.00     0.117 C 
ENDROOT
BRANCH   1   2
ATOM      2  N   UNL A   1      31.899  29.710  26.058  1.00  0.00    -0.354 N 
ATOM      3  C   UNL A   1      31.561  29.287  24.800  1.00  0.00     0.242 C 
ATOM      4  O   UNL A   1      30.702  29.964  24.232  1.00  0.00    -0.273 OA
ATOM      5  H   UNL A   1      31.271  30.361  26.446  1.00  0.00     0.163 HD
BRANCH   3   6
ATOM      6  C   UNL A   1      32.212  28.021  24.180  1.00  0.00     0.174 C 
ATOM      7  N   UNL A   1      31.344  27.153  23.339  1.00  0.00    -0.331 N 
ATOM      8  C   UNL A   1      32.010  26.808  22.092  1.00  0.00     0.120 C 
ATOM      9  C   UNL A   1      33.443  27.260  22.246  1.00  0.00     0.024 C 
ATOM     10  C   UNL A   1      33.345  28.417  23.219  1.00  0.00     0.037 C 
BRANCH   7  11
ATOM     11  C   UNL A   1      30.192  26.553  23.822  1.00  0.00     0.223 C 
ATOM     12  O   UNL A   1      29.089  27.096  23.726  1.00  0.00    -0.275 OA
BRANCH  11  13
ATOM     13  C   UNL A   1      30.296  25.186  24.527  1.00  0.00     0.105 C 
BRANCH  13  14
ATOM     14  C   UNL A   1      30.905  25.171  25.942  1.00  0.00     0.053 C 
BRANCH  14  15
ATOM     15  C   UNL A   1      31.978  24.128  26.087  1.00  0.00     0.042 A 
ATOM     16  C   UNL A   1      30.322  22.250  26.369  1.00  0.00     0.046 C 
ATOM     17  C   UNL A   1      31.686  22.819  26.098  1.00  0.00    -0.030 A 
ATOM     18  C   UNL A   1      32.747  21.937  25.626  1.00  0.00     0.022 A 
ATOM     19  C   UNL A   1      33.396  24.593  26.130  1.00  0.00     0.339 A 
ATOM     20  C   UNL A   1      34.084  22.313  25.763  1.00  0.00     0.142 A 
ATOM     21  C   UNL A   1      32.432  20.786  24.908  1.00  0.00     0.024 A 
ATOM     22  O   UNL A   1      33.671  25.789  26.155  1.00  0.00    -0.246 OA
ATOM     23  O   UNL A   1      34.385  23.615  26.207  1.00  0.00    -0.422 OA
ATOM     24  C   UNL A   1      35.151  21.477  25.413  1.00  0.00     0.095 A 
ATOM     25  C   UNL A   1      33.464  19.940  24.513  1.00  0.00     0.025 A 
ATOM     26  C   UNL A   1      34.773  20.253  24.868  1.00  0.00     0.138 A 
ATOM     27  C   UNL A   1      33.485  18.642  23.970  1.00  0.00     0.001 A 
ATOM     28  O   UNL A   1      35.558  19.142  24.734  1.00  0.00    -0.461 OA
ATOM     29  C   UNL A   1      34.710  18.149  24.361  1.00  0.00     0.108 A 
ATOM     30  C   UNL A   1      32.359  17.714  23.715  1.00  0.00     0.040 C 
ATOM     31  C   UNL A   1      34.832  16.786  24.951  1.00  0.00     0.076 C 
ATOM     32  C   UNL A   1      32.197  16.809  24.950  1.00  0.00     0.005 C 
ATOM     33  C   UNL A   1      33.512  16.579  25.763  1.00  0.00     0.008 C 
ENDBRANCH  14  15
ENDBRANCH  13  14
ENDBRANCH  11  13
ENDBRANCH   7  11
ENDBRANCH   3   6
ENDBRANCH   1   2
BRANCH   1  34
ATOM     34  C   UNL A   1      34.021  30.524  26.984  1.00  0.00     0.042 C 
BRANCH  34  35
ATOM     35  C   UNL A   1      34.016  31.213  28.351  1.00  0.00     0.118 C 
BRANCH  35  36
ATOM     36  N   UNL A   1      34.282  32.639  28.256  1.00  0.00    -0.352 N 
ATOM     37  C   UNL A   1      35.330  33.358  28.795  1.00  0.00     0.251 C 
ATOM     38  H   UNL A   1      33.628  33.162  27.737  1.00  0.00     0.163 HD
ATOM     39  O   UNL A   1      35.344  34.571  28.744  1.00  0.00    -0.269 OA
BRANCH  37  40
ATOM     40  C   UNL A   1      36.425  32.614  29.450  1.00  0.00     0.039 A 
ATOM     41  C   UNL A   1      36.475  32.538  30.845  1.00  0.00     0.014 A 
ATOM     42  C   UNL A   1      37.406  32.014  28.660  1.00  0.00     0.014 A 
ATOM     43  C   UNL A   1      37.565  31.939  31.459  1.00  0.00     0.010 A 
ATOM     44  C   UNL A   1      38.485  31.384  29.278  1.00  0.00     0.010 A 
ATOM     45  C   UNL A   1      38.571  31.359  30.677  1.00  0.00    -0.014 A 
BRANCH  45  46
ATOM     46  C   UNL A   1      39.632  30.641  31.393  1.00  0.00     0.031 A 
ATOM     47  C   UNL A   1      39.831  29.232  30.948  1.00  0.00     0.074 A 
ATOM     48  C   UNL A   1      40.686  31.281  31.936  1.00  0.00     0.049 A 
ATOM     49  N   UNL A   1      40.485  28.936  29.865  1.00  0.00    -0.248 NA
ATOM     50  C   UNL A   1      39.096  28.109  31.527  1.00  0.00     0.031 C 
ATOM     51  C   UNL A   1      41.262  32.521  31.404  1.00  0.00     0.029 A 
ATOM     52  N   UNL A   1      41.592  30.854  32.874  1.00  0.00    -0.354 N 
ATOM     53  C   UNL A   1      40.214  27.615  29.574  1.00  0.00     0.074 A 
ATOM     54  C   UNL A   1      39.359  27.136  30.640  1.00  0.00     0.031 C 
ATOM     55  C   UNL A   1      42.520  32.646  31.878  1.00  0.00     0.029 A 
ATOM     56  C   UNL A   1      42.767  31.600  32.863  1.00  0.00     0.049 A 
ATOM     57  H   UNL A   1      41.430  30.102  33.487  1.00  0.00     0.167 HD
ATOM     58  C   UNL A   1      40.695  26.994  28.466  1.00  0.00     0.037 A 
ATOM     59  C   UNL A   1      43.988  31.119  33.226  1.00  0.00     0.037 A 
ATOM     60  C   UNL A   1      41.550  27.789  27.636  1.00  0.00     0.049 A 
ATOM     61  C   UNL A   1      44.293  30.236  32.036  1.00  0.00     0.074 A 
ATOM     62  C   UNL A   1      41.405  28.617  26.544  1.00  0.00     0.029 A 
ATOM     63  N   UNL A   1      42.873  27.904  27.995  1.00  0.00    -0.354 N 
ATOM     64  N   UNL A   1      44.724  30.644  30.869  1.00  0.00    -0.248 NA
ATOM     65  C   UNL A   1      43.748  28.876  32.033  1.00  0.00     0.031 C 
ATOM     66  C   UNL A   1      42.521  29.511  26.591  1.00  0.00     0.029 A 
ATOM     67  C   UNL A   1      43.245  29.202  27.741  1.00  0.00     0.049 A 
ATOM     68  H   UNL A   1      43.445  27.192  28.364  1.00  0.00     0.167 HD
ATOM     69  C   UNL A   1      44.240  29.712  29.946  1.00  0.00     0.074 A 
ATOM     70  C   UNL A   1      43.690  28.628  30.731  1.00  0.00     0.031 C 
ATOM     71  C   UNL A   1      44.128  29.954  28.608  1.00  0.00     0.037 A 
BRANCH  58  72
ATOM     72  C   UNL A   1      40.507  25.564  28.171  1.00  0.00     0.058 A 
ATOM     73  C   UNL A   1      41.547  24.677  28.478  1.00  0.00     0.135 A 
ATOM     74  C   UNL A   1      39.419  25.087  27.431  1.00  0.00     0.135 A 
ATOM     75  F   UNL A   1      42.608  25.107  29.182  1.00  0.00    -0.206 F 
ATOM     76  C   UNL A   1      41.540  23.368  28.022  1.00  0.00     0.059 A 
ATOM     77  C   UNL A   1      39.388  23.774  26.965  1.00  0.00     0.059 A 
ATOM     78  F   UNL A   1      38.404  25.905  27.113  1.00  0.00    -0.206 F 
ATOM     79  C   UNL A   1      40.465  22.931  27.247  1.00  0.00     0.060 A 
BRANCH  79  80
ATOM     80  S   UNL A   1      40.536  21.257  26.575  1.00  0.00     0.124 S 
ATOM     81  O   UNL A   1      39.244  21.148  25.907  1.00  0.00    -0.237 OA
ATOM     82  O   UNL A   1      41.701  21.336  25.699  1.00  0.00    -0.237 OA
ATOM     83  O   UNL A   1      40.702  20.421  27.761  1.00  0.00    -0.744 OA
ENDBRANCH  79  80
ENDBRANCH  58  72
BRANCH  59  84
ATOM     84  C   UNL A   1      44.034  30.665  34.658  1.00  0.00     0.058 A 
ATOM     85  C   UNL A   1      45.070  29.778  35.032  1.00  0.00     0.135 A 
ATOM     86  C   UNL A   1      43.186  31.086  35.691  1.00  0.00     0.135 A 
ATOM     87  F   UNL A   1      45.845  29.207  34.095  1.00  0.00    -0.206 F 
ATOM     88  C   UNL A   1      45.369  29.496  36.359  1.00  0.00     0.059 A 
ATOM     89  C   UNL A   1      43.478  30.838  37.034  1.00  0.00     0.059 A 
ATOM     90  F   UNL A   1      42.072  31.784  35.431  1.00  0.00    -0.206 F 
ATOM     91  C   UNL A   1      44.602  30.082  37.358  1.00  0.00     0.060 A 
BRANCH  91  92
ATOM     92  S   UNL A   1      45.156  29.916  39.066  1.00  0.00     0.124 S 
ATOM     93  O   UNL A   1      44.158  30.697  39.788  1.00  0.00    -0.237 OA
ATOM     94  O   UNL A   1      45.092  28.470  39.256  1.00  0.00    -0.237 OA
ATOM     95  O   UNL A   1      46.502  30.480  39.041  1.00  0.00    -0.744 OA
ENDBRANCH  91  92
ENDBRANCH  59  84
BRANCH  71  96
ATOM     96  C   UNL A   1      44.762  31.208  28.110  1.00  0.00     0.058 A 
ATOM     97  C   UNL A   1      46.034  31.167  27.523  1.00  0.00     0.135 A 
ATOM     98  C   UNL A   1      44.087  32.440  28.132  1.00  0.00     0.135 A 
ATOM     99  F   UNL A   1      46.719  30.013  27.471  1.00  0.00    -0.206 F 
ATOM    100  C   UNL A   1      46.599  32.296  26.937  1.00  0.00     0.059 A 
ATOM    101  C   UNL A   1      44.623  33.575  27.532  1.00  0.00     0.059 A 
ATOM    102  F   UNL A   1      42.874  32.547  28.699  1.00  0.00    -0.206 F 
ATOM    103  C   UNL A   1      45.877  33.492  26.928  1.00  0.00     0.060 A 
BRANCH 103 104
ATOM    104  S   UNL A   1      46.560  34.906  26.040  1.00  0.00     0.124 S 
ATOM    105  O   UNL A   1      45.731  36.004  26.529  1.00  0.00    -0.237 OA
ATOM    106  O   UNL A   1      47.949  34.915  26.489  1.00  0.00    -0.237 OA
ATOM    107  O   UNL A   1      46.368  34.555  24.636  1.00  0.00    -0.744 OA
ENDBRANCH 103 104
ENDBRANCH  71  96
ENDBRANCH  45  46
ENDBRANCH  37  40
ENDBRANCH  35  36
ENDBRANCH  34  35
ENDBRANCH   1  34
TORSDOF 17
ENDMDL
MODEL 2
REMARK VINA RESULT:     -12.9      2.901      9.142
REMARK SMILES Cc1c(CCC(=O)N2CCC[C@H]2C(=O)NCCCNC(=O)c2ccc(-c3c4nc(c(-c5c(F)cc(S(=O)(=O)[O-])cc5F)c5ccc([nH]5)c(-c5c(F)cc(S(=O)(=O)[O-])cc5F)c5nc(c(-c6c(F)cc(S(=O)(=O)[O-])cc6F)c6ccc3[nH]6)C=C5)C=C4)cc2)c(=O)oc2cc3oc4c(c3cc12)CCCC4
REMARK SMILES IDX 16 1 15 2 13 3 14 4 12 6 8 7 9 8 10 9 11 10 6 11 7 12 5 13
REMARK SMILES IDX 4 14 3 15 1 16 2 17 99 18 88 19 91 20 98 21 89 22 90 23
REMARK SMILES IDX 92 24 97 25 93 26 96 27 94 28 95 29 100 30 103 31 101 32
REMARK SMILES IDX 102 33 17 34 18 35 19 36 20 37 21 39 22 40 23 41 87 42 24 43
REMARK SMILES IDX 86 44 25 45 26 46 27 47 80 48 28 49 85 50 79 51 81 52 29 53
REMARK SMILES IDX 84 54 78 55 77 56 30 58 64 59 43 60 63 61 44 62 47 63 62 64
REMARK SMILES IDX 82 65 45 66 46 67 61 69 83 70 48 71 31 72 32 73 41 74 33 75
REMARK SMILES IDX 34 76 40 77 42 78 35 79 36 80 37 81 38 82 39 83 65 84 66 85
REMARK SMILES IDX 75 86 67 87 68 88 74 89 76 90 69 91 70 92 71 93 72 94 73 95
REMARK SMILES IDX 49 96 50 97 59 98 51 99 52 100 58 101 60 102 53 103 54 104
REMARK SMILES IDX 55 105 56 106 57 107
REMARK H PARENT 15 5 19 38 81 57 47 68
REMARK Flexibility Score: inf
ROOT
ATOM      1  C   UNL A   1      37.399  23.339  25.746  1.00  0.00     0.117 C 
ENDROOT
BRANCH   1   2
ATOM      2  N   UNL A   1      36.886  23.436  24.388  1.00  0.00    -0.354 N 
ATOM      3  C   UNL A   1      35.798  22.862  23.786  1.00  0.00     0.242 C 
ATOM      4  O   UNL A   1      35.786  22.926  22.555  1.00  0.00    -0.273 OA
ATOM      5  H   UNL A   1      37.415  24.018  23.796  1.00  0.00     0.163 HD
BRANCH   3   6
ATOM      6  C   UNL A   1      34.665  22.218  24.629  1.00  0.00     0.174 C 
ATOM      7  N   UNL A   1      33.274  22.360  24.119  1.00  0.00    -0.331 N 
ATOM      8  C   UNL A   1      32.577  21.084  24.155  1.00  0.00     0.120 C 
ATOM      9  C   UNL A   1      33.462  20.147  24.943  1.00  0.00     0.024 C 
ATOM     10  C   UNL A   1      34.854  20.695  24.705  1.00  0.00     0.037 C 
BRANCH   7  11
ATOM     11  C   UNL A   1      32.675  23.593  23.913  1.00  0.00     0.223 C 
ATOM     12  O   UNL A   1      31.916  23.793  22.961  1.00  0.00    -0.275 OA
BRANCH  11  13
ATOM     13  C   UNL A   1      32.988  24.752  24.880  1.00  0.00     0.105 C 
BRANCH  13  14
ATOM     14  C   UNL A   1      34.024  25.793  24.414  1.00  0.00     0.053 C 
BRANCH  14  15
ATOM     15  C   UNL A   1      33.479  27.193  24.454  1.00  0.00     0.042 A 
ATOM     16  C   UNL A   1      32.601  27.078  22.096  1.00  0.00     0.046 C 
ATOM     17  C   UNL A   1      32.699  27.671  23.473  1.00  0.00    -0.030 A 
ATOM     18  C   UNL A   1      31.762  28.716  23.870  1.00  0.00     0.022 A 
ATOM     19  C   UNL A   1      33.762  28.013  25.670  1.00  0.00     0.339 A 
ATOM     20  C   UNL A   1      32.067  29.561  24.937  1.00  0.00     0.142 A 
ATOM     21  C   UNL A   1      30.501  28.782  23.285  1.00  0.00     0.024 A 
ATOM     22  O   UNL A   1      34.503  27.599  26.557  1.00  0.00    -0.246 OA
ATOM     23  O   UNL A   1      33.204  29.289  25.722  1.00  0.00    -0.422 OA
ATOM     24  C   UNL A   1      31.256  30.638  25.313  1.00  0.00     0.095 A 
ATOM     25  C   UNL A   1      29.647  29.820  23.651  1.00  0.00     0.025 A 
ATOM     26  C   UNL A   1      30.088  30.771  24.566  1.00  0.00     0.138 A 
ATOM     27  C   UNL A   1      28.426  30.286  23.128  1.00  0.00     0.001 A 
ATOM     28  O   UNL A   1      29.287  31.877  24.493  1.00  0.00    -0.461 OA
ATOM     29  C   UNL A   1      28.408  31.614  23.492  1.00  0.00     0.108 A 
ATOM     30  C   UNL A   1      27.688  29.834  21.927  1.00  0.00     0.040 C 
ATOM     31  C   UNL A   1      28.044  32.670  22.505  1.00  0.00     0.076 C 
ATOM     32  C   UNL A   1      28.121  30.716  20.741  1.00  0.00     0.005 C 
ATOM     33  C   UNL A   1      28.594  32.151  21.138  1.00  0.00     0.008 C 
ENDBRANCH  14  15
ENDBRANCH  13  14
ENDBRANCH  11  13
ENDBRANCH   7  11
ENDBRANCH   3   6
ENDBRANCH   1   2
BRANCH   1  34
ATOM     34  C   UNL A   1      38.462  22.241  25.841  1.00  0.00     0.042 C 
BRANCH  34  35
ATOM     35  C   UNL A   1      39.507  22.547  26.918  1.00  0.00     0.118 C 
BRANCH  35  36
ATOM     36  N   UNL A   1      40.678  21.692  26.816  1.00  0.00    -0.352 N 
ATOM     37  C   UNL A   1      42.011  22.046  26.867  1.00  0.00     0.251 C 
ATOM     38  H   UNL A   1      40.496  20.731  26.696  1.00  0.00     0.163 HD
ATOM     39  O   UNL A   1      42.881  21.233  26.631  1.00  0.00    -0.269 OA
BRANCH  37  40
ATOM     40  C   UNL A   1      42.351  23.444  27.201  1.00  0.00     0.039 A 
ATOM     41  C   UNL A   1      42.901  24.277  26.221  1.00  0.00     0.014 A 
ATOM     42  C   UNL A   1      42.134  23.905  28.500  1.00  0.00     0.014 A 
ATOM     43  C   UNL A   1      43.326  25.551  26.568  1.00  0.00     0.010 A 
ATOM     44  C   UNL A   1      42.533  25.197  28.838  1.00  0.00     0.010 A 
ATOM     45  C   UNL A   1      43.141  26.015  27.876  1.00  0.00    -0.014 A 
BRANCH  45  46
ATOM     46  C   UNL A   1      43.506  27.412  28.139  1.00  0.00     0.031 A 
ATOM     47  C   UNL A   1      42.365  28.369  28.075  1.00  0.00     0.074 A 
ATOM     48  C   UNL A   1      44.557  27.741  28.914  1.00  0.00     0.049 A 
ATOM     49  N   UNL A   1      41.518  28.499  29.053  1.00  0.00    -0.248 NA
ATOM     50  C   UNL A   1      41.951  29.026  26.837  1.00  0.00     0.031 C 
ATOM     51  C   UNL A   1      45.038  26.930  30.039  1.00  0.00     0.029 A 
ATOM     52  N   UNL A   1      45.230  28.931  29.034  1.00  0.00    -0.354 N 
ATOM     53  C   UNL A   1      40.435  29.200  28.562  1.00  0.00     0.074 A 
ATOM     54  C   UNL A   1      40.753  29.519  27.187  1.00  0.00     0.031 C 
ATOM     55  C   UNL A   1      45.775  27.719  30.849  1.00  0.00     0.029 A 
ATOM     56  C   UNL A   1      45.952  29.022  30.220  1.00  0.00     0.049 A 
ATOM     57  H   UNL A   1      45.203  29.643  28.356  1.00  0.00     0.167 HD
ATOM     58  C   UNL A   1      39.333  29.463  29.310  1.00  0.00     0.037 A 
ATOM     59  C   UNL A   1      46.230  30.188  30.864  1.00  0.00     0.037 A 
ATOM     60  C   UNL A   1      39.385  29.009  30.668  1.00  0.00     0.049 A 
ATOM     61  C   UNL A   1      44.865  30.514  31.429  1.00  0.00     0.074 A 
ATOM     62  C   UNL A   1      39.019  27.878  31.365  1.00  0.00     0.029 A 
ATOM     63  N   UNL A   1      40.044  29.794  31.586  1.00  0.00    -0.354 N 
ATOM     64  N   UNL A   1      44.327  29.974  32.493  1.00  0.00    -0.248 NA
ATOM     65  C   UNL A   1      43.912  31.211  30.561  1.00  0.00     0.031 C 
ATOM     66  C   UNL A   1      39.862  27.852  32.521  1.00  0.00     0.029 A 
ATOM     67  C   UNL A   1      40.724  28.943  32.425  1.00  0.00     0.049 A 
ATOM     68  H   UNL A   1      40.032  30.777  31.633  1.00  0.00     0.167 HD
ATOM     69  C   UNL A   1      42.947  30.015  32.274  1.00  0.00     0.074 A 
ATOM     70  C   UNL A   1      42.758  30.828  31.092  1.00  0.00     0.031 C 
ATOM     71  C   UNL A   1      42.048  29.230  32.935  1.00  0.00     0.037 A 
BRANCH  58  72
ATOM     72  C   UNL A   1      38.200  30.286  28.853  1.00  0.00     0.058 A 
ATOM     73  C   UNL A   1      38.205  31.654  29.158  1.00  0.00     0.135 A 
ATOM     74  C   UNL A   1      37.042  29.729  28.300  1.00  0.00     0.135 A 
ATOM     75  F   UNL A   1      39.300  32.217  29.697  1.00  0.00    -0.206 F 
ATOM     76  C   UNL A   1      37.079  32.441  28.970  1.00  0.00     0.059 A 
ATOM     77  C   UNL A   1      35.900  30.500  28.098  1.00  0.00     0.059 A 
ATOM     78  F   UNL A   1      36.996  28.422  27.998  1.00  0.00    -0.206 F 
ATOM     79  C   UNL A   1      35.923  31.850  28.459  1.00  0.00     0.060 A 
BRANCH  79  80
ATOM     80  S   UNL A   1      34.441  32.871  28.330  1.00  0.00     0.124 S 
ATOM     81  O   UNL A   1      34.922  33.999  27.538  1.00  0.00    -0.237 OA
ATOM     82  O   UNL A   1      33.514  31.969  27.654  1.00  0.00    -0.237 OA
ATOM     83  O   UNL A   1      34.114  33.175  29.720  1.00  0.00    -0.744 OA
ENDBRANCH  79  80
ENDBRANCH  58  72
BRANCH  59  84
ATOM     84  C   UNL A   1      47.057  31.131  30.035  1.00  0.00     0.058 A 
ATOM     85  C   UNL A   1      48.053  30.570  29.202  1.00  0.00     0.135 A 
ATOM     86  C   UNL A   1      46.897  32.520  29.950  1.00  0.00     0.135 A 
ATOM     87  F   UNL A   1      48.379  29.272  29.314  1.00  0.00    -0.206 F 
ATOM     88  C   UNL A   1      48.696  31.302  28.211  1.00  0.00     0.059 A 
ATOM     89  C   UNL A   1      47.513  33.275  28.948  1.00  0.00     0.059 A 
ATOM     90  F   UNL A   1      46.111  33.181  30.810  1.00  0.00    -0.206 F 
ATOM     91  C   UNL A   1      48.372  32.644  28.052  1.00  0.00     0.060 A 
BRANCH  91  92
ATOM     92  S   UNL A   1      49.017  33.510  26.608  1.00  0.00     0.124 S 
ATOM     93  O   UNL A   1      49.948  32.532  26.056  1.00  0.00    -0.237 OA
ATOM     94  O   UNL A   1      47.800  33.737  25.834  1.00  0.00    -0.237 OA
ATOM     95  O   UNL A   1      49.624  34.709  27.176  1.00  0.00    -0.744 OA
ENDBRANCH  91  92
ENDBRANCH  59  84
BRANCH  71  96
ATOM     96  C   UNL A   1      42.577  28.454  34.094  1.00  0.00     0.058 A 
ATOM     97  C   UNL A   1      43.157  27.195  33.891  1.00  0.00     0.135 A 
ATOM     98  C   UNL A   1      42.590  28.982  35.396  1.00  0.00     0.135 A 
ATOM     99  F   UNL A   1      43.175  26.648  32.664  1.00  0.00    -0.206 F 
ATOM    100  C   UNL A   1      43.769  26.502  34.931  1.00  0.00     0.059 A 
ATOM    101  C   UNL A   1      43.217  28.317  36.445  1.00  0.00     0.059 A 
ATOM    102  F   UNL A   1      42.032  30.176  35.658  1.00  0.00    -0.206 F 
ATOM    103  C   UNL A   1      43.813  27.081  36.201  1.00  0.00     0.060 A 
BRANCH 103 104
ATOM    104  S   UNL A   1      44.734  26.237  37.503  1.00  0.00     0.124 S 
ATOM    105  O   UNL A   1      44.674  24.845  37.068  1.00  0.00    -0.237 OA
ATOM    106  O   UNL A   1      46.046  26.871  37.418  1.00  0.00    -0.237 OA
ATOM    107  O   UNL A   1      43.978  26.546  38.714  1.00  0.00    -0.744 OA
ENDBRANCH 103 104
ENDBRANCH  71  96
ENDBRANCH  45  46
ENDBRANCH  37  40
ENDBRANCH  35  36
ENDBRANCH  34  35
ENDBRANCH   1  34
TORSDOF 17
ENDMDL
MODEL 3
REMARK VINA RESULT:     -12.2      7.867     13.808
REMARK SMILES Cc1c(CCC(=O)N2CCC[C@H]2C(=O)NCCCNC(=O)c2ccc(-c3c4nc(c(-c5c(F)cc(S(=O)(=O)[O-])cc5F)c5ccc([nH]5)c(-c5c(F)cc(S(=O)(=O)[O-])cc5F)c5nc(c(-c6c(F)cc(S(=O)(=O)[O-])cc6F)c6ccc3[nH]6)C=C5)C=C4)cc2)c(=O)oc2cc3oc4c(c3cc12)CCCC4
REMARK SMILES IDX 16 1 15 2 13 3 14 4 12 6 8 7 9 8 10 9 11 10 6 11 7 12 5 13
REMARK SMILES IDX 4 14 3 15 1 16 2 17 99 18 88 19 91 20 98 21 89 22 90 23
REMARK SMILES IDX 92 24 97 25 93 26 96 27 94 28 95 29 100 30 103 31 101 32
REMARK SMILES IDX 102 33 17 34 18 35 19 36 20 37 21 39 22 40 23 41 87 42 24 43
REMARK SMILES IDX 86 44 25 45 26 46 27 47 80 48 28 49 85 50 79 51 81 52 29 53
REMARK SMILES IDX 84 54 78 55 77 56 30 58 64 59 43 60 63 61 44 62 47 63 62 64
REMARK SMILES IDX 82 65 45 66 46 67 61 69 83 70 48 71 31 72 32 73 41 74 33 75
REMARK SMILES IDX 34 76 40 77 42 78 35 79 36 80 37 81 38 82 39 83 65 84 66 85
REMARK SMILES IDX 75 86 67 87 68 88 74 89 76 90 69 91 70 92 71 93 72 94 73 95
REMARK SMILES IDX 49 96 50 97 59 98 51 99 52 100 58 101 60 102 53 103 54 104
REMARK SMILES IDX 55 105 56 106 57 107
REMARK H PARENT 15 5 19 38 81 57 47 68
REMARK Flexibility Score: inf
ROOT
ATOM      1  C   UNL A   1      48.388  23.672  35.558  1.00  0.00     0.117 C 
ENDROOT
BRANCH   1   2
ATOM      2  N   UNL A   1      49.676  23.715  36.234  1.00  0.00    -0.354 N 
ATOM      3  C   UNL A   1      50.611  22.743  36.467  1.00  0.00     0.242 C 
ATOM      4  O   UNL A   1      51.471  23.031  37.302  1.00  0.00    -0.273 OA
ATOM      5  H   UNL A   1      49.918  24.601  36.588  1.00  0.00     0.163 HD
BRANCH   3   6
ATOM      6  C   UNL A   1      50.578  21.398  35.691  1.00  0.00     0.174 C 
ATOM      7  N   UNL A   1      49.451  20.472  35.984  1.00  0.00    -0.331 N 
ATOM      8  C   UNL A   1      48.856  19.976  34.753  1.00  0.00     0.120 C 
ATOM      9  C   UNL A   1      49.785  20.399  33.640  1.00  0.00     0.024 C 
ATOM     10  C   UNL A   1      50.435  21.655  34.182  1.00  0.00     0.037 C 
BRANCH   7  11
ATOM     11  C   UNL A   1      49.212  19.962  37.250  1.00  0.00     0.223 C 
ATOM     12  O   UNL A   1      50.133  19.695  38.026  1.00  0.00    -0.275 OA
BRANCH  11  13
ATOM     13  C   UNL A   1      47.759  19.691  37.689  1.00  0.00     0.105 C 
BRANCH  13  14
ATOM     14  C   UNL A   1      47.547  19.151  39.116  1.00  0.00     0.053 C 
BRANCH  14  15
ATOM     15  C   UNL A   1      46.456  18.118  39.175  1.00  0.00     0.042 A 
ATOM     16  C   UNL A   1      47.561  16.843  41.046  1.00  0.00     0.046 C 
ATOM     17  C   UNL A   1      46.404  17.208  40.160  1.00  0.00    -0.030 A 
ATOM     18  C   UNL A   1      45.073  16.706  40.479  1.00  0.00     0.022 A 
ATOM     19  C   UNL A   1      45.376  18.190  38.147  1.00  0.00     0.339 A 
ATOM     20  C   UNL A   1      44.085  16.665  39.495  1.00  0.00     0.142 A 
ATOM     21  C   UNL A   1      44.738  16.402  41.796  1.00  0.00     0.024 A 
ATOM     22  O   UNL A   1      45.432  18.995  37.223  1.00  0.00    -0.246 OA
ATOM     23  O   UNL A   1      44.340  17.264  38.246  1.00  0.00    -0.422 OA
ATOM     24  C   UNL A   1      42.817  16.113  39.710  1.00  0.00     0.095 A 
ATOM     25  C   UNL A   1      43.475  15.879  42.061  1.00  0.00     0.025 A 
ATOM     26  C   UNL A   1      42.599  15.651  41.005  1.00  0.00     0.138 A 
ATOM     27  C   UNL A   1      42.901  15.296  43.206  1.00  0.00     0.001 A 
ATOM     28  O   UNL A   1      41.607  14.803  41.412  1.00  0.00    -0.461 OA
ATOM     29  C   UNL A   1      41.924  14.472  42.691  1.00  0.00     0.108 A 
ATOM     30  C   UNL A   1      43.526  14.980  44.511  1.00  0.00     0.040 C 
ATOM     31  C   UNL A   1      41.778  13.069  43.170  1.00  0.00     0.076 C 
ATOM     32  C   UNL A   1      44.029  13.525  44.460  1.00  0.00     0.005 C 
ATOM     33  C   UNL A   1      43.234  12.597  43.486  1.00  0.00     0.008 C 
ENDBRANCH  14  15
ENDBRANCH  13  14
ENDBRANCH  11  13
ENDBRANCH   7  11
ENDBRANCH   3   6
ENDBRANCH   1   2
BRANCH   1  34
ATOM     34  C   UNL A   1      47.286  23.236  36.528  1.00  0.00     0.042 C 
BRANCH  34  35
ATOM     35  C   UNL A   1      46.145  22.512  35.809  1.00  0.00     0.118 C 
BRANCH  35  36
ATOM     36  N   UNL A   1      44.836  22.913  36.299  1.00  0.00    -0.352 N 
ATOM     37  C   UNL A   1      43.994  23.889  35.806  1.00  0.00     0.251 C 
ATOM     38  H   UNL A   1      44.506  22.422  37.087  1.00  0.00     0.163 HD
ATOM     39  O   UNL A   1      42.986  24.203  36.407  1.00  0.00    -0.269 OA
BRANCH  37  40
ATOM     40  C   UNL A   1      44.358  24.552  34.538  1.00  0.00     0.039 A 
ATOM     41  C   UNL A   1      45.017  25.785  34.565  1.00  0.00     0.014 A 
ATOM     42  C   UNL A   1      44.017  23.943  33.330  1.00  0.00     0.014 A 
ATOM     43  C   UNL A   1      45.253  26.460  33.376  1.00  0.00     0.010 A 
ATOM     44  C   UNL A   1      44.284  24.608  32.134  1.00  0.00     0.010 A 
ATOM     45  C   UNL A   1      44.889  25.872  32.158  1.00  0.00    -0.014 A 
BRANCH  45  46
ATOM     46  C   UNL A   1      45.277  26.588  30.937  1.00  0.00     0.031 A 
ATOM     47  C   UNL A   1      45.228  25.763  29.697  1.00  0.00     0.074 A 
ATOM     48  C   UNL A   1      45.118  27.920  30.810  1.00  0.00     0.049 A 
ATOM     49  N   UNL A   1      44.112  25.504  29.084  1.00  0.00    -0.248 NA
ATOM     50  C   UNL A   1      46.363  24.969  29.230  1.00  0.00     0.031 C 
ATOM     51  C   UNL A   1      44.054  28.690  31.466  1.00  0.00     0.029 A 
ATOM     52  N   UNL A   1      45.674  28.795  29.912  1.00  0.00    -0.354 N 
ATOM     53  C   UNL A   1      44.365  24.482  28.193  1.00  0.00     0.074 A 
ATOM     54  C   UNL A   1      45.778  24.190  28.306  1.00  0.00     0.031 C 
ATOM     55  C   UNL A   1      43.903  29.857  30.806  1.00  0.00     0.029 A 
ATOM     56  C   UNL A   1      44.956  29.983  29.806  1.00  0.00     0.049 A 
ATOM     57  H   UNL A   1      46.491  28.604  29.399  1.00  0.00     0.167 HD
ATOM     58  C   UNL A   1      43.394  23.923  27.424  1.00  0.00     0.037 A 
ATOM     59  C   UNL A   1      44.904  30.752  28.684  1.00  0.00     0.037 A 
ATOM     60  C   UNL A   1      42.090  24.499  27.559  1.00  0.00     0.049 A 
ATOM     61  C   UNL A   1      44.014  29.895  27.812  1.00  0.00     0.074 A 
ATOM     62  C   UNL A   1      40.967  24.276  28.324  1.00  0.00     0.029 A 
ATOM     63  N   UNL A   1      41.816  25.648  26.854  1.00  0.00    -0.354 N 
ATOM     64  N   UNL A   1      42.710  29.808  27.897  1.00  0.00    -0.248 NA
ATOM     65  C   UNL A   1      44.640  28.811  27.049  1.00  0.00     0.031 C 
ATOM     66  C   UNL A   1      40.279  25.530  28.372  1.00  0.00     0.029 A 
ATOM     67  C   UNL A   1      41.060  26.450  27.674  1.00  0.00     0.049 A 
ATOM     68  H   UNL A   1      42.106  25.856  25.936  1.00  0.00     0.167 HD
ATOM     69  C   UNL A   1      42.393  28.521  27.454  1.00  0.00     0.074 A 
ATOM     70  C   UNL A   1      43.617  27.979  26.905  1.00  0.00     0.031 C 
ATOM     71  C   UNL A   1      41.217  27.889  27.734  1.00  0.00     0.037 A 
BRANCH  58  72
ATOM     72  C   UNL A   1      43.642  22.898  26.395  1.00  0.00     0.058 A 
ATOM     73  C   UNL A   1      43.145  21.606  26.609  1.00  0.00     0.135 A 
ATOM     74  C   UNL A   1      44.507  23.111  25.316  1.00  0.00     0.135 A 
ATOM     75  F   UNL A   1      42.318  21.368  27.641  1.00  0.00    -0.206 F 
ATOM     76  C   UNL A   1      43.532  20.540  25.810  1.00  0.00     0.059 A 
ATOM     77  C   UNL A   1      44.907  22.057  24.498  1.00  0.00     0.059 A 
ATOM     78  F   UNL A   1      45.008  24.333  25.079  1.00  0.00    -0.206 F 
ATOM     79  C   UNL A   1      44.431  20.772  24.769  1.00  0.00     0.060 A 
BRANCH  79  80
ATOM     80  S   UNL A   1      45.003  19.349  23.817  1.00  0.00     0.124 S 
ATOM     81  O   UNL A   1      44.451  18.235  24.581  1.00  0.00    -0.237 OA
ATOM     82  O   UNL A   1      44.389  19.594  22.516  1.00  0.00    -0.237 OA
ATOM     83  O   UNL A   1      46.457  19.476  23.855  1.00  0.00    -0.744 OA
ENDBRANCH  79  80
ENDBRANCH  58  72
BRANCH  59  84
ATOM     84  C   UNL A   1      46.251  31.277  28.272  1.00  0.00     0.058 A 
ATOM     85  C   UNL A   1      47.104  31.764  29.290  1.00  0.00     0.135 A 
ATOM     86  C   UNL A   1      46.783  31.273  26.976  1.00  0.00     0.135 A 
ATOM     87  F   UNL A   1      46.639  31.940  30.538  1.00  0.00    -0.206 F 
ATOM     88  C   UNL A   1      48.451  32.029  29.072  1.00  0.00     0.059 A 
ATOM     89  C   UNL A   1      48.138  31.512  26.733  1.00  0.00     0.059 A 
ATOM     90  F   UNL A   1      46.016  31.000  25.913  1.00  0.00    -0.206 F 
ATOM     91  C   UNL A   1      48.973  31.841  27.799  1.00  0.00     0.060 A 
BRANCH  91  92
ATOM     92  S   UNL A   1      50.762  31.939  27.588  1.00  0.00     0.124 S 
ATOM     93  O   UNL A   1      51.046  33.301  28.025  1.00  0.00    -0.237 OA
ATOM     94  O   UNL A   1      51.220  30.876  28.478  1.00  0.00    -0.237 OA
ATOM     95  O   UNL A   1      50.949  31.680  26.164  1.00  0.00    -0.744 OA
ENDBRANCH  91  92
ENDBRANCH  59  84
BRANCH  71  96
ATOM     96  C   UNL A   1      40.154  28.722  28.365  1.00  0.00     0.058 A 
ATOM     97  C   UNL A   1      39.211  29.382  27.566  1.00  0.00     0.135 A 
ATOM     98  C   UNL A   1      40.010  28.809  29.760  1.00  0.00     0.135 A 
ATOM     99  F   UNL A   1      39.300  29.326  26.227  1.00  0.00    -0.206 F 
ATOM    100  C   UNL A   1      38.136  30.064  28.127  1.00  0.00     0.059 A 
ATOM    101  C   UNL A   1      38.929  29.466  30.342  1.00  0.00     0.059 A 
ATOM    102  F   UNL A   1      40.893  28.214  30.579  1.00  0.00    -0.206 F 
ATOM    103  C   UNL A   1      37.991  30.083  29.516  1.00  0.00     0.060 A 
BRANCH 103 104
ATOM    104  S   UNL A   1      36.517  30.849  30.221  1.00  0.00     0.124 S 
ATOM    105  O   UNL A   1      35.600  30.849  29.085  1.00  0.00    -0.237 OA
ATOM    106  O   UNL A   1      36.179  29.934  31.306  1.00  0.00    -0.237 OA
ATOM    107  O   UNL A   1      36.984  32.165  30.647  1.00  0.00    -0.744 OA
ENDBRANCH 103 104
ENDBRANCH  71  96
ENDBRANCH  45  46
ENDBRANCH  37  40
ENDBRANCH  35  36
ENDBRANCH  34  35
ENDBRANCH   1  34
TORSDOF 17
ENDMDL
