MODEL 1
REMARK VINA RESULT:     -10.6      0.000      0.000
REMARK SMILES COC(=O)CCN(C)C(=O)NCc1ccc(C(=O)NCCCNC(=O)c2ccc(-c3c4nc(c(-c5c(F)cc(S(=O)(=O)[O-])cc5F)c5ccc([nH]5)c(-c5c(F)cc(S(=O)(=O)[O-])cc5F)c5nc(c(-c6c(F)cc(S(=O)(=O)[O-])cc6F)c6ccc3[nH]6)C=C5)C=C4)cc2)o1
REMARK SMILES IDX 17 1 18 2 19 3 16 5 13 6 14 7 92 8 15 9 12 10 11 11 9 12
REMARK SMILES IDX 10 13 7 15 8 16 6 17 5 18 3 19 4 20 2 21 1 22 20 23 21 24
REMARK SMILES IDX 22 25 23 26 24 27 25 29 26 30 27 31 91 32 28 33 90 34 29 35
REMARK SMILES IDX 30 36 31 37 84 38 32 39 89 40 83 41 85 42 33 43 88 44 82 45
REMARK SMILES IDX 81 46 34 48 68 49 47 50 67 51 48 52 51 53 66 54 86 55 49 56
REMARK SMILES IDX 50 57 65 59 87 60 52 61 35 62 36 63 45 64 37 65 38 66 44 67
REMARK SMILES IDX 46 68 39 69 40 70 41 71 42 72 43 73 69 74 70 75 79 76 71 77
REMARK SMILES IDX 72 78 78 79 80 80 73 81 74 82 75 83 76 84 77 85 53 86 54 87
REMARK SMILES IDX 63 88 55 89 56 90 62 91 64 92 57 93 58 94 59 95 60 96 61 97
REMARK H PARENT 19 4 11 14 23 28 85 47 51 58
REMARK Flexibility Score: inf
ROOT
ATOM      1  C   UNL A   1      31.391  28.929  24.625  1.00  0.00     0.286 C 
ATOM      2  O   UNL A   1      30.481  29.631  24.177  1.00  0.00    -0.266 OA
ATOM      3  N   UNL A   1      32.567  29.588  24.900  1.00  0.00    -0.349 N 
ATOM      4  H   UNL A   1      32.578  30.535  24.630  1.00  0.00     0.163 HD
ENDROOT
BRANCH   1   5
ATOM      5  C   UNL A   1      31.243  27.506  24.869  1.00  0.00     0.191 A 
ATOM      6  C   UNL A   1      30.941  25.427  24.168  1.00  0.00     0.124 A 
ATOM      7  C   UNL A   1      31.011  25.362  25.541  1.00  0.00     0.048 A 
ATOM      8  O   UNL A   1      31.098  26.712  23.754  1.00  0.00    -0.454 OA
ATOM      9  C   UNL A   1      31.216  26.688  25.987  1.00  0.00     0.056 A 
BRANCH   6  10
ATOM     10  C   UNL A   1      30.658  24.415  23.124  1.00  0.00     0.193 C 
BRANCH  10  11
ATOM     11  N   UNL A   1      31.932  24.121  22.505  1.00  0.00    -0.331 N 
ATOM     12  C   UNL A   1      32.967  23.301  22.700  1.00  0.00     0.317 C 
ATOM     13  O   UNL A   1      33.899  23.448  21.903  1.00  0.00    -0.249 OA
ATOM     14  H   UNL A   1      32.078  24.687  21.713  1.00  0.00     0.165 HD
BRANCH  12  15
ATOM     15  N   UNL A   1      32.983  22.313  23.640  1.00  0.00    -0.327 N 
ATOM     16  C   UNL A   1      32.368  21.003  23.527  1.00  0.00     0.148 C 
BRANCH  15  17
ATOM     17  C   UNL A   1      33.748  22.583  24.866  1.00  0.00     0.132 C 
BRANCH  17  18
ATOM     18  C   UNL A   1      35.224  22.858  24.590  1.00  0.00     0.144 C 
BRANCH  18  19
ATOM     19  C   UNL A   1      36.098  21.746  25.115  1.00  0.00     0.307 C 
ATOM     20  O   UNL A   1      35.788  20.562  25.074  1.00  0.00    -0.252 OA
BRANCH  19  21
ATOM     21  O   UNL A   1      37.250  22.249  25.636  1.00  0.00    -0.469 OA
ATOM     22  C   UNL A   1      37.256  23.668  25.814  1.00  0.00     0.282 C 
ENDBRANCH  19  21
ENDBRANCH  18  19
ENDBRANCH  17  18
ENDBRANCH  15  17
ENDBRANCH  12  15
ENDBRANCH  10  11
ENDBRANCH   6  10
ENDBRANCH   1   5
BRANCH   3  23
ATOM     23  C   UNL A   1      33.792  29.126  25.519  1.00  0.00     0.118 C 
BRANCH  23  24
ATOM     24  C   UNL A   1      33.763  29.302  27.035  1.00  0.00     0.042 C 
BRANCH  24  25
ATOM     25  C   UNL A   1      35.156  29.308  27.662  1.00  0.00     0.118 C 
BRANCH  25  26
ATOM     26  N   UNL A   1      35.198  30.113  28.876  1.00  0.00    -0.352 N 
ATOM     27  C   UNL A   1      36.221  30.335  29.762  1.00  0.00     0.251 C 
ATOM     28  H   UNL A   1      34.356  30.574  29.094  1.00  0.00     0.163 HD
ATOM     29  O   UNL A   1      35.965  30.832  30.856  1.00  0.00    -0.269 OA
BRANCH  27  30
ATOM     30  C   UNL A   1      37.615  29.984  29.416  1.00  0.00     0.039 A 
ATOM     31  C   UNL A   1      38.501  29.646  30.442  1.00  0.00     0.014 A 
ATOM     32  C   UNL A   1      38.067  30.044  28.095  1.00  0.00     0.014 A 
ATOM     33  C   UNL A   1      39.824  29.320  30.137  1.00  0.00     0.010 A 
ATOM     34  C   UNL A   1      39.364  29.645  27.784  1.00  0.00     0.010 A 
ATOM     35  C   UNL A   1      40.258  29.288  28.803  1.00  0.00    -0.014 A 
BRANCH  35  36
ATOM     36  C   UNL A   1      41.645  28.885  28.455  1.00  0.00     0.031 A 
ATOM     37  C   UNL A   1      42.744  29.912  28.405  1.00  0.00     0.074 A 
ATOM     38  C   UNL A   1      41.897  27.603  28.123  1.00  0.00     0.049 A 
ATOM     39  N   UNL A   1      43.998  29.762  28.065  1.00  0.00    -0.248 NA
ATOM     40  C   UNL A   1      42.381  31.295  28.758  1.00  0.00     0.031 C 
ATOM     41  C   UNL A   1      40.902  26.528  28.089  1.00  0.00     0.029 A 
ATOM     42  N   UNL A   1      43.061  26.986  27.743  1.00  0.00    -0.354 N 
ATOM     43  C   UNL A   1      44.568  31.028  28.144  1.00  0.00     0.074 A 
ATOM     44  C   UNL A   1      43.510  31.943  28.515  1.00  0.00     0.031 C 
ATOM     45  C   UNL A   1      41.504  25.382  27.736  1.00  0.00     0.029 A 
ATOM     46  C   UNL A   1      42.915  25.645  27.478  1.00  0.00     0.049 A 
ATOM     47  H   UNL A   1      43.921  27.459  27.668  1.00  0.00     0.167 HD
ATOM     48  C   UNL A   1      45.858  31.392  27.947  1.00  0.00     0.037 A 
ATOM     49  C   UNL A   1      43.815  24.732  27.066  1.00  0.00     0.037 A 
ATOM     50  C   UNL A   1      46.907  30.467  27.603  1.00  0.00     0.049 A 
ATOM     51  C   UNL A   1      45.242  25.159  26.853  1.00  0.00     0.074 A 
ATOM     52  C   UNL A   1      48.259  30.719  27.446  1.00  0.00     0.029 A 
ATOM     53  N   UNL A   1      46.723  29.113  27.358  1.00  0.00    -0.354 N 
ATOM     54  N   UNL A   1      45.778  26.348  27.002  1.00  0.00    -0.248 NA
ATOM     55  C   UNL A   1      46.189  24.122  26.423  1.00  0.00     0.031 C 
ATOM     56  C   UNL A   1      48.883  29.531  27.055  1.00  0.00     0.029 A 
ATOM     57  C   UNL A   1      47.931  28.523  27.024  1.00  0.00     0.049 A 
ATOM     58  H   UNL A   1      45.861  28.642  27.412  1.00  0.00     0.167 HD
ATOM     59  C   UNL A   1      47.130  26.195  26.713  1.00  0.00     0.074 A 
ATOM     60  C   UNL A   1      47.330  24.796  26.394  1.00  0.00     0.031 C 
ATOM     61  C   UNL A   1      48.115  27.127  26.714  1.00  0.00     0.037 A 
BRANCH  48  62
ATOM     62  C   UNL A   1      46.208  32.848  28.096  1.00  0.00     0.058 A 
ATOM     63  C   UNL A   1      46.064  33.756  27.033  1.00  0.00     0.135 A 
ATOM     64  C   UNL A   1      46.662  33.351  29.326  1.00  0.00     0.135 A 
ATOM     65  F   UNL A   1      45.649  33.330  25.830  1.00  0.00    -0.206 F 
ATOM     66  C   UNL A   1      46.386  35.102  27.177  1.00  0.00     0.059 A 
ATOM     67  C   UNL A   1      46.961  34.699  29.502  1.00  0.00     0.059 A 
ATOM     68  F   UNL A   1      46.819  32.528  30.376  1.00  0.00    -0.206 F 
ATOM     69  C   UNL A   1      46.835  35.564  28.416  1.00  0.00     0.060 A 
BRANCH  69  70
ATOM     70  S   UNL A   1      47.244  37.314  28.586  1.00  0.00     0.124 S 
ATOM     71  O   UNL A   1      46.513  37.668  29.799  1.00  0.00    -0.237 OA
ATOM     72  O   UNL A   1      48.697  37.284  28.709  1.00  0.00    -0.237 OA
ATOM     73  O   UNL A   1      46.735  37.904  27.352  1.00  0.00    -0.744 OA
ENDBRANCH  69  70
ENDBRANCH  48  62
BRANCH  49  74
ATOM     74  C   UNL A   1      43.399  23.320  26.853  1.00  0.00     0.058 A 
ATOM     75  C   UNL A   1      43.113  22.481  27.941  1.00  0.00     0.135 A 
ATOM     76  C   UNL A   1      43.264  22.784  25.563  1.00  0.00     0.135 A 
ATOM     77  F   UNL A   1      43.231  22.946  29.195  1.00  0.00    -0.206 F 
ATOM     78  C   UNL A   1      42.726  21.157  27.760  1.00  0.00     0.059 A 
ATOM     79  C   UNL A   1      42.852  21.471  25.356  1.00  0.00     0.059 A 
ATOM     80  F   UNL A   1      43.507  23.549  24.487  1.00  0.00    -0.206 F 
ATOM     81  C   UNL A   1      42.596  20.662  26.463  1.00  0.00     0.060 A 
BRANCH  81  82
ATOM     82  S   UNL A   1      42.048  18.956  26.237  1.00  0.00     0.124 S 
ATOM     83  O   UNL A   1      40.669  19.145  25.806  1.00  0.00    -0.237 OA
ATOM     84  O   UNL A   1      42.976  18.471  25.220  1.00  0.00    -0.237 OA
ATOM     85  O   UNL A   1      42.222  18.370  27.563  1.00  0.00    -0.744 OA
ENDBRANCH  81  82
ENDBRANCH  49  74
BRANCH  61  86
ATOM     86  C   UNL A   1      49.509  26.658  26.396  1.00  0.00     0.058 A 
ATOM     87  C   UNL A   1      50.327  26.057  27.365  1.00  0.00     0.135 A 
ATOM     88  C   UNL A   1      50.014  26.772  25.090  1.00  0.00     0.135 A 
ATOM     89  F   UNL A   1      49.896  25.929  28.630  1.00  0.00    -0.206 F 
ATOM     90  C   UNL A   1      51.608  25.611  27.058  1.00  0.00     0.059 A 
ATOM     91  C   UNL A   1      51.280  26.305  24.753  1.00  0.00     0.059 A 
ATOM     92  F   UNL A   1      49.269  27.330  24.123  1.00  0.00    -0.206 F 
ATOM     93  C   UNL A   1      52.075  25.737  25.748  1.00  0.00     0.060 A 
BRANCH  93  94
ATOM     94  S   UNL A   1      53.729  25.130  25.355  1.00  0.00     0.124 S 
ATOM     95  O   UNL A   1      53.912  25.630  23.997  1.00  0.00    -0.237 OA
ATOM     96  O   UNL A   1      54.547  25.769  26.381  1.00  0.00    -0.237 OA
ATOM     97  O   UNL A   1      53.598  23.681  25.479  1.00  0.00    -0.744 OA
ENDBRANCH  93  94
ENDBRANCH  61  86
ENDBRANCH  35  36
ENDBRANCH  27  30
ENDBRANCH  25  26
ENDBRANCH  24  25
ENDBRANCH  23  24
ENDBRANCH   3  23
TORSDOF 20
ENDMDL
MODEL 2
REMARK VINA RESULT:     -10.3      4.037      6.381
REMARK SMILES COC(=O)CCN(C)C(=O)NCc1ccc(C(=O)NCCCNC(=O)c2ccc(-c3c4nc(c(-c5c(F)cc(S(=O)(=O)[O-])cc5F)c5ccc([nH]5)c(-c5c(F)cc(S(=O)(=O)[O-])cc5F)c5nc(c(-c6c(F)cc(S(=O)(=O)[O-])cc6F)c6ccc3[nH]6)C=C5)C=C4)cc2)o1
REMARK SMILES IDX 17 1 18 2 19 3 16 5 13 6 14 7 92 8 15 9 12 10 11 11 9 12
REMARK SMILES IDX 10 13 7 15 8 16 6 17 5 18 3 19 4 20 2 21 1 22 20 23 21 24
REMARK SMILES IDX 22 25 23 26 24 27 25 29 26 30 27 31 91 32 28 33 90 34 29 35
REMARK SMILES IDX 30 36 31 37 84 38 32 39 89 40 83 41 85 42 33 43 88 44 82 45
REMARK SMILES IDX 81 46 34 48 68 49 47 50 67 51 48 52 51 53 66 54 86 55 49 56
REMARK SMILES IDX 50 57 65 59 87 60 52 61 35 62 36 63 45 64 37 65 38 66 44 67
REMARK SMILES IDX 46 68 39 69 40 70 41 71 42 72 43 73 69 74 70 75 79 76 71 77
REMARK SMILES IDX 72 78 78 79 80 80 73 81 74 82 75 83 76 84 77 85 53 86 54 87
REMARK SMILES IDX 63 88 55 89 56 90 62 91 64 92 57 93 58 94 59 95 60 96 61 97
REMARK H PARENT 19 4 11 14 23 28 85 47 51 58
REMARK Flexibility Score: inf
ROOT
ATOM      1  C   UNL A   1      32.841  35.663  29.388  1.00  0.00     0.286 C 
ATOM      2  O   UNL A   1      32.244  36.527  28.743  1.00  0.00    -0.266 OA
ATOM      3  N   UNL A   1      33.324  34.603  28.655  1.00  0.00    -0.349 N 
ATOM      4  H   UNL A   1      33.067  34.613  27.706  1.00  0.00     0.163 HD
ENDROOT
BRANCH   1   5
ATOM      5  C   UNL A   1      33.045  35.750  30.823  1.00  0.00     0.191 A 
ATOM      6  C   UNL A   1      34.313  35.558  32.629  1.00  0.00     0.124 A 
ATOM      7  C   UNL A   1      33.068  35.941  33.074  1.00  0.00     0.048 A 
ATOM      8  O   UNL A   1      34.313  35.458  31.273  1.00  0.00    -0.454 OA
ATOM      9  C   UNL A   1      32.263  36.075  31.920  1.00  0.00     0.056 A 
BRANCH   6  10
ATOM     10  C   UNL A   1      35.561  35.175  33.330  1.00  0.00     0.193 C 
BRANCH  10  11
ATOM     11  N   UNL A   1      35.590  33.729  33.322  1.00  0.00    -0.331 N 
ATOM     12  C   UNL A   1      36.455  32.752  33.041  1.00  0.00     0.317 C 
ATOM     13  O   UNL A   1      35.993  31.610  33.137  1.00  0.00    -0.249 OA
ATOM     14  H   UNL A   1      34.723  33.358  33.604  1.00  0.00     0.165 HD
BRANCH  12  15
ATOM     15  N   UNL A   1      37.771  32.968  32.754  1.00  0.00    -0.327 N 
ATOM     16  C   UNL A   1      38.904  32.645  33.603  1.00  0.00     0.148 C 
BRANCH  15  17
ATOM     17  C   UNL A   1      38.073  33.528  31.430  1.00  0.00     0.132 C 
BRANCH  17  18
ATOM     18  C   UNL A   1      39.461  34.159  31.360  1.00  0.00     0.144 C 
BRANCH  18  19
ATOM     19  C   UNL A   1      39.856  34.460  29.936  1.00  0.00     0.307 C 
ATOM     20  O   UNL A   1      39.054  34.573  29.017  1.00  0.00    -0.252 OA
BRANCH  19  21
ATOM     21  O   UNL A   1      41.208  34.575  29.829  1.00  0.00    -0.469 OA
ATOM     22  C   UNL A   1      41.654  35.400  28.749  1.00  0.00     0.282 C 
ENDBRANCH  19  21
ENDBRANCH  18  19
ENDBRANCH  17  18
ENDBRANCH  15  17
ENDBRANCH  12  15
ENDBRANCH  10  11
ENDBRANCH   6  10
ENDBRANCH   1   5
BRANCH   3  23
ATOM     23  C   UNL A   1      34.147  33.477  29.044  1.00  0.00     0.118 C 
BRANCH  23  24
ATOM     24  C   UNL A   1      35.567  33.595  28.497  1.00  0.00     0.042 C 
BRANCH  24  25
ATOM     25  C   UNL A   1      36.291  32.252  28.419  1.00  0.00     0.118 C 
BRANCH  25  26
ATOM     26  N   UNL A   1      35.923  31.375  29.522  1.00  0.00    -0.352 N 
ATOM     27  C   UNL A   1      36.527  30.239  29.996  1.00  0.00     0.251 C 
ATOM     28  H   UNL A   1      35.108  31.642  30.006  1.00  0.00     0.163 HD
ATOM     29  O   UNL A   1      35.905  29.508  30.764  1.00  0.00    -0.269 OA
BRANCH  27  30
ATOM     30  C   UNL A   1      37.906  29.889  29.595  1.00  0.00     0.039 A 
ATOM     31  C   UNL A   1      38.890  29.782  30.582  1.00  0.00     0.014 A 
ATOM     32  C   UNL A   1      38.246  29.724  28.249  1.00  0.00     0.014 A 
ATOM     33  C   UNL A   1      40.200  29.461  30.223  1.00  0.00     0.010 A 
ATOM     34  C   UNL A   1      39.534  29.329  27.900  1.00  0.00     0.010 A 
ATOM     35  C   UNL A   1      40.527  29.202  28.883  1.00  0.00    -0.014 A 
BRANCH  35  36
ATOM     36  C   UNL A   1      41.902  28.801  28.489  1.00  0.00     0.031 A 
ATOM     37  C   UNL A   1      42.999  29.827  28.409  1.00  0.00     0.074 A 
ATOM     38  C   UNL A   1      42.142  27.520  28.143  1.00  0.00     0.049 A 
ATOM     39  N   UNL A   1      44.242  29.679  28.029  1.00  0.00    -0.248 NA
ATOM     40  C   UNL A   1      42.648  31.209  28.779  1.00  0.00     0.031 C 
ATOM     41  C   UNL A   1      41.146  26.446  28.136  1.00  0.00     0.029 A 
ATOM     42  N   UNL A   1      43.294  26.904  27.725  1.00  0.00    -0.354 N 
ATOM     43  C   UNL A   1      44.815  30.944  28.096  1.00  0.00     0.074 A 
ATOM     44  C   UNL A   1      43.770  31.858  28.504  1.00  0.00     0.031 C 
ATOM     45  C   UNL A   1      41.736  25.301  27.759  1.00  0.00     0.029 A 
ATOM     46  C   UNL A   1      43.139  25.565  27.458  1.00  0.00     0.049 A 
ATOM     47  H   UNL A   1      44.152  27.378  27.625  1.00  0.00     0.167 HD
ATOM     48  C   UNL A   1      46.098  31.308  27.860  1.00  0.00     0.037 A 
ATOM     49  C   UNL A   1      44.025  24.653  27.014  1.00  0.00     0.037 A 
ATOM     50  C   UNL A   1      47.136  30.384  27.479  1.00  0.00     0.049 A 
ATOM     51  C   UNL A   1      45.445  25.081  26.758  1.00  0.00     0.074 A 
ATOM     52  C   UNL A   1      48.482  30.636  27.281  1.00  0.00     0.029 A 
ATOM     53  N   UNL A   1      46.943  29.032  27.233  1.00  0.00    -0.354 N 
ATOM     54  N   UNL A   1      45.986  26.268  26.895  1.00  0.00    -0.248 NA
ATOM     55  C   UNL A   1      46.378  24.045  26.294  1.00  0.00     0.031 C 
ATOM     56  C   UNL A   1      49.093  29.450  26.865  1.00  0.00     0.029 A 
ATOM     57  C   UNL A   1      48.140  28.443  26.860  1.00  0.00     0.049 A 
ATOM     58  H   UNL A   1      46.083  28.561  27.313  1.00  0.00     0.167 HD
ATOM     59  C   UNL A   1      47.328  26.116  26.563  1.00  0.00     0.074 A 
ATOM     60  C   UNL A   1      47.517  24.718  26.232  1.00  0.00     0.031 C 
ATOM     61  C   UNL A   1      48.313  27.047  26.538  1.00  0.00     0.037 A 
BRANCH  48  62
ATOM     62  C   UNL A   1      46.454  32.763  28.004  1.00  0.00     0.058 A 
ATOM     63  C   UNL A   1      47.015  33.275  29.186  1.00  0.00     0.135 A 
ATOM     64  C   UNL A   1      46.265  33.653  26.934  1.00  0.00     0.135 A 
ATOM     65  F   UNL A   1      47.204  32.475  30.246  1.00  0.00    -0.206 F 
ATOM     66  C   UNL A   1      47.345  34.621  29.312  1.00  0.00     0.059 A 
ATOM     67  C   UNL A   1      46.617  34.997  27.026  1.00  0.00     0.059 A 
ATOM     68  F   UNL A   1      45.733  33.219  25.780  1.00  0.00    -0.206 F 
ATOM     69  C   UNL A   1      47.142  35.474  28.226  1.00  0.00     0.060 A 
BRANCH  69  70
ATOM     70  S   UNL A   1      47.580  37.216  28.406  1.00  0.00     0.124 S 
ATOM     71  O   UNL A   1      46.598  37.855  27.535  1.00  0.00    -0.237 OA
ATOM     72  O   UNL A   1      47.397  37.438  29.836  1.00  0.00    -0.237 OA
ATOM     73  O   UNL A   1      48.962  37.270  27.938  1.00  0.00    -0.744 OA
ENDBRANCH  69  70
ENDBRANCH  48  62
BRANCH  49  74
ATOM     74  C   UNL A   1      43.601  23.242  26.808  1.00  0.00     0.058 A 
ATOM     75  C   UNL A   1      43.429  22.722  25.517  1.00  0.00     0.135 A 
ATOM     76  C   UNL A   1      43.374  22.382  27.894  1.00  0.00     0.135 A 
ATOM     77  F   UNL A   1      43.631  23.507  24.446  1.00  0.00    -0.206 F 
ATOM     78  C   UNL A   1      43.029  21.407  25.306  1.00  0.00     0.059 A 
ATOM     79  C   UNL A   1      43.000  21.054  27.709  1.00  0.00     0.059 A 
ATOM     80  F   UNL A   1      43.542  22.823  29.150  1.00  0.00    -0.206 F 
ATOM     81  C   UNL A   1      42.820  20.579  26.410  1.00  0.00     0.060 A 
BRANCH  81  82
ATOM     82  S   UNL A   1      42.346  18.860  26.126  1.00  0.00     0.124 S 
ATOM     83  O   UNL A   1      42.606  18.264  27.431  1.00  0.00    -0.237 OA
ATOM     84  O   UNL A   1      40.941  18.990  25.750  1.00  0.00    -0.237 OA
ATOM     85  O   UNL A   1      43.237  18.439  25.050  1.00  0.00    -0.744 OA
ENDBRANCH  81  82
ENDBRANCH  49  74
BRANCH  61  86
ATOM     86  C   UNL A   1      49.696  26.580  26.174  1.00  0.00     0.058 A 
ATOM     87  C   UNL A   1      50.217  26.742  24.881  1.00  0.00     0.135 A 
ATOM     88  C   UNL A   1      50.527  26.001  27.148  1.00  0.00     0.135 A 
ATOM     89  F   UNL A   1      49.462  27.282  23.911  1.00  0.00    -0.206 F 
ATOM     90  C   UNL A   1      51.503  26.322  24.558  1.00  0.00     0.059 A 
ATOM     91  C   UNL A   1      51.827  25.603  26.855  1.00  0.00     0.059 A 
ATOM     92  F   UNL A   1      50.083  25.833  28.403  1.00  0.00    -0.206 F 
ATOM     93  C   UNL A   1      52.302  25.755  25.554  1.00  0.00     0.060 A 
BRANCH  93  94
ATOM     94  S   UNL A   1      53.978  25.239  25.129  1.00  0.00     0.124 S 
ATOM     95  O   UNL A   1      54.200  25.961  23.880  1.00  0.00    -0.237 OA
ATOM     96  O   UNL A   1      54.749  25.709  26.276  1.00  0.00    -0.237 OA
ATOM     97  O   UNL A   1      53.868  23.789  25.006  1.00  0.00    -0.744 OA
ENDBRANCH  93  94
ENDBRANCH  61  86
ENDBRANCH  35  36
ENDBRANCH  27  30
ENDBRANCH  25  26
ENDBRANCH  24  25
ENDBRANCH  23  24
ENDBRANCH   3  23
TORSDOF 20
ENDMDL
MODEL 3
REMARK VINA RESULT:     -10.3      3.441      9.783
REMARK SMILES COC(=O)CCN(C)C(=O)NCc1ccc(C(=O)NCCCNC(=O)c2ccc(-c3c4nc(c(-c5c(F)cc(S(=O)(=O)[O-])cc5F)c5ccc([nH]5)c(-c5c(F)cc(S(=O)(=O)[O-])cc5F)c5nc(c(-c6c(F)cc(S(=O)(=O)[O-])cc6F)c6ccc3[nH]6)C=C5)C=C4)cc2)o1
REMARK SMILES IDX 17 1 18 2 19 3 16 5 13 6 14 7 92 8 15 9 12 10 11 11 9 12
REMARK SMILES IDX 10 13 7 15 8 16 6 17 5 18 3 19 4 20 2 21 1 22 20 23 21 24
REMARK SMILES IDX 22 25 23 26 24 27 25 29 26 30 27 31 91 32 28 33 90 34 29 35
REMARK SMILES IDX 30 36 31 37 84 38 32 39 89 40 83 41 85 42 33 43 88 44 82 45
REMARK SMILES IDX 81 46 34 48 68 49 47 50 67 51 48 52 51 53 66 54 86 55 49 56
REMARK SMILES IDX 50 57 65 59 87 60 52 61 35 62 36 63 45 64 37 65 38 66 44 67
REMARK SMILES IDX 46 68 39 69 40 70 41 71 42 72 43 73 69 74 70 75 79 76 71 77
REMARK SMILES IDX 72 78 78 79 80 80 73 81 74 82 75 83 76 84 77 85 53 86 54 87
REMARK SMILES IDX 63 88 55 89 56 90 62 91 64 92 57 93 58 94 59 95 60 96 61 97
REMARK H PARENT 19 4 11 14 23 28 85 47 51 58
REMARK Flexibility Score: inf
ROOT
ATOM      1  C   UNL A   1      33.649  26.262  25.613  1.00  0.00     0.286 C 
ATOM      2  O   UNL A   1      34.023  27.294  26.175  1.00  0.00    -0.266 OA
ATOM      3  N   UNL A   1      34.625  25.572  24.930  1.00  0.00    -0.349 N 
ATOM      4  H   UNL A   1      35.498  26.025  24.897  1.00  0.00     0.163 HD
ENDROOT
BRANCH   1   5
ATOM      5  C   UNL A   1      32.281  25.781  25.674  1.00  0.00     0.191 A 
ATOM      6  C   UNL A   1      30.167  25.823  25.015  1.00  0.00     0.124 A 
ATOM      7  C   UNL A   1      30.241  24.867  26.002  1.00  0.00     0.048 A 
ATOM      8  O   UNL A   1      31.394  26.366  24.799  1.00  0.00    -0.454 OA
ATOM      9  C   UNL A   1      31.593  24.833  26.414  1.00  0.00     0.056 A 
BRANCH   6  10
ATOM     10  C   UNL A   1      29.035  26.395  24.247  1.00  0.00     0.193 C 
BRANCH  10  11
ATOM     11  N   UNL A   1      29.630  27.073  23.116  1.00  0.00    -0.331 N 
ATOM     12  C   UNL A   1      29.961  28.317  22.764  1.00  0.00     0.317 C 
ATOM     13  O   UNL A   1      30.421  28.425  21.622  1.00  0.00    -0.249 OA
ATOM     14  H   UNL A   1      29.855  26.435  22.402  1.00  0.00     0.165 HD
BRANCH  12  15
ATOM     15  N   UNL A   1      29.889  29.386  23.607  1.00  0.00    -0.327 N 
ATOM     16  C   UNL A   1      30.894  29.795  24.572  1.00  0.00     0.148 C 
BRANCH  15  17
ATOM     17  C   UNL A   1      28.700  30.242  23.485  1.00  0.00     0.132 C 
BRANCH  17  18
ATOM     18  C   UNL A   1      29.000  31.711  23.774  1.00  0.00     0.144 C 
BRANCH  18  19
ATOM     19  C   UNL A   1      28.409  32.610  22.717  1.00  0.00     0.307 C 
ATOM     20  O   UNL A   1      28.472  33.833  22.752  1.00  0.00    -0.252 OA
BRANCH  19  21
ATOM     21  O   UNL A   1      27.803  31.873  21.746  1.00  0.00    -0.469 OA
ATOM     22  C   UNL A   1      28.047  32.326  20.413  1.00  0.00     0.282 C 
ENDBRANCH  19  21
ENDBRANCH  18  19
ENDBRANCH  17  18
ENDBRANCH  15  17
ENDBRANCH  12  15
ENDBRANCH  10  11
ENDBRANCH   6  10
ENDBRANCH   1   5
BRANCH   3  23
ATOM     23  C   UNL A   1      34.585  24.293  24.252  1.00  0.00     0.118 C 
BRANCH  23  24
ATOM     24  C   UNL A   1      35.890  23.520  24.422  1.00  0.00     0.042 C 
BRANCH  24  25
ATOM     25  C   UNL A   1      36.510  23.692  25.808  1.00  0.00     0.118 C 
BRANCH  25  26
ATOM     26  N   UNL A   1      37.507  22.666  26.085  1.00  0.00    -0.352 N 
ATOM     27  C   UNL A   1      38.835  22.779  26.408  1.00  0.00     0.251 C 
ATOM     28  H   UNL A   1      37.172  21.741  26.031  1.00  0.00     0.163 HD
ATOM     29  O   UNL A   1      39.552  21.783  26.340  1.00  0.00    -0.269 OA
BRANCH  27  30
ATOM     30  C   UNL A   1      39.405  24.074  26.834  1.00  0.00     0.039 A 
ATOM     31  C   UNL A   1      39.315  24.442  28.179  1.00  0.00     0.014 A 
ATOM     32  C   UNL A   1      39.973  24.952  25.907  1.00  0.00     0.014 A 
ATOM     33  C   UNL A   1      39.838  25.665  28.601  1.00  0.00     0.010 A 
ATOM     34  C   UNL A   1      40.564  26.136  26.340  1.00  0.00     0.010 A 
ATOM     35  C   UNL A   1      40.494  26.509  27.691  1.00  0.00    -0.014 A 
BRANCH  35  36
ATOM     36  C   UNL A   1      41.110  27.786  28.132  1.00  0.00     0.031 A 
ATOM     37  C   UNL A   1      42.600  27.981  28.044  1.00  0.00     0.074 A 
ATOM     38  C   UNL A   1      40.330  28.745  28.671  1.00  0.00     0.049 A 
ATOM     39  N   UNL A   1      43.324  28.999  28.433  1.00  0.00    -0.248 NA
ATOM     40  C   UNL A   1      43.383  26.876  27.465  1.00  0.00     0.031 C 
ATOM     41  C   UNL A   1      38.879  28.650  28.852  1.00  0.00     0.029 A 
ATOM     42  N   UNL A   1      40.645  29.982  29.172  1.00  0.00    -0.354 N 
ATOM     43  C   UNL A   1      44.643  28.652  28.166  1.00  0.00     0.074 A 
ATOM     44  C   UNL A   1      44.625  27.309  27.628  1.00  0.00     0.031 C 
ATOM     45  C   UNL A   1      38.429  29.790  29.398  1.00  0.00     0.029 A 
ATOM     46  C   UNL A   1      39.558  30.679  29.644  1.00  0.00     0.049 A 
ATOM     47  H   UNL A   1      41.563  30.337  29.191  1.00  0.00     0.167 HD
ATOM     48  C   UNL A   1      45.765  29.393  28.333  1.00  0.00     0.037 A 
ATOM     49  C   UNL A   1      39.482  31.895  30.219  1.00  0.00     0.037 A 
ATOM     50  C   UNL A   1      45.768  30.739  28.845  1.00  0.00     0.049 A 
ATOM     51  C   UNL A   1      40.741  32.699  30.395  1.00  0.00     0.074 A 
ATOM     52  C   UNL A   1      46.840  31.602  28.992  1.00  0.00     0.029 A 
ATOM     53  N   UNL A   1      44.646  31.418  29.300  1.00  0.00    -0.354 N 
ATOM     54  N   UNL A   1      41.973  32.383  30.071  1.00  0.00    -0.248 NA
ATOM     55  C   UNL A   1      40.602  34.027  31.007  1.00  0.00     0.031 C 
ATOM     56  C   UNL A   1      46.376  32.780  29.583  1.00  0.00     0.029 A 
ATOM     57  C   UNL A   1      45.003  32.677  29.752  1.00  0.00     0.049 A 
ATOM     58  H   UNL A   1      43.730  31.056  29.301  1.00  0.00     0.167 HD
ATOM     59  C   UNL A   1      42.751  33.484  30.413  1.00  0.00     0.074 A 
ATOM     60  C   UNL A   1      41.847  34.478  30.956  1.00  0.00     0.031 C 
ATOM     61  C   UNL A   1      44.090  33.657  30.286  1.00  0.00     0.037 A 
BRANCH  48  62
ATOM     62  C   UNL A   1      47.082  28.766  27.962  1.00  0.00     0.058 A 
ATOM     63  C   UNL A   1      47.597  28.841  26.657  1.00  0.00     0.135 A 
ATOM     64  C   UNL A   1      47.860  28.112  28.932  1.00  0.00     0.135 A 
ATOM     65  F   UNL A   1      46.892  29.441  25.685  1.00  0.00    -0.206 F 
ATOM     66  C   UNL A   1      48.817  28.263  26.320  1.00  0.00     0.059 A 
ATOM     67  C   UNL A   1      49.098  27.554  28.625  1.00  0.00     0.059 A 
ATOM     68  F   UNL A   1      47.418  28.010  30.196  1.00  0.00    -0.206 F 
ATOM     69  C   UNL A   1      49.560  27.621  27.312  1.00  0.00     0.060 A 
BRANCH  69  70
ATOM     70  S   UNL A   1      51.143  26.881  26.859  1.00  0.00     0.124 S 
ATOM     71  O   UNL A   1      50.986  25.522  27.369  1.00  0.00    -0.237 OA
ATOM     72  O   UNL A   1      51.145  27.014  25.406  1.00  0.00    -0.237 OA
ATOM     73  O   UNL A   1      52.120  27.706  27.562  1.00  0.00    -0.744 OA
ENDBRANCH  69  70
ENDBRANCH  48  62
BRANCH  49  74
ATOM     74  C   UNL A   1      38.163  32.435  30.644  1.00  0.00     0.058 A 
ATOM     75  C   UNL A   1      37.717  32.289  31.966  1.00  0.00     0.135 A 
ATOM     76  C   UNL A   1      37.329  33.120  29.746  1.00  0.00     0.135 A 
ATOM     77  F   UNL A   1      38.477  31.639  32.862  1.00  0.00    -0.206 F 
ATOM     78  C   UNL A   1      36.485  32.784  32.380  1.00  0.00     0.059 A 
ATOM     79  C   UNL A   1      36.104  33.648  30.143  1.00  0.00     0.059 A 
ATOM     80  F   UNL A   1      37.715  33.303  28.474  1.00  0.00    -0.206 F 
ATOM     81  C   UNL A   1      35.686  33.465  31.461  1.00  0.00     0.060 A 
BRANCH  81  82
ATOM     82  S   UNL A   1      34.109  34.145  32.019  1.00  0.00     0.124 S 
ATOM     83  O   UNL A   1      33.459  34.456  30.752  1.00  0.00    -0.237 OA
ATOM     84  O   UNL A   1      33.545  33.027  32.770  1.00  0.00    -0.237 OA
ATOM     85  O   UNL A   1      34.505  35.295  32.825  1.00  0.00    -0.744 OA
ENDBRANCH  81  82
ENDBRANCH  49  74
BRANCH  61  86
ATOM     86  C   UNL A   1      44.657  34.985  30.708  1.00  0.00     0.058 A 
ATOM     87  C   UNL A   1      44.719  36.077  29.829  1.00  0.00     0.135 A 
ATOM     88  C   UNL A   1      45.104  35.178  32.026  1.00  0.00     0.135 A 
ATOM     89  F   UNL A   1      44.312  35.945  28.556  1.00  0.00    -0.206 F 
ATOM     90  C   UNL A   1      45.230  37.307  30.233  1.00  0.00     0.059 A 
ATOM     91  C   UNL A   1      45.588  36.407  32.460  1.00  0.00     0.059 A 
ATOM     92  F   UNL A   1      45.057  34.170  32.911  1.00  0.00    -0.206 F 
ATOM     93  C   UNL A   1      45.660  37.462  31.552  1.00  0.00     0.060 A 
BRANCH  93  94
ATOM     94  S   UNL A   1      46.294  39.070  32.072  1.00  0.00     0.124 S 
ATOM     95  O   UNL A   1      46.969  38.731  33.320  1.00  0.00    -0.237 OA
ATOM     96  O   UNL A   1      47.167  39.435  30.960  1.00  0.00    -0.237 OA
ATOM     97  O   UNL A   1      45.090  39.884  32.209  1.00  0.00    -0.744 OA
ENDBRANCH  93  94
ENDBRANCH  61  86
ENDBRANCH  35  36
ENDBRANCH  27  30
ENDBRANCH  25  26
ENDBRANCH  24  25
ENDBRANCH  23  24
ENDBRANCH   3  23
TORSDOF 20
ENDMDL
