MODEL 1
REMARK VINA RESULT:     -11.1      0.000      0.000
REMARK SMILES C[NH2+][C@]1(C(=O)NCCCNC(=O)c2ccc(-c3c4nc(c(-c5c(F)cc(S(=O)(=O)[O-])cc5F)c5ccc([nH]5)c(-c5c(F)cc(S(=O)(=O)[O-])cc5F)c5nc(c(-c6c(F)cc(S(=O)(=O)[O-])cc6F)c6ccc3[nH]6)C=C5)C=C4)cc2)CC[C@@H]([N@@H+](C)C[C@@H]2CCCCO2)C1
REMARK SMILES IDX 8 1 7 2 6 3 4 4 5 5 3 7 79 8 91 9 80 10 81 11 2 12 1 13
REMARK SMILES IDX 82 16 83 17 84 19 85 20 86 21 90 22 87 23 89 24 88 25 9 26
REMARK SMILES IDX 10 27 11 28 12 30 13 31 14 32 78 33 15 34 77 35 16 36 17 37
REMARK SMILES IDX 18 38 71 39 19 40 76 41 70 42 72 43 20 44 75 45 69 46 68 47
REMARK SMILES IDX 21 49 55 50 34 51 54 52 35 53 38 54 53 55 73 56 36 57 37 58
REMARK SMILES IDX 52 60 74 61 39 62 22 63 23 64 32 65 24 66 25 67 31 68 33 69
REMARK SMILES IDX 26 70 27 71 28 72 29 73 30 74 56 75 57 76 66 77 58 78 59 79
REMARK SMILES IDX 65 80 67 81 60 82 61 83 62 84 63 85 64 86 40 87 41 88 50 89
REMARK SMILES IDX 42 90 43 91 49 92 51 93 44 94 45 95 46 96 47 97 48 98
REMARK H PARENT 6 6 2 14 2 15 82 18 10 29 72 48 38 59
REMARK Flexibility Score: inf
ROOT
ATOM      1  C   UNL A   1      33.572  28.292  25.198  1.00  0.00     0.042 C 
ENDROOT
BRANCH   1   2
ATOM      2  C   UNL A   1      32.706  27.094  24.838  1.00  0.00     0.118 C 
BRANCH   2   3
ATOM      3  N   UNL A   1      33.168  26.456  23.628  1.00  0.00    -0.351 N 
ATOM      4  C   UNL A   1      33.592  25.190  23.359  1.00  0.00     0.281 C 
ATOM      5  O   UNL A   1      34.035  25.059  22.213  1.00  0.00    -0.268 OA
ATOM      6  H   UNL A   1      33.178  27.052  22.843  1.00  0.00     0.163 HD
BRANCH   4   7
ATOM      7  C   UNL A   1      33.419  23.984  24.360  1.00  0.00     0.181 C 
ATOM      8  C   UNL A   1      32.010  23.849  24.978  1.00  0.00     0.085 C 
ATOM      9  C   UNL A   1      33.591  22.642  23.611  1.00  0.00     0.144 C 
ATOM     10  C   UNL A   1      31.864  22.372  25.345  1.00  0.00     0.072 C 
ATOM     11  C   UNL A   1      32.734  21.592  24.348  1.00  0.00     0.191 C 
BRANCH   7  12
ATOM     12  N   UNL A   1      34.314  24.114  25.554  1.00  0.00    -0.336 N 
ATOM     13  C   UNL A   1      35.625  23.490  25.486  1.00  0.00     0.331 C 
ATOM     14  H   UNL A   1      34.459  25.109  25.721  1.00  0.00     0.346 HD
ATOM     15  H   UNL A   1      33.828  23.610  26.297  1.00  0.00     0.346 HD
ENDBRANCH   7  12
BRANCH  11  16
ATOM     16  N   UNL A   1      32.108  20.593  23.460  1.00  0.00    -0.333 N 
ATOM     17  C   UNL A   1      31.925  21.098  22.100  1.00  0.00     0.333 C 
ATOM     18  H   UNL A   1      31.196  20.475  23.900  1.00  0.00     0.348 HD
BRANCH  16  19
ATOM     19  C   UNL A   1      32.618  19.201  23.488  1.00  0.00     0.294 C 
BRANCH  19  20
ATOM     20  C   UNL A   1      33.391  18.714  24.750  1.00  0.00     0.173 C 
ATOM     21  C   UNL A   1      34.665  17.927  24.408  1.00  0.00     0.038 C 
ATOM     22  O   UNL A   1      32.547  18.063  25.712  1.00  0.00    -0.372 OA
ATOM     23  C   UNL A   1      34.413  16.440  24.221  1.00  0.00     0.005 C 
ATOM     24  C   UNL A   1      32.360  16.657  25.568  1.00  0.00     0.161 C 
ATOM     25  C   UNL A   1      33.674  15.911  25.434  1.00  0.00     0.029 C 
ENDBRANCH  19  20
ENDBRANCH  16  19
ENDBRANCH  11  16
ENDBRANCH   4   7
ENDBRANCH   2   3
ENDBRANCH   1   2
BRANCH   1  26
ATOM     26  C   UNL A   1      33.883  28.385  26.682  1.00  0.00     0.118 C 
BRANCH  26  27
ATOM     27  N   UNL A   1      33.737  29.742  27.194  1.00  0.00    -0.352 N 
ATOM     28  C   UNL A   1      34.580  30.488  27.982  1.00  0.00     0.251 C 
ATOM     29  H   UNL A   1      32.903  30.197  26.935  1.00  0.00     0.163 HD
ATOM     30  O   UNL A   1      34.167  31.527  28.485  1.00  0.00    -0.269 OA
BRANCH  28  31
ATOM     31  C   UNL A   1      35.965  30.034  28.235  1.00  0.00     0.039 A 
ATOM     32  C   UNL A   1      36.906  30.131  27.206  1.00  0.00     0.014 A 
ATOM     33  C   UNL A   1      36.333  29.491  29.468  1.00  0.00     0.014 A 
ATOM     34  C   UNL A   1      38.228  29.745  27.438  1.00  0.00     0.010 A 
ATOM     35  C   UNL A   1      37.667  29.196  29.727  1.00  0.00     0.010 A 
ATOM     36  C   UNL A   1      38.627  29.310  28.711  1.00  0.00    -0.014 A 
BRANCH  36  37
ATOM     37  C   UNL A   1      40.042  28.965  29.002  1.00  0.00     0.031 A 
ATOM     38  C   UNL A   1      40.965  29.996  29.593  1.00  0.00     0.074 A 
ATOM     39  C   UNL A   1      40.509  27.745  28.672  1.00  0.00     0.049 A 
ATOM     40  N   UNL A   1      42.244  29.908  29.855  1.00  0.00    -0.248 NA
ATOM     41  C   UNL A   1      40.380  31.311  29.906  1.00  0.00     0.031 C 
ATOM     42  C   UNL A   1      39.721  26.679  28.046  1.00  0.00     0.029 A 
ATOM     43  N   UNL A   1      41.759  27.197  28.804  1.00  0.00    -0.354 N 
ATOM     44  C   UNL A   1      42.618  31.153  30.346  1.00  0.00     0.074 A 
ATOM     45  C   UNL A   1      41.445  31.998  30.293  1.00  0.00     0.031 C 
ATOM     46  C   UNL A   1      40.499  25.600  27.874  1.00  0.00     0.029 A 
ATOM     47  C   UNL A   1      41.849  25.908  28.334  1.00  0.00     0.049 A 
ATOM     48  H   UNL A   1      42.520  27.681  29.198  1.00  0.00     0.167 HD
ATOM     49  C   UNL A   1      43.824  31.549  30.820  1.00  0.00     0.037 A 
ATOM     50  C   UNL A   1      42.905  25.072  28.269  1.00  0.00     0.037 A 
ATOM     51  C   UNL A   1      44.980  30.692  30.887  1.00  0.00     0.049 A 
ATOM     52  C   UNL A   1      44.236  25.537  28.793  1.00  0.00     0.074 A 
ATOM     53  C   UNL A   1      46.231  30.975  31.404  1.00  0.00     0.029 A 
ATOM     54  N   UNL A   1      45.028  29.388  30.413  1.00  0.00    -0.354 N 
ATOM     55  N   UNL A   1      44.556  26.695  29.321  1.00  0.00    -0.248 NA
ATOM     56  C   UNL A   1      45.349  24.581  28.720  1.00  0.00     0.031 C 
ATOM     57  C   UNL A   1      47.051  29.862  31.196  1.00  0.00     0.029 A 
ATOM     58  C   UNL A   1      46.296  28.862  30.604  1.00  0.00     0.049 A 
ATOM     59  H   UNL A   1      44.273  28.907  30.004  1.00  0.00     0.167 HD
ATOM     60  C   UNL A   1      45.899  26.597  29.668  1.00  0.00     0.074 A 
ATOM     61  C   UNL A   1      46.327  25.262  29.302  1.00  0.00     0.031 C 
ATOM     62  C   UNL A   1      46.704  27.528  30.238  1.00  0.00     0.037 A 
BRANCH  49  63
ATOM     63  C   UNL A   1      43.954  32.969  31.302  1.00  0.00     0.058 A 
ATOM     64  C   UNL A   1      43.734  33.318  32.646  1.00  0.00     0.135 A 
ATOM     65  C   UNL A   1      44.331  33.992  30.418  1.00  0.00     0.135 A 
ATOM     66  F   UNL A   1      43.356  32.384  33.534  1.00  0.00    -0.206 F 
ATOM     67  C   UNL A   1      43.849  34.632  33.086  1.00  0.00     0.059 A 
ATOM     68  C   UNL A   1      44.485  35.309  30.843  1.00  0.00     0.059 A 
ATOM     69  F   UNL A   1      44.555  33.718  29.123  1.00  0.00    -0.206 F 
ATOM     70  C   UNL A   1      44.225  35.621  32.176  1.00  0.00     0.060 A 
BRANCH  70  71
ATOM     71  S   UNL A   1      44.371  37.321  32.765  1.00  0.00     0.124 S 
ATOM     72  O   UNL A   1      45.652  37.277  33.466  1.00  0.00    -0.237 OA
ATOM     73  O   UNL A   1      44.357  38.085  31.521  1.00  0.00    -0.237 OA
ATOM     74  O   UNL A   1      43.198  37.491  33.616  1.00  0.00    -0.744 OA
ENDBRANCH  70  71
ENDBRANCH  49  63
BRANCH  50  75
ATOM     75  C   UNL A   1      42.735  23.705  27.706  1.00  0.00     0.058 A 
ATOM     76  C   UNL A   1      42.488  22.607  28.544  1.00  0.00     0.135 A 
ATOM     77  C   UNL A   1      42.794  23.471  26.324  1.00  0.00     0.135 A 
ATOM     78  F   UNL A   1      42.429  22.777  29.873  1.00  0.00    -0.206 F 
ATOM     79  C   UNL A   1      42.323  21.323  28.034  1.00  0.00     0.059 A 
ATOM     80  C   UNL A   1      42.603  22.201  25.788  1.00  0.00     0.059 A 
ATOM     81  F   UNL A   1      43.009  24.490  25.477  1.00  0.00    -0.206 F 
ATOM     82  C   UNL A   1      42.377  21.131  26.652  1.00  0.00     0.060 A 
BRANCH  82  83
ATOM     83  S   UNL A   1      42.107  19.470  25.999  1.00  0.00     0.124 S 
ATOM     84  O   UNL A   1      40.665  19.469  25.782  1.00  0.00    -0.237 OA
ATOM     85  O   UNL A   1      42.935  19.476  24.797  1.00  0.00    -0.237 OA
ATOM     86  O   UNL A   1      42.583  18.605  27.075  1.00  0.00    -0.744 OA
ENDBRANCH  82  83
ENDBRANCH  50  75
BRANCH  62  87
ATOM     87  C   UNL A   1      48.123  27.126  30.537  1.00  0.00     0.058 A 
ATOM     88  C   UNL A   1      49.177  27.415  29.656  1.00  0.00     0.135 A 
ATOM     89  C   UNL A   1      48.439  26.488  31.749  1.00  0.00     0.135 A 
ATOM     90  F   UNL A   1      48.930  28.017  28.482  1.00  0.00    -0.206 F 
ATOM     91  C   UNL A   1      50.490  27.065  29.955  1.00  0.00     0.059 A 
ATOM     92  C   UNL A   1      49.748  26.158  32.081  1.00  0.00     0.059 A 
ATOM     93  F   UNL A   1      47.470  26.197  32.632  1.00  0.00    -0.206 F 
ATOM     94  C   UNL A   1      50.766  26.440  31.172  1.00  0.00     0.060 A 
BRANCH  94  95
ATOM     95  S   UNL A   1      52.479  26.023  31.562  1.00  0.00     0.124 S 
ATOM     96  O   UNL A   1      52.333  24.692  32.141  1.00  0.00    -0.237 OA
ATOM     97  O   UNL A   1      53.118  26.078  30.251  1.00  0.00    -0.237 OA
ATOM     98  O   UNL A   1      52.881  27.072  32.493  1.00  0.00    -0.744 OA
ENDBRANCH  94  95
ENDBRANCH  62  87
ENDBRANCH  36  37
ENDBRANCH  28  31
ENDBRANCH  26  27
ENDBRANCH   1  26
TORSDOF 17
ENDMDL
MODEL 2
REMARK VINA RESULT:     -10.9      1.429      2.253
REMARK SMILES C[NH2+][C@]1(C(=O)NCCCNC(=O)c2ccc(-c3c4nc(c(-c5c(F)cc(S(=O)(=O)[O-])cc5F)c5ccc([nH]5)c(-c5c(F)cc(S(=O)(=O)[O-])cc5F)c5nc(c(-c6c(F)cc(S(=O)(=O)[O-])cc6F)c6ccc3[nH]6)C=C5)C=C4)cc2)CC[C@@H]([N@@H+](C)C[C@@H]2CCCCO2)C1
REMARK SMILES IDX 8 1 7 2 6 3 4 4 5 5 3 7 79 8 91 9 80 10 81 11 2 12 1 13
REMARK SMILES IDX 82 16 83 17 84 19 85 20 86 21 90 22 87 23 89 24 88 25 9 26
REMARK SMILES IDX 10 27 11 28 12 30 13 31 14 32 78 33 15 34 77 35 16 36 17 37
REMARK SMILES IDX 18 38 71 39 19 40 76 41 70 42 72 43 20 44 75 45 69 46 68 47
REMARK SMILES IDX 21 49 55 50 34 51 54 52 35 53 38 54 53 55 73 56 36 57 37 58
REMARK SMILES IDX 52 60 74 61 39 62 22 63 23 64 32 65 24 66 25 67 31 68 33 69
REMARK SMILES IDX 26 70 27 71 28 72 29 73 30 74 56 75 57 76 66 77 58 78 59 79
REMARK SMILES IDX 65 80 67 81 60 82 61 83 62 84 63 85 64 86 40 87 41 88 50 89
REMARK SMILES IDX 42 90 43 91 49 92 51 93 44 94 45 95 46 96 47 97 48 98
REMARK H PARENT 6 6 2 14 2 15 82 18 10 29 72 48 38 59
REMARK Flexibility Score: inf
ROOT
ATOM      1  C   UNL A   1      34.187  28.279  25.872  1.00  0.00     0.042 C 
ENDROOT
BRANCH   1   2
ATOM      2  C   UNL A   1      33.389  28.909  24.741  1.00  0.00     0.118 C 
BRANCH   2   3
ATOM      3  N   UNL A   1      33.643  28.245  23.485  1.00  0.00    -0.351 N 
ATOM      4  C   UNL A   1      33.189  27.075  22.953  1.00  0.00     0.281 C 
ATOM      5  O   UNL A   1      33.745  26.778  21.889  1.00  0.00    -0.268 OA
ATOM      6  H   UNL A   1      34.266  28.731  22.898  1.00  0.00     0.163 HD
BRANCH   4   7
ATOM      7  C   UNL A   1      31.990  26.252  23.561  1.00  0.00     0.181 C 
ATOM      8  C   UNL A   1      31.384  25.191  22.615  1.00  0.00     0.085 C 
ATOM      9  C   UNL A   1      32.482  25.400  24.756  1.00  0.00     0.144 C 
ATOM     10  C   UNL A   1      30.759  24.138  23.530  1.00  0.00     0.072 C 
ATOM     11  C   UNL A   1      31.583  24.148  24.826  1.00  0.00     0.191 C 
BRANCH   7  12
ATOM     12  N   UNL A   1      30.823  27.127  23.899  1.00  0.00    -0.336 N 
ATOM     13  C   UNL A   1      30.075  27.710  22.798  1.00  0.00     0.331 C 
ATOM     14  H   UNL A   1      30.171  26.568  24.448  1.00  0.00     0.346 HD
ATOM     15  H   UNL A   1      31.233  27.926  24.384  1.00  0.00     0.346 HD
ENDBRANCH   7  12
BRANCH  11  16
ATOM     16  N   UNL A   1      32.287  22.924  25.253  1.00  0.00    -0.333 N 
ATOM     17  C   UNL A   1      31.775  21.729  24.585  1.00  0.00     0.333 C 
ATOM     18  H   UNL A   1      32.044  22.886  26.243  1.00  0.00     0.348 HD
BRANCH  16  19
ATOM     19  C   UNL A   1      33.768  22.946  25.328  1.00  0.00     0.294 C 
BRANCH  19  20
ATOM     20  C   UNL A   1      34.578  22.023  24.368  1.00  0.00     0.173 C 
ATOM     21  C   UNL A   1      35.280  20.867  25.095  1.00  0.00     0.038 C 
ATOM     22  O   UNL A   1      35.433  22.751  23.474  1.00  0.00    -0.372 OA
ATOM     23  C   UNL A   1      36.664  21.237  25.602  1.00  0.00     0.005 C 
ATOM     24  C   UNL A   1      36.752  23.045  23.929  1.00  0.00     0.161 C 
ATOM     25  C   UNL A   1      37.468  21.817  24.455  1.00  0.00     0.029 C 
ENDBRANCH  19  20
ENDBRANCH  16  19
ENDBRANCH  11  16
ENDBRANCH   4   7
ENDBRANCH   2   3
ENDBRANCH   1   2
BRANCH   1  26
ATOM     26  C   UNL A   1      33.558  28.487  27.240  1.00  0.00     0.118 C 
BRANCH  26  27
ATOM     27  N   UNL A   1      33.480  29.896  27.605  1.00  0.00    -0.352 N 
ATOM     28  C   UNL A   1      34.392  30.697  28.248  1.00  0.00     0.251 C 
ATOM     29  H   UNL A   1      32.641  30.345  27.351  1.00  0.00     0.163 HD
ATOM     30  O   UNL A   1      34.039  31.798  28.657  1.00  0.00    -0.269 OA
BRANCH  28  31
ATOM     31  C   UNL A   1      35.780  30.231  28.459  1.00  0.00     0.039 A 
ATOM     32  C   UNL A   1      36.693  30.329  27.406  1.00  0.00     0.014 A 
ATOM     33  C   UNL A   1      36.178  29.675  29.678  1.00  0.00     0.014 A 
ATOM     34  C   UNL A   1      38.017  29.931  27.598  1.00  0.00     0.010 A 
ATOM     35  C   UNL A   1      37.516  29.368  29.898  1.00  0.00     0.010 A 
ATOM     36  C   UNL A   1      38.448  29.483  28.857  1.00  0.00    -0.014 A 
BRANCH  36  37
ATOM     37  C   UNL A   1      39.867  29.125  29.107  1.00  0.00     0.031 A 
ATOM     38  C   UNL A   1      40.820  30.152  29.657  1.00  0.00     0.074 A 
ATOM     39  C   UNL A   1      40.310  27.897  28.775  1.00  0.00     0.049 A 
ATOM     40  N   UNL A   1      42.106  30.051  29.879  1.00  0.00    -0.248 NA
ATOM     41  C   UNL A   1      40.260  31.476  29.974  1.00  0.00     0.031 C 
ATOM     42  C   UNL A   1      39.491  26.833  28.186  1.00  0.00     0.029 A 
ATOM     43  N   UNL A   1      41.558  27.335  28.873  1.00  0.00    -0.354 N 
ATOM     44  C   UNL A   1      42.509  31.297  30.344  1.00  0.00     0.074 A 
ATOM     45  C   UNL A   1      41.345  32.155  30.319  1.00  0.00     0.031 C 
ATOM     46  C   UNL A   1      40.251  25.743  28.001  1.00  0.00     0.029 A 
ATOM     47  C   UNL A   1      41.619  26.041  28.413  1.00  0.00     0.049 A 
ATOM     48  H   UNL A   1      42.337  27.815  29.237  1.00  0.00     0.167 HD
ATOM     49  C   UNL A   1      43.734  31.684  30.775  1.00  0.00     0.037 A 
ATOM     50  C   UNL A   1      42.662  25.193  28.324  1.00  0.00     0.037 A 
ATOM     51  C   UNL A   1      44.882  30.815  30.814  1.00  0.00     0.049 A 
ATOM     52  C   UNL A   1      44.015  25.648  28.801  1.00  0.00     0.074 A 
ATOM     53  C   UNL A   1      46.152  31.089  31.288  1.00  0.00     0.029 A 
ATOM     54  N   UNL A   1      44.901  29.506  30.354  1.00  0.00    -0.354 N 
ATOM     55  N   UNL A   1      44.364  26.807  29.305  1.00  0.00    -0.248 NA
ATOM     56  C   UNL A   1      45.114  24.678  28.703  1.00  0.00     0.031 C 
ATOM     57  C   UNL A   1      46.953  29.965  31.066  1.00  0.00     0.029 A 
ATOM     58  C   UNL A   1      46.168  28.968  30.509  1.00  0.00     0.049 A 
ATOM     59  H   UNL A   1      44.128  29.029  29.973  1.00  0.00     0.167 HD
ATOM     60  C   UNL A   1      45.716  26.698  29.611  1.00  0.00     0.074 A 
ATOM     61  C   UNL A   1      46.118  25.354  29.246  1.00  0.00     0.031 C 
ATOM     62  C   UNL A   1      46.550  27.625  30.145  1.00  0.00     0.037 A 
BRANCH  49  63
ATOM     63  C   UNL A   1      43.895  33.108  31.238  1.00  0.00     0.058 A 
ATOM     64  C   UNL A   1      43.726  33.472  32.585  1.00  0.00     0.135 A 
ATOM     65  C   UNL A   1      44.250  34.118  30.330  1.00  0.00     0.135 A 
ATOM     66  F   UNL A   1      43.372  32.551  33.495  1.00  0.00    -0.206 F 
ATOM     67  C   UNL A   1      43.869  34.789  33.007  1.00  0.00     0.059 A 
ATOM     68  C   UNL A   1      44.432  35.438  30.736  1.00  0.00     0.059 A 
ATOM     69  F   UNL A   1      44.426  33.829  29.031  1.00  0.00    -0.206 F 
ATOM     70  C   UNL A   1      44.222  35.766  32.074  1.00  0.00     0.060 A 
BRANCH  70  71
ATOM     71  S   UNL A   1      44.407  37.470  32.640  1.00  0.00     0.124 S 
ATOM     72  O   UNL A   1      45.749  37.442  33.215  1.00  0.00    -0.237 OA
ATOM     73  O   UNL A   1      44.266  38.228  31.400  1.00  0.00    -0.237 OA
ATOM     74  O   UNL A   1      43.318  37.632  33.599  1.00  0.00    -0.744 OA
ENDBRANCH  70  71
ENDBRANCH  49  63
BRANCH  50  75
ATOM     75  C   UNL A   1      42.460  23.822  27.782  1.00  0.00     0.058 A 
ATOM     76  C   UNL A   1      42.408  23.594  26.398  1.00  0.00     0.135 A 
ATOM     77  C   UNL A   1      42.334  22.711  28.630  1.00  0.00     0.135 A 
ATOM     78  F   UNL A   1      42.517  24.623  25.545  1.00  0.00    -0.206 F 
ATOM     79  C   UNL A   1      42.224  22.319  25.875  1.00  0.00     0.059 A 
ATOM     80  C   UNL A   1      42.177  21.422  28.131  1.00  0.00     0.059 A 
ATOM     81  F   UNL A   1      42.394  22.871  29.962  1.00  0.00    -0.206 F 
ATOM     82  C   UNL A   1      42.114  21.237  26.751  1.00  0.00     0.060 A 
BRANCH  82  83
ATOM     83  S   UNL A   1      41.929  19.580  26.059  1.00  0.00     0.124 S 
ATOM     84  O   UNL A   1      40.494  19.524  25.806  1.00  0.00    -0.237 OA
ATOM     85  O   UNL A   1      42.785  19.645  24.878  1.00  0.00    -0.237 OA
ATOM     86  O   UNL A   1      42.416  18.712  27.128  1.00  0.00    -0.744 OA
ENDBRANCH  82  83
ENDBRANCH  50  75
BRANCH  62  87
ATOM     87  C   UNL A   1      47.973  27.210  30.403  1.00  0.00     0.058 A 
ATOM     88  C   UNL A   1      48.999  27.467  29.480  1.00  0.00     0.135 A 
ATOM     89  C   UNL A   1      48.323  26.593  31.616  1.00  0.00     0.135 A 
ATOM     90  F   UNL A   1      48.719  28.048  28.303  1.00  0.00    -0.206 F 
ATOM     91  C   UNL A   1      50.317  27.105  29.741  1.00  0.00     0.059 A 
ATOM     92  C   UNL A   1      49.638  26.252  31.910  1.00  0.00     0.059 A 
ATOM     93  F   UNL A   1      47.382  26.334  32.539  1.00  0.00    -0.206 F 
ATOM     94  C   UNL A   1      50.627  26.502  30.960  1.00  0.00     0.060 A 
BRANCH  94  95
ATOM     95  S   UNL A   1      52.347  26.070  31.299  1.00  0.00     0.124 S 
ATOM     96  O   UNL A   1      52.925  26.088  29.960  1.00  0.00    -0.237 OA
ATOM     97  O   UNL A   1      52.769  27.148  32.187  1.00  0.00    -0.237 OA
ATOM     98  O   UNL A   1      52.251  24.754  31.923  1.00  0.00    -0.744 OA
ENDBRANCH  94  95
ENDBRANCH  62  87
ENDBRANCH  36  37
ENDBRANCH  28  31
ENDBRANCH  26  27
ENDBRANCH   1  26
TORSDOF 17
ENDMDL
MODEL 3
REMARK VINA RESULT:     -10.8      3.635      9.165
REMARK SMILES C[NH2+][C@]1(C(=O)NCCCNC(=O)c2ccc(-c3c4nc(c(-c5c(F)cc(S(=O)(=O)[O-])cc5F)c5ccc([nH]5)c(-c5c(F)cc(S(=O)(=O)[O-])cc5F)c5nc(c(-c6c(F)cc(S(=O)(=O)[O-])cc6F)c6ccc3[nH]6)C=C5)C=C4)cc2)CC[C@@H]([N@@H+](C)C[C@@H]2CCCCO2)C1
REMARK SMILES IDX 8 1 7 2 6 3 4 4 5 5 3 7 79 8 91 9 80 10 81 11 2 12 1 13
REMARK SMILES IDX 82 16 83 17 84 19 85 20 86 21 90 22 87 23 89 24 88 25 9 26
REMARK SMILES IDX 10 27 11 28 12 30 13 31 14 32 78 33 15 34 77 35 16 36 17 37
REMARK SMILES IDX 18 38 71 39 19 40 76 41 70 42 72 43 20 44 75 45 69 46 68 47
REMARK SMILES IDX 21 49 55 50 34 51 54 52 35 53 38 54 53 55 73 56 36 57 37 58
REMARK SMILES IDX 52 60 74 61 39 62 22 63 23 64 32 65 24 66 25 67 31 68 33 69
REMARK SMILES IDX 26 70 27 71 28 72 29 73 30 74 56 75 57 76 66 77 58 78 59 79
REMARK SMILES IDX 65 80 67 81 60 82 61 83 62 84 63 85 64 86 40 87 41 88 50 89
REMARK SMILES IDX 42 90 43 91 49 92 51 93 44 94 45 95 46 96 47 97 48 98
REMARK H PARENT 6 6 2 14 2 15 82 18 10 29 72 48 38 59
REMARK Flexibility Score: inf
ROOT
ATOM      1  C   UNL A   1      38.374  19.547  25.005  1.00  0.00     0.042 C 
ENDROOT
BRANCH   1   2
ATOM      2  C   UNL A   1      37.098  20.369  25.101  1.00  0.00     0.118 C 
BRANCH   2   3
ATOM      3  N   UNL A   1      37.065  21.410  24.101  1.00  0.00    -0.351 N 
ATOM      4  C   UNL A   1      36.416  22.606  24.037  1.00  0.00     0.281 C 
ATOM      5  O   UNL A   1      36.540  23.168  22.943  1.00  0.00    -0.268 OA
ATOM      6  H   UNL A   1      37.621  21.218  23.310  1.00  0.00     0.163 HD
BRANCH   4   7
ATOM      7  C   UNL A   1      35.689  23.267  25.270  1.00  0.00     0.181 C 
ATOM      8  C   UNL A   1      35.251  24.733  25.058  1.00  0.00     0.085 C 
ATOM      9  C   UNL A   1      34.346  22.548  25.544  1.00  0.00     0.144 C 
ATOM     10  C   UNL A   1      34.076  24.951  26.011  1.00  0.00     0.072 C 
ATOM     11  C   UNL A   1      33.391  23.586  26.170  1.00  0.00     0.191 C 
BRANCH   7  12
ATOM     12  N   UNL A   1      36.579  23.337  26.474  1.00  0.00    -0.336 N 
ATOM     13  C   UNL A   1      37.825  24.074  26.349  1.00  0.00     0.331 C 
ATOM     14  H   UNL A   1      36.042  23.770  27.225  1.00  0.00     0.346 HD
ATOM     15  H   UNL A   1      36.865  22.372  26.638  1.00  0.00     0.346 HD
ENDBRANCH   7  12
BRANCH  11  16
ATOM     16  N   UNL A   1      31.980  23.426  25.768  1.00  0.00    -0.333 N 
ATOM     17  C   UNL A   1      31.147  22.924  26.859  1.00  0.00     0.333 C 
ATOM     18  H   UNL A   1      32.056  22.709  25.047  1.00  0.00     0.348 HD
BRANCH  16  19
ATOM     19  C   UNL A   1      31.330  24.522  25.010  1.00  0.00     0.294 C 
BRANCH  19  20
ATOM     20  C   UNL A   1      30.983  24.289  23.509  1.00  0.00     0.173 C 
ATOM     21  C   UNL A   1      31.759  23.117  22.888  1.00  0.00     0.038 C 
ATOM     22  O   UNL A   1      31.025  25.492  22.727  1.00  0.00    -0.372 OA
ATOM     23  C   UNL A   1      33.105  23.531  22.318  1.00  0.00     0.005 C 
ATOM     24  C   UNL A   1      32.277  25.847  22.144  1.00  0.00     0.161 C 
ATOM     25  C   UNL A   1      32.900  24.699  21.373  1.00  0.00     0.029 C 
ENDBRANCH  19  20
ENDBRANCH  16  19
ENDBRANCH  11  16
ENDBRANCH   4   7
ENDBRANCH   2   3
ENDBRANCH   1   2
BRANCH   1  26
ATOM     26  C   UNL A   1      39.560  20.194  25.700  1.00  0.00     0.118 C 
BRANCH  26  27
ATOM     27  N   UNL A   1      40.550  19.214  26.132  1.00  0.00    -0.352 N 
ATOM     28  C   UNL A   1      41.875  19.376  26.453  1.00  0.00     0.251 C 
ATOM     29  H   UNL A   1      40.217  18.291  26.204  1.00  0.00     0.163 HD
ATOM     30  O   UNL A   1      42.587  18.385  26.577  1.00  0.00    -0.269 OA
BRANCH  28  31
ATOM     31  C   UNL A   1      42.442  20.731  26.633  1.00  0.00     0.039 A 
ATOM     32  C   UNL A   1      42.832  21.455  25.503  1.00  0.00     0.014 A 
ATOM     33  C   UNL A   1      42.614  21.279  27.907  1.00  0.00     0.014 A 
ATOM     34  C   UNL A   1      43.332  22.751  25.650  1.00  0.00     0.010 A 
ATOM     35  C   UNL A   1      43.022  22.601  28.045  1.00  0.00     0.010 A 
ATOM     36  C   UNL A   1      43.395  23.348  26.919  1.00  0.00    -0.014 A 
BRANCH  36  37
ATOM     37  C   UNL A   1      43.853  24.750  27.092  1.00  0.00     0.031 A 
ATOM     38  C   UNL A   1      45.303  25.101  26.890  1.00  0.00     0.074 A 
ATOM     39  C   UNL A   1      42.977  25.689  27.497  1.00  0.00     0.049 A 
ATOM     40  N   UNL A   1      45.906  26.249  27.059  1.00  0.00    -0.248 NA
ATOM     41  C   UNL A   1      46.199  24.011  26.468  1.00  0.00     0.031 C 
ATOM     42  C   UNL A   1      41.556  25.457  27.774  1.00  0.00     0.029 A 
ATOM     43  N   UNL A   1      43.149  27.025  27.756  1.00  0.00    -0.354 N 
ATOM     44  C   UNL A   1      47.248  26.018  26.781  1.00  0.00     0.074 A 
ATOM     45  C   UNL A   1      47.382  24.608  26.487  1.00  0.00     0.031 C 
ATOM     46  C   UNL A   1      40.985  26.615  28.139  1.00  0.00     0.029 A 
ATOM     47  C   UNL A   1      42.001  27.661  28.165  1.00  0.00     0.049 A 
ATOM     48  H   UNL A   1      44.014  27.485  27.659  1.00  0.00     0.167 HD
ATOM     49  C   UNL A   1      48.272  26.905  26.750  1.00  0.00     0.037 A 
ATOM     50  C   UNL A   1      41.793  28.941  28.531  1.00  0.00     0.037 A 
ATOM     51  C   UNL A   1      48.123  28.311  27.025  1.00  0.00     0.049 A 
ATOM     52  C   UNL A   1      42.947  29.906  28.497  1.00  0.00     0.074 A 
ATOM     53  C   UNL A   1      49.083  29.305  26.962  1.00  0.00     0.029 A 
ATOM     54  N   UNL A   1      46.941  28.920  27.422  1.00  0.00    -0.354 N 
ATOM     55  N   UNL A   1      44.196  29.686  28.163  1.00  0.00    -0.248 NA
ATOM     56  C   UNL A   1      42.663  31.295  28.885  1.00  0.00     0.031 C 
ATOM     57  C   UNL A   1      48.494  30.506  27.373  1.00  0.00     0.029 A 
ATOM     58  C   UNL A   1      47.154  30.273  27.633  1.00  0.00     0.049 A 
ATOM     59  H   UNL A   1      46.079  28.460  27.536  1.00  0.00     0.167 HD
ATOM     60  C   UNL A   1      44.841  30.913  28.272  1.00  0.00     0.074 A 
ATOM     61  C   UNL A   1      43.840  31.873  28.691  1.00  0.00     0.031 C 
ATOM     62  C   UNL A   1      46.144  31.217  28.046  1.00  0.00     0.037 A 
BRANCH  49  63
ATOM     63  C   UNL A   1      49.641  26.380  26.408  1.00  0.00     0.058 A 
ATOM     64  C   UNL A   1      50.445  25.732  27.361  1.00  0.00     0.135 A 
ATOM     65  C   UNL A   1      50.147  26.501  25.104  1.00  0.00     0.135 A 
ATOM     66  F   UNL A   1      50.021  25.601  28.628  1.00  0.00    -0.206 F 
ATOM     67  C   UNL A   1      51.712  25.255  27.042  1.00  0.00     0.059 A 
ATOM     68  C   UNL A   1      51.398  26.002  24.753  1.00  0.00     0.059 A 
ATOM     69  F   UNL A   1      49.423  27.111  24.152  1.00  0.00    -0.206 F 
ATOM     70  C   UNL A   1      52.180  25.395  25.735  1.00  0.00     0.060 A 
BRANCH  70  71
ATOM     71  S   UNL A   1      53.826  24.768  25.338  1.00  0.00     0.124 S 
ATOM     72  O   UNL A   1      54.184  25.597  24.190  1.00  0.00    -0.237 OA
ATOM     73  O   UNL A   1      54.567  25.036  26.567  1.00  0.00    -0.237 OA
ATOM     74  O   UNL A   1      53.593  23.358  25.044  1.00  0.00    -0.744 OA
ENDBRANCH  70  71
ENDBRANCH  49  63
BRANCH  50  75
ATOM     75  C   UNL A   1      40.432  29.385  28.938  1.00  0.00     0.058 A 
ATOM     76  C   UNL A   1      39.416  29.558  27.986  1.00  0.00     0.135 A 
ATOM     77  C   UNL A   1      40.112  29.624  30.283  1.00  0.00     0.135 A 
ATOM     78  F   UNL A   1      39.673  29.348  26.686  1.00  0.00    -0.206 F 
ATOM     79  C   UNL A   1      38.137  29.968  28.349  1.00  0.00     0.059 A 
ATOM     80  C   UNL A   1      38.833  30.006  30.675  1.00  0.00     0.059 A 
ATOM     81  F   UNL A   1      41.042  29.455  31.236  1.00  0.00    -0.206 F 
ATOM     82  C   UNL A   1      37.854  30.184  29.699  1.00  0.00     0.060 A 
BRANCH  82  83
ATOM     83  S   UNL A   1      36.177  30.663  30.164  1.00  0.00     0.124 S 
ATOM     84  O   UNL A   1      35.866  29.684  31.199  1.00  0.00    -0.237 OA
ATOM     85  O   UNL A   1      36.366  32.037  30.620  1.00  0.00    -0.237 OA
ATOM     86  O   UNL A   1      35.429  30.522  28.917  1.00  0.00    -0.744 OA
ENDBRANCH  82  83
ENDBRANCH  50  75
BRANCH  62  87
ATOM     87  C   UNL A   1      46.558  32.654  28.210  1.00  0.00     0.058 A 
ATOM     88  C   UNL A   1      46.424  33.588  27.170  1.00  0.00     0.135 A 
ATOM     89  C   UNL A   1      47.048  33.114  29.444  1.00  0.00     0.135 A 
ATOM     90  F   UNL A   1      45.967  33.200  25.969  1.00  0.00    -0.206 F 
ATOM     91  C   UNL A   1      46.782  34.921  27.341  1.00  0.00     0.059 A 
ATOM     92  C   UNL A   1      47.383  34.449  29.646  1.00  0.00     0.059 A 
ATOM     93  F   UNL A   1      47.187  32.266  30.475  1.00  0.00    -0.206 F 
ATOM     94  C   UNL A   1      47.257  35.343  28.584  1.00  0.00     0.060 A 
BRANCH  94  95
ATOM     95  S   UNL A   1      47.686  37.083  28.801  1.00  0.00     0.124 S 
ATOM     96  O   UNL A   1      48.807  36.996  29.731  1.00  0.00    -0.237 OA
ATOM     97  O   UNL A   1      48.020  37.493  27.441  1.00  0.00    -0.237 OA
ATOM     98  O   UNL A   1      46.465  37.669  29.344  1.00  0.00    -0.744 OA
ENDBRANCH  94  95
ENDBRANCH  62  87
ENDBRANCH  36  37
ENDBRANCH  28  31
ENDBRANCH  26  27
ENDBRANCH   1  26
TORSDOF 17
ENDMDL
