MODEL 1
REMARK VINA RESULT:     -13.7      0.000      0.000
REMARK SMILES C[C@@H]1C(C(=O)NCCCNC(=O)c2ccc(-c3c4nc(c(-c5c(F)cc(S(=O)(=O)[O-])cc5F)c5ccc([nH]5)c(-c5c(F)cc(S(=O)(=O)[O-])cc5F)c5nc(c(-c6c(F)cc(S(=O)(=O)[O-])cc6F)c6ccc3[nH]6)C=C5)C=C4)cc2)=NC2=C1C(=O)C[C@H](c1ccccc1)C2
REMARK SMILES IDX 9 1 8 2 7 3 6 4 4 5 5 6 3 8 1 9 2 10 81 11 79 12 80 13 82 14
REMARK SMILES IDX 92 15 83 16 84 17 85 18 86 19 87 20 91 21 88 22 90 23 89 24
REMARK SMILES IDX 10 25 11 26 12 28 13 29 14 30 78 31 15 32 77 33 16 34 17 35
REMARK SMILES IDX 18 36 71 37 19 38 76 39 70 40 72 41 20 42 75 43 69 44 68 45
REMARK SMILES IDX 21 47 55 48 34 49 54 50 35 51 38 52 53 53 73 54 36 55 37 56
REMARK SMILES IDX 52 58 74 59 39 60 22 61 23 62 32 63 24 64 25 65 31 66 33 67
REMARK SMILES IDX 26 68 27 69 28 70 29 71 30 72 56 73 57 74 66 75 58 76 59 77
REMARK SMILES IDX 65 78 67 79 60 80 61 81 62 82 63 83 64 84 40 85 41 86 50 87
REMARK SMILES IDX 42 88 43 89 49 90 51 91 44 92 45 93 46 94 47 95 48 96
REMARK H PARENT 6 7 10 27 72 46 38 57
REMARK Flexibility Score: inf
ROOT
ATOM      1  C   UNL A   1      38.124  22.704  25.152  1.00  0.00     0.118 C 
ENDROOT
BRANCH   1   2
ATOM      2  C   UNL A   1      36.616  22.527  25.172  1.00  0.00     0.042 C 
BRANCH   2   3
ATOM      3  C   UNL A   1      35.885  23.868  25.255  1.00  0.00     0.118 C 
BRANCH   3   4
ATOM      4  N   UNL A   1      34.835  23.941  26.261  1.00  0.00    -0.351 N 
ATOM      5  C   UNL A   1      33.754  23.091  26.428  1.00  0.00     0.266 C 
ATOM      6  O   UNL A   1      33.475  22.674  27.547  1.00  0.00    -0.268 OA
ATOM      7  H   UNL A   1      34.902  24.688  26.900  1.00  0.00     0.163 HD
BRANCH   5   8
ATOM      8  C   UNL A   1      32.764  22.869  25.290  1.00  0.00     0.113 C 
ATOM      9  C   UNL A   1      32.547  20.656  24.205  1.00  0.00     0.020 C 
ATOM     10  C   UNL A   1      33.079  22.079  24.053  1.00  0.00     0.076 C 
ATOM     11  C   UNL A   1      32.205  22.940  23.210  1.00  0.00     0.026 C 
ATOM     12  N   UNL A   1      31.571  23.417  25.289  1.00  0.00    -0.251 NA
ATOM     13  C   UNL A   1      31.245  23.498  23.951  1.00  0.00     0.049 C 
ATOM     14  C   UNL A   1      32.802  23.820  22.177  1.00  0.00     0.161 C 
ATOM     15  C   UNL A   1      30.467  24.663  23.417  1.00  0.00     0.065 C 
ATOM     16  O   UNL A   1      33.577  23.327  21.357  1.00  0.00    -0.294 OA
ATOM     17  C   UNL A   1      32.569  25.339  22.254  1.00  0.00     0.089 C 
ATOM     18  C   UNL A   1      31.454  25.834  23.234  1.00  0.00     0.033 C 
BRANCH  18  19
ATOM     19  C   UNL A   1      31.925  26.446  24.570  1.00  0.00    -0.044 A 
ATOM     20  C   UNL A   1      33.298  26.647  24.834  1.00  0.00     0.004 A 
ATOM     21  C   UNL A   1      31.034  26.797  25.593  1.00  0.00     0.004 A 
ATOM     22  C   UNL A   1      33.749  27.303  25.979  1.00  0.00     0.000 A 
ATOM     23  C   UNL A   1      31.487  27.433  26.760  1.00  0.00     0.000 A 
ATOM     24  C   UNL A   1      32.839  27.712  26.939  1.00  0.00     0.000 A 
ENDBRANCH  18  19
ENDBRANCH   5   8
ENDBRANCH   3   4
ENDBRANCH   2   3
ENDBRANCH   1   2
BRANCH   1  25
ATOM     25  N   UNL A   1      38.836  21.857  26.123  1.00  0.00    -0.352 N 
ATOM     26  C   UNL A   1      39.798  22.235  27.045  1.00  0.00     0.251 C 
ATOM     27  H   UNL A   1      38.599  20.901  26.115  1.00  0.00     0.163 HD
ATOM     28  O   UNL A   1      40.465  21.394  27.644  1.00  0.00    -0.269 OA
BRANCH  26  29
ATOM     29  C   UNL A   1      40.006  23.674  27.276  1.00  0.00     0.039 A 
ATOM     30  C   UNL A   1      38.969  24.604  27.179  1.00  0.00     0.014 A 
ATOM     31  C   UNL A   1      41.261  24.050  27.733  1.00  0.00     0.014 A 
ATOM     32  C   UNL A   1      39.191  25.894  27.660  1.00  0.00     0.010 A 
ATOM     33  C   UNL A   1      41.393  25.222  28.419  1.00  0.00     0.010 A 
ATOM     34  C   UNL A   1      40.400  26.183  28.315  1.00  0.00    -0.014 A 
BRANCH  34  35
ATOM     35  C   UNL A   1      40.635  27.461  28.975  1.00  0.00     0.031 A 
ATOM     36  C   UNL A   1      41.692  28.301  28.352  1.00  0.00     0.074 A 
ATOM     37  C   UNL A   1      39.814  27.945  29.933  1.00  0.00     0.049 A 
ATOM     38  N   UNL A   1      42.875  28.536  28.814  1.00  0.00    -0.248 NA
ATOM     39  C   UNL A   1      41.482  28.812  26.988  1.00  0.00     0.031 C 
ATOM     40  C   UNL A   1      38.543  27.395  30.428  1.00  0.00     0.029 A 
ATOM     41  N   UNL A   1      39.897  29.121  30.607  1.00  0.00    -0.354 N 
ATOM     42  C   UNL A   1      43.471  29.422  27.922  1.00  0.00     0.074 A 
ATOM     43  C   UNL A   1      42.659  29.390  26.733  1.00  0.00     0.031 C 
ATOM     44  C   UNL A   1      37.869  28.346  31.112  1.00  0.00     0.029 A 
ATOM     45  C   UNL A   1      38.736  29.496  31.275  1.00  0.00     0.049 A 
ATOM     46  H   UNL A   1      40.717  29.667  30.621  1.00  0.00     0.167 HD
ATOM     47  C   UNL A   1      44.446  30.282  28.328  1.00  0.00     0.037 A 
ATOM     48  C   UNL A   1      38.507  30.677  31.900  1.00  0.00     0.037 A 
ATOM     49  C   UNL A   1      44.917  29.939  29.648  1.00  0.00     0.049 A 
ATOM     50  C   UNL A   1      39.841  31.277  32.175  1.00  0.00     0.074 A 
ATOM     51  C   UNL A   1      45.501  28.819  30.209  1.00  0.00     0.029 A 
ATOM     52  N   UNL A   1      44.429  30.675  30.703  1.00  0.00    -0.354 N 
ATOM     53  N   UNL A   1      40.708  30.761  33.004  1.00  0.00    -0.248 NA
ATOM     54  C   UNL A   1      40.399  32.170  31.170  1.00  0.00     0.031 C 
ATOM     55  C   UNL A   1      44.898  28.698  31.496  1.00  0.00     0.029 A 
ATOM     56  C   UNL A   1      44.051  29.792  31.682  1.00  0.00     0.049 A 
ATOM     57  H   UNL A   1      44.361  31.657  30.747  1.00  0.00     0.167 HD
ATOM     58  C   UNL A   1      41.934  30.903  32.371  1.00  0.00     0.074 A 
ATOM     59  C   UNL A   1      41.692  31.852  31.286  1.00  0.00     0.031 C 
ATOM     60  C   UNL A   1      42.955  30.022  32.598  1.00  0.00     0.037 A 
BRANCH  47  61
ATOM     61  C   UNL A   1      44.734  31.634  27.717  1.00  0.00     0.058 A 
ATOM     62  C   UNL A   1      45.921  31.814  26.976  1.00  0.00     0.135 A 
ATOM     63  C   UNL A   1      44.041  32.816  28.055  1.00  0.00     0.135 A 
ATOM     64  F   UNL A   1      46.665  30.759  26.607  1.00  0.00    -0.206 F 
ATOM     65  C   UNL A   1      46.419  33.078  26.657  1.00  0.00     0.059 A 
ATOM     66  C   UNL A   1      44.491  34.083  27.698  1.00  0.00     0.059 A 
ATOM     67  F   UNL A   1      42.949  32.807  28.829  1.00  0.00    -0.206 F 
ATOM     68  C   UNL A   1      45.701  34.206  27.035  1.00  0.00     0.060 A 
BRANCH  68  69
ATOM     69  S   UNL A   1      46.386  35.839  26.701  1.00  0.00     0.124 S 
ATOM     70  O   UNL A   1      47.124  35.599  25.467  1.00  0.00    -0.237 OA
ATOM     71  O   UNL A   1      45.180  36.652  26.579  1.00  0.00    -0.237 OA
ATOM     72  O   UNL A   1      47.199  36.108  27.884  1.00  0.00    -0.744 OA
ENDBRANCH  68  69
ENDBRANCH  47  61
BRANCH  48  73
ATOM     73  C   UNL A   1      37.247  31.469  31.940  1.00  0.00     0.058 A 
ATOM     74  C   UNL A   1      36.723  31.918  33.165  1.00  0.00     0.135 A 
ATOM     75  C   UNL A   1      36.709  32.061  30.779  1.00  0.00     0.135 A 
ATOM     76  F   UNL A   1      37.181  31.412  34.320  1.00  0.00    -0.206 F 
ATOM     77  C   UNL A   1      35.783  32.952  33.241  1.00  0.00     0.059 A 
ATOM     78  C   UNL A   1      35.762  33.085  30.830  1.00  0.00     0.059 A 
ATOM     79  F   UNL A   1      37.159  31.733  29.559  1.00  0.00    -0.206 F 
ATOM     80  C   UNL A   1      35.331  33.550  32.066  1.00  0.00     0.060 A 
BRANCH  80  81
ATOM     81  S   UNL A   1      34.299  35.034  32.165  1.00  0.00     0.124 S 
ATOM     82  O   UNL A   1      33.115  34.533  32.855  1.00  0.00    -0.237 OA
ATOM     83  O   UNL A   1      35.144  35.947  32.929  1.00  0.00    -0.237 OA
ATOM     84  O   UNL A   1      34.100  35.400  30.765  1.00  0.00    -0.744 OA
ENDBRANCH  80  81
ENDBRANCH  48  73
BRANCH  60  85
ATOM     85  C   UNL A   1      42.846  29.084  33.775  1.00  0.00     0.058 A 
ATOM     86  C   UNL A   1      43.157  29.414  35.106  1.00  0.00     0.135 A 
ATOM     87  C   UNL A   1      42.268  27.826  33.549  1.00  0.00     0.135 A 
ATOM     88  F   UNL A   1      43.608  30.633  35.430  1.00  0.00    -0.206 F 
ATOM     89  C   UNL A   1      42.954  28.512  36.155  1.00  0.00     0.059 A 
ATOM     90  C   UNL A   1      42.025  26.925  34.582  1.00  0.00     0.059 A 
ATOM     91  F   UNL A   1      41.888  27.472  32.311  1.00  0.00    -0.206 F 
ATOM     92  C   UNL A   1      42.390  27.266  35.880  1.00  0.00     0.060 A 
BRANCH  92  93
ATOM     93  S   UNL A   1      42.096  26.109  37.235  1.00  0.00     0.124 S 
ATOM     94  O   UNL A   1      42.280  24.819  36.582  1.00  0.00    -0.237 OA
ATOM     95  O   UNL A   1      43.126  26.483  38.201  1.00  0.00    -0.237 OA
ATOM     96  O   UNL A   1      40.728  26.410  37.650  1.00  0.00    -0.744 OA
ENDBRANCH  92  93
ENDBRANCH  60  85
ENDBRANCH  34  35
ENDBRANCH  26  29
ENDBRANCH   1  25
TORSDOF 14
ENDMDL
MODEL 2
REMARK VINA RESULT:     -13.5      2.973      9.331
REMARK SMILES C[C@@H]1C(C(=O)NCCCNC(=O)c2ccc(-c3c4nc(c(-c5c(F)cc(S(=O)(=O)[O-])cc5F)c5ccc([nH]5)c(-c5c(F)cc(S(=O)(=O)[O-])cc5F)c5nc(c(-c6c(F)cc(S(=O)(=O)[O-])cc6F)c6ccc3[nH]6)C=C5)C=C4)cc2)=NC2=C1C(=O)C[C@H](c1ccccc1)C2
REMARK SMILES IDX 9 1 8 2 7 3 6 4 4 5 5 6 3 8 1 9 2 10 81 11 79 12 80 13 82 14
REMARK SMILES IDX 92 15 83 16 84 17 85 18 86 19 87 20 91 21 88 22 90 23 89 24
REMARK SMILES IDX 10 25 11 26 12 28 13 29 14 30 78 31 15 32 77 33 16 34 17 35
REMARK SMILES IDX 18 36 71 37 19 38 76 39 70 40 72 41 20 42 75 43 69 44 68 45
REMARK SMILES IDX 21 47 55 48 34 49 54 50 35 51 38 52 53 53 73 54 36 55 37 56
REMARK SMILES IDX 52 58 74 59 39 60 22 61 23 62 32 63 24 64 25 65 31 66 33 67
REMARK SMILES IDX 26 68 27 69 28 70 29 71 30 72 56 73 57 74 66 75 58 76 59 77
REMARK SMILES IDX 65 78 67 79 60 80 61 81 62 82 63 83 64 84 40 85 41 86 50 87
REMARK SMILES IDX 42 88 43 89 49 90 51 91 44 92 45 93 46 94 47 95 48 96
REMARK H PARENT 6 7 10 27 72 46 38 57
REMARK Flexibility Score: inf
ROOT
ATOM      1  C   UNL A   1      33.493  30.181  27.654  1.00  0.00     0.118 C 
ENDROOT
BRANCH   1   2
ATOM      2  C   UNL A   1      32.241  29.811  26.876  1.00  0.00     0.042 C 
BRANCH   2   3
ATOM      3  C   UNL A   1      32.529  29.625  25.386  1.00  0.00     0.118 C 
BRANCH   3   4
ATOM      4  N   UNL A   1      33.361  28.476  25.054  1.00  0.00    -0.351 N 
ATOM      5  C   UNL A   1      33.231  27.615  23.976  1.00  0.00     0.266 C 
ATOM      6  O   UNL A   1      34.220  27.313  23.317  1.00  0.00    -0.268 OA
ATOM      7  H   UNL A   1      34.104  28.289  25.671  1.00  0.00     0.163 HD
BRANCH   5   8
ATOM      8  C   UNL A   1      31.933  26.847  23.754  1.00  0.00     0.113 C 
ATOM      9  C   UNL A   1      29.776  28.035  23.509  1.00  0.00     0.020 C 
ATOM     10  C   UNL A   1      30.638  27.182  24.436  1.00  0.00     0.076 C 
ATOM     11  C   UNL A   1      30.220  25.754  24.469  1.00  0.00     0.026 C 
ATOM     12  N   UNL A   1      31.877  25.785  22.984  1.00  0.00    -0.251 NA
ATOM     13  C   UNL A   1      30.805  25.073  23.481  1.00  0.00     0.049 C 
ATOM     14  C   UNL A   1      30.122  25.037  25.762  1.00  0.00     0.161 C 
ATOM     15  C   UNL A   1      30.825  23.574  23.512  1.00  0.00     0.065 C 
ATOM     16  O   UNL A   1      29.456  25.540  26.668  1.00  0.00    -0.294 OA
ATOM     17  C   UNL A   1      30.976  23.778  25.994  1.00  0.00     0.089 C 
ATOM     18  C   UNL A   1      31.660  23.146  24.737  1.00  0.00     0.033 C 
BRANCH  18  19
ATOM     19  C   UNL A   1      33.170  23.407  24.562  1.00  0.00    -0.044 A 
ATOM     20  C   UNL A   1      33.880  24.209  25.483  1.00  0.00     0.004 A 
ATOM     21  C   UNL A   1      33.902  22.901  23.480  1.00  0.00     0.004 A 
ATOM     22  C   UNL A   1      35.265  24.368  25.420  1.00  0.00     0.000 A 
ATOM     23  C   UNL A   1      35.292  23.083  23.398  1.00  0.00     0.000 A 
ATOM     24  C   UNL A   1      35.976  23.789  24.383  1.00  0.00     0.000 A 
ENDBRANCH  18  19
ENDBRANCH   5   8
ENDBRANCH   3   4
ENDBRANCH   2   3
ENDBRANCH   1   2
BRANCH   1  25
ATOM     25  N   UNL A   1      33.959  31.556  27.411  1.00  0.00    -0.352 N 
ATOM     26  C   UNL A   1      35.171  32.124  27.767  1.00  0.00     0.251 C 
ATOM     27  H   UNL A   1      33.329  32.146  26.937  1.00  0.00     0.163 HD
ATOM     28  O   UNL A   1      35.345  33.339  27.696  1.00  0.00    -0.269 OA
BRANCH  26  29
ATOM     29  C   UNL A   1      36.239  31.231  28.244  1.00  0.00     0.039 A 
ATOM     30  C   UNL A   1      36.428  29.948  27.726  1.00  0.00     0.014 A 
ATOM     31  C   UNL A   1      37.143  31.777  29.144  1.00  0.00     0.014 A 
ATOM     32  C   UNL A   1      37.606  29.272  28.044  1.00  0.00     0.010 A 
ATOM     33  C   UNL A   1      38.387  31.225  29.251  1.00  0.00     0.010 A 
ATOM     34  C   UNL A   1      38.600  29.938  28.781  1.00  0.00    -0.014 A 
BRANCH  34  35
ATOM     35  C   UNL A   1      39.912  29.349  29.017  1.00  0.00     0.031 A 
ATOM     36  C   UNL A   1      40.238  29.101  30.447  1.00  0.00     0.074 A 
ATOM     37  C   UNL A   1      40.679  28.860  28.017  1.00  0.00     0.049 A 
ATOM     38  N   UNL A   1      41.074  29.757  31.181  1.00  0.00    -0.248 NA
ATOM     39  C   UNL A   1      39.437  28.122  31.198  1.00  0.00     0.031 C 
ATOM     40  C   UNL A   1      40.360  28.726  26.587  1.00  0.00     0.029 A 
ATOM     41  N   UNL A   1      41.897  28.266  28.095  1.00  0.00    -0.354 N 
ATOM     42  C   UNL A   1      41.086  29.119  32.418  1.00  0.00     0.074 A 
ATOM     43  C   UNL A   1      39.926  28.266  32.434  1.00  0.00     0.031 C 
ATOM     44  C   UNL A   1      41.233  27.876  26.003  1.00  0.00     0.029 A 
ATOM     45  C   UNL A   1      42.279  27.565  26.956  1.00  0.00     0.049 A 
ATOM     46  H   UNL A   1      42.466  28.328  28.896  1.00  0.00     0.167 HD
ATOM     47  C   UNL A   1      42.182  29.171  33.227  1.00  0.00     0.037 A 
ATOM     48  C   UNL A   1      43.372  26.773  26.822  1.00  0.00     0.037 A 
ATOM     49  C   UNL A   1      43.123  30.157  32.754  1.00  0.00     0.049 A 
ATOM     50  C   UNL A   1      44.322  27.176  27.894  1.00  0.00     0.074 A 
ATOM     51  C   UNL A   1      43.071  31.520  32.531  1.00  0.00     0.029 A 
ATOM     52  N   UNL A   1      44.207  29.702  32.040  1.00  0.00    -0.354 N 
ATOM     53  N   UNL A   1      44.908  28.343  27.939  1.00  0.00    -0.248 NA
ATOM     54  C   UNL A   1      44.243  26.472  29.165  1.00  0.00     0.031 C 
ATOM     55  C   UNL A   1      43.799  31.722  31.322  1.00  0.00     0.029 A 
ATOM     56  C   UNL A   1      44.326  30.492  30.924  1.00  0.00     0.049 A 
ATOM     57  H   UNL A   1      44.790  28.947  32.283  1.00  0.00     0.167 HD
ATOM     58  C   UNL A   1      44.871  28.708  29.277  1.00  0.00     0.074 A 
ATOM     59  C   UNL A   1      44.527  27.481  29.995  1.00  0.00     0.031 C 
ATOM     60  C   UNL A   1      44.833  30.022  29.653  1.00  0.00     0.037 A 
BRANCH  47  61
ATOM     61  C   UNL A   1      42.587  28.111  34.223  1.00  0.00     0.058 A 
ATOM     62  C   UNL A   1      42.583  28.423  35.599  1.00  0.00     0.135 A 
ATOM     63  C   UNL A   1      43.234  26.906  33.874  1.00  0.00     0.135 A 
ATOM     64  F   UNL A   1      42.002  29.550  36.044  1.00  0.00    -0.206 F 
ATOM     65  C   UNL A   1      43.235  27.635  36.547  1.00  0.00     0.059 A 
ATOM     66  C   UNL A   1      43.842  26.077  34.810  1.00  0.00     0.059 A 
ATOM     67  F   UNL A   1      43.392  26.524  32.601  1.00  0.00    -0.206 F 
ATOM     68  C   UNL A   1      43.873  26.469  36.139  1.00  0.00     0.060 A 
BRANCH  68  69
ATOM     69  S   UNL A   1      44.790  25.497  37.347  1.00  0.00     0.124 S 
ATOM     70  O   UNL A   1      44.461  24.136  36.937  1.00  0.00    -0.237 OA
ATOM     71  O   UNL A   1      46.162  25.927  37.100  1.00  0.00    -0.237 OA
ATOM     72  O   UNL A   1      44.224  25.928  38.622  1.00  0.00    -0.744 OA
ENDBRANCH  68  69
ENDBRANCH  47  61
BRANCH  48  73
ATOM     73  C   UNL A   1      43.491  25.484  26.087  1.00  0.00     0.058 A 
ATOM     74  C   UNL A   1      44.594  25.236  25.250  1.00  0.00     0.135 A 
ATOM     75  C   UNL A   1      42.705  24.364  26.427  1.00  0.00     0.135 A 
ATOM     76  F   UNL A   1      45.400  26.244  24.881  1.00  0.00    -0.206 F 
ATOM     77  C   UNL A   1      44.947  23.945  24.843  1.00  0.00     0.059 A 
ATOM     78  C   UNL A   1      43.031  23.069  26.023  1.00  0.00     0.059 A 
ATOM     79  F   UNL A   1      41.649  24.479  27.246  1.00  0.00    -0.206 F 
ATOM     80  C   UNL A   1      44.175  22.863  25.261  1.00  0.00     0.060 A 
BRANCH  80  81
ATOM     81  S   UNL A   1      44.754  21.180  24.934  1.00  0.00     0.124 S 
ATOM     82  O   UNL A   1      43.809  20.380  25.705  1.00  0.00    -0.237 OA
ATOM     83  O   UNL A   1      44.632  21.089  23.483  1.00  0.00    -0.237 OA
ATOM     84  O   UNL A   1      46.124  21.191  25.441  1.00  0.00    -0.744 OA
ENDBRANCH  80  81
ENDBRANCH  48  73
BRANCH  60  85
ATOM     85  C   UNL A   1      45.150  31.074  28.618  1.00  0.00     0.058 A 
ATOM     86  C   UNL A   1      44.251  31.558  27.652  1.00  0.00     0.135 A 
ATOM     87  C   UNL A   1      46.395  31.714  28.706  1.00  0.00     0.135 A 
ATOM     88  F   UNL A   1      43.001  31.083  27.570  1.00  0.00    -0.206 F 
ATOM     89  C   UNL A   1      44.597  32.592  26.777  1.00  0.00     0.059 A 
ATOM     90  C   UNL A   1      46.749  32.769  27.869  1.00  0.00     0.059 A 
ATOM     91  F   UNL A   1      47.278  31.344  29.649  1.00  0.00    -0.206 F 
ATOM     92  C   UNL A   1      45.852  33.189  26.892  1.00  0.00     0.060 A 
BRANCH  92  93
ATOM     93  S   UNL A   1      46.292  34.546  25.785  1.00  0.00     0.124 S 
ATOM     94  O   UNL A   1      47.700  34.278  25.517  1.00  0.00    -0.237 OA
ATOM     95  O   UNL A   1      45.383  34.347  24.660  1.00  0.00    -0.237 OA
ATOM     96  O   UNL A   1      46.025  35.739  26.586  1.00  0.00    -0.744 OA
ENDBRANCH  92  93
ENDBRANCH  60  85
ENDBRANCH  34  35
ENDBRANCH  26  29
ENDBRANCH   1  25
TORSDOF 14
ENDMDL
MODEL 3
REMARK VINA RESULT:     -13.4      0.867      2.017
REMARK SMILES C[C@@H]1C(C(=O)NCCCNC(=O)c2ccc(-c3c4nc(c(-c5c(F)cc(S(=O)(=O)[O-])cc5F)c5ccc([nH]5)c(-c5c(F)cc(S(=O)(=O)[O-])cc5F)c5nc(c(-c6c(F)cc(S(=O)(=O)[O-])cc6F)c6ccc3[nH]6)C=C5)C=C4)cc2)=NC2=C1C(=O)C[C@H](c1ccccc1)C2
REMARK SMILES IDX 9 1 8 2 7 3 6 4 4 5 5 6 3 8 1 9 2 10 81 11 79 12 80 13 82 14
REMARK SMILES IDX 92 15 83 16 84 17 85 18 86 19 87 20 91 21 88 22 90 23 89 24
REMARK SMILES IDX 10 25 11 26 12 28 13 29 14 30 78 31 15 32 77 33 16 34 17 35
REMARK SMILES IDX 18 36 71 37 19 38 76 39 70 40 72 41 20 42 75 43 69 44 68 45
REMARK SMILES IDX 21 47 55 48 34 49 54 50 35 51 38 52 53 53 73 54 36 55 37 56
REMARK SMILES IDX 52 58 74 59 39 60 22 61 23 62 32 63 24 64 25 65 31 66 33 67
REMARK SMILES IDX 26 68 27 69 28 70 29 71 30 72 56 73 57 74 66 75 58 76 59 77
REMARK SMILES IDX 65 78 67 79 60 80 61 81 62 82 63 83 64 84 40 85 41 86 50 87
REMARK SMILES IDX 42 88 43 89 49 90 51 91 44 92 45 93 46 94 47 95 48 96
REMARK H PARENT 6 7 10 27 72 46 38 57
REMARK Flexibility Score: inf
ROOT
ATOM      1  C   UNL A   1      37.694  22.877  25.628  1.00  0.00     0.118 C 
ENDROOT
BRANCH   1   2
ATOM      2  C   UNL A   1      37.023  22.230  24.428  1.00  0.00     0.042 C 
BRANCH   2   3
ATOM      3  C   UNL A   1      35.977  21.196  24.847  1.00  0.00     0.118 C 
BRANCH   3   4
ATOM      4  N   UNL A   1      34.653  21.385  24.272  1.00  0.00    -0.351 N 
ATOM      5  C   UNL A   1      33.913  22.555  24.202  1.00  0.00     0.266 C 
ATOM      6  O   UNL A   1      33.367  22.867  23.149  1.00  0.00    -0.268 OA
ATOM      7  H   UNL A   1      34.232  20.583  23.887  1.00  0.00     0.163 HD
BRANCH   5   8
ATOM      8  C   UNL A   1      33.564  23.324  25.471  1.00  0.00     0.113 C 
ATOM      9  C   UNL A   1      33.706  22.245  27.694  1.00  0.00     0.020 C 
ATOM     10  C   UNL A   1      32.763  22.747  26.603  1.00  0.00     0.076 C 
ATOM     11  C   UNL A   1      32.155  24.068  26.921  1.00  0.00     0.026 C 
ATOM     12  N   UNL A   1      33.895  24.584  25.633  1.00  0.00    -0.251 NA
ATOM     13  C   UNL A   1      32.959  25.059  26.528  1.00  0.00     0.049 C 
ATOM     14  C   UNL A   1      30.708  24.295  26.694  1.00  0.00     0.161 C 
ATOM     15  C   UNL A   1      32.426  26.457  26.416  1.00  0.00     0.065 C 
ATOM     16  O   UNL A   1      29.902  23.497  27.174  1.00  0.00    -0.294 OA
ATOM     17  C   UNL A   1      30.262  25.416  25.739  1.00  0.00     0.089 C 
ATOM     18  C   UNL A   1      31.350  26.456  25.311  1.00  0.00     0.033 C 
BRANCH  18  19
ATOM     19  C   UNL A   1      31.937  26.303  23.893  1.00  0.00    -0.044 A 
ATOM     20  C   UNL A   1      31.322  25.465  22.937  1.00  0.00     0.004 A 
ATOM     21  C   UNL A   1      33.113  26.950  23.491  1.00  0.00     0.004 A 
ATOM     22  C   UNL A   1      31.758  25.396  21.614  1.00  0.00     0.000 A 
ATOM     23  C   UNL A   1      33.572  26.860  22.167  1.00  0.00     0.000 A 
ATOM     24  C   UNL A   1      32.878  26.109  21.223  1.00  0.00     0.000 A 
ENDBRANCH  18  19
ENDBRANCH   5   8
ENDBRANCH   3   4
ENDBRANCH   2   3
ENDBRANCH   1   2
BRANCH   1  25
ATOM     25  N   UNL A   1      38.660  22.002  26.313  1.00  0.00    -0.352 N 
ATOM     26  C   UNL A   1      39.831  22.362  26.959  1.00  0.00     0.251 C 
ATOM     27  H   UNL A   1      38.447  21.041  26.311  1.00  0.00     0.163 HD
ATOM     28  O   UNL A   1      40.652  21.512  27.299  1.00  0.00    -0.269 OA
BRANCH  26  29
ATOM     29  C   UNL A   1      40.069  23.791  27.213  1.00  0.00     0.039 A 
ATOM     30  C   UNL A   1      39.079  24.759  27.029  1.00  0.00     0.014 A 
ATOM     31  C   UNL A   1      41.292  24.122  27.780  1.00  0.00     0.014 A 
ATOM     32  C   UNL A   1      39.303  26.039  27.533  1.00  0.00     0.010 A 
ATOM     33  C   UNL A   1      41.404  25.288  28.480  1.00  0.00     0.010 A 
ATOM     34  C   UNL A   1      40.459  26.284  28.293  1.00  0.00    -0.014 A 
BRANCH  34  35
ATOM     35  C   UNL A   1      40.680  27.552  28.977  1.00  0.00     0.031 A 
ATOM     36  C   UNL A   1      41.737  28.410  28.377  1.00  0.00     0.074 A 
ATOM     37  C   UNL A   1      39.848  28.014  29.937  1.00  0.00     0.049 A 
ATOM     38  N   UNL A   1      42.914  28.644  28.853  1.00  0.00    -0.248 NA
ATOM     39  C   UNL A   1      41.534  28.942  27.020  1.00  0.00     0.031 C 
ATOM     40  C   UNL A   1      38.577  27.448  30.411  1.00  0.00     0.029 A 
ATOM     41  N   UNL A   1      39.918  29.179  30.631  1.00  0.00    -0.354 N 
ATOM     42  C   UNL A   1      43.512  29.549  27.981  1.00  0.00     0.074 A 
ATOM     43  C   UNL A   1      42.710  29.533  26.785  1.00  0.00     0.031 C 
ATOM     44  C   UNL A   1      37.891  28.382  31.106  1.00  0.00     0.029 A 
ATOM     45  C   UNL A   1      38.749  29.534  31.296  1.00  0.00     0.049 A 
ATOM     46  H   UNL A   1      40.734  29.730  30.661  1.00  0.00     0.167 HD
ATOM     47  C   UNL A   1      44.478  30.409  28.410  1.00  0.00     0.037 A 
ATOM     48  C   UNL A   1      38.507  30.704  31.939  1.00  0.00     0.037 A 
ATOM     49  C   UNL A   1      44.940  30.046  29.728  1.00  0.00     0.049 A 
ATOM     50  C   UNL A   1      39.834  31.307  32.235  1.00  0.00     0.074 A 
ATOM     51  C   UNL A   1      45.527  28.921  30.274  1.00  0.00     0.029 A 
ATOM     52  N   UNL A   1      44.438  30.761  30.790  1.00  0.00    -0.354 N 
ATOM     53  N   UNL A   1      40.698  30.783  33.063  1.00  0.00    -0.248 NA
ATOM     54  C   UNL A   1      40.394  32.222  31.251  1.00  0.00     0.031 C 
ATOM     55  C   UNL A   1      44.914  28.773  31.554  1.00  0.00     0.029 A 
ATOM     56  C   UNL A   1      44.058  29.858  31.751  1.00  0.00     0.049 A 
ATOM     57  H   UNL A   1      44.364  31.741  30.851  1.00  0.00     0.167 HD
ATOM     58  C   UNL A   1      41.929  30.944  32.442  1.00  0.00     0.074 A 
ATOM     59  C   UNL A   1      41.689  31.910  31.371  1.00  0.00     0.031 C 
ATOM     60  C   UNL A   1      42.954  30.066  32.662  1.00  0.00     0.037 A 
BRANCH  47  61
ATOM     61  C   UNL A   1      44.761  31.773  27.825  1.00  0.00     0.058 A 
ATOM     62  C   UNL A   1      45.980  31.990  27.149  1.00  0.00     0.135 A 
ATOM     63  C   UNL A   1      44.020  32.934  28.133  1.00  0.00     0.135 A 
ATOM     64  F   UNL A   1      46.771  30.958  26.812  1.00  0.00    -0.206 F 
ATOM     65  C   UNL A   1      46.461  33.269  26.865  1.00  0.00     0.059 A 
ATOM     66  C   UNL A   1      44.454  34.214  27.810  1.00  0.00     0.059 A 
ATOM     67  F   UNL A   1      42.889  32.889  28.847  1.00  0.00    -0.206 F 
ATOM     68  C   UNL A   1      45.694  34.375  27.212  1.00  0.00     0.060 A 
BRANCH  68  69
ATOM     69  S   UNL A   1      46.352  36.028  26.927  1.00  0.00     0.124 S 
ATOM     70  O   UNL A   1      47.223  36.199  28.084  1.00  0.00    -0.237 OA
ATOM     71  O   UNL A   1      47.021  35.867  25.640  1.00  0.00    -0.237 OA
ATOM     72  O   UNL A   1      45.156  36.865  26.905  1.00  0.00    -0.744 OA
ENDBRANCH  68  69
ENDBRANCH  47  61
BRANCH  48  73
ATOM     73  C   UNL A   1      37.242  31.486  31.982  1.00  0.00     0.058 A 
ATOM     74  C   UNL A   1      36.731  31.954  33.206  1.00  0.00     0.135 A 
ATOM     75  C   UNL A   1      36.682  32.053  30.819  1.00  0.00     0.135 A 
ATOM     76  F   UNL A   1      37.209  31.473  34.364  1.00  0.00    -0.206 F 
ATOM     77  C   UNL A   1      35.784  32.981  33.276  1.00  0.00     0.059 A 
ATOM     78  C   UNL A   1      35.729  33.070  30.864  1.00  0.00     0.059 A 
ATOM     79  F   UNL A   1      37.118  31.705  29.598  1.00  0.00    -0.206 F 
ATOM     80  C   UNL A   1      35.311  33.555  32.097  1.00  0.00     0.060 A 
BRANCH  80  81
ATOM     81  S   UNL A   1      34.268  35.032  32.184  1.00  0.00     0.124 S 
ATOM     82  O   UNL A   1      35.090  35.935  32.981  1.00  0.00    -0.237 OA
ATOM     83  O   UNL A   1      34.115  35.383  30.775  1.00  0.00    -0.237 OA
ATOM     84  O   UNL A   1      33.054  34.549  32.837  1.00  0.00    -0.744 OA
ENDBRANCH  80  81
ENDBRANCH  48  73
BRANCH  60  85
ATOM     85  C   UNL A   1      42.842  29.107  33.823  1.00  0.00     0.058 A 
ATOM     86  C   UNL A   1      43.165  29.408  35.157  1.00  0.00     0.135 A 
ATOM     87  C   UNL A   1      42.247  27.861  33.577  1.00  0.00     0.135 A 
ATOM     88  F   UNL A   1      43.633  30.616  35.501  1.00  0.00    -0.206 F 
ATOM     89  C   UNL A   1      42.959  28.489  36.190  1.00  0.00     0.059 A 
ATOM     90  C   UNL A   1      42.000  26.943  34.594  1.00  0.00     0.059 A 
ATOM     91  F   UNL A   1      41.855  27.534  32.334  1.00  0.00    -0.206 F 
ATOM     92  C   UNL A   1      42.378  27.255  35.896  1.00  0.00     0.060 A 
BRANCH  92  93
ATOM     93  S   UNL A   1      42.080  26.077  37.231  1.00  0.00     0.124 S 
ATOM     94  O   UNL A   1      43.030  26.517  38.246  1.00  0.00    -0.237 OA
ATOM     95  O   UNL A   1      40.671  26.300  37.543  1.00  0.00    -0.237 OA
ATOM     96  O   UNL A   1      42.375  24.784  36.618  1.00  0.00    -0.744 OA
ENDBRANCH  92  93
ENDBRANCH  60  85
ENDBRANCH  34  35
ENDBRANCH  26  29
ENDBRANCH   1  25
TORSDOF 14
ENDMDL
