MODEL 1
REMARK VINA RESULT:     -13.0      0.000      0.000
REMARK SMILES O=C(Cn1nc(-c2ccc(Br)cc2)ccc1=O)N[C@H](C(=O)NCCCNC(=O)c1ccc(-c2c3nc(c(-c4c(F)cc(S(=O)(=O)[O-])cc4F)c4ccc([nH]4)c(-c4c(F)cc(S(=O)(=O)[O-])cc4F)c4nc(c(-c5c(F)cc(S(=O)(=O)[O-])cc5F)c5ccc2[nH]5)C=C4)C=C3)cc1)c1ccccc1
REMARK SMILES IDX 23 1 22 2 20 3 21 4 19 6 18 7 1 8 2 9 3 11 4 12 5 13 16 14
REMARK SMILES IDX 6 15 15 16 17 17 14 18 7 19 8 20 13 21 9 22 12 23 10 24
REMARK SMILES IDX 11 25 95 26 96 27 100 28 97 29 99 30 98 31 24 32 25 33 26 34
REMARK SMILES IDX 27 35 28 37 29 38 30 39 94 40 31 41 93 42 32 43 33 44 34 45
REMARK SMILES IDX 87 46 35 47 92 48 86 49 88 50 36 51 91 52 85 53 84 54 37 56
REMARK SMILES IDX 71 57 50 58 70 59 51 60 54 61 69 62 89 63 52 64 53 65 68 67
REMARK SMILES IDX 90 68 55 69 38 70 39 71 48 72 40 73 41 74 47 75 49 76 42 77
REMARK SMILES IDX 43 78 44 79 45 80 46 81 72 82 73 83 82 84 74 85 75 86 81 87
REMARK SMILES IDX 83 88 76 89 77 90 78 91 79 92 80 93 56 94 57 95 66 96 58 97
REMARK SMILES IDX 59 98 65 99 67 100 60 101 61 102 62 103 63 104 64 105
REMARK H PARENT 22 5 18 10 26 36 88 55 54 66
REMARK Flexibility Score: inf
ROOT
ATOM      1  C   UNL A   1      33.618  28.919  26.356  1.00  0.00     0.117 C 
ENDROOT
BRANCH   1   2
ATOM      2  N   UNL A   1      32.479  28.068  26.658  1.00  0.00    -0.354 N 
ATOM      3  C   UNL A   1      31.491  27.597  25.838  1.00  0.00     0.247 C 
ATOM      4  O   UNL A   1      30.721  26.758  26.316  1.00  0.00    -0.272 OA
ATOM      5  H   UNL A   1      32.408  27.787  27.599  1.00  0.00     0.163 HD
BRANCH   3   6
ATOM      6  C   UNL A   1      31.497  27.950  24.336  1.00  0.00     0.202 C 
BRANCH   6   7
ATOM      7  N   UNL A   1      31.728  26.679  23.657  1.00  0.00    -0.339 N 
ATOM      8  O   UNL A   1      33.211  27.529  22.150  1.00  0.00    -0.273 OA
ATOM      9  C   UNL A   1      32.516  26.592  22.534  1.00  0.00     0.242 C 
ATOM     10  H   UNL A   1      31.307  25.862  24.011  1.00  0.00     0.164 HD
BRANCH   9  11
ATOM     11  C   UNL A   1      32.398  25.257  21.799  1.00  0.00     0.248 C 
BRANCH  11  12
ATOM     12  N   UNL A   1      32.553  24.171  22.746  1.00  0.00    -0.220 N 
ATOM     13  N   UNL A   1      33.839  23.897  23.133  1.00  0.00    -0.169 NA
ATOM     14  C   UNL A   1      31.429  23.594  23.312  1.00  0.00     0.267 A 
ATOM     15  C   UNL A   1      34.006  23.042  24.088  1.00  0.00     0.091 A 
ATOM     16  C   UNL A   1      31.682  22.563  24.344  1.00  0.00     0.075 A 
ATOM     17  O   UNL A   1      30.271  23.879  23.015  1.00  0.00    -0.268 OA
ATOM     18  C   UNL A   1      32.925  22.279  24.739  1.00  0.00     0.036 A 
BRANCH  15  19
ATOM     19  C   UNL A   1      35.367  22.846  24.611  1.00  0.00     0.002 A 
ATOM     20  C   UNL A   1      35.911  21.557  24.554  1.00  0.00     0.011 A 
ATOM     21  C   UNL A   1      36.069  23.894  25.209  1.00  0.00     0.011 A 
ATOM     22  C   UNL A   1      37.178  21.317  25.081  1.00  0.00     0.016 A 
ATOM     23  C   UNL A   1      37.332  23.647  25.750  1.00  0.00     0.016 A 
ATOM     24  C   UNL A   1      37.881  22.362  25.680  1.00  0.00     0.018 A 
ATOM     25  Br  UNL A   1      39.587  22.034  26.424  1.00  0.00    -0.051 Br
ENDBRANCH  15  19
ENDBRANCH  11  12
ENDBRANCH   9  11
ENDBRANCH   6   7
BRANCH   6  26
ATOM     26  C   UNL A   1      30.198  28.610  23.880  1.00  0.00    -0.016 A 
ATOM     27  C   UNL A   1      30.087  30.010  23.911  1.00  0.00     0.006 A 
ATOM     28  C   UNL A   1      29.103  27.869  23.394  1.00  0.00     0.006 A 
ATOM     29  C   UNL A   1      28.931  30.644  23.447  1.00  0.00     0.000 A 
ATOM     30  C   UNL A   1      27.956  28.506  22.918  1.00  0.00     0.000 A 
ATOM     31  C   UNL A   1      27.872  29.894  22.942  1.00  0.00     0.000 A 
ENDBRANCH   6  26
ENDBRANCH   3   6
ENDBRANCH   1   2
BRANCH   1  32
ATOM     32  C   UNL A   1      33.794  30.027  27.387  1.00  0.00     0.042 C 
BRANCH  32  33
ATOM     33  C   UNL A   1      35.235  30.242  27.848  1.00  0.00     0.118 C 
BRANCH  33  34
ATOM     34  N   UNL A   1      35.351  30.654  29.240  1.00  0.00    -0.352 N 
ATOM     35  C   UNL A   1      36.391  30.477  30.127  1.00  0.00     0.251 C 
ATOM     36  H   UNL A   1      34.568  31.131  29.602  1.00  0.00     0.163 HD
ATOM     37  O   UNL A   1      36.257  30.812  31.298  1.00  0.00    -0.269 OA
BRANCH  35  38
ATOM     38  C   UNL A   1      37.651  29.843  29.674  1.00  0.00     0.039 A 
ATOM     39  C   UNL A   1      38.512  29.225  30.580  1.00  0.00     0.014 A 
ATOM     40  C   UNL A   1      37.986  29.899  28.317  1.00  0.00     0.014 A 
ATOM     41  C   UNL A   1      39.783  28.836  30.167  1.00  0.00     0.010 A 
ATOM     42  C   UNL A   1      39.232  29.432  27.890  1.00  0.00     0.010 A 
ATOM     43  C   UNL A   1      40.166  28.954  28.821  1.00  0.00    -0.014 A 
BRANCH  43  44
ATOM     44  C   UNL A   1      41.555  28.603  28.423  1.00  0.00     0.031 A 
ATOM     45  C   UNL A   1      42.660  29.627  28.504  1.00  0.00     0.074 A 
ATOM     46  C   UNL A   1      41.838  27.343  28.041  1.00  0.00     0.049 A 
ATOM     47  N   UNL A   1      43.934  29.486  28.238  1.00  0.00    -0.248 NA
ATOM     48  C   UNL A   1      42.287  30.984  28.932  1.00  0.00     0.031 C 
ATOM     49  C   UNL A   1      40.859  26.263  27.917  1.00  0.00     0.029 A 
ATOM     50  N   UNL A   1      43.030  26.752  27.708  1.00  0.00    -0.354 N 
ATOM     51  C   UNL A   1      44.508  30.737  28.440  1.00  0.00     0.074 A 
ATOM     52  C   UNL A   1      43.438  31.631  28.828  1.00  0.00     0.031 C 
ATOM     53  C   UNL A   1      41.494  25.131  27.581  1.00  0.00     0.029 A 
ATOM     54  C   UNL A   1      42.917  25.414  27.417  1.00  0.00     0.049 A 
ATOM     55  H   UNL A   1      43.885  27.240  27.681  1.00  0.00     0.167 HD
ATOM     56  C   UNL A   1      45.807  31.103  28.325  1.00  0.00     0.037 A 
ATOM     57  C   UNL A   1      43.848  24.513  27.051  1.00  0.00     0.037 A 
ATOM     58  C   UNL A   1      46.875  30.205  27.973  1.00  0.00     0.049 A 
ATOM     59  C   UNL A   1      45.282  24.942  26.926  1.00  0.00     0.074 A 
ATOM     60  C   UNL A   1      48.231  30.473  27.888  1.00  0.00     0.029 A 
ATOM     61  N   UNL A   1      46.712  28.867  27.647  1.00  0.00    -0.354 N 
ATOM     62  N   UNL A   1      45.808  26.122  27.148  1.00  0.00    -0.248 NA
ATOM     63  C   UNL A   1      46.246  23.921  26.494  1.00  0.00     0.031 C 
ATOM     64  C   UNL A   1      48.883  29.307  27.471  1.00  0.00     0.029 A 
ATOM     65  C   UNL A   1      47.938  28.301  27.334  1.00  0.00     0.049 A 
ATOM     66  H   UNL A   1      45.852  28.388  27.639  1.00  0.00     0.167 HD
ATOM     67  C   UNL A   1      47.165  25.988  26.881  1.00  0.00     0.074 A 
ATOM     68  C   UNL A   1      47.383  24.607  26.503  1.00  0.00     0.031 C 
ATOM     69  C   UNL A   1      48.139  26.929  26.941  1.00  0.00     0.037 A 
BRANCH  56  70
ATOM     70  C   UNL A   1      46.147  32.548  28.568  1.00  0.00     0.058 A 
ATOM     71  C   UNL A   1      46.488  33.022  29.844  1.00  0.00     0.135 A 
ATOM     72  C   UNL A   1      46.163  33.463  27.503  1.00  0.00     0.135 A 
ATOM     73  F   UNL A   1      46.475  32.194  30.900  1.00  0.00    -0.206 F 
ATOM     74  C   UNL A   1      46.807  34.360  30.061  1.00  0.00     0.059 A 
ATOM     75  C   UNL A   1      46.500  34.801  27.693  1.00  0.00     0.059 A 
ATOM     76  F   UNL A   1      45.844  33.061  26.263  1.00  0.00    -0.206 F 
ATOM     77  C   UNL A   1      46.805  35.242  28.979  1.00  0.00     0.060 A 
BRANCH  77  78
ATOM     78  S   UNL A   1      47.210  36.976  29.278  1.00  0.00     0.124 S 
ATOM     79  O   UNL A   1      45.897  37.604  29.158  1.00  0.00    -0.237 OA
ATOM     80  O   UNL A   1      47.771  36.939  30.625  1.00  0.00    -0.237 OA
ATOM     81  O   UNL A   1      48.157  37.294  28.216  1.00  0.00    -0.744 OA
ENDBRANCH  77  78
ENDBRANCH  56  70
BRANCH  57  82
ATOM     82  C   UNL A   1      43.431  23.113  26.786  1.00  0.00     0.058 A 
ATOM     83  C   UNL A   1      43.474  22.581  25.490  1.00  0.00     0.135 A 
ATOM     84  C   UNL A   1      43.066  22.257  27.836  1.00  0.00     0.135 A 
ATOM     85  F   UNL A   1      43.810  23.364  24.454  1.00  0.00    -0.206 F 
ATOM     86  C   UNL A   1      43.187  21.242  25.245  1.00  0.00     0.059 A 
ATOM     87  C   UNL A   1      42.795  20.911  27.620  1.00  0.00     0.059 A 
ATOM     88  F   UNL A   1      43.025  22.720  29.095  1.00  0.00    -0.206 F 
ATOM     89  C   UNL A   1      42.861  20.412  26.320  1.00  0.00     0.060 A 
BRANCH  89  90
ATOM     90  S   UNL A   1      42.602  18.653  26.007  1.00  0.00     0.124 S 
ATOM     91  O   UNL A   1      43.431  18.438  24.827  1.00  0.00    -0.237 OA
ATOM     92  O   UNL A   1      43.083  18.047  27.245  1.00  0.00    -0.237 OA
ATOM     93  O   UNL A   1      41.160  18.558  25.792  1.00  0.00    -0.744 OA
ENDBRANCH  89  90
ENDBRANCH  57  82
BRANCH  69  94
ATOM     94  C   UNL A   1      49.532  26.505  26.576  1.00  0.00     0.058 A 
ATOM     95  C   UNL A   1      50.380  25.901  27.518  1.00  0.00     0.135 A 
ATOM     96  C   UNL A   1      50.003  26.640  25.259  1.00  0.00     0.135 A 
ATOM     97  F   UNL A   1      49.979  25.755  28.791  1.00  0.00    -0.206 F 
ATOM     98  C   UNL A   1      51.651  25.456  27.170  1.00  0.00     0.059 A 
ATOM     99  C   UNL A   1      51.262  26.183  24.885  1.00  0.00     0.059 A 
ATOM    100  F   UNL A   1      49.227  27.204  24.320  1.00  0.00    -0.206 F 
ATOM    101  C   UNL A   1      52.082  25.599  25.850  1.00  0.00     0.060 A 
BRANCH 101 102
ATOM    102  S   UNL A   1      53.717  24.977  25.403  1.00  0.00     0.124 S 
ATOM    103  O   UNL A   1      53.957  25.664  24.138  1.00  0.00    -0.237 OA
ATOM    104  O   UNL A   1      54.538  25.414  26.528  1.00  0.00    -0.237 OA
ATOM    105  O   UNL A   1      53.516  23.534  25.305  1.00  0.00    -0.744 OA
ENDBRANCH 101 102
ENDBRANCH  69  94
ENDBRANCH  43  44
ENDBRANCH  35  38
ENDBRANCH  33  34
ENDBRANCH  32  33
ENDBRANCH   1  32
TORSDOF 18
ENDMDL
MODEL 2
REMARK VINA RESULT:     -12.4      5.878      7.838
REMARK SMILES O=C(Cn1nc(-c2ccc(Br)cc2)ccc1=O)N[C@H](C(=O)NCCCNC(=O)c1ccc(-c2c3nc(c(-c4c(F)cc(S(=O)(=O)[O-])cc4F)c4ccc([nH]4)c(-c4c(F)cc(S(=O)(=O)[O-])cc4F)c4nc(c(-c5c(F)cc(S(=O)(=O)[O-])cc5F)c5ccc2[nH]5)C=C4)C=C3)cc1)c1ccccc1
REMARK SMILES IDX 23 1 22 2 20 3 21 4 19 6 18 7 1 8 2 9 3 11 4 12 5 13 16 14
REMARK SMILES IDX 6 15 15 16 17 17 14 18 7 19 8 20 13 21 9 22 12 23 10 24
REMARK SMILES IDX 11 25 95 26 96 27 100 28 97 29 99 30 98 31 24 32 25 33 26 34
REMARK SMILES IDX 27 35 28 37 29 38 30 39 94 40 31 41 93 42 32 43 33 44 34 45
REMARK SMILES IDX 87 46 35 47 92 48 86 49 88 50 36 51 91 52 85 53 84 54 37 56
REMARK SMILES IDX 71 57 50 58 70 59 51 60 54 61 69 62 89 63 52 64 53 65 68 67
REMARK SMILES IDX 90 68 55 69 38 70 39 71 48 72 40 73 41 74 47 75 49 76 42 77
REMARK SMILES IDX 43 78 44 79 45 80 46 81 72 82 73 83 82 84 74 85 75 86 81 87
REMARK SMILES IDX 83 88 76 89 77 90 78 91 79 92 80 93 56 94 57 95 66 96 58 97
REMARK SMILES IDX 59 98 65 99 67 100 60 101 61 102 62 103 63 104 64 105
REMARK H PARENT 22 5 18 10 26 36 88 55 54 66
REMARK Flexibility Score: inf
ROOT
ATOM      1  C   UNL A   1      32.872  29.942  26.186  1.00  0.00     0.117 C 
ENDROOT
BRANCH   1   2
ATOM      2  N   UNL A   1      32.124  28.735  26.496  1.00  0.00    -0.354 N 
ATOM      3  C   UNL A   1      31.438  27.889  25.669  1.00  0.00     0.247 C 
ATOM      4  O   UNL A   1      31.016  26.841  26.169  1.00  0.00    -0.272 OA
ATOM      5  H   UNL A   1      32.111  28.488  27.449  1.00  0.00     0.163 HD
BRANCH   3   6
ATOM      6  C   UNL A   1      31.397  28.154  24.151  1.00  0.00     0.202 C 
BRANCH   6   7
ATOM      7  N   UNL A   1      31.599  26.844  23.539  1.00  0.00    -0.339 N 
ATOM      8  O   UNL A   1      33.557  27.405  22.518  1.00  0.00    -0.273 OA
ATOM      9  C   UNL A   1      32.642  26.602  22.677  1.00  0.00     0.242 C 
ATOM     10  H   UNL A   1      30.971  26.115  23.748  1.00  0.00     0.164 HD
BRANCH   9  11
ATOM     11  C   UNL A   1      32.518  25.283  21.915  1.00  0.00     0.248 C 
BRANCH  11  12
ATOM     12  N   UNL A   1      32.597  24.177  22.849  1.00  0.00    -0.220 N 
ATOM     13  N   UNL A   1      33.860  23.826  23.249  1.00  0.00    -0.169 NA
ATOM     14  C   UNL A   1      31.435  23.659  23.392  1.00  0.00     0.267 A 
ATOM     15  C   UNL A   1      33.965  22.951  24.194  1.00  0.00     0.091 A 
ATOM     16  C   UNL A   1      31.614  22.602  24.413  1.00  0.00     0.075 A 
ATOM     17  O   UNL A   1      30.299  24.013  23.084  1.00  0.00    -0.268 OA
ATOM     18  C   UNL A   1      32.834  22.242  24.820  1.00  0.00     0.036 A 
BRANCH  15  19
ATOM     19  C   UNL A   1      35.306  22.671  24.733  1.00  0.00     0.002 A 
ATOM     20  C   UNL A   1      36.047  23.748  25.234  1.00  0.00     0.011 A 
ATOM     21  C   UNL A   1      35.849  21.387  24.685  1.00  0.00     0.011 A 
ATOM     22  C   UNL A   1      37.340  23.535  25.710  1.00  0.00     0.016 A 
ATOM     23  C   UNL A   1      37.150  21.180  25.149  1.00  0.00     0.016 A 
ATOM     24  C   UNL A   1      37.886  22.252  25.662  1.00  0.00     0.018 A 
ATOM     25  Br  UNL A   1      39.650  21.966  26.278  1.00  0.00    -0.051 Br
ENDBRANCH  15  19
ENDBRANCH  11  12
ENDBRANCH   9  11
ENDBRANCH   6   7
BRANCH   6  26
ATOM     26  C   UNL A   1      30.087  28.797  23.698  1.00  0.00    -0.016 A 
ATOM     27  C   UNL A   1      29.049  27.982  23.219  1.00  0.00     0.006 A 
ATOM     28  C   UNL A   1      29.862  30.185  23.770  1.00  0.00     0.006 A 
ATOM     29  C   UNL A   1      27.820  28.536  22.851  1.00  0.00     0.000 A 
ATOM     30  C   UNL A   1      28.629  30.734  23.415  1.00  0.00     0.000 A 
ATOM     31  C   UNL A   1      27.607  29.908  22.959  1.00  0.00     0.000 A 
ENDBRANCH   6  26
ENDBRANCH   3   6
ENDBRANCH   1   2
BRANCH   1  32
ATOM     32  C   UNL A   1      32.305  31.166  26.897  1.00  0.00     0.042 C 
BRANCH  32  33
ATOM     33  C   UNL A   1      33.358  32.079  27.523  1.00  0.00     0.118 C 
BRANCH  33  34
ATOM     34  N   UNL A   1      32.874  33.424  27.806  1.00  0.00    -0.352 N 
ATOM     35  C   UNL A   1      33.337  34.354  28.712  1.00  0.00     0.251 C 
ATOM     36  H   UNL A   1      32.099  33.711  27.270  1.00  0.00     0.163 HD
ATOM     37  O   UNL A   1      32.727  35.404  28.873  1.00  0.00    -0.269 OA
BRANCH  35  38
ATOM     38  C   UNL A   1      34.546  34.064  29.518  1.00  0.00     0.039 A 
ATOM     39  C   UNL A   1      35.815  34.429  29.069  1.00  0.00     0.014 A 
ATOM     40  C   UNL A   1      34.401  33.384  30.732  1.00  0.00     0.014 A 
ATOM     41  C   UNL A   1      36.943  33.954  29.731  1.00  0.00     0.010 A 
ATOM     42  C   UNL A   1      35.537  32.978  31.439  1.00  0.00     0.010 A 
ATOM     43  C   UNL A   1      36.818  33.205  30.912  1.00  0.00    -0.014 A 
BRANCH  43  44
ATOM     44  C   UNL A   1      38.036  32.644  31.556  1.00  0.00     0.031 A 
ATOM     45  C   UNL A   1      38.440  33.075  32.943  1.00  0.00     0.074 A 
ATOM     46  C   UNL A   1      38.751  31.701  30.913  1.00  0.00     0.049 A 
ATOM     47  N   UNL A   1      39.445  32.663  33.673  1.00  0.00    -0.248 NA
ATOM     48  C   UNL A   1      37.616  34.106  33.592  1.00  0.00     0.031 C 
ATOM     49  C   UNL A   1      38.467  31.203  29.567  1.00  0.00     0.029 A 
ATOM     50  N   UNL A   1      39.848  30.980  31.312  1.00  0.00    -0.354 N 
ATOM     51  C   UNL A   1      39.390  33.398  34.852  1.00  0.00     0.074 A 
ATOM     52  C   UNL A   1      38.265  34.301  34.730  1.00  0.00     0.031 C 
ATOM     53  C   UNL A   1      39.335  30.226  29.269  1.00  0.00     0.029 A 
ATOM     54  C   UNL A   1      40.268  30.061  30.379  1.00  0.00     0.049 A 
ATOM     55  H   UNL A   1      40.290  31.107  32.182  1.00  0.00     0.167 HD
ATOM     56  C   UNL A   1      40.193  33.320  35.940  1.00  0.00     0.037 A 
ATOM     57  C   UNL A   1      41.293  29.188  30.408  1.00  0.00     0.037 A 
ATOM     58  C   UNL A   1      41.289  32.398  36.074  1.00  0.00     0.049 A 
ATOM     59  C   UNL A   1      42.173  29.121  31.622  1.00  0.00     0.074 A 
ATOM     60  C   UNL A   1      42.124  32.206  37.163  1.00  0.00     0.029 A 
ATOM     61  N   UNL A   1      41.707  31.512  35.092  1.00  0.00    -0.354 N 
ATOM     62  N   UNL A   1      42.086  29.806  32.737  1.00  0.00    -0.248 NA
ATOM     63  C   UNL A   1      43.292  28.170  31.581  1.00  0.00     0.031 C 
ATOM     64  C   UNL A   1      43.071  31.233  36.823  1.00  0.00     0.029 A 
ATOM     65  C   UNL A   1      42.803  30.790  35.537  1.00  0.00     0.049 A 
ATOM     66  H   UNL A   1      41.287  31.411  34.207  1.00  0.00     0.167 HD
ATOM     67  C   UNL A   1      43.142  29.371  33.531  1.00  0.00     0.074 A 
ATOM     68  C   UNL A   1      43.839  28.349  32.777  1.00  0.00     0.031 C 
ATOM     69  C   UNL A   1      43.499  29.788  34.770  1.00  0.00     0.037 A 
BRANCH  56  70
ATOM     70  C   UNL A   1      39.926  34.273  37.073  1.00  0.00     0.058 A 
ATOM     71  C   UNL A   1      40.418  35.587  37.066  1.00  0.00     0.135 A 
ATOM     72  C   UNL A   1      39.139  33.873  38.166  1.00  0.00     0.135 A 
ATOM     73  F   UNL A   1      41.187  36.015  36.053  1.00  0.00    -0.206 F 
ATOM     74  C   UNL A   1      40.162  36.464  38.116  1.00  0.00     0.059 A 
ATOM     75  C   UNL A   1      38.852  34.741  39.217  1.00  0.00     0.059 A 
ATOM     76  F   UNL A   1      38.644  32.627  38.222  1.00  0.00    -0.206 F 
ATOM     77  C   UNL A   1      39.382  36.030  39.189  1.00  0.00     0.060 A 
BRANCH  77  78
ATOM     78  S   UNL A   1      39.069  37.176  40.548  1.00  0.00     0.124 S 
ATOM     79  O   UNL A   1      38.381  36.312  41.503  1.00  0.00    -0.237 OA
ATOM     80  O   UNL A   1      40.417  37.589  40.928  1.00  0.00    -0.237 OA
ATOM     81  O   UNL A   1      38.247  38.215  39.937  1.00  0.00    -0.744 OA
ENDBRANCH  77  78
ENDBRANCH  56  70
BRANCH  57  82
ATOM     82  C   UNL A   1      41.522  28.308  29.234  1.00  0.00     0.058 A 
ATOM     83  C   UNL A   1      42.547  28.580  28.318  1.00  0.00     0.135 A 
ATOM     84  C   UNL A   1      40.775  27.133  29.056  1.00  0.00     0.135 A 
ATOM     85  F   UNL A   1      43.281  29.696  28.444  1.00  0.00    -0.206 F 
ATOM     86  C   UNL A   1      42.839  27.707  27.275  1.00  0.00     0.059 A 
ATOM     87  C   UNL A   1      41.061  26.235  28.034  1.00  0.00     0.059 A 
ATOM     88  F   UNL A   1      39.792  26.826  29.917  1.00  0.00    -0.206 F 
ATOM     89  C   UNL A   1      42.098  26.530  27.150  1.00  0.00     0.060 A 
BRANCH  89  90
ATOM     90  S   UNL A   1      42.558  25.350  25.863  1.00  0.00     0.124 S 
ATOM     91  O   UNL A   1      41.474  25.524  24.903  1.00  0.00    -0.237 OA
ATOM     92  O   UNL A   1      43.867  25.844  25.447  1.00  0.00    -0.237 OA
ATOM     93  O   UNL A   1      42.576  24.072  26.570  1.00  0.00    -0.744 OA
ENDBRANCH  89  90
ENDBRANCH  57  82
BRANCH  69  94
ATOM     94  C   UNL A   1      44.709  29.151  35.390  1.00  0.00     0.058 A 
ATOM     95  C   UNL A   1      45.988  29.710  35.234  1.00  0.00     0.135 A 
ATOM     96  C   UNL A   1      44.584  28.011  36.201  1.00  0.00     0.135 A 
ATOM     97  F   UNL A   1      46.160  30.795  34.464  1.00  0.00    -0.206 F 
ATOM     98  C   UNL A   1      47.103  29.154  35.853  1.00  0.00     0.059 A 
ATOM     99  C   UNL A   1      45.683  27.451  36.846  1.00  0.00     0.059 A 
ATOM    100  F   UNL A   1      43.382  27.444  36.388  1.00  0.00    -0.206 F 
ATOM    101  C   UNL A   1      46.940  28.026  36.659  1.00  0.00     0.060 A 
BRANCH 101 102
ATOM    102  S   UNL A   1      48.389  27.342  37.491  1.00  0.00     0.124 S 
ATOM    103  O   UNL A   1      47.997  27.441  38.893  1.00  0.00    -0.237 OA
ATOM    104  O   UNL A   1      48.454  25.989  36.946  1.00  0.00    -0.237 OA
ATOM    105  O   UNL A   1      49.470  28.231  37.077  1.00  0.00    -0.744 OA
ENDBRANCH 101 102
ENDBRANCH  69  94
ENDBRANCH  43  44
ENDBRANCH  35  38
ENDBRANCH  33  34
ENDBRANCH  32  33
ENDBRANCH   1  32
TORSDOF 18
ENDMDL
MODEL 3
REMARK VINA RESULT:     -12.2      1.837      8.202
REMARK SMILES O=C(Cn1nc(-c2ccc(Br)cc2)ccc1=O)N[C@H](C(=O)NCCCNC(=O)c1ccc(-c2c3nc(c(-c4c(F)cc(S(=O)(=O)[O-])cc4F)c4ccc([nH]4)c(-c4c(F)cc(S(=O)(=O)[O-])cc4F)c4nc(c(-c5c(F)cc(S(=O)(=O)[O-])cc5F)c5ccc2[nH]5)C=C4)C=C3)cc1)c1ccccc1
REMARK SMILES IDX 23 1 22 2 20 3 21 4 19 6 18 7 1 8 2 9 3 11 4 12 5 13 16 14
REMARK SMILES IDX 6 15 15 16 17 17 14 18 7 19 8 20 13 21 9 22 12 23 10 24
REMARK SMILES IDX 11 25 95 26 96 27 100 28 97 29 99 30 98 31 24 32 25 33 26 34
REMARK SMILES IDX 27 35 28 37 29 38 30 39 94 40 31 41 93 42 32 43 33 44 34 45
REMARK SMILES IDX 87 46 35 47 92 48 86 49 88 50 36 51 91 52 85 53 84 54 37 56
REMARK SMILES IDX 71 57 50 58 70 59 51 60 54 61 69 62 89 63 52 64 53 65 68 67
REMARK SMILES IDX 90 68 55 69 38 70 39 71 48 72 40 73 41 74 47 75 49 76 42 77
REMARK SMILES IDX 43 78 44 79 45 80 46 81 72 82 73 83 82 84 74 85 75 86 81 87
REMARK SMILES IDX 83 88 76 89 77 90 78 91 79 92 80 93 56 94 57 95 66 96 58 97
REMARK SMILES IDX 59 98 65 99 67 100 60 101 61 102 62 103 63 104 64 105
REMARK H PARENT 22 5 18 10 26 36 88 55 54 66
REMARK Flexibility Score: inf
ROOT
ATOM      1  C   UNL A   1      34.058  29.446  26.931  1.00  0.00     0.117 C 
ENDROOT
BRANCH   1   2
ATOM      2  N   UNL A   1      32.884  29.019  27.674  1.00  0.00    -0.354 N 
ATOM      3  C   UNL A   1      31.872  28.174  27.310  1.00  0.00     0.247 C 
ATOM      4  O   UNL A   1      31.069  27.852  28.192  1.00  0.00    -0.272 OA
ATOM      5  H   UNL A   1      32.807  29.395  28.581  1.00  0.00     0.163 HD
BRANCH   3   6
ATOM      6  C   UNL A   1      31.884  27.504  25.921  1.00  0.00     0.202 C 
BRANCH   6   7
ATOM      7  N   UNL A   1      31.350  26.165  26.150  1.00  0.00    -0.339 N 
ATOM      8  O   UNL A   1      33.380  25.132  26.089  1.00  0.00    -0.273 OA
ATOM      9  C   UNL A   1      32.155  25.051  26.122  1.00  0.00     0.242 C 
ATOM     10  H   UNL A   1      30.388  26.056  26.327  1.00  0.00     0.164 HD
BRANCH   9  11
ATOM     11  C   UNL A   1      31.383  23.733  26.083  1.00  0.00     0.248 C 
BRANCH  11  12
ATOM     12  N   UNL A   1      31.801  22.963  24.929  1.00  0.00    -0.220 N 
ATOM     13  N   UNL A   1      32.098  21.647  25.167  1.00  0.00    -0.169 NA
ATOM     14  C   UNL A   1      31.726  23.529  23.668  1.00  0.00     0.267 A 
ATOM     15  C   UNL A   1      32.325  20.891  24.144  1.00  0.00     0.091 A 
ATOM     16  C   UNL A   1      32.075  22.639  22.538  1.00  0.00     0.075 A 
ATOM     17  O   UNL A   1      31.399  24.692  23.441  1.00  0.00    -0.268 OA
ATOM     18  C   UNL A   1      32.368  21.353  22.744  1.00  0.00     0.036 A 
BRANCH  15  19
ATOM     19  C   UNL A   1      32.503  19.448  24.374  1.00  0.00     0.002 A 
ATOM     20  C   UNL A   1      32.619  19.007  25.698  1.00  0.00     0.011 A 
ATOM     21  C   UNL A   1      32.622  18.556  23.308  1.00  0.00     0.011 A 
ATOM     22  C   UNL A   1      32.837  17.655  25.959  1.00  0.00     0.016 A 
ATOM     23  C   UNL A   1      32.855  17.205  23.573  1.00  0.00     0.016 A 
ATOM     24  C   UNL A   1      32.957  16.761  24.895  1.00  0.00     0.018 A 
ATOM     25  Br  UNL A   1      33.283  14.933  25.245  1.00  0.00    -0.051 Br
ENDBRANCH  15  19
ENDBRANCH  11  12
ENDBRANCH   9  11
ENDBRANCH   6   7
BRANCH   6  26
ATOM     26  C   UNL A   1      31.065  28.274  24.887  1.00  0.00    -0.016 A 
ATOM     27  C   UNL A   1      30.264  27.566  23.976  1.00  0.00     0.006 A 
ATOM     28  C   UNL A   1      31.053  29.681  24.827  1.00  0.00     0.006 A 
ATOM     29  C   UNL A   1      29.461  28.245  23.055  1.00  0.00     0.000 A 
ATOM     30  C   UNL A   1      30.239  30.356  23.916  1.00  0.00     0.000 A 
ATOM     31  C   UNL A   1      29.441  29.638  23.032  1.00  0.00     0.000 A 
ENDBRANCH   6  26
ENDBRANCH   3   6
ENDBRANCH   1   2
BRANCH   1  32
ATOM     32  C   UNL A   1      34.482  30.864  27.298  1.00  0.00     0.042 C 
BRANCH  32  33
ATOM     33  C   UNL A   1      35.779  30.950  28.101  1.00  0.00     0.118 C 
BRANCH  33  34
ATOM     34  N   UNL A   1      35.667  30.421  29.454  1.00  0.00    -0.352 N 
ATOM     35  C   UNL A   1      36.630  29.851  30.259  1.00  0.00     0.251 C 
ATOM     36  H   UNL A   1      34.768  30.479  29.853  1.00  0.00     0.163 HD
ATOM     37  O   UNL A   1      36.314  29.371  31.341  1.00  0.00    -0.269 OA
BRANCH  35  38
ATOM     38  C   UNL A   1      38.035  29.782  29.796  1.00  0.00     0.039 A 
ATOM     39  C   UNL A   1      38.340  29.538  28.457  1.00  0.00     0.014 A 
ATOM     40  C   UNL A   1      39.064  29.933  30.732  1.00  0.00     0.014 A 
ATOM     41  C   UNL A   1      39.653  29.259  28.089  1.00  0.00     0.010 A 
ATOM     42  C   UNL A   1      40.392  29.732  30.342  1.00  0.00     0.010 A 
ATOM     43  C   UNL A   1      40.692  29.332  29.032  1.00  0.00    -0.014 A 
BRANCH  43  44
ATOM     44  C   UNL A   1      42.073  28.953  28.629  1.00  0.00     0.031 A 
ATOM     45  C   UNL A   1      42.382  27.549  28.173  1.00  0.00     0.074 A 
ATOM     46  C   UNL A   1      43.042  29.888  28.620  1.00  0.00     0.049 A 
ATOM     47  N   UNL A   1      43.516  27.053  27.747  1.00  0.00    -0.248 NA
ATOM     48  C   UNL A   1      41.280  26.576  28.203  1.00  0.00     0.031 C 
ATOM     49  C   UNL A   1      42.871  31.279  29.042  1.00  0.00     0.029 A 
ATOM     50  N   UNL A   1      44.352  29.818  28.222  1.00  0.00    -0.354 N 
ATOM     51  C   UNL A   1      43.273  25.709  27.485  1.00  0.00     0.074 A 
ATOM     52  C   UNL A   1      41.887  25.461  27.823  1.00  0.00     0.031 C 
ATOM     53  C   UNL A   1      44.018  31.943  28.839  1.00  0.00     0.029 A 
ATOM     54  C   UNL A   1      45.019  31.017  28.319  1.00  0.00     0.049 A 
ATOM     55  H   UNL A   1      44.775  28.991  27.898  1.00  0.00     0.167 HD
ATOM     56  C   UNL A   1      44.121  24.772  26.997  1.00  0.00     0.037 A 
ATOM     57  C   UNL A   1      46.295  31.337  28.029  1.00  0.00     0.037 A 
ATOM     58  C   UNL A   1      45.488  25.028  26.629  1.00  0.00     0.049 A 
ATOM     59  C   UNL A   1      47.218  30.282  27.493  1.00  0.00     0.074 A 
ATOM     60  C   UNL A   1      46.407  24.155  26.072  1.00  0.00     0.029 A 
ATOM     61  N   UNL A   1      46.136  26.245  26.780  1.00  0.00    -0.354 N 
ATOM     62  N   UNL A   1      46.960  29.024  27.227  1.00  0.00    -0.248 NA
ATOM     63  C   UNL A   1      48.605  30.686  27.226  1.00  0.00     0.031 C 
ATOM     64  C   UNL A   1      47.622  24.833  25.924  1.00  0.00     0.029 A 
ATOM     65  C   UNL A   1      47.450  26.140  26.352  1.00  0.00     0.049 A 
ATOM     66  H   UNL A   1      45.724  27.064  27.139  1.00  0.00     0.167 HD
ATOM     67  C   UNL A   1      48.154  28.483  26.762  1.00  0.00     0.074 A 
ATOM     68  C   UNL A   1      49.127  29.556  26.763  1.00  0.00     0.031 C 
ATOM     69  C   UNL A   1      48.415  27.211  26.376  1.00  0.00     0.037 A 
BRANCH  56  70
ATOM     70  C   UNL A   1      43.597  23.370  26.846  1.00  0.00     0.058 A 
ATOM     71  C   UNL A   1      43.381  22.538  27.955  1.00  0.00     0.135 A 
ATOM     72  C   UNL A   1      43.276  22.865  25.575  1.00  0.00     0.135 A 
ATOM     73  F   UNL A   1      43.685  22.965  29.191  1.00  0.00    -0.206 F 
ATOM     74  C   UNL A   1      42.892  21.243  27.807  1.00  0.00     0.059 A 
ATOM     75  C   UNL A   1      42.765  21.581  25.406  1.00  0.00     0.059 A 
ATOM     76  F   UNL A   1      43.464  23.620  24.482  1.00  0.00    -0.206 F 
ATOM     77  C   UNL A   1      42.591  20.773  26.528  1.00  0.00     0.060 A 
BRANCH  77  78
ATOM     78  S   UNL A   1      41.967  19.087  26.353  1.00  0.00     0.124 S 
ATOM     79  O   UNL A   1      42.076  18.595  27.723  1.00  0.00    -0.237 OA
ATOM     80  O   UNL A   1      40.608  19.305  25.866  1.00  0.00    -0.237 OA
ATOM     81  O   UNL A   1      42.884  18.482  25.394  1.00  0.00    -0.744 OA
ENDBRANCH  77  78
ENDBRANCH  56  70
BRANCH  57  82
ATOM     82  C   UNL A   1      46.753  32.733  28.245  1.00  0.00     0.058 A 
ATOM     83  C   UNL A   1      46.592  33.707  27.250  1.00  0.00     0.135 A 
ATOM     84  C   UNL A   1      47.280  33.137  29.481  1.00  0.00     0.135 A 
ATOM     85  F   UNL A   1      46.099  33.365  26.050  1.00  0.00    -0.206 F 
ATOM     86  C   UNL A   1      46.920  35.039  27.478  1.00  0.00     0.059 A 
ATOM     87  C   UNL A   1      47.596  34.465  29.741  1.00  0.00     0.059 A 
ATOM     88  F   UNL A   1      47.440  32.240  30.468  1.00  0.00    -0.206 F 
ATOM     89  C   UNL A   1      47.410  35.410  28.733  1.00  0.00     0.060 A 
BRANCH  89  90
ATOM     90  S   UNL A   1      47.725  37.158  29.056  1.00  0.00     0.124 S 
ATOM     91  O   UNL A   1      49.103  37.126  29.532  1.00  0.00    -0.237 OA
ATOM     92  O   UNL A   1      47.517  37.756  27.741  1.00  0.00    -0.237 OA
ATOM     93  O   UNL A   1      46.719  37.502  30.057  1.00  0.00    -0.744 OA
ENDBRANCH  89  90
ENDBRANCH  57  82
BRANCH  69  94
ATOM     94  C   UNL A   1      49.815  26.898  25.932  1.00  0.00     0.058 A 
ATOM     95  C   UNL A   1      50.219  27.099  24.602  1.00  0.00     0.135 A 
ATOM     96  C   UNL A   1      50.779  26.458  26.853  1.00  0.00     0.135 A 
ATOM     97  F   UNL A   1      49.333  27.512  23.682  1.00  0.00    -0.206 F 
ATOM     98  C   UNL A   1      51.529  26.863  24.199  1.00  0.00     0.059 A 
ATOM     99  C   UNL A   1      52.100  26.236  26.475  1.00  0.00     0.059 A 
ATOM    100  F   UNL A   1      50.445  26.259  28.138  1.00  0.00    -0.206 F 
ATOM    101  C   UNL A   1      52.464  26.435  25.144  1.00  0.00     0.060 A 
BRANCH 101 102
ATOM    102  S   UNL A   1      54.171  26.176  24.616  1.00  0.00     0.124 S 
ATOM    103  O   UNL A   1      54.878  27.175  25.410  1.00  0.00    -0.237 OA
ATOM    104  O   UNL A   1      54.407  24.785  24.990  1.00  0.00    -0.237 OA
ATOM    105  O   UNL A   1      54.125  26.433  23.179  1.00  0.00    -0.744 OA
ENDBRANCH 101 102
ENDBRANCH  69  94
ENDBRANCH  43  44
ENDBRANCH  35  38
ENDBRANCH  33  34
ENDBRANCH  32  33
ENDBRANCH   1  32
TORSDOF 18
ENDMDL
