MODEL 1
REMARK VINA RESULT:     -12.5      0.000      0.000
REMARK SMILES C[C@@H](C(=O)NCCCNC(=O)c1ccc(-c2c3nc(c(-c4c(F)cc(S(=O)(=O)[O-])cc4F)c4ccc([nH]4)c(-c4c(F)cc(S(=O)(=O)[O-])cc4F)c4nc(c(-c5c(F)cc(S(=O)(=O)[O-])cc5F)c5ccc2[nH]5)C=C4)C=C3)cc1)c1ccc(-c2ccccc2)c(F)c1
REMARK SMILES IDX 7 1 6 2 5 3 3 4 4 5 2 7 1 8 78 9 79 10 90 11 80 12 88 13
REMARK SMILES IDX 81 14 89 15 82 16 83 17 87 18 84 19 86 20 85 21 8 22 9 23
REMARK SMILES IDX 10 24 11 26 12 27 13 28 77 29 14 30 76 31 15 32 16 33 17 34
REMARK SMILES IDX 70 35 18 36 75 37 69 38 71 39 19 40 74 41 68 42 67 43 20 45
REMARK SMILES IDX 54 46 33 47 53 48 34 49 37 50 52 51 72 52 35 53 36 54 51 56
REMARK SMILES IDX 73 57 38 58 21 59 22 60 31 61 23 62 24 63 30 64 32 65 25 66
REMARK SMILES IDX 26 67 27 68 28 69 29 70 55 71 56 72 65 73 57 74 58 75 64 76
REMARK SMILES IDX 66 77 59 78 60 79 61 80 62 81 63 82 39 83 40 84 49 85 41 86
REMARK SMILES IDX 42 87 48 88 50 89 43 90 44 91 45 92 46 93 47 94
REMARK H PARENT 5 6 9 25 71 44 37 55
REMARK Flexibility Score: inf
ROOT
ATOM      1  C   UNL A   1      33.500  29.060  27.257  1.00  0.00     0.042 C 
ENDROOT
BRANCH   1   2
ATOM      2  C   UNL A   1      32.948  30.007  26.191  1.00  0.00     0.117 C 
BRANCH   2   3
ATOM      3  N   UNL A   1      31.965  29.349  25.348  1.00  0.00    -0.356 N 
ATOM      4  C   UNL A   1      32.125  28.563  24.241  1.00  0.00     0.227 C 
ATOM      5  O   UNL A   1      31.102  28.304  23.603  1.00  0.00    -0.274 OA
ATOM      6  H   UNL A   1      31.029  29.491  25.618  1.00  0.00     0.163 HD
BRANCH   4   7
ATOM      7  C   UNL A   1      33.522  28.029  23.865  1.00  0.00     0.105 C 
ATOM      8  C   UNL A   1      33.877  28.541  22.462  1.00  0.00     0.023 C 
BRANCH   7   9
ATOM      9  C   UNL A   1      33.671  26.503  23.989  1.00  0.00    -0.033 A 
ATOM     10  C   UNL A   1      33.912  25.890  25.231  1.00  0.00     0.005 A 
ATOM     11  C   UNL A   1      33.624  25.664  22.864  1.00  0.00     0.044 A 
ATOM     12  C   UNL A   1      33.997  24.495  25.353  1.00  0.00     0.012 A 
ATOM     13  C   UNL A   1      33.726  24.278  22.989  1.00  0.00     0.131 A 
ATOM     14  C   UNL A   1      33.890  23.661  24.232  1.00  0.00     0.017 A 
ATOM     15  F   UNL A   1      33.643  23.540  21.871  1.00  0.00    -0.206 F 
BRANCH  14  16
ATOM     16  C   UNL A   1      33.934  22.198  24.363  1.00  0.00    -0.015 A 
ATOM     17  C   UNL A   1      35.108  21.550  24.783  1.00  0.00     0.009 A 
ATOM     18  C   UNL A   1      32.803  21.411  24.097  1.00  0.00     0.009 A 
ATOM     19  C   UNL A   1      35.149  20.161  24.930  1.00  0.00     0.001 A 
ATOM     20  C   UNL A   1      32.843  20.022  24.239  1.00  0.00     0.001 A 
ATOM     21  C   UNL A   1      34.016  19.397  24.656  1.00  0.00     0.000 A 
ENDBRANCH  14  16
ENDBRANCH   7   9
ENDBRANCH   4   7
ENDBRANCH   2   3
ENDBRANCH   1   2
BRANCH   1  22
ATOM     22  C   UNL A   1      34.953  29.321  27.643  1.00  0.00     0.118 C 
BRANCH  22  23
ATOM     23  N   UNL A   1      35.083  30.343  28.670  1.00  0.00    -0.352 N 
ATOM     24  C   UNL A   1      36.146  30.635  29.490  1.00  0.00     0.251 C 
ATOM     25  H   UNL A   1      34.290  30.913  28.796  1.00  0.00     0.163 HD
ATOM     26  O   UNL A   1      35.989  31.411  30.431  1.00  0.00    -0.269 OA
BRANCH  24  27
ATOM     27  C   UNL A   1      37.464  29.999  29.266  1.00  0.00     0.039 A 
ATOM     28  C   UNL A   1      37.951  29.899  27.960  1.00  0.00     0.014 A 
ATOM     29  C   UNL A   1      38.219  29.503  30.332  1.00  0.00     0.014 A 
ATOM     30  C   UNL A   1      39.231  29.385  27.733  1.00  0.00     0.010 A 
ATOM     31  C   UNL A   1      39.521  29.055  30.113  1.00  0.00     0.010 A 
ATOM     32  C   UNL A   1      40.047  29.009  28.812  1.00  0.00    -0.014 A 
BRANCH  32  33
ATOM     33  C   UNL A   1      41.472  28.633  28.611  1.00  0.00     0.031 A 
ATOM     34  C   UNL A   1      42.549  29.684  28.611  1.00  0.00     0.074 A 
ATOM     35  C   UNL A   1      41.779  27.348  28.330  1.00  0.00     0.049 A 
ATOM     36  N   UNL A   1      43.821  29.557  28.339  1.00  0.00    -0.248 NA
ATOM     37  C   UNL A   1      42.141  31.060  28.939  1.00  0.00     0.031 C 
ATOM     38  C   UNL A   1      40.815  26.246  28.255  1.00  0.00     0.029 A 
ATOM     39  N   UNL A   1      42.979  26.754  28.026  1.00  0.00    -0.354 N 
ATOM     40  C   UNL A   1      44.363  30.833  28.440  1.00  0.00     0.074 A 
ATOM     41  C   UNL A   1      43.275  31.727  28.775  1.00  0.00     0.031 C 
ATOM     42  C   UNL A   1      41.460  25.115  27.931  1.00  0.00     0.029 A 
ATOM     43  C   UNL A   1      42.873  25.415  27.722  1.00  0.00     0.049 A 
ATOM     44  H   UNL A   1      43.836  27.239  28.026  1.00  0.00     0.167 HD
ATOM     45  C   UNL A   1      45.651  31.217  28.275  1.00  0.00     0.037 A 
ATOM     46  C   UNL A   1      43.797  24.534  27.290  1.00  0.00     0.037 A 
ATOM     47  C   UNL A   1      46.732  30.313  27.976  1.00  0.00     0.049 A 
ATOM     48  C   UNL A   1      45.216  25.000  27.095  1.00  0.00     0.074 A 
ATOM     49  C   UNL A   1      48.085  30.594  27.895  1.00  0.00     0.029 A 
ATOM     50  N   UNL A   1      46.586  28.964  27.691  1.00  0.00    -0.354 N 
ATOM     51  N   UNL A   1      45.729  26.189  27.302  1.00  0.00    -0.248 NA
ATOM     52  C   UNL A   1      46.184  24.008  26.603  1.00  0.00     0.031 C 
ATOM     53  C   UNL A   1      48.750  29.432  27.495  1.00  0.00     0.029 A 
ATOM     54  C   UNL A   1      47.819  28.412  27.386  1.00  0.00     0.049 A 
ATOM     55  H   UNL A   1      45.734  28.472  27.706  1.00  0.00     0.167 HD
ATOM     56  C   UNL A   1      47.078  26.082  26.985  1.00  0.00     0.074 A 
ATOM     57  C   UNL A   1      47.309  24.708  26.594  1.00  0.00     0.031 C 
ATOM     58  C   UNL A   1      48.038  27.039  27.007  1.00  0.00     0.037 A 
BRANCH  45  59
ATOM     59  C   UNL A   1      45.988  32.677  28.406  1.00  0.00     0.058 A 
ATOM     60  C   UNL A   1      45.942  33.548  27.307  1.00  0.00     0.135 A 
ATOM     61  C   UNL A   1      46.248  33.230  29.671  1.00  0.00     0.135 A 
ATOM     62  F   UNL A   1      45.712  33.070  26.073  1.00  0.00    -0.206 F 
ATOM     63  C   UNL A   1      46.138  34.917  27.459  1.00  0.00     0.059 A 
ATOM     64  C   UNL A   1      46.423  34.599  29.849  1.00  0.00     0.059 A 
ATOM     65  F   UNL A   1      46.306  32.439  30.754  1.00  0.00    -0.206 F 
ATOM     66  C   UNL A   1      46.367  35.434  28.736  1.00  0.00     0.060 A 
BRANCH  66  67
ATOM     67  S   UNL A   1      46.557  37.221  28.919  1.00  0.00     0.124 S 
ATOM     68  O   UNL A   1      45.165  37.662  28.931  1.00  0.00    -0.237 OA
ATOM     69  O   UNL A   1      47.266  37.328  30.190  1.00  0.00    -0.237 OA
ATOM     70  O   UNL A   1      47.326  37.605  27.740  1.00  0.00    -0.744 OA
ENDBRANCH  66  67
ENDBRANCH  45  59
BRANCH  46  71
ATOM     71  C   UNL A   1      43.413  23.131  26.972  1.00  0.00     0.058 A 
ATOM     72  C   UNL A   1      43.126  22.209  27.991  1.00  0.00     0.135 A 
ATOM     73  C   UNL A   1      43.363  22.672  25.646  1.00  0.00     0.135 A 
ATOM     74  F   UNL A   1      43.166  22.596  29.275  1.00  0.00    -0.206 F 
ATOM     75  C   UNL A   1      42.840  20.877  27.709  1.00  0.00     0.059 A 
ATOM     76  C   UNL A   1      43.048  21.353  25.338  1.00  0.00     0.059 A 
ATOM     77  F   UNL A   1      43.611  23.515  24.631  1.00  0.00    -0.206 F 
ATOM     78  C   UNL A   1      42.809  20.457  26.379  1.00  0.00     0.060 A 
BRANCH  78  79
ATOM     79  S   UNL A   1      42.436  18.727  26.023  1.00  0.00     0.124 S 
ATOM     80  O   UNL A   1      42.750  18.092  27.298  1.00  0.00    -0.237 OA
ATOM     81  O   UNL A   1      41.021  18.784  25.668  1.00  0.00    -0.237 OA
ATOM     82  O   UNL A   1      43.339  18.410  24.921  1.00  0.00    -0.744 OA
ENDBRANCH  78  79
ENDBRANCH  46  71
BRANCH  58  83
ATOM     83  C   UNL A   1      49.434  26.638  26.615  1.00  0.00     0.058 A 
ATOM     84  C   UNL A   1      50.290  25.990  27.519  1.00  0.00     0.135 A 
ATOM     85  C   UNL A   1      49.889  26.831  25.301  1.00  0.00     0.135 A 
ATOM     86  F   UNL A   1      49.908  25.793  28.790  1.00  0.00    -0.206 F 
ATOM     87  C   UNL A   1      51.553  25.552  27.134  1.00  0.00     0.059 A 
ATOM     88  C   UNL A   1      51.137  26.374  24.886  1.00  0.00     0.059 A 
ATOM     89  F   UNL A   1      49.107  27.440  24.396  1.00  0.00    -0.206 F 
ATOM     90  C   UNL A   1      51.963  25.739  25.813  1.00  0.00     0.060 A 
BRANCH  90  91
ATOM     91  S   UNL A   1      53.576  25.103  25.312  1.00  0.00     0.124 S 
ATOM     92  O   UNL A   1      53.676  25.597  23.943  1.00  0.00    -0.237 OA
ATOM     93  O   UNL A   1      54.472  25.730  26.280  1.00  0.00    -0.237 OA
ATOM     94  O   UNL A   1      53.430  23.657  25.447  1.00  0.00    -0.744 OA
ENDBRANCH  90  91
ENDBRANCH  58  83
ENDBRANCH  32  33
ENDBRANCH  24  27
ENDBRANCH  22  23
ENDBRANCH   1  22
TORSDOF 15
ENDMDL
MODEL 2
REMARK VINA RESULT:     -12.5      4.326     10.521
REMARK SMILES C[C@@H](C(=O)NCCCNC(=O)c1ccc(-c2c3nc(c(-c4c(F)cc(S(=O)(=O)[O-])cc4F)c4ccc([nH]4)c(-c4c(F)cc(S(=O)(=O)[O-])cc4F)c4nc(c(-c5c(F)cc(S(=O)(=O)[O-])cc5F)c5ccc2[nH]5)C=C4)C=C3)cc1)c1ccc(-c2ccccc2)c(F)c1
REMARK SMILES IDX 7 1 6 2 5 3 3 4 4 5 2 7 1 8 78 9 79 10 90 11 80 12 88 13
REMARK SMILES IDX 81 14 89 15 82 16 83 17 87 18 84 19 86 20 85 21 8 22 9 23
REMARK SMILES IDX 10 24 11 26 12 27 13 28 77 29 14 30 76 31 15 32 16 33 17 34
REMARK SMILES IDX 70 35 18 36 75 37 69 38 71 39 19 40 74 41 68 42 67 43 20 45
REMARK SMILES IDX 54 46 33 47 53 48 34 49 37 50 52 51 72 52 35 53 36 54 51 56
REMARK SMILES IDX 73 57 38 58 21 59 22 60 31 61 23 62 24 63 30 64 32 65 25 66
REMARK SMILES IDX 26 67 27 68 28 69 29 70 55 71 56 72 65 73 57 74 58 75 64 76
REMARK SMILES IDX 66 77 59 78 60 79 61 80 62 81 63 82 39 83 40 84 49 85 41 86
REMARK SMILES IDX 42 87 48 88 50 89 43 90 44 91 45 92 46 93 47 94
REMARK H PARENT 5 6 9 25 71 44 37 55
REMARK Flexibility Score: inf
ROOT
ATOM      1  C   UNL A   1      34.774  32.622  31.148  1.00  0.00     0.042 C 
ENDROOT
BRANCH   1   2
ATOM      2  C   UNL A   1      35.815  31.881  31.988  1.00  0.00     0.117 C 
BRANCH   2   3
ATOM      3  N   UNL A   1      37.092  32.572  31.987  1.00  0.00    -0.356 N 
ATOM      4  C   UNL A   1      38.070  32.637  32.940  1.00  0.00     0.227 C 
ATOM      5  O   UNL A   1      38.962  33.467  32.751  1.00  0.00    -0.274 OA
ATOM      6  H   UNL A   1      37.287  33.077  31.164  1.00  0.00     0.163 HD
BRANCH   4   7
ATOM      7  C   UNL A   1      38.034  31.686  34.154  1.00  0.00     0.105 C 
ATOM      8  C   UNL A   1      38.072  32.531  35.435  1.00  0.00     0.023 C 
BRANCH   7   9
ATOM      9  C   UNL A   1      39.119  30.596  34.136  1.00  0.00    -0.033 A 
ATOM     10  C   UNL A   1      40.048  30.472  35.183  1.00  0.00     0.005 A 
ATOM     11  C   UNL A   1      39.257  29.712  33.054  1.00  0.00     0.044 A 
ATOM     12  C   UNL A   1      41.006  29.446  35.193  1.00  0.00     0.012 A 
ATOM     13  C   UNL A   1      40.222  28.703  33.062  1.00  0.00     0.131 A 
ATOM     14  C   UNL A   1      41.100  28.531  34.135  1.00  0.00     0.017 A 
ATOM     15  F   UNL A   1      40.276  27.879  32.003  1.00  0.00    -0.206 F 
BRANCH  14  16
ATOM     16  C   UNL A   1      42.072  27.430  34.164  1.00  0.00    -0.015 A 
ATOM     17  C   UNL A   1      41.876  26.321  35.005  1.00  0.00     0.009 A 
ATOM     18  C   UNL A   1      43.208  27.443  33.340  1.00  0.00     0.009 A 
ATOM     19  C   UNL A   1      42.786  25.262  35.021  1.00  0.00     0.001 A 
ATOM     20  C   UNL A   1      44.121  26.386  33.357  1.00  0.00     0.001 A 
ATOM     21  C   UNL A   1      43.910  25.296  34.198  1.00  0.00     0.000 A 
ENDBRANCH  14  16
ENDBRANCH   7   9
ENDBRANCH   4   7
ENDBRANCH   2   3
ENDBRANCH   1   2
BRANCH   1  22
ATOM     22  C   UNL A   1      35.078  32.657  29.652  1.00  0.00     0.118 C 
BRANCH  22  23
ATOM     23  N   UNL A   1      34.257  31.726  28.893  1.00  0.00    -0.352 N 
ATOM     24  C   UNL A   1      34.619  30.589  28.211  1.00  0.00     0.251 C 
ATOM     25  H   UNL A   1      33.297  31.943  28.863  1.00  0.00     0.163 HD
ATOM     26  O   UNL A   1      33.806  30.047  27.466  1.00  0.00    -0.269 OA
BRANCH  24  27
ATOM     27  C   UNL A   1      35.985  30.036  28.345  1.00  0.00     0.039 A 
ATOM     28  C   UNL A   1      36.878  30.180  27.279  1.00  0.00     0.014 A 
ATOM     29  C   UNL A   1      36.390  29.380  29.510  1.00  0.00     0.014 A 
ATOM     30  C   UNL A   1      38.200  29.748  27.416  1.00  0.00     0.010 A 
ATOM     31  C   UNL A   1      37.725  29.010  29.672  1.00  0.00     0.010 A 
ATOM     32  C   UNL A   1      38.648  29.208  28.633  1.00  0.00    -0.014 A 
BRANCH  32  33
ATOM     33  C   UNL A   1      40.087  28.910  28.864  1.00  0.00     0.031 A 
ATOM     34  C   UNL A   1      40.664  27.576  28.478  1.00  0.00     0.074 A 
ATOM     35  C   UNL A   1      40.848  29.815  29.516  1.00  0.00     0.049 A 
ATOM     36  N   UNL A   1      41.860  27.101  28.708  1.00  0.00    -0.248 NA
ATOM     37  C   UNL A   1      39.778  26.646  27.759  1.00  0.00     0.031 C 
ATOM     38  C   UNL A   1      40.389  31.127  29.982  1.00  0.00     0.029 A 
ATOM     39  N   UNL A   1      42.159  29.763  29.925  1.00  0.00    -0.354 N 
ATOM     40  C   UNL A   1      41.866  25.812  28.184  1.00  0.00     0.074 A 
ATOM     41  C   UNL A   1      40.545  25.570  27.646  1.00  0.00     0.031 C 
ATOM     42  C   UNL A   1      41.398  31.752  30.609  1.00  0.00     0.029 A 
ATOM     43  C   UNL A   1      42.560  30.871  30.638  1.00  0.00     0.049 A 
ATOM     44  H   UNL A   1      42.755  29.005  29.728  1.00  0.00     0.167 HD
ATOM     45  C   UNL A   1      42.885  24.921  28.152  1.00  0.00     0.037 A 
ATOM     46  C   UNL A   1      43.719  31.136  31.273  1.00  0.00     0.037 A 
ATOM     47  C   UNL A   1      44.207  25.186  28.660  1.00  0.00     0.049 A 
ATOM     48  C   UNL A   1      44.825  30.114  31.236  1.00  0.00     0.074 A 
ATOM     49  C   UNL A   1      45.332  24.384  28.576  1.00  0.00     0.029 A 
ATOM     50  N   UNL A   1      44.578  26.324  29.359  1.00  0.00    -0.354 N 
ATOM     51  N   UNL A   1      44.846  28.945  30.640  1.00  0.00    -0.248 NA
ATOM     52  C   UNL A   1      46.062  30.440  31.960  1.00  0.00     0.031 C 
ATOM     53  C   UNL A   1      46.366  25.005  29.282  1.00  0.00     0.029 A 
ATOM     54  C   UNL A   1      45.902  26.222  29.755  1.00  0.00     0.049 A 
ATOM     55  H   UNL A   1      43.990  27.091  29.544  1.00  0.00     0.167 HD
ATOM     56  C   UNL A   1      46.101  28.408  30.903  1.00  0.00     0.074 A 
ATOM     57  C   UNL A   1      46.820  29.387  31.690  1.00  0.00     0.031 C 
ATOM     58  C   UNL A   1      46.610  27.208  30.531  1.00  0.00     0.037 A 
BRANCH  45  59
ATOM     59  C   UNL A   1      42.635  23.564  27.554  1.00  0.00     0.058 A 
ATOM     60  C   UNL A   1      42.867  23.300  26.196  1.00  0.00     0.135 A 
ATOM     61  C   UNL A   1      42.269  22.487  28.378  1.00  0.00     0.135 A 
ATOM     62  F   UNL A   1      43.206  24.296  25.361  1.00  0.00    -0.206 F 
ATOM     63  C   UNL A   1      42.749  22.015  25.676  1.00  0.00     0.059 A 
ATOM     64  C   UNL A   1      42.169  21.189  27.885  1.00  0.00     0.059 A 
ATOM     65  F   UNL A   1      42.033  22.686  29.685  1.00  0.00    -0.206 F 
ATOM     66  C   UNL A   1      42.410  20.964  26.532  1.00  0.00     0.060 A 
BRANCH  66  67
ATOM     67  S   UNL A   1      42.322  19.294  25.850  1.00  0.00     0.124 S 
ATOM     68  O   UNL A   1      43.107  19.437  24.628  1.00  0.00    -0.237 OA
ATOM     69  O   UNL A   1      42.934  18.495  26.906  1.00  0.00    -0.237 OA
ATOM     70  O   UNL A   1      40.892  19.081  25.654  1.00  0.00    -0.744 OA
ENDBRANCH  66  67
ENDBRANCH  45  59
BRANCH  46  71
ATOM     71  C   UNL A   1      43.891  32.406  32.033  1.00  0.00     0.058 A 
ATOM     72  C   UNL A   1      43.553  32.489  33.392  1.00  0.00     0.135 A 
ATOM     73  C   UNL A   1      44.359  33.571  31.406  1.00  0.00     0.135 A 
ATOM     74  F   UNL A   1      43.094  31.405  34.036  1.00  0.00    -0.206 F 
ATOM     75  C   UNL A   1      43.636  33.688  34.092  1.00  0.00     0.059 A 
ATOM     76  C   UNL A   1      44.482  34.774  32.093  1.00  0.00     0.059 A 
ATOM     77  F   UNL A   1      44.714  33.545  30.112  1.00  0.00    -0.206 F 
ATOM     78  C   UNL A   1      44.098  34.828  33.431  1.00  0.00     0.060 A 
BRANCH  78  79
ATOM     79  S   UNL A   1      44.205  36.379  34.349  1.00  0.00     0.124 S 
ATOM     80  O   UNL A   1      43.679  37.331  33.376  1.00  0.00    -0.237 OA
ATOM     81  O   UNL A   1      43.357  36.112  35.506  1.00  0.00    -0.237 OA
ATOM     82  O   UNL A   1      45.631  36.497  34.640  1.00  0.00    -0.744 OA
ENDBRANCH  78  79
ENDBRANCH  46  71
BRANCH  58  83
ATOM     83  C   UNL A   1      48.017  26.884  30.953  1.00  0.00     0.058 A 
ATOM     84  C   UNL A   1      48.278  26.070  32.066  1.00  0.00     0.135 A 
ATOM     85  C   UNL A   1      49.109  27.322  30.189  1.00  0.00     0.135 A 
ATOM     86  F   UNL A   1      47.270  25.634  32.837  1.00  0.00    -0.206 F 
ATOM     87  C   UNL A   1      49.575  25.708  32.412  1.00  0.00     0.059 A 
ATOM     88  C   UNL A   1      50.414  26.948  30.498  1.00  0.00     0.059 A 
ATOM     89  F   UNL A   1      48.914  28.098  29.111  1.00  0.00    -0.206 F 
ATOM     90  C   UNL A   1      50.636  26.143  31.615  1.00  0.00     0.060 A 
BRANCH  90  91
ATOM     91  S   UNL A   1      52.308  25.607  32.036  1.00  0.00     0.124 S 
ATOM     92  O   UNL A   1      52.103  24.188  32.307  1.00  0.00    -0.237 OA
ATOM     93  O   UNL A   1      53.051  25.920  30.820  1.00  0.00    -0.237 OA
ATOM     94  O   UNL A   1      52.645  26.423  33.199  1.00  0.00    -0.744 OA
ENDBRANCH  90  91
ENDBRANCH  58  83
ENDBRANCH  32  33
ENDBRANCH  24  27
ENDBRANCH  22  23
ENDBRANCH   1  22
TORSDOF 15
ENDMDL
MODEL 3
REMARK VINA RESULT:     -12.4      2.933      8.855
REMARK SMILES C[C@@H](C(=O)NCCCNC(=O)c1ccc(-c2c3nc(c(-c4c(F)cc(S(=O)(=O)[O-])cc4F)c4ccc([nH]4)c(-c4c(F)cc(S(=O)(=O)[O-])cc4F)c4nc(c(-c5c(F)cc(S(=O)(=O)[O-])cc5F)c5ccc2[nH]5)C=C4)C=C3)cc1)c1ccc(-c2ccccc2)c(F)c1
REMARK SMILES IDX 7 1 6 2 5 3 3 4 4 5 2 7 1 8 78 9 79 10 90 11 80 12 88 13
REMARK SMILES IDX 81 14 89 15 82 16 83 17 87 18 84 19 86 20 85 21 8 22 9 23
REMARK SMILES IDX 10 24 11 26 12 27 13 28 77 29 14 30 76 31 15 32 16 33 17 34
REMARK SMILES IDX 70 35 18 36 75 37 69 38 71 39 19 40 74 41 68 42 67 43 20 45
REMARK SMILES IDX 54 46 33 47 53 48 34 49 37 50 52 51 72 52 35 53 36 54 51 56
REMARK SMILES IDX 73 57 38 58 21 59 22 60 31 61 23 62 24 63 30 64 32 65 25 66
REMARK SMILES IDX 26 67 27 68 28 69 29 70 55 71 56 72 65 73 57 74 58 75 64 76
REMARK SMILES IDX 66 77 59 78 60 79 61 80 62 81 63 82 39 83 40 84 49 85 41 86
REMARK SMILES IDX 42 87 48 88 50 89 43 90 44 91 45 92 46 93 47 94
REMARK H PARENT 5 6 9 25 71 44 37 55
REMARK Flexibility Score: inf
ROOT
ATOM      1  C   UNL A   1      33.077  27.860  27.095  1.00  0.00     0.042 C 
ENDROOT
BRANCH   1   2
ATOM      2  C   UNL A   1      31.650  28.095  26.597  1.00  0.00     0.117 C 
BRANCH   2   3
ATOM      3  N   UNL A   1      30.808  26.933  26.821  1.00  0.00    -0.356 N 
ATOM      4  C   UNL A   1      30.504  25.882  26.002  1.00  0.00     0.227 C 
ATOM      5  O   UNL A   1      29.597  25.138  26.382  1.00  0.00    -0.274 OA
ATOM      6  H   UNL A   1      30.387  26.895  27.710  1.00  0.00     0.163 HD
BRANCH   4   7
ATOM      7  C   UNL A   1      31.297  25.662  24.697  1.00  0.00     0.105 C 
ATOM      8  C   UNL A   1      30.389  24.941  23.692  1.00  0.00     0.023 C 
BRANCH   7   9
ATOM      9  C   UNL A   1      32.646  24.947  24.889  1.00  0.00    -0.033 A 
ATOM     10  C   UNL A   1      33.584  24.862  23.846  1.00  0.00     0.005 A 
ATOM     11  C   UNL A   1      32.976  24.307  26.095  1.00  0.00     0.044 A 
ATOM     12  C   UNL A   1      34.835  24.255  24.035  1.00  0.00     0.012 A 
ATOM     13  C   UNL A   1      34.215  23.690  26.272  1.00  0.00     0.131 A 
ATOM     14  C   UNL A   1      35.179  23.670  25.261  1.00  0.00     0.017 A 
ATOM     15  F   UNL A   1      34.468  23.123  27.463  1.00  0.00    -0.206 F 
BRANCH  14  16
ATOM     16  C   UNL A   1      36.504  23.073  25.475  1.00  0.00    -0.015 A 
ATOM     17  C   UNL A   1      37.504  23.775  26.171  1.00  0.00     0.009 A 
ATOM     18  C   UNL A   1      36.802  21.782  25.013  1.00  0.00     0.009 A 
ATOM     19  C   UNL A   1      38.758  23.203  26.395  1.00  0.00     0.001 A 
ATOM     20  C   UNL A   1      38.058  21.210  25.233  1.00  0.00     0.001 A 
ATOM     21  C   UNL A   1      39.036  21.921  25.924  1.00  0.00     0.000 A 
ENDBRANCH  14  16
ENDBRANCH   7   9
ENDBRANCH   4   7
ENDBRANCH   2   3
ENDBRANCH   1   2
BRANCH   1  22
ATOM     22  C   UNL A   1      34.077  28.933  26.674  1.00  0.00     0.118 C 
BRANCH  22  23
ATOM     23  N   UNL A   1      34.002  30.124  27.508  1.00  0.00    -0.352 N 
ATOM     24  C   UNL A   1      34.914  30.628  28.403  1.00  0.00     0.251 C 
ATOM     25  H   UNL A   1      33.174  30.648  27.416  1.00  0.00     0.163 HD
ATOM     26  O   UNL A   1      34.581  31.540  29.156  1.00  0.00    -0.269 OA
BRANCH  24  27
ATOM     27  C   UNL A   1      36.278  30.060  28.487  1.00  0.00     0.039 A 
ATOM     28  C   UNL A   1      37.133  30.194  27.389  1.00  0.00     0.014 A 
ATOM     29  C   UNL A   1      36.718  29.399  29.636  1.00  0.00     0.014 A 
ATOM     30  C   UNL A   1      38.454  29.747  27.478  1.00  0.00     0.010 A 
ATOM     31  C   UNL A   1      38.053  29.014  29.749  1.00  0.00     0.010 A 
ATOM     32  C   UNL A   1      38.940  29.202  28.677  1.00  0.00    -0.014 A 
BRANCH  32  33
ATOM     33  C   UNL A   1      40.383  28.888  28.856  1.00  0.00     0.031 A 
ATOM     34  C   UNL A   1      40.930  27.545  28.454  1.00  0.00     0.074 A 
ATOM     35  C   UNL A   1      41.179  29.786  29.474  1.00  0.00     0.049 A 
ATOM     36  N   UNL A   1      42.128  27.057  28.640  1.00  0.00    -0.248 NA
ATOM     37  C   UNL A   1      40.007  26.623  27.773  1.00  0.00     0.031 C 
ATOM     38  C   UNL A   1      40.753  31.105  29.952  1.00  0.00     0.029 A 
ATOM     39  N   UNL A   1      42.503  29.720  29.835  1.00  0.00    -0.354 N 
ATOM     40  C   UNL A   1      42.100  25.766  28.123  1.00  0.00     0.074 A 
ATOM     41  C   UNL A   1      40.757  25.538  27.635  1.00  0.00     0.031 C 
ATOM     42  C   UNL A   1      41.792  31.721  30.538  1.00  0.00     0.029 A 
ATOM     43  C   UNL A   1      42.944  30.826  30.527  1.00  0.00     0.049 A 
ATOM     44  H   UNL A   1      43.083  28.955  29.618  1.00  0.00     0.167 HD
ATOM     45  C   UNL A   1      43.106  24.863  28.056  1.00  0.00     0.037 A 
ATOM     46  C   UNL A   1      44.129  31.080  31.117  1.00  0.00     0.037 A 
ATOM     47  C   UNL A   1      44.450  25.114  28.513  1.00  0.00     0.049 A 
ATOM     48  C   UNL A   1      45.220  30.044  31.043  1.00  0.00     0.074 A 
ATOM     49  C   UNL A   1      45.561  24.299  28.391  1.00  0.00     0.029 A 
ATOM     50  N   UNL A   1      44.860  26.251  29.193  1.00  0.00    -0.354 N 
ATOM     51  N   UNL A   1      45.206  28.874  30.452  1.00  0.00    -0.248 NA
ATOM     52  C   UNL A   1      46.487  30.359  31.719  1.00  0.00     0.031 C 
ATOM     53  C   UNL A   1      46.627  24.911  29.055  1.00  0.00     0.029 A 
ATOM     54  C   UNL A   1      46.195  26.135  29.539  1.00  0.00     0.049 A 
ATOM     55  H   UNL A   1      44.287  27.025  29.397  1.00  0.00     0.167 HD
ATOM     56  C   UNL A   1      46.463  28.323  30.669  1.00  0.00     0.074 A 
ATOM     57  C   UNL A   1      47.222  29.296  31.425  1.00  0.00     0.031 C 
ATOM     58  C   UNL A   1      46.944  27.115  30.284  1.00  0.00     0.037 A 
BRANCH  45  59
ATOM     59  C   UNL A   1      42.818  23.507  27.473  1.00  0.00     0.058 A 
ATOM     60  C   UNL A   1      43.113  23.198  26.138  1.00  0.00     0.135 A 
ATOM     61  C   UNL A   1      42.348  22.471  28.298  1.00  0.00     0.135 A 
ATOM     62  F   UNL A   1      43.552  24.153  25.302  1.00  0.00    -0.206 F 
ATOM     63  C   UNL A   1      42.955  21.908  25.640  1.00  0.00     0.059 A 
ATOM     64  C   UNL A   1      42.206  21.169  27.828  1.00  0.00     0.059 A 
ATOM     65  F   UNL A   1      42.048  22.715  29.584  1.00  0.00    -0.206 F 
ATOM     66  C   UNL A   1      42.512  20.898  26.496  1.00  0.00     0.060 A 
BRANCH  66  67
ATOM     67  S   UNL A   1      42.373  19.219  25.846  1.00  0.00     0.124 S 
ATOM     68  O   UNL A   1      40.926  19.078  25.709  1.00  0.00    -0.237 OA
ATOM     69  O   UNL A   1      43.122  19.306  24.598  1.00  0.00    -0.237 OA
ATOM     70  O   UNL A   1      42.985  18.399  26.887  1.00  0.00    -0.744 OA
ENDBRANCH  66  67
ENDBRANCH  45  59
BRANCH  46  71
ATOM     71  C   UNL A   1      44.344  32.350  31.864  1.00  0.00     0.058 A 
ATOM     72  C   UNL A   1      44.909  33.473  31.241  1.00  0.00     0.135 A 
ATOM     73  C   UNL A   1      44.024  32.455  33.228  1.00  0.00     0.135 A 
ATOM     74  F   UNL A   1      45.238  33.422  29.941  1.00  0.00    -0.206 F 
ATOM     75  C   UNL A   1      45.184  34.639  31.948  1.00  0.00     0.059 A 
ATOM     76  C   UNL A   1      44.259  33.621  33.948  1.00  0.00     0.059 A 
ATOM     77  F   UNL A   1      43.465  31.418  33.871  1.00  0.00    -0.206 F 
ATOM     78  C   UNL A   1      44.860  34.701  33.304  1.00  0.00     0.060 A 
BRANCH  78  79
ATOM     79  S   UNL A   1      45.218  36.219  34.213  1.00  0.00     0.124 S 
ATOM     80  O   UNL A   1      44.132  36.240  35.187  1.00  0.00    -0.237 OA
ATOM     81  O   UNL A   1      46.550  35.952  34.746  1.00  0.00    -0.237 OA
ATOM     82  O   UNL A   1      45.159  37.249  33.180  1.00  0.00    -0.744 OA
ENDBRANCH  78  79
ENDBRANCH  46  71
BRANCH  58  83
ATOM     83  C   UNL A   1      48.362  26.776  30.654  1.00  0.00     0.058 A 
ATOM     84  C   UNL A   1      49.443  27.182  29.858  1.00  0.00     0.135 A 
ATOM     85  C   UNL A   1      48.645  26.111  31.858  1.00  0.00     0.135 A 
ATOM     86  F   UNL A   1      49.226  27.810  28.691  1.00  0.00    -0.206 F 
ATOM     87  C   UNL A   1      50.758  26.935  30.238  1.00  0.00     0.059 A 
ATOM     88  C   UNL A   1      49.954  25.880  32.273  1.00  0.00     0.059 A 
ATOM     89  F   UNL A   1      47.648  25.707  32.660  1.00  0.00    -0.206 F 
ATOM     90  C   UNL A   1      51.003  26.292  31.453  1.00  0.00     0.060 A 
BRANCH  90  91
ATOM     91  S   UNL A   1      52.715  26.041  31.966  1.00  0.00     0.124 S 
ATOM     92  O   UNL A   1      53.447  26.657  30.863  1.00  0.00    -0.237 OA
ATOM     93  O   UNL A   1      52.767  26.754  33.238  1.00  0.00    -0.237 OA
ATOM     94  O   UNL A   1      52.834  24.589  32.061  1.00  0.00    -0.744 OA
ENDBRANCH  90  91
ENDBRANCH  58  83
ENDBRANCH  32  33
ENDBRANCH  24  27
ENDBRANCH  22  23
ENDBRANCH   1  22
TORSDOF 15
ENDMDL
