MODEL 1
REMARK VINA RESULT:     -11.5      0.000      0.000
REMARK SMILES CC(C)[C@@H]1CCCN1C(=O)N1CCO[C@H](CC(=O)NCCCNC(=O)c2ccc(-c3c4nc(c(-c5c(F)cc(S(=O)(=O)[O-])cc5F)c5ccc([nH]5)c(-c5c(F)cc(S(=O)(=O)[O-])cc5F)c5nc(c(-c6c(F)cc(S(=O)(=O)[O-])cc6F)c6ccc3[nH]6)C=C5)C=C4)cc2)C1
REMARK SMILES IDX 20 1 19 2 17 3 18 4 16 6 15 7 11 8 12 9 92 10 13 11 14 12
REMARK SMILES IDX 9 13 10 14 8 15 4 16 5 17 6 18 7 19 2 20 1 21 3 22 21 23
REMARK SMILES IDX 22 24 23 25 24 26 25 28 26 29 27 30 91 31 28 32 90 33 29 34
REMARK SMILES IDX 30 35 31 36 84 37 32 38 89 39 83 40 85 41 33 42 88 43 82 44
REMARK SMILES IDX 81 45 34 47 68 48 47 49 67 50 48 51 51 52 66 53 86 54 49 55
REMARK SMILES IDX 50 56 65 58 87 59 52 60 35 61 36 62 45 63 37 64 38 65 44 66
REMARK SMILES IDX 46 67 39 68 40 69 41 70 42 71 43 72 69 73 70 74 79 75 71 76
REMARK SMILES IDX 72 77 78 78 80 79 73 80 74 81 75 82 76 83 77 84 53 85 54 86
REMARK SMILES IDX 63 87 55 88 56 89 62 90 64 91 57 92 58 93 59 94 60 95 61 96
REMARK H PARENT 19 5 23 27 85 46 51 57
REMARK Flexibility Score: inf
ROOT
ATOM      1  C   UNL A   1      37.405  23.649  26.076  1.00  0.00     0.117 C 
ENDROOT
BRANCH   1   2
ATOM      2  N   UNL A   1      37.430  23.321  24.671  1.00  0.00    -0.356 N 
ATOM      3  C   UNL A   1      36.344  23.241  23.843  1.00  0.00     0.222 C 
ATOM      4  O   UNL A   1      36.499  22.953  22.658  1.00  0.00    -0.275 OA
ATOM      5  H   UNL A   1      38.311  23.137  24.271  1.00  0.00     0.163 HD
BRANCH   3   6
ATOM      6  C   UNL A   1      34.983  23.594  24.396  1.00  0.00     0.133 C 
BRANCH   6   7
ATOM      7  C   UNL A   1      34.128  22.404  24.840  1.00  0.00     0.147 C 
ATOM      8  N   UNL A   1      32.516  23.520  26.325  1.00  0.00    -0.320 N 
ATOM      9  C   UNL A   1      32.701  22.494  27.341  1.00  0.00     0.150 C 
ATOM     10  C   UNL A   1      32.686  22.906  25.013  1.00  0.00     0.154 C 
ATOM     11  C   UNL A   1      34.136  21.995  27.280  1.00  0.00     0.182 C 
ATOM     12  O   UNL A   1      34.609  21.649  25.968  1.00  0.00    -0.374 OA
BRANCH   8  13
ATOM     13  C   UNL A   1      31.444  24.363  26.468  1.00  0.00     0.320 C 
ATOM     14  O   UNL A   1      30.535  24.078  27.249  1.00  0.00    -0.248 OA
BRANCH  13  15
ATOM     15  N   UNL A   1      31.391  25.474  25.651  1.00  0.00    -0.321 N 
ATOM     16  C   UNL A   1      32.319  26.602  25.385  1.00  0.00     0.089 C 
ATOM     17  C   UNL A   1      31.521  27.482  24.399  1.00  0.00     0.027 C 
ATOM     18  C   UNL A   1      30.710  26.478  23.612  1.00  0.00     0.024 C 
ATOM     19  C   UNL A   1      30.298  25.492  24.687  1.00  0.00     0.122 C 
BRANCH  16  20
ATOM     20  C   UNL A   1      32.886  27.452  26.552  1.00  0.00     0.005 C 
ATOM     21  C   UNL A   1      33.804  28.599  26.081  1.00  0.00     0.009 C 
ATOM     22  C   UNL A   1      31.876  28.024  27.537  1.00  0.00     0.009 C 
ENDBRANCH  16  20
ENDBRANCH  13  15
ENDBRANCH   8  13
ENDBRANCH   6   7
ENDBRANCH   3   6
ENDBRANCH   1   2
BRANCH   1  23
ATOM     23  C   UNL A   1      38.605  24.444  26.544  1.00  0.00     0.042 C 
BRANCH  23  24
ATOM     24  C   UNL A   1      39.771  23.553  26.912  1.00  0.00     0.118 C 
BRANCH  24  25
ATOM     25  N   UNL A   1      40.960  23.842  26.110  1.00  0.00    -0.352 N 
ATOM     26  C   UNL A   1      41.849  24.893  26.170  1.00  0.00     0.251 C 
ATOM     27  H   UNL A   1      41.158  23.175  25.413  1.00  0.00     0.163 HD
ATOM     28  O   UNL A   1      42.663  25.041  25.264  1.00  0.00    -0.269 OA
BRANCH  26  29
ATOM     29  C   UNL A   1      41.809  25.847  27.302  1.00  0.00     0.039 A 
ATOM     30  C   UNL A   1      42.189  27.177  27.102  1.00  0.00     0.014 A 
ATOM     31  C   UNL A   1      41.393  25.434  28.567  1.00  0.00     0.014 A 
ATOM     32  C   UNL A   1      42.063  28.098  28.149  1.00  0.00     0.010 A 
ATOM     33  C   UNL A   1      41.126  26.373  29.551  1.00  0.00     0.010 A 
ATOM     34  C   UNL A   1      41.482  27.714  29.368  1.00  0.00    -0.014 A 
BRANCH  34  35
ATOM     35  C   UNL A   1      41.258  28.673  30.481  1.00  0.00     0.031 A 
ATOM     36  C   UNL A   1      42.097  28.577  31.733  1.00  0.00     0.074 A 
ATOM     37  C   UNL A   1      40.244  29.559  30.409  1.00  0.00     0.049 A 
ATOM     38  N   UNL A   1      41.979  29.231  32.860  1.00  0.00    -0.248 NA
ATOM     39  C   UNL A   1      43.181  27.578  31.738  1.00  0.00     0.031 C 
ATOM     40  C   UNL A   1      39.309  29.692  29.288  1.00  0.00     0.029 A 
ATOM     41  N   UNL A   1      39.818  30.507  31.305  1.00  0.00    -0.354 N 
ATOM     42  C   UNL A   1      42.941  28.695  33.711  1.00  0.00     0.074 A 
ATOM     43  C   UNL A   1      43.590  27.622  32.996  1.00  0.00     0.031 C 
ATOM     44  C   UNL A   1      38.442  30.684  29.550  1.00  0.00     0.029 A 
ATOM     45  C   UNL A   1      38.730  31.230  30.872  1.00  0.00     0.049 A 
ATOM     46  H   UNL A   1      40.251  30.658  32.177  1.00  0.00     0.167 HD
ATOM     47  C   UNL A   1      43.277  29.085  34.963  1.00  0.00     0.037 A 
ATOM     48  C   UNL A   1      38.038  32.216  31.476  1.00  0.00     0.037 A 
ATOM     49  C   UNL A   1      42.670  30.200  35.640  1.00  0.00     0.049 A 
ATOM     50  C   UNL A   1      38.471  32.674  32.842  1.00  0.00     0.074 A 
ATOM     51  C   UNL A   1      43.000  30.744  36.868  1.00  0.00     0.029 A 
ATOM     52  N   UNL A   1      41.614  30.949  35.140  1.00  0.00    -0.354 N 
ATOM     53  N   UNL A   1      39.437  32.208  33.599  1.00  0.00    -0.248 NA
ATOM     54  C   UNL A   1      37.731  33.795  33.432  1.00  0.00     0.031 C 
ATOM     55  C   UNL A   1      42.117  31.796  37.129  1.00  0.00     0.029 A 
ATOM     56  C   UNL A   1      41.269  31.939  36.043  1.00  0.00     0.049 A 
ATOM     57  H   UNL A   1      41.176  30.798  34.272  1.00  0.00     0.167 HD
ATOM     58  C   UNL A   1      39.434  32.995  34.745  1.00  0.00     0.074 A 
ATOM     59  C   UNL A   1      38.385  33.979  34.571  1.00  0.00     0.031 C 
ATOM     60  C   UNL A   1      40.223  32.910  35.845  1.00  0.00     0.037 A 
BRANCH  47  61
ATOM     61  C   UNL A   1      44.362  28.322  35.673  1.00  0.00     0.058 A 
ATOM     62  C   UNL A   1      44.073  27.243  36.524  1.00  0.00     0.135 A 
ATOM     63  C   UNL A   1      45.714  28.641  35.463  1.00  0.00     0.135 A 
ATOM     64  F   UNL A   1      42.798  26.903  36.776  1.00  0.00    -0.206 F 
ATOM     65  C   UNL A   1      45.080  26.524  37.159  1.00  0.00     0.059 A 
ATOM     66  C   UNL A   1      46.739  27.917  36.064  1.00  0.00     0.059 A 
ATOM     67  F   UNL A   1      46.050  29.666  34.663  1.00  0.00    -0.206 F 
ATOM     68  C   UNL A   1      46.411  26.866  36.920  1.00  0.00     0.060 A 
BRANCH  68  69
ATOM     69  S   UNL A   1      47.706  25.905  37.730  1.00  0.00     0.124 S 
ATOM     70  O   UNL A   1      47.882  26.645  38.976  1.00  0.00    -0.237 OA
ATOM     71  O   UNL A   1      47.083  24.590  37.859  1.00  0.00    -0.237 OA
ATOM     72  O   UNL A   1      48.822  25.978  36.794  1.00  0.00    -0.744 OA
ENDBRANCH  68  69
ENDBRANCH  47  61
BRANCH  48  73
ATOM     73  C   UNL A   1      36.885  32.853  30.784  1.00  0.00     0.058 A 
ATOM     74  C   UNL A   1      37.086  33.816  29.783  1.00  0.00     0.135 A 
ATOM     75  C   UNL A   1      35.562  32.510  31.102  1.00  0.00     0.135 A 
ATOM     76  F   UNL A   1      38.332  34.180  29.444  1.00  0.00    -0.206 F 
ATOM     77  C   UNL A   1      36.019  34.435  29.140  1.00  0.00     0.059 A 
ATOM     78  C   UNL A   1      34.478  33.095  30.453  1.00  0.00     0.059 A 
ATOM     79  F   UNL A   1      35.314  31.579  32.036  1.00  0.00    -0.206 F 
ATOM     80  C   UNL A   1      34.716  34.067  29.482  1.00  0.00     0.060 A 
BRANCH  80  81
ATOM     81  S   UNL A   1      33.338  34.848  28.615  1.00  0.00     0.124 S 
ATOM     82  O   UNL A   1      34.019  35.902  27.872  1.00  0.00    -0.237 OA
ATOM     83  O   UNL A   1      32.811  33.744  27.818  1.00  0.00    -0.237 OA
ATOM     84  O   UNL A   1      32.472  35.297  29.699  1.00  0.00    -0.744 OA
ENDBRANCH  80  81
ENDBRANCH  48  73
BRANCH  60  85
ATOM     85  C   UNL A   1      40.000  33.926  36.929  1.00  0.00     0.058 A 
ATOM     86  C   UNL A   1      40.603  35.193  36.887  1.00  0.00     0.135 A 
ATOM     87  C   UNL A   1      39.143  33.641  38.004  1.00  0.00     0.135 A 
ATOM     88  F   UNL A   1      41.434  35.512  35.882  1.00  0.00    -0.206 F 
ATOM     89  C   UNL A   1      40.393  36.130  37.891  1.00  0.00     0.059 A 
ATOM     90  C   UNL A   1      38.894  34.575  39.004  1.00  0.00     0.059 A 
ATOM     91  F   UNL A   1      38.530  32.450  38.084  1.00  0.00    -0.206 F 
ATOM     92  C   UNL A   1      39.537  35.811  38.947  1.00  0.00     0.060 A 
BRANCH  92  93
ATOM     93  S   UNL A   1      39.260  37.041  40.239  1.00  0.00     0.124 S 
ATOM     94  O   UNL A   1      40.627  37.360  40.637  1.00  0.00    -0.237 OA
ATOM     95  O   UNL A   1      38.547  38.093  39.521  1.00  0.00    -0.237 OA
ATOM     96  O   UNL A   1      38.469  36.320  41.231  1.00  0.00    -0.744 OA
ENDBRANCH  92  93
ENDBRANCH  60  85
ENDBRANCH  34  35
ENDBRANCH  26  29
ENDBRANCH  24  25
ENDBRANCH  23  24
ENDBRANCH   1  23
TORSDOF 17
ENDMDL
MODEL 2
REMARK VINA RESULT:     -11.3      6.503     11.921
REMARK SMILES CC(C)[C@@H]1CCCN1C(=O)N1CCO[C@H](CC(=O)NCCCNC(=O)c2ccc(-c3c4nc(c(-c5c(F)cc(S(=O)(=O)[O-])cc5F)c5ccc([nH]5)c(-c5c(F)cc(S(=O)(=O)[O-])cc5F)c5nc(c(-c6c(F)cc(S(=O)(=O)[O-])cc6F)c6ccc3[nH]6)C=C5)C=C4)cc2)C1
REMARK SMILES IDX 20 1 19 2 17 3 18 4 16 6 15 7 11 8 12 9 92 10 13 11 14 12
REMARK SMILES IDX 9 13 10 14 8 15 4 16 5 17 6 18 7 19 2 20 1 21 3 22 21 23
REMARK SMILES IDX 22 24 23 25 24 26 25 28 26 29 27 30 91 31 28 32 90 33 29 34
REMARK SMILES IDX 30 35 31 36 84 37 32 38 89 39 83 40 85 41 33 42 88 43 82 44
REMARK SMILES IDX 81 45 34 47 68 48 47 49 67 50 48 51 51 52 66 53 86 54 49 55
REMARK SMILES IDX 50 56 65 58 87 59 52 60 35 61 36 62 45 63 37 64 38 65 44 66
REMARK SMILES IDX 46 67 39 68 40 69 41 70 42 71 43 72 69 73 70 74 79 75 71 76
REMARK SMILES IDX 72 77 78 78 80 79 73 80 74 81 75 82 76 83 77 84 53 85 54 86
REMARK SMILES IDX 63 87 55 88 56 89 62 90 64 91 57 92 58 93 59 94 60 95 61 96
REMARK H PARENT 19 5 23 27 85 46 51 57
REMARK Flexibility Score: inf
ROOT
ATOM      1  C   UNL A   1      33.075  29.732  26.895  1.00  0.00     0.117 C 
ENDROOT
BRANCH   1   2
ATOM      2  N   UNL A   1      32.134  30.127  25.873  1.00  0.00    -0.356 N 
ATOM      3  C   UNL A   1      31.423  29.283  25.065  1.00  0.00     0.222 C 
ATOM      4  O   UNL A   1      30.648  29.747  24.230  1.00  0.00    -0.275 OA
ATOM      5  H   UNL A   1      31.992  31.093  25.747  1.00  0.00     0.163 HD
BRANCH   3   6
ATOM      6  C   UNL A   1      31.551  27.794  25.279  1.00  0.00     0.133 C 
BRANCH   6   7
ATOM      7  C   UNL A   1      30.358  26.959  24.804  1.00  0.00     0.147 C 
ATOM      8  N   UNL A   1      31.189  24.682  25.225  1.00  0.00    -0.320 N 
ATOM      9  C   UNL A   1      30.748  24.249  23.907  1.00  0.00     0.150 C 
ATOM     10  C   UNL A   1      30.274  25.714  25.702  1.00  0.00     0.154 C 
ATOM     11  C   UNL A   1      30.870  25.415  22.939  1.00  0.00     0.182 C 
ATOM     12  O   UNL A   1      30.303  26.654  23.398  1.00  0.00    -0.374 OA
BRANCH   8  13
ATOM     13  C   UNL A   1      31.530  23.708  26.128  1.00  0.00     0.320 C 
ATOM     14  O   UNL A   1      31.022  23.704  27.251  1.00  0.00    -0.248 OA
BRANCH  13  15
ATOM     15  N   UNL A   1      32.507  22.807  25.758  1.00  0.00    -0.321 N 
ATOM     16  C   UNL A   1      33.988  22.868  25.678  1.00  0.00     0.089 C 
ATOM     17  C   UNL A   1      34.362  21.482  25.111  1.00  0.00     0.027 C 
ATOM     18  C   UNL A   1      33.299  20.572  25.681  1.00  0.00     0.024 C 
ATOM     19  C   UNL A   1      32.056  21.433  25.576  1.00  0.00     0.122 C 
BRANCH  16  20
ATOM     20  C   UNL A   1      34.693  24.000  24.885  1.00  0.00     0.005 C 
ATOM     21  C   UNL A   1      34.399  23.958  23.372  1.00  0.00     0.009 C 
ATOM     22  C   UNL A   1      34.467  25.422  25.376  1.00  0.00     0.009 C 
ENDBRANCH  16  20
ENDBRANCH  13  15
ENDBRANCH   8  13
ENDBRANCH   6   7
ENDBRANCH   3   6
ENDBRANCH   1   2
BRANCH   1  23
ATOM     23  C   UNL A   1      33.958  30.858  27.386  1.00  0.00     0.042 C 
BRANCH  23  24
ATOM     24  C   UNL A   1      35.234  30.349  28.018  1.00  0.00     0.118 C 
BRANCH  24  25
ATOM     25  N   UNL A   1      35.396  30.822  29.393  1.00  0.00    -0.352 N 
ATOM     26  C   UNL A   1      36.434  30.657  30.283  1.00  0.00     0.251 C 
ATOM     27  H   UNL A   1      34.636  31.345  29.739  1.00  0.00     0.163 HD
ATOM     28  O   UNL A   1      36.271  30.967  31.458  1.00  0.00    -0.269 OA
BRANCH  26  29
ATOM     29  C   UNL A   1      37.726  30.089  29.833  1.00  0.00     0.039 A 
ATOM     30  C   UNL A   1      38.070  30.136  28.479  1.00  0.00     0.014 A 
ATOM     31  C   UNL A   1      38.607  29.511  30.745  1.00  0.00     0.014 A 
ATOM     32  C   UNL A   1      39.329  29.683  28.067  1.00  0.00     0.010 A 
ATOM     33  C   UNL A   1      39.903  29.206  30.362  1.00  0.00     0.010 A 
ATOM     34  C   UNL A   1      40.276  29.262  29.014  1.00  0.00    -0.014 A 
BRANCH  34  35
ATOM     35  C   UNL A   1      41.651  28.844  28.633  1.00  0.00     0.031 A 
ATOM     36  C   UNL A   1      42.751  29.876  28.545  1.00  0.00     0.074 A 
ATOM     37  C   UNL A   1      41.888  27.566  28.272  1.00  0.00     0.049 A 
ATOM     38  N   UNL A   1      43.977  29.742  28.113  1.00  0.00    -0.248 NA
ATOM     39  C   UNL A   1      42.411  31.253  28.948  1.00  0.00     0.031 C 
ATOM     40  C   UNL A   1      40.890  26.494  28.234  1.00  0.00     0.029 A 
ATOM     41  N   UNL A   1      43.042  26.954  27.853  1.00  0.00    -0.354 N 
ATOM     42  C   UNL A   1      44.535  31.017  28.156  1.00  0.00     0.074 A 
ATOM     43  C   UNL A   1      43.497  31.920  28.593  1.00  0.00     0.031 C 
ATOM     44  C   UNL A   1      41.480  25.353  27.845  1.00  0.00     0.029 A 
ATOM     45  C   UNL A   1      42.888  25.617  27.566  1.00  0.00     0.049 A 
ATOM     46  H   UNL A   1      43.902  27.426  27.766  1.00  0.00     0.167 HD
ATOM     47  C   UNL A   1      45.807  31.395  27.888  1.00  0.00     0.037 A 
ATOM     48  C   UNL A   1      43.778  24.708  27.122  1.00  0.00     0.037 A 
ATOM     49  C   UNL A   1      46.851  30.476  27.518  1.00  0.00     0.049 A 
ATOM     50  C   UNL A   1      45.201  25.141  26.893  1.00  0.00     0.074 A 
ATOM     51  C   UNL A   1      48.195  30.735  27.322  1.00  0.00     0.029 A 
ATOM     52  N   UNL A   1      46.668  29.118  27.303  1.00  0.00    -0.354 N 
ATOM     53  N   UNL A   1      45.729  26.336  27.018  1.00  0.00    -0.248 NA
ATOM     54  C   UNL A   1      46.151  24.103  26.474  1.00  0.00     0.031 C 
ATOM     55  C   UNL A   1      48.818  29.541  26.946  1.00  0.00     0.029 A 
ATOM     56  C   UNL A   1      47.872  28.528  26.956  1.00  0.00     0.049 A 
ATOM     57  H   UNL A   1      45.810  28.644  27.384  1.00  0.00     0.167 HD
ATOM     58  C   UNL A   1      47.078  26.188  26.714  1.00  0.00     0.074 A 
ATOM     59  C   UNL A   1      47.287  24.785  26.421  1.00  0.00     0.031 C 
ATOM     60  C   UNL A   1      48.055  27.128  26.674  1.00  0.00     0.037 A 
BRANCH  47  61
ATOM     61  C   UNL A   1      46.149  32.855  28.008  1.00  0.00     0.058 A 
ATOM     62  C   UNL A   1      46.606  33.412  29.213  1.00  0.00     0.135 A 
ATOM     63  C   UNL A   1      46.066  33.702  26.890  1.00  0.00     0.135 A 
ATOM     64  F   UNL A   1      46.689  32.656  30.320  1.00  0.00    -0.206 F 
ATOM     65  C   UNL A   1      46.944  34.758  29.313  1.00  0.00     0.059 A 
ATOM     66  C   UNL A   1      46.428  35.044  26.959  1.00  0.00     0.059 A 
ATOM     67  F   UNL A   1      45.632  33.225  25.712  1.00  0.00    -0.206 F 
ATOM     68  C   UNL A   1      46.856  35.566  28.179  1.00  0.00     0.060 A 
BRANCH  68  69
ATOM     69  S   UNL A   1      47.327  37.302  28.320  1.00  0.00     0.124 S 
ATOM     70  O   UNL A   1      48.544  37.340  27.514  1.00  0.00    -0.237 OA
ATOM     71  O   UNL A   1      46.169  37.986  27.749  1.00  0.00    -0.237 OA
ATOM     72  O   UNL A   1      47.518  37.489  29.755  1.00  0.00    -0.744 OA
ENDBRANCH  68  69
ENDBRANCH  47  61
BRANCH  48  73
ATOM     73  C   UNL A   1      43.359  23.300  26.893  1.00  0.00     0.058 A 
ATOM     74  C   UNL A   1      43.087  22.443  27.970  1.00  0.00     0.135 A 
ATOM     75  C   UNL A   1      43.214  22.782  25.596  1.00  0.00     0.135 A 
ATOM     76  F   UNL A   1      43.213  22.888  29.229  1.00  0.00    -0.206 F 
ATOM     77  C   UNL A   1      42.712  21.117  27.773  1.00  0.00     0.059 A 
ATOM     78  C   UNL A   1      42.813  21.468  25.372  1.00  0.00     0.059 A 
ATOM     79  F   UNL A   1      43.440  23.566  24.530  1.00  0.00    -0.206 F 
ATOM     80  C   UNL A   1      42.577  20.639  26.468  1.00  0.00     0.060 A 
BRANCH  80  81
ATOM     81  S   UNL A   1      42.053  18.928  26.221  1.00  0.00     0.124 S 
ATOM     82  O   UNL A   1      42.208  18.378  27.563  1.00  0.00    -0.237 OA
ATOM     83  O   UNL A   1      40.680  19.092  25.752  1.00  0.00    -0.237 OA
ATOM     84  O   UNL A   1      42.993  18.431  25.222  1.00  0.00    -0.744 OA
ENDBRANCH  80  81
ENDBRANCH  48  73
BRANCH  60  85
ATOM     85  C   UNL A   1      49.442  26.661  26.332  1.00  0.00     0.058 A 
ATOM     86  C   UNL A   1      50.276  26.065  27.290  1.00  0.00     0.135 A 
ATOM     87  C   UNL A   1      49.927  26.779  25.020  1.00  0.00     0.135 A 
ATOM     88  F   UNL A   1      49.859  25.933  28.560  1.00  0.00    -0.206 F 
ATOM     89  C   UNL A   1      51.557  25.633  26.969  1.00  0.00     0.059 A 
ATOM     90  C   UNL A   1      51.194  26.326  24.668  1.00  0.00     0.059 A 
ATOM     91  F   UNL A   1      49.164  27.328  24.062  1.00  0.00    -0.206 F 
ATOM     92  C   UNL A   1      52.008  25.770  25.654  1.00  0.00     0.060 A 
BRANCH  92  93
ATOM     93  S   UNL A   1      53.668  25.193  25.245  1.00  0.00     0.124 S 
ATOM     94  O   UNL A   1      53.521  23.749  25.388  1.00  0.00    -0.237 OA
ATOM     95  O   UNL A   1      53.841  25.681  23.880  1.00  0.00    -0.237 OA
ATOM     96  O   UNL A   1      54.510  25.841  26.246  1.00  0.00    -0.744 OA
ENDBRANCH  92  93
ENDBRANCH  60  85
ENDBRANCH  34  35
ENDBRANCH  26  29
ENDBRANCH  24  25
ENDBRANCH  23  24
ENDBRANCH   1  23
TORSDOF 17
ENDMDL
MODEL 3
REMARK VINA RESULT:     -11.2      1.236      2.377
REMARK SMILES CC(C)[C@@H]1CCCN1C(=O)N1CCO[C@H](CC(=O)NCCCNC(=O)c2ccc(-c3c4nc(c(-c5c(F)cc(S(=O)(=O)[O-])cc5F)c5ccc([nH]5)c(-c5c(F)cc(S(=O)(=O)[O-])cc5F)c5nc(c(-c6c(F)cc(S(=O)(=O)[O-])cc6F)c6ccc3[nH]6)C=C5)C=C4)cc2)C1
REMARK SMILES IDX 20 1 19 2 17 3 18 4 16 6 15 7 11 8 12 9 92 10 13 11 14 12
REMARK SMILES IDX 9 13 10 14 8 15 4 16 5 17 6 18 7 19 2 20 1 21 3 22 21 23
REMARK SMILES IDX 22 24 23 25 24 26 25 28 26 29 27 30 91 31 28 32 90 33 29 34
REMARK SMILES IDX 30 35 31 36 84 37 32 38 89 39 83 40 85 41 33 42 88 43 82 44
REMARK SMILES IDX 81 45 34 47 68 48 47 49 67 50 48 51 51 52 66 53 86 54 49 55
REMARK SMILES IDX 50 56 65 58 87 59 52 60 35 61 36 62 45 63 37 64 38 65 44 66
REMARK SMILES IDX 46 67 39 68 40 69 41 70 42 71 43 72 69 73 70 74 79 75 71 76
REMARK SMILES IDX 72 77 78 78 80 79 73 80 74 81 75 82 76 83 77 84 53 85 54 86
REMARK SMILES IDX 63 87 55 88 56 89 62 90 64 91 57 92 58 93 59 94 60 95 61 96
REMARK H PARENT 19 5 23 27 85 46 51 57
REMARK Flexibility Score: inf
ROOT
ATOM      1  C   UNL A   1      36.273  23.669  26.105  1.00  0.00     0.117 C 
ENDROOT
BRANCH   1   2
ATOM      2  N   UNL A   1      35.447  22.618  26.650  1.00  0.00    -0.356 N 
ATOM      3  C   UNL A   1      34.086  22.526  26.541  1.00  0.00     0.222 C 
ATOM      4  O   UNL A   1      33.496  21.576  27.051  1.00  0.00    -0.275 OA
ATOM      5  H   UNL A   1      35.904  21.902  27.145  1.00  0.00     0.163 HD
BRANCH   3   6
ATOM      6  C   UNL A   1      33.352  23.561  25.722  1.00  0.00     0.133 C 
BRANCH   6   7
ATOM      7  C   UNL A   1      33.047  23.157  24.277  1.00  0.00     0.147 C 
ATOM      8  N   UNL A   1      32.479  25.340  23.295  1.00  0.00    -0.320 N 
ATOM      9  C   UNL A   1      31.300  24.775  22.654  1.00  0.00     0.150 C 
ATOM     10  C   UNL A   1      33.506  24.306  23.365  1.00  0.00     0.154 C 
ATOM     11  C   UNL A   1      30.742  23.671  23.538  1.00  0.00     0.182 C 
ATOM     12  O   UNL A   1      31.706  22.711  24.001  1.00  0.00    -0.374 OA
BRANCH   8  13
ATOM     13  C   UNL A   1      32.892  26.578  22.877  1.00  0.00     0.320 C 
ATOM     14  O   UNL A   1      33.647  26.682  21.909  1.00  0.00    -0.248 OA
BRANCH  13  15
ATOM     15  N   UNL A   1      32.499  27.670  23.625  1.00  0.00    -0.321 N 
ATOM     16  C   UNL A   1      31.185  28.182  24.088  1.00  0.00     0.089 C 
ATOM     17  C   UNL A   1      31.561  29.490  24.817  1.00  0.00     0.027 C 
ATOM     18  C   UNL A   1      32.923  29.189  25.397  1.00  0.00     0.024 C 
ATOM     19  C   UNL A   1      33.577  28.402  24.278  1.00  0.00     0.122 C 
BRANCH  16  20
ATOM     20  C   UNL A   1      30.029  28.421  23.083  1.00  0.00     0.005 C 
ATOM     21  C   UNL A   1      28.752  27.623  23.421  1.00  0.00     0.009 C 
ATOM     22  C   UNL A   1      29.633  29.867  22.825  1.00  0.00     0.009 C 
ENDBRANCH  16  20
ENDBRANCH  13  15
ENDBRANCH   8  13
ENDBRANCH   6   7
ENDBRANCH   3   6
ENDBRANCH   1   2
BRANCH   1  23
ATOM     23  C   UNL A   1      37.740  23.311  26.011  1.00  0.00     0.042 C 
BRANCH  23  24
ATOM     24  C   UNL A   1      38.634  24.431  26.496  1.00  0.00     0.118 C 
BRANCH  24  25
ATOM     25  N   UNL A   1      40.017  24.264  26.052  1.00  0.00    -0.352 N 
ATOM     26  C   UNL A   1      41.165  24.932  26.420  1.00  0.00     0.251 C 
ATOM     27  H   UNL A   1      40.150  23.559  25.378  1.00  0.00     0.163 HD
ATOM     28  O   UNL A   1      42.190  24.765  25.768  1.00  0.00    -0.269 OA
BRANCH  26  29
ATOM     29  C   UNL A   1      41.157  25.858  27.576  1.00  0.00     0.039 A 
ATOM     30  C   UNL A   1      42.040  26.941  27.604  1.00  0.00     0.014 A 
ATOM     31  C   UNL A   1      40.274  25.664  28.638  1.00  0.00     0.014 A 
ATOM     32  C   UNL A   1      41.968  27.867  28.651  1.00  0.00     0.010 A 
ATOM     33  C   UNL A   1      40.102  26.657  29.589  1.00  0.00     0.010 A 
ATOM     34  C   UNL A   1      40.963  27.760  29.626  1.00  0.00    -0.014 A 
BRANCH  34  35
ATOM     35  C   UNL A   1      40.799  28.760  30.714  1.00  0.00     0.031 A 
ATOM     36  C   UNL A   1      41.640  28.652  31.964  1.00  0.00     0.074 A 
ATOM     37  C   UNL A   1      39.835  29.698  30.623  1.00  0.00     0.049 A 
ATOM     38  N   UNL A   1      41.566  29.341  33.073  1.00  0.00    -0.248 NA
ATOM     39  C   UNL A   1      42.668  27.595  31.991  1.00  0.00     0.031 C 
ATOM     40  C   UNL A   1      38.901  29.853  29.504  1.00  0.00     0.029 A 
ATOM     41  N   UNL A   1      39.468  30.692  31.495  1.00  0.00    -0.354 N 
ATOM     42  C   UNL A   1      42.503  28.776  33.933  1.00  0.00     0.074 A 
ATOM     43  C   UNL A   1      43.087  27.650  33.245  1.00  0.00     0.031 C 
ATOM     44  C   UNL A   1      38.092  30.897  29.743  1.00  0.00     0.029 A 
ATOM     45  C   UNL A   1      38.418  31.462  31.048  1.00  0.00     0.049 A 
ATOM     46  H   UNL A   1      39.914  30.842  32.360  1.00  0.00     0.167 HD
ATOM     47  C   UNL A   1      42.868  29.181  35.173  1.00  0.00     0.037 A 
ATOM     48  C   UNL A   1      37.785  32.501  31.628  1.00  0.00     0.037 A 
ATOM     49  C   UNL A   1      42.327  30.345  35.822  1.00  0.00     0.049 A 
ATOM     50  C   UNL A   1      38.253  32.970  32.979  1.00  0.00     0.074 A 
ATOM     51  C   UNL A   1      42.695  30.903  37.033  1.00  0.00     0.029 A 
ATOM     52  N   UNL A   1      41.311  31.137  35.307  1.00  0.00    -0.354 N 
ATOM     53  N   UNL A   1      39.197  32.472  33.743  1.00  0.00    -0.248 NA
ATOM     54  C   UNL A   1      37.579  34.146  33.543  1.00  0.00     0.031 C 
ATOM     55  C   UNL A   1      41.873  32.009  37.270  1.00  0.00     0.029 A 
ATOM     56  C   UNL A   1      41.026  32.169  36.185  1.00  0.00     0.049 A 
ATOM     57  H   UNL A   1      40.860  30.987  34.446  1.00  0.00     0.167 HD
ATOM     58  C   UNL A   1      39.244  33.290  34.868  1.00  0.00     0.074 A 
ATOM     59  C   UNL A   1      38.250  34.324  34.672  1.00  0.00     0.031 C 
ATOM     60  C   UNL A   1      40.035  33.191  35.966  1.00  0.00     0.037 A 
BRANCH  47  61
ATOM     61  C   UNL A   1      43.914  28.378  35.897  1.00  0.00     0.058 A 
ATOM     62  C   UNL A   1      43.574  27.302  36.734  1.00  0.00     0.135 A 
ATOM     63  C   UNL A   1      45.279  28.656  35.717  1.00  0.00     0.135 A 
ATOM     64  F   UNL A   1      42.284  27.001  36.958  1.00  0.00    -0.206 F 
ATOM     65  C   UNL A   1      44.545  26.547  37.383  1.00  0.00     0.059 A 
ATOM     66  C   UNL A   1      46.269  27.895  36.332  1.00  0.00     0.059 A 
ATOM     67  F   UNL A   1      45.663  29.676  34.932  1.00  0.00    -0.206 F 
ATOM     68  C   UNL A   1      45.891  26.849  37.173  1.00  0.00     0.060 A 
BRANCH  68  69
ATOM     69  S   UNL A   1      47.139  25.841  38.001  1.00  0.00     0.124 S 
ATOM     70  O   UNL A   1      46.405  25.375  39.174  1.00  0.00    -0.237 OA
ATOM     71  O   UNL A   1      47.433  24.824  36.995  1.00  0.00    -0.237 OA
ATOM     72  O   UNL A   1      48.218  26.785  38.269  1.00  0.00    -0.744 OA
ENDBRANCH  68  69
ENDBRANCH  47  61
BRANCH  48  73
ATOM     73  C   UNL A   1      36.665  33.182  30.925  1.00  0.00     0.058 A 
ATOM     74  C   UNL A   1      35.345  33.058  31.382  1.00  0.00     0.135 A 
ATOM     75  C   UNL A   1      36.891  33.975  29.789  1.00  0.00     0.135 A 
ATOM     76  F   UNL A   1      35.077  32.309  32.462  1.00  0.00    -0.206 F 
ATOM     77  C   UNL A   1      34.283  33.673  30.724  1.00  0.00     0.059 A 
ATOM     78  C   UNL A   1      35.849  34.623  29.130  1.00  0.00     0.059 A 
ATOM     79  F   UNL A   1      38.137  34.145  29.323  1.00  0.00    -0.206 F 
ATOM     80  C   UNL A   1      34.547  34.455  29.598  1.00  0.00     0.060 A 
BRANCH  80  81
ATOM     81  S   UNL A   1      33.168  35.281  28.774  1.00  0.00     0.124 S 
ATOM     82  O   UNL A   1      33.864  36.253  27.940  1.00  0.00    -0.237 OA
ATOM     83  O   UNL A   1      32.526  34.176  28.068  1.00  0.00    -0.237 OA
ATOM     84  O   UNL A   1      32.399  35.836  29.883  1.00  0.00    -0.744 OA
ENDBRANCH  80  81
ENDBRANCH  48  73
BRANCH  60  85
ATOM     85  C   UNL A   1      39.875  34.246  37.023  1.00  0.00     0.058 A 
ATOM     86  C   UNL A   1      39.100  34.026  38.172  1.00  0.00     0.135 A 
ATOM     87  C   UNL A   1      40.536  35.479  36.901  1.00  0.00     0.135 A 
ATOM     88  F   UNL A   1      38.445  32.865  38.333  1.00  0.00    -0.206 F 
ATOM     89  C   UNL A   1      38.956  35.005  39.148  1.00  0.00     0.059 A 
ATOM     90  C   UNL A   1      40.431  36.462  37.880  1.00  0.00     0.059 A 
ATOM     91  F   UNL A   1      41.302  35.734  35.829  1.00  0.00    -0.206 F 
ATOM     92  C   UNL A   1      39.625  36.221  38.992  1.00  0.00     0.060 A 
BRANCH  92  93
ATOM     93  S   UNL A   1      39.442  37.479  40.272  1.00  0.00     0.124 S 
ATOM     94  O   UNL A   1      40.834  37.785  40.584  1.00  0.00    -0.237 OA
ATOM     95  O   UNL A   1      38.703  38.528  39.577  1.00  0.00    -0.237 OA
ATOM     96  O   UNL A   1      38.700  36.790  41.323  1.00  0.00    -0.744 OA
ENDBRANCH  92  93
ENDBRANCH  60  85
ENDBRANCH  34  35
ENDBRANCH  26  29
ENDBRANCH  24  25
ENDBRANCH  23  24
ENDBRANCH   1  23
TORSDOF 17
ENDMDL
