MODEL 1
REMARK VINA RESULT:     -10.9      0.000      0.000
REMARK SMILES CC(C)[C@@H](CCC(=O)NCCCNC(=O)c1ccc(-c2c3nc(c(-c4c(F)cc(S(=O)(=O)[O-])cc4F)c4ccc([nH]4)c(-c4c(F)cc(S(=O)(=O)[O-])cc4F)c4nc(c(-c5c(F)cc(S(=O)(=O)[O-])cc5F)c5ccc2[nH]5)C=C4)C=C3)cc1)CC[NH+]1CC2(CC2)C1
REMARK SMILES IDX 10 1 9 2 7 3 8 4 6 6 5 7 4 8 2 9 1 10 3 11 82 12 83 13 84 14
REMARK SMILES IDX 85 15 89 16 86 18 87 19 88 20 11 21 12 22 13 23 14 24 15 26
REMARK SMILES IDX 16 27 17 28 81 29 18 30 80 31 19 32 20 33 21 34 74 35 22 36
REMARK SMILES IDX 79 37 73 38 75 39 23 40 78 41 72 42 71 43 24 45 58 46 37 47
REMARK SMILES IDX 57 48 38 49 41 50 56 51 76 52 39 53 40 54 55 56 77 57 42 58
REMARK SMILES IDX 25 59 26 60 35 61 27 62 28 63 34 64 36 65 29 66 30 67 31 68
REMARK SMILES IDX 32 69 33 70 59 71 60 72 69 73 61 74 62 75 68 76 70 77 63 78
REMARK SMILES IDX 64 79 65 80 66 81 67 82 43 83 44 84 53 85 45 86 46 87 52 88
REMARK SMILES IDX 54 89 47 90 48 91 49 92 50 93 51 94
REMARK H PARENT 9 5 84 17 13 25 75 44 41 55
REMARK Flexibility Score: inf
ROOT
ATOM      1  C   UNL A   1      37.905  21.649  25.614  1.00  0.00     0.117 C 
ENDROOT
BRANCH   1   2
ATOM      2  N   UNL A   1      37.561  22.037  24.257  1.00  0.00    -0.356 N 
ATOM      3  C   UNL A   1      36.663  22.936  23.769  1.00  0.00     0.220 C 
ATOM      4  O   UNL A   1      36.624  23.103  22.548  1.00  0.00    -0.275 OA
ATOM      5  H   UNL A   1      38.073  21.563  23.562  1.00  0.00     0.163 HD
BRANCH   3   6
ATOM      6  C   UNL A   1      35.739  23.711  24.683  1.00  0.00     0.100 C 
BRANCH   6   7
ATOM      7  C   UNL A   1      34.308  23.846  24.138  1.00  0.00     0.014 C 
BRANCH   7   8
ATOM      8  C   UNL A   1      33.312  22.659  24.395  1.00  0.00    -0.003 C 
BRANCH   8   9
ATOM      9  C   UNL A   1      31.871  23.197  24.708  1.00  0.00    -0.014 C 
ATOM     10  C   UNL A   1      31.898  24.042  25.998  1.00  0.00     0.007 C 
ATOM     11  C   UNL A   1      31.175  24.043  23.642  1.00  0.00     0.007 C 
ENDBRANCH   8   9
BRANCH   8  12
ATOM     12  C   UNL A   1      34.011  21.645  25.341  1.00  0.00     0.065 C 
BRANCH  12  13
ATOM     13  C   UNL A   1      33.312  20.377  25.875  1.00  0.00     0.262 C 
BRANCH  13  14
ATOM     14  N   UNL A   1      32.530  19.459  25.049  1.00  0.00    -0.334 N 
ATOM     15  C   UNL A   1      33.103  19.112  23.749  1.00  0.00     0.275 C 
ATOM     16  C   UNL A   1      32.626  18.064  25.501  1.00  0.00     0.275 C 
ATOM     17  H   UNL A   1      31.641  19.959  25.063  1.00  0.00     0.348 HD
ATOM     18  C   UNL A   1      33.536  17.837  24.359  1.00  0.00     0.068 C 
ATOM     19  C   UNL A   1      34.904  17.235  24.421  1.00  0.00     0.020 C 
ATOM     20  C   UNL A   1      33.809  16.553  23.647  1.00  0.00     0.020 C 
ENDBRANCH  13  14
ENDBRANCH  12  13
ENDBRANCH   8  12
ENDBRANCH   7   8
ENDBRANCH   6   7
ENDBRANCH   3   6
ENDBRANCH   1   2
BRANCH   1  21
ATOM     21  C   UNL A   1      39.403  21.698  25.935  1.00  0.00     0.042 C 
BRANCH  21  22
ATOM     22  C   UNL A   1      39.839  22.785  26.930  1.00  0.00     0.118 C 
BRANCH  22  23
ATOM     23  N   UNL A   1      41.047  23.438  26.459  1.00  0.00    -0.352 N 
ATOM     24  C   UNL A   1      41.475  24.739  26.459  1.00  0.00     0.251 C 
ATOM     25  H   UNL A   1      41.694  22.815  26.054  1.00  0.00     0.163 HD
ATOM     26  O   UNL A   1      42.338  25.025  25.625  1.00  0.00    -0.269 OA
BRANCH  24  27
ATOM     27  C   UNL A   1      41.018  25.796  27.407  1.00  0.00     0.039 A 
ATOM     28  C   UNL A   1      41.882  26.889  27.595  1.00  0.00     0.014 A 
ATOM     29  C   UNL A   1      39.914  25.674  28.254  1.00  0.00     0.014 A 
ATOM     30  C   UNL A   1      41.674  27.813  28.627  1.00  0.00     0.010 A 
ATOM     31  C   UNL A   1      39.680  26.631  29.266  1.00  0.00     0.010 A 
ATOM     32  C   UNL A   1      40.575  27.693  29.489  1.00  0.00    -0.014 A 
BRANCH  32  33
ATOM     33  C   UNL A   1      40.418  28.643  30.634  1.00  0.00     0.031 A 
ATOM     34  C   UNL A   1      41.328  28.569  31.840  1.00  0.00     0.074 A 
ATOM     35  C   UNL A   1      39.493  29.624  30.586  1.00  0.00     0.049 A 
ATOM     36  N   UNL A   1      41.354  29.328  32.909  1.00  0.00    -0.248 NA
ATOM     37  C   UNL A   1      42.336  27.499  31.846  1.00  0.00     0.031 C 
ATOM     38  C   UNL A   1      38.552  29.841  29.488  1.00  0.00     0.029 A 
ATOM     39  N   UNL A   1      39.200  30.629  31.479  1.00  0.00    -0.354 N 
ATOM     40  C   UNL A   1      42.371  28.828  33.716  1.00  0.00     0.074 A 
ATOM     41  C   UNL A   1      42.915  27.676  33.026  1.00  0.00     0.031 C 
ATOM     42  C   UNL A   1      37.807  30.926  29.758  1.00  0.00     0.029 A 
ATOM     43  C   UNL A   1      38.187  31.462  31.064  1.00  0.00     0.049 A 
ATOM     44  H   UNL A   1      39.673  30.743  32.335  1.00  0.00     0.167 HD
ATOM     45  C   UNL A   1      42.824  29.287  34.911  1.00  0.00     0.037 A 
ATOM     46  C   UNL A   1      37.617  32.529  31.662  1.00  0.00     0.037 A 
ATOM     47  C   UNL A   1      42.307  30.441  35.603  1.00  0.00     0.049 A 
ATOM     48  C   UNL A   1      38.101  32.989  33.011  1.00  0.00     0.074 A 
ATOM     49  C   UNL A   1      42.733  30.988  36.803  1.00  0.00     0.029 A 
ATOM     50  N   UNL A   1      41.250  31.226  35.166  1.00  0.00    -0.354 N 
ATOM     51  N   UNL A   1      39.079  32.513  33.743  1.00  0.00    -0.248 NA
ATOM     52  C   UNL A   1      37.399  34.131  33.616  1.00  0.00     0.031 C 
ATOM     53  C   UNL A   1      41.910  32.076  37.112  1.00  0.00     0.029 A 
ATOM     54  C   UNL A   1      40.997  32.235  36.084  1.00  0.00     0.049 A 
ATOM     55  H   UNL A   1      40.753  31.086  34.328  1.00  0.00     0.167 HD
ATOM     56  C   UNL A   1      39.126  33.315  34.881  1.00  0.00     0.074 A 
ATOM     57  C   UNL A   1      38.084  34.309  34.739  1.00  0.00     0.031 C 
ATOM     58  C   UNL A   1      39.962  33.230  35.945  1.00  0.00     0.037 A 
BRANCH  45  59
ATOM     59  C   UNL A   1      43.947  28.525  35.565  1.00  0.00     0.058 A 
ATOM     60  C   UNL A   1      43.700  27.504  36.497  1.00  0.00     0.135 A 
ATOM     61  C   UNL A   1      45.284  28.794  35.230  1.00  0.00     0.135 A 
ATOM     62  F   UNL A   1      42.442  27.208  36.859  1.00  0.00    -0.206 F 
ATOM     63  C   UNL A   1      44.740  26.803  37.102  1.00  0.00     0.059 A 
ATOM     64  C   UNL A   1      46.339  28.089  35.804  1.00  0.00     0.059 A 
ATOM     65  F   UNL A   1      45.577  29.753  34.338  1.00  0.00    -0.206 F 
ATOM     66  C   UNL A   1      46.057  27.109  36.754  1.00  0.00     0.060 A 
BRANCH  66  67
ATOM     67  S   UNL A   1      47.397  26.209  37.562  1.00  0.00     0.124 S 
ATOM     68  O   UNL A   1      47.159  24.849  37.089  1.00  0.00    -0.237 OA
ATOM     69  O   UNL A   1      48.586  26.866  37.028  1.00  0.00    -0.237 OA
ATOM     70  O   UNL A   1      47.147  26.432  38.983  1.00  0.00    -0.744 OA
ENDBRANCH  66  67
ENDBRANCH  45  59
BRANCH  46  71
ATOM     71  C   UNL A   1      36.512  33.254  30.978  1.00  0.00     0.058 A 
ATOM     72  C   UNL A   1      36.774  34.137  29.921  1.00  0.00     0.135 A 
ATOM     73  C   UNL A   1      35.176  33.076  31.368  1.00  0.00     0.135 A 
ATOM     74  F   UNL A   1      38.037  34.352  29.525  1.00  0.00    -0.206 F 
ATOM     75  C   UNL A   1      35.751  34.826  29.278  1.00  0.00     0.059 A 
ATOM     76  C   UNL A   1      34.134  33.734  30.725  1.00  0.00     0.059 A 
ATOM     77  F   UNL A   1      34.874  32.237  32.372  1.00  0.00    -0.206 F 
ATOM     78  C   UNL A   1      34.433  34.615  29.686  1.00  0.00     0.060 A 
BRANCH  78  79
ATOM     79  S   UNL A   1      33.105  35.471  28.809  1.00  0.00     0.124 S 
ATOM     80  O   UNL A   1      33.852  36.416  27.994  1.00  0.00    -0.237 OA
ATOM     81  O   UNL A   1      32.456  34.378  28.089  1.00  0.00    -0.237 OA
ATOM     82  O   UNL A   1      32.313  36.054  29.890  1.00  0.00    -0.744 OA
ENDBRANCH  78  79
ENDBRANCH  46  71
BRANCH  58  83
ATOM     83  C   UNL A   1      39.812  34.258  37.035  1.00  0.00     0.058 A 
ATOM     84  C   UNL A   1      38.971  34.047  38.139  1.00  0.00     0.135 A 
ATOM     85  C   UNL A   1      40.550  35.452  36.995  1.00  0.00     0.135 A 
ATOM     86  F   UNL A   1      38.238  32.926  38.224  1.00  0.00    -0.206 F 
ATOM     87  C   UNL A   1      38.852  34.992  39.155  1.00  0.00     0.059 A 
ATOM     88  C   UNL A   1      40.463  36.402  38.011  1.00  0.00     0.059 A 
ATOM     89  F   UNL A   1      41.376  35.703  35.967  1.00  0.00    -0.206 F 
ATOM     90  C   UNL A   1      39.601  36.167  39.082  1.00  0.00     0.060 A 
BRANCH  90  91
ATOM     91  S   UNL A   1      39.462  37.372  40.421  1.00  0.00     0.124 S 
ATOM     92  O   UNL A   1      40.853  37.768  40.608  1.00  0.00    -0.237 OA
ATOM     93  O   UNL A   1      38.586  38.387  39.841  1.00  0.00    -0.237 OA
ATOM     94  O   UNL A   1      38.876  36.600  41.513  1.00  0.00    -0.744 OA
ENDBRANCH  90  91
ENDBRANCH  58  83
ENDBRANCH  32  33
ENDBRANCH  24  27
ENDBRANCH  22  23
ENDBRANCH  21  22
ENDBRANCH   1  21
TORSDOF 19
ENDMDL
MODEL 2
REMARK VINA RESULT:     -10.8      1.462      3.193
REMARK SMILES CC(C)[C@@H](CCC(=O)NCCCNC(=O)c1ccc(-c2c3nc(c(-c4c(F)cc(S(=O)(=O)[O-])cc4F)c4ccc([nH]4)c(-c4c(F)cc(S(=O)(=O)[O-])cc4F)c4nc(c(-c5c(F)cc(S(=O)(=O)[O-])cc5F)c5ccc2[nH]5)C=C4)C=C3)cc1)CC[NH+]1CC2(CC2)C1
REMARK SMILES IDX 10 1 9 2 7 3 8 4 6 6 5 7 4 8 2 9 1 10 3 11 82 12 83 13 84 14
REMARK SMILES IDX 85 15 89 16 86 18 87 19 88 20 11 21 12 22 13 23 14 24 15 26
REMARK SMILES IDX 16 27 17 28 81 29 18 30 80 31 19 32 20 33 21 34 74 35 22 36
REMARK SMILES IDX 79 37 73 38 75 39 23 40 78 41 72 42 71 43 24 45 58 46 37 47
REMARK SMILES IDX 57 48 38 49 41 50 56 51 76 52 39 53 40 54 55 56 77 57 42 58
REMARK SMILES IDX 25 59 26 60 35 61 27 62 28 63 34 64 36 65 29 66 30 67 31 68
REMARK SMILES IDX 32 69 33 70 59 71 60 72 69 73 61 74 62 75 68 76 70 77 63 78
REMARK SMILES IDX 64 79 65 80 66 81 67 82 43 83 44 84 53 85 45 86 46 87 52 88
REMARK SMILES IDX 54 89 47 90 48 91 49 92 50 93 51 94
REMARK H PARENT 9 5 84 17 13 25 75 44 41 55
REMARK Flexibility Score: inf
ROOT
ATOM      1  C   UNL A   1      38.000  21.581  25.730  1.00  0.00     0.117 C 
ENDROOT
BRANCH   1   2
ATOM      2  N   UNL A   1      37.464  22.054  24.465  1.00  0.00    -0.356 N 
ATOM      3  C   UNL A   1      36.627  23.082  24.161  1.00  0.00     0.220 C 
ATOM      4  O   UNL A   1      36.382  23.290  22.970  1.00  0.00    -0.275 OA
ATOM      5  H   UNL A   1      37.763  21.534  23.684  1.00  0.00     0.163 HD
BRANCH   3   6
ATOM      6  C   UNL A   1      36.013  23.951  25.238  1.00  0.00     0.100 C 
BRANCH   6   7
ATOM      7  C   UNL A   1      34.627  23.468  25.698  1.00  0.00     0.014 C 
BRANCH   7   8
ATOM      8  C   UNL A   1      33.477  24.533  25.799  1.00  0.00    -0.003 C 
BRANCH   8   9
ATOM      9  C   UNL A   1      32.074  23.862  25.586  1.00  0.00    -0.014 C 
ATOM     10  C   UNL A   1      31.638  24.017  24.115  1.00  0.00     0.007 C 
ATOM     11  C   UNL A   1      31.929  22.381  25.935  1.00  0.00     0.007 C 
ENDBRANCH   8   9
BRANCH   8  12
ATOM     12  C   UNL A   1      33.903  25.777  24.970  1.00  0.00     0.065 C 
BRANCH  12  13
ATOM     13  C   UNL A   1      33.359  27.194  25.245  1.00  0.00     0.262 C 
BRANCH  13  14
ATOM     14  N   UNL A   1      32.946  28.133  24.204  1.00  0.00    -0.334 N 
ATOM     15  C   UNL A   1      32.315  27.549  23.021  1.00  0.00     0.275 C 
ATOM     16  C   UNL A   1      31.715  28.857  24.546  1.00  0.00     0.275 C 
ATOM     17  H   UNL A   1      33.832  28.625  24.081  1.00  0.00     0.348 HD
ATOM     18  C   UNL A   1      31.018  27.965  23.595  1.00  0.00     0.068 C 
ATOM     19  C   UNL A   1      29.802  27.141  23.880  1.00  0.00     0.020 C 
ATOM     20  C   UNL A   1      29.754  28.233  22.846  1.00  0.00     0.020 C 
ENDBRANCH  13  14
ENDBRANCH  12  13
ENDBRANCH   8  12
ENDBRANCH   7   8
ENDBRANCH   6   7
ENDBRANCH   3   6
ENDBRANCH   1   2
BRANCH   1  21
ATOM     21  C   UNL A   1      39.524  21.683  25.860  1.00  0.00     0.042 C 
BRANCH  21  22
ATOM     22  C   UNL A   1      40.041  22.707  26.883  1.00  0.00     0.118 C 
BRANCH  22  23
ATOM     23  N   UNL A   1      41.152  23.455  26.322  1.00  0.00    -0.352 N 
ATOM     24  C   UNL A   1      41.468  24.787  26.288  1.00  0.00     0.251 C 
ATOM     25  H   UNL A   1      41.818  22.885  25.873  1.00  0.00     0.163 HD
ATOM     26  O   UNL A   1      42.240  25.137  25.392  1.00  0.00    -0.269 OA
BRANCH  24  27
ATOM     27  C   UNL A   1      40.994  25.810  27.264  1.00  0.00     0.039 A 
ATOM     28  C   UNL A   1      41.783  26.966  27.396  1.00  0.00     0.014 A 
ATOM     29  C   UNL A   1      39.959  25.609  28.180  1.00  0.00     0.014 A 
ATOM     30  C   UNL A   1      41.572  27.876  28.440  1.00  0.00     0.010 A 
ATOM     31  C   UNL A   1      39.717  26.550  29.205  1.00  0.00     0.010 A 
ATOM     32  C   UNL A   1      40.542  27.677  29.371  1.00  0.00    -0.014 A 
BRANCH  32  33
ATOM     33  C   UNL A   1      40.387  28.618  30.525  1.00  0.00     0.031 A 
ATOM     34  C   UNL A   1      41.286  28.520  31.737  1.00  0.00     0.074 A 
ATOM     35  C   UNL A   1      39.474  29.610  30.479  1.00  0.00     0.049 A 
ATOM     36  N   UNL A   1      41.312  29.268  32.814  1.00  0.00    -0.248 NA
ATOM     37  C   UNL A   1      42.281  27.438  31.741  1.00  0.00     0.031 C 
ATOM     38  C   UNL A   1      38.545  29.850  29.376  1.00  0.00     0.029 A 
ATOM     39  N   UNL A   1      39.187  30.609  31.380  1.00  0.00    -0.354 N 
ATOM     40  C   UNL A   1      42.317  28.747  33.624  1.00  0.00     0.074 A 
ATOM     41  C   UNL A   1      42.853  27.596  32.927  1.00  0.00     0.031 C 
ATOM     42  C   UNL A   1      37.811  30.941  29.650  1.00  0.00     0.029 A 
ATOM     43  C   UNL A   1      38.187  31.458  30.965  1.00  0.00     0.049 A 
ATOM     44  H   UNL A   1      39.653  30.709  32.241  1.00  0.00     0.167 HD
ATOM     45  C   UNL A   1      42.766  29.189  34.827  1.00  0.00     0.037 A 
ATOM     46  C   UNL A   1      37.625  32.526  31.569  1.00  0.00     0.037 A 
ATOM     47  C   UNL A   1      42.257  30.343  35.527  1.00  0.00     0.049 A 
ATOM     48  C   UNL A   1      38.103  32.966  32.927  1.00  0.00     0.074 A 
ATOM     49  C   UNL A   1      42.679  30.872  36.736  1.00  0.00     0.029 A 
ATOM     50  N   UNL A   1      41.213  31.144  35.089  1.00  0.00    -0.354 N 
ATOM     51  N   UNL A   1      39.069  32.472  33.662  1.00  0.00    -0.248 NA
ATOM     52  C   UNL A   1      37.410  34.111  33.538  1.00  0.00     0.031 C 
ATOM     53  C   UNL A   1      41.866  31.967  37.049  1.00  0.00     0.029 A 
ATOM     54  C   UNL A   1      40.964  32.147  36.015  1.00  0.00     0.049 A 
ATOM     55  H   UNL A   1      40.721  31.019  34.246  1.00  0.00     0.167 HD
ATOM     56  C   UNL A   1      39.116  33.261  34.808  1.00  0.00     0.074 A 
ATOM     57  C   UNL A   1      38.087  34.269  34.667  1.00  0.00     0.031 C 
ATOM     58  C   UNL A   1      39.942  33.156  35.878  1.00  0.00     0.037 A 
BRANCH  45  59
ATOM     59  C   UNL A   1      43.873  28.407  35.483  1.00  0.00     0.058 A 
ATOM     60  C   UNL A   1      43.606  27.362  36.382  1.00  0.00     0.135 A 
ATOM     61  C   UNL A   1      45.218  28.681  35.181  1.00  0.00     0.135 A 
ATOM     62  F   UNL A   1      42.341  27.061  36.712  1.00  0.00    -0.206 F 
ATOM     63  C   UNL A   1      44.633  26.643  36.989  1.00  0.00     0.059 A 
ATOM     64  C   UNL A   1      46.259  27.958  35.756  1.00  0.00     0.059 A 
ATOM     65  F   UNL A   1      45.530  29.663  34.320  1.00  0.00    -0.206 F 
ATOM     66  C   UNL A   1      45.957  26.955  36.674  1.00  0.00     0.060 A 
BRANCH  66  67
ATOM     67  S   UNL A   1      47.279  26.030  37.485  1.00  0.00     0.124 S 
ATOM     68  O   UNL A   1      48.262  25.929  36.410  1.00  0.00    -0.237 OA
ATOM     69  O   UNL A   1      47.642  26.905  38.595  1.00  0.00    -0.237 OA
ATOM     70  O   UNL A   1      46.634  24.777  37.864  1.00  0.00    -0.744 OA
ENDBRANCH  66  67
ENDBRANCH  45  59
BRANCH  46  71
ATOM     71  C   UNL A   1      36.534  33.271  30.884  1.00  0.00     0.058 A 
ATOM     72  C   UNL A   1      35.202  33.147  31.303  1.00  0.00     0.135 A 
ATOM     73  C   UNL A   1      36.804  34.121  29.800  1.00  0.00     0.135 A 
ATOM     74  F   UNL A   1      34.894  32.333  32.324  1.00  0.00    -0.206 F 
ATOM     75  C   UNL A   1      34.171  33.832  30.668  1.00  0.00     0.059 A 
ATOM     76  C   UNL A   1      35.795  34.835  29.164  1.00  0.00     0.059 A 
ATOM     77  F   UNL A   1      38.064  34.276  29.364  1.00  0.00    -0.206 F 
ATOM     78  C   UNL A   1      34.480  34.678  29.600  1.00  0.00     0.060 A 
BRANCH  78  79
ATOM     79  S   UNL A   1      33.144  35.607  28.816  1.00  0.00     0.124 S 
ATOM     80  O   UNL A   1      33.883  36.610  28.066  1.00  0.00    -0.237 OA
ATOM     81  O   UNL A   1      32.476  34.577  28.023  1.00  0.00    -0.237 OA
ATOM     82  O   UNL A   1      32.373  36.107  29.953  1.00  0.00    -0.744 OA
ENDBRANCH  78  79
ENDBRANCH  46  71
BRANCH  58  83
ATOM     83  C   UNL A   1      39.796  34.174  36.977  1.00  0.00     0.058 A 
ATOM     84  C   UNL A   1      40.418  35.431  36.907  1.00  0.00     0.135 A 
ATOM     85  C   UNL A   1      38.992  33.906  38.097  1.00  0.00     0.135 A 
ATOM     86  F   UNL A   1      41.203  35.738  35.863  1.00  0.00    -0.206 F 
ATOM     87  C   UNL A   1      40.264  36.378  37.917  1.00  0.00     0.059 A 
ATOM     88  C   UNL A   1      38.805  34.846  39.108  1.00  0.00     0.059 A 
ATOM     89  F   UNL A   1      38.367  32.723  38.212  1.00  0.00    -0.206 F 
ATOM     90  C   UNL A   1      39.455  36.076  39.014  1.00  0.00     0.060 A 
BRANCH  90  91
ATOM     91  S   UNL A   1      39.238  37.323  40.303  1.00  0.00     0.124 S 
ATOM     92  O   UNL A   1      38.442  38.329  39.608  1.00  0.00    -0.237 OA
ATOM     93  O   UNL A   1      38.543  36.577  41.349  1.00  0.00    -0.237 OA
ATOM     94  O   UNL A   1      40.605  37.718  40.628  1.00  0.00    -0.744 OA
ENDBRANCH  90  91
ENDBRANCH  58  83
ENDBRANCH  32  33
ENDBRANCH  24  27
ENDBRANCH  22  23
ENDBRANCH  21  22
ENDBRANCH   1  21
TORSDOF 19
ENDMDL
MODEL 3
REMARK VINA RESULT:     -10.7      6.848     12.331
REMARK SMILES CC(C)[C@@H](CCC(=O)NCCCNC(=O)c1ccc(-c2c3nc(c(-c4c(F)cc(S(=O)(=O)[O-])cc4F)c4ccc([nH]4)c(-c4c(F)cc(S(=O)(=O)[O-])cc4F)c4nc(c(-c5c(F)cc(S(=O)(=O)[O-])cc5F)c5ccc2[nH]5)C=C4)C=C3)cc1)CC[NH+]1CC2(CC2)C1
REMARK SMILES IDX 10 1 9 2 7 3 8 4 6 6 5 7 4 8 2 9 1 10 3 11 82 12 83 13 84 14
REMARK SMILES IDX 85 15 89 16 86 18 87 19 88 20 11 21 12 22 13 23 14 24 15 26
REMARK SMILES IDX 16 27 17 28 81 29 18 30 80 31 19 32 20 33 21 34 74 35 22 36
REMARK SMILES IDX 79 37 73 38 75 39 23 40 78 41 72 42 71 43 24 45 58 46 37 47
REMARK SMILES IDX 57 48 38 49 41 50 56 51 76 52 39 53 40 54 55 56 77 57 42 58
REMARK SMILES IDX 25 59 26 60 35 61 27 62 28 63 34 64 36 65 29 66 30 67 31 68
REMARK SMILES IDX 32 69 33 70 59 71 60 72 69 73 61 74 62 75 68 76 70 77 63 78
REMARK SMILES IDX 64 79 65 80 66 81 67 82 43 83 44 84 53 85 45 86 46 87 52 88
REMARK SMILES IDX 54 89 47 90 48 91 49 92 50 93 51 94
REMARK H PARENT 9 5 84 17 13 25 75 44 41 55
REMARK Flexibility Score: inf
ROOT
ATOM      1  C   UNL A   1      33.794  31.306  27.909  1.00  0.00     0.117 C 
ENDROOT
BRANCH   1   2
ATOM      2  N   UNL A   1      33.945  29.897  27.587  1.00  0.00    -0.356 N 
ATOM      3  C   UNL A   1      33.416  29.130  26.596  1.00  0.00     0.220 C 
ATOM      4  O   UNL A   1      33.771  27.951  26.531  1.00  0.00    -0.275 OA
ATOM      5  H   UNL A   1      34.540  29.407  28.200  1.00  0.00     0.163 HD
BRANCH   3   6
ATOM      6  C   UNL A   1      32.427  29.693  25.598  1.00  0.00     0.100 C 
BRANCH   6   7
ATOM      7  C   UNL A   1      31.599  28.615  24.879  1.00  0.00     0.014 C 
BRANCH   7   8
ATOM      8  C   UNL A   1      31.760  28.486  23.322  1.00  0.00    -0.003 C 
BRANCH   8   9
ATOM      9  C   UNL A   1      30.361  28.527  22.611  1.00  0.00    -0.014 C 
ATOM     10  C   UNL A   1      29.335  27.717  23.429  1.00  0.00     0.007 C 
ATOM     11  C   UNL A   1      29.733  29.895  22.347  1.00  0.00     0.007 C 
ENDBRANCH   8   9
BRANCH   8  12
ATOM     12  C   UNL A   1      32.768  27.338  23.039  1.00  0.00     0.065 C 
BRANCH  12  13
ATOM     13  C   UNL A   1      32.337  25.956  22.507  1.00  0.00     0.262 C 
BRANCH  13  14
ATOM     14  N   UNL A   1      32.509  24.702  23.238  1.00  0.00    -0.334 N 
ATOM     15  C   UNL A   1      33.088  24.809  24.577  1.00  0.00     0.275 C 
ATOM     16  C   UNL A   1      31.248  24.186  23.788  1.00  0.00     0.275 C 
ATOM     17  H   UNL A   1      33.029  24.182  22.531  1.00  0.00     0.348 HD
ATOM     18  C   UNL A   1      31.715  24.667  25.106  1.00  0.00     0.068 C 
ATOM     19  C   UNL A   1      30.965  25.563  26.040  1.00  0.00     0.020 C 
ATOM     20  C   UNL A   1      31.325  24.163  26.456  1.00  0.00     0.020 C 
ENDBRANCH  13  14
ENDBRANCH  12  13
ENDBRANCH   8  12
ENDBRANCH   7   8
ENDBRANCH   6   7
ENDBRANCH   3   6
ENDBRANCH   1   2
BRANCH   1  21
ATOM     21  C   UNL A   1      35.096  32.114  27.877  1.00  0.00     0.042 C 
BRANCH  21  22
ATOM     22  C   UNL A   1      35.580  32.655  29.232  1.00  0.00     0.118 C 
BRANCH  22  23
ATOM     23  N   UNL A   1      35.589  31.590  30.220  1.00  0.00    -0.352 N 
ATOM     24  C   UNL A   1      36.416  30.521  30.443  1.00  0.00     0.251 C 
ATOM     25  H   UNL A   1      34.846  31.649  30.863  1.00  0.00     0.163 HD
ATOM     26  O   UNL A   1      35.929  29.584  31.081  1.00  0.00    -0.269 OA
BRANCH  24  27
ATOM     27  C   UNL A   1      37.845  30.434  30.024  1.00  0.00     0.039 A 
ATOM     28  C   UNL A   1      38.088  30.046  28.696  1.00  0.00     0.014 A 
ATOM     29  C   UNL A   1      38.931  30.512  30.899  1.00  0.00     0.014 A 
ATOM     30  C   UNL A   1      39.375  29.702  28.261  1.00  0.00     0.010 A 
ATOM     31  C   UNL A   1      40.235  30.210  30.449  1.00  0.00     0.010 A 
ATOM     32  C   UNL A   1      40.470  29.766  29.135  1.00  0.00    -0.014 A 
BRANCH  32  33
ATOM     33  C   UNL A   1      41.820  29.317  28.672  1.00  0.00     0.031 A 
ATOM     34  C   UNL A   1      42.997  30.266  28.662  1.00  0.00     0.074 A 
ATOM     35  C   UNL A   1      42.026  28.034  28.305  1.00  0.00     0.049 A 
ATOM     36  N   UNL A   1      44.244  30.041  28.321  1.00  0.00    -0.248 NA
ATOM     37  C   UNL A   1      42.738  31.649  29.087  1.00  0.00     0.031 C 
ATOM     38  C   UNL A   1      41.000  26.993  28.276  1.00  0.00     0.029 A 
ATOM     39  N   UNL A   1      43.169  27.387  27.899  1.00  0.00    -0.354 N 
ATOM     40  C   UNL A   1      44.915  31.249  28.483  1.00  0.00     0.074 A 
ATOM     41  C   UNL A   1      43.927  32.214  28.920  1.00  0.00     0.031 C 
ATOM     42  C   UNL A   1      41.564  25.833  27.902  1.00  0.00     0.029 A 
ATOM     43  C   UNL A   1      42.983  26.052  27.626  1.00  0.00     0.049 A 
ATOM     44  H   UNL A   1      44.041  27.837  27.813  1.00  0.00     0.167 HD
ATOM     45  C   UNL A   1      46.230  31.532  28.301  1.00  0.00     0.037 A 
ATOM     46  C   UNL A   1      43.845  25.108  27.194  1.00  0.00     0.037 A 
ATOM     47  C   UNL A   1      47.231  30.581  27.884  1.00  0.00     0.049 A 
ATOM     48  C   UNL A   1      45.289  25.457  26.948  1.00  0.00     0.074 A 
ATOM     49  C   UNL A   1      48.590  30.783  27.706  1.00  0.00     0.029 A 
ATOM     50  N   UNL A   1      46.987  29.251  27.574  1.00  0.00    -0.354 N 
ATOM     51  N   UNL A   1      45.905  26.600  27.130  1.00  0.00    -0.248 NA
ATOM     52  C   UNL A   1      46.156  24.385  26.436  1.00  0.00     0.031 C 
ATOM     53  C   UNL A   1      49.161  29.590  27.251  1.00  0.00     0.029 A 
ATOM     54  C   UNL A   1      48.165  28.630  27.185  1.00  0.00     0.049 A 
ATOM     55  H   UNL A   1      46.106  28.813  27.623  1.00  0.00     0.167 HD
ATOM     56  C   UNL A   1      47.233  26.376  26.780  1.00  0.00     0.074 A 
ATOM     57  C   UNL A   1      47.335  24.989  26.382  1.00  0.00     0.031 C 
ATOM     58  C   UNL A   1      48.272  27.247  26.791  1.00  0.00     0.037 A 
BRANCH  45  59
ATOM     59  C   UNL A   1      46.674  32.951  28.546  1.00  0.00     0.058 A 
ATOM     60  C   UNL A   1      46.668  33.912  27.522  1.00  0.00     0.135 A 
ATOM     61  C   UNL A   1      47.077  33.363  29.827  1.00  0.00     0.135 A 
ATOM     62  F   UNL A   1      46.299  33.572  26.278  1.00  0.00    -0.206 F 
ATOM     63  C   UNL A   1      47.082  35.222  27.751  1.00  0.00     0.059 A 
ATOM     64  C   UNL A   1      47.470  34.673  30.084  1.00  0.00     0.059 A 
ATOM     65  F   UNL A   1      47.092  32.487  30.844  1.00  0.00    -0.206 F 
ATOM     66  C   UNL A   1      47.488  35.590  29.035  1.00  0.00     0.060 A 
BRANCH  66  67
ATOM     67  S   UNL A   1      48.044  37.285  29.314  1.00  0.00     0.124 S 
ATOM     68  O   UNL A   1      48.127  37.791  27.946  1.00  0.00    -0.237 OA
ATOM     69  O   UNL A   1      46.969  37.840  30.129  1.00  0.00    -0.237 OA
ATOM     70  O   UNL A   1      49.322  37.116  29.998  1.00  0.00    -0.744 OA
ENDBRANCH  66  67
ENDBRANCH  45  59
BRANCH  46  71
ATOM     71  C   UNL A   1      43.365  23.719  26.967  1.00  0.00     0.058 A 
ATOM     72  C   UNL A   1      43.120  23.242  25.672  1.00  0.00     0.135 A 
ATOM     73  C   UNL A   1      43.142  22.842  28.041  1.00  0.00     0.135 A 
ATOM     74  F   UNL A   1      43.302  24.050  24.615  1.00  0.00    -0.206 F 
ATOM     75  C   UNL A   1      42.664  21.948  25.445  1.00  0.00     0.059 A 
ATOM     76  C   UNL A   1      42.710  21.536  27.839  1.00  0.00     0.059 A 
ATOM     77  F   UNL A   1      43.366  23.250  29.300  1.00  0.00    -0.206 F 
ATOM     78  C   UNL A   1      42.465  21.101  26.537  1.00  0.00     0.060 A 
BRANCH  78  79
ATOM     79  S   UNL A   1      41.926  19.404  26.232  1.00  0.00     0.124 S 
ATOM     80  O   UNL A   1      40.488  19.573  26.089  1.00  0.00    -0.237 OA
ATOM     81  O   UNL A   1      42.655  19.063  25.012  1.00  0.00    -0.237 OA
ATOM     82  O   UNL A   1      42.365  18.693  27.432  1.00  0.00    -0.744 OA
ENDBRANCH  78  79
ENDBRANCH  46  71
BRANCH  58  83
ATOM     83  C   UNL A   1      49.626  26.725  26.389  1.00  0.00     0.058 A 
ATOM     84  C   UNL A   1      50.464  26.066  27.303  1.00  0.00     0.135 A 
ATOM     85  C   UNL A   1      50.076  26.851  25.065  1.00  0.00     0.135 A 
ATOM     86  F   UNL A   1      50.087  25.924  28.583  1.00  0.00    -0.206 F 
ATOM     87  C   UNL A   1      51.707  25.566  26.922  1.00  0.00     0.059 A 
ATOM     88  C   UNL A   1      51.306  26.340  24.656  1.00  0.00     0.059 A 
ATOM     89  F   UNL A   1      49.313  27.466  24.147  1.00  0.00    -0.206 F 
ATOM     90  C   UNL A   1      52.120  25.709  25.596  1.00  0.00     0.060 A 
BRANCH  90  91
ATOM     91  S   UNL A   1      53.721  25.030  25.107  1.00  0.00     0.124 S 
ATOM     92  O   UNL A   1      53.903  25.625  23.788  1.00  0.00    -0.237 OA
ATOM     93  O   UNL A   1      54.608  25.528  26.154  1.00  0.00    -0.237 OA
ATOM     94  O   UNL A   1      53.497  23.587  25.119  1.00  0.00    -0.744 OA
ENDBRANCH  90  91
ENDBRANCH  58  83
ENDBRANCH  32  33
ENDBRANCH  24  27
ENDBRANCH  22  23
ENDBRANCH  21  22
ENDBRANCH   1  21
TORSDOF 19
ENDMDL
