MODEL 1
REMARK VINA RESULT:     -13.0      0.000      0.000
REMARK SMILES COc1cccc([C@@H]2CN(C(=O)CSc3nc(C)n[nH]3)C[C@H]2C(=O)NCCCNC(=O)c2ccc(-c3c4nc(c(-c5c(F)cc(S(=O)(=O)[O-])cc5F)c5ccc([nH]5)c(-c5c(F)cc(S(=O)(=O)[O-])cc5F)c5nc(c(-c6c(F)cc(S(=O)(=O)[O-])cc6F)c6ccc3[nH]6)C=C5)C=C4)cc2)c1
REMARK SMILES IDX 26 1 25 2 23 3 24 4 22 6 8 7 9 8 10 9 21 10 7 11 3 12 4 13
REMARK SMILES IDX 98 14 5 15 6 16 2 17 1 18 11 19 12 20 13 21 14 22 15 23
REMARK SMILES IDX 16 24 20 25 17 26 19 27 18 29 27 30 28 31 29 32 30 33 31 35
REMARK SMILES IDX 32 36 33 37 97 38 34 39 96 40 35 41 36 42 37 43 90 44 38 45
REMARK SMILES IDX 95 46 89 47 91 48 39 49 94 50 88 51 87 52 40 54 74 55 53 56
REMARK SMILES IDX 73 57 54 58 57 59 72 60 92 61 55 62 56 63 71 65 93 66 58 67
REMARK SMILES IDX 41 68 42 69 51 70 43 71 44 72 50 73 52 74 45 75 46 76 47 77
REMARK SMILES IDX 48 78 49 79 75 80 76 81 85 82 77 83 78 84 84 85 86 86 79 87
REMARK SMILES IDX 80 88 81 89 82 90 83 91 59 92 60 93 69 94 61 95 62 96 68 97
REMARK SMILES IDX 70 98 63 99 64 100 65 101 66 102 67 103
REMARK H PARENT 25 5 20 28 29 34 91 53 57 64
REMARK Flexibility Score: inf
ROOT
ATOM      1  C   UNL A   1      36.658  20.867  25.528  1.00  0.00     0.117 C 
ENDROOT
BRANCH   1   2
ATOM      2  N   UNL A   1      35.782  21.874  26.106  1.00  0.00    -0.356 N 
ATOM      3  C   UNL A   1      34.754  22.570  25.550  1.00  0.00     0.225 C 
ATOM      4  O   UNL A   1      34.094  23.315  26.275  1.00  0.00    -0.275 OA
ATOM      5  H   UNL A   1      35.962  22.086  27.050  1.00  0.00     0.163 HD
BRANCH   3   6
ATOM      6  C   UNL A   1      34.420  22.433  24.081  1.00  0.00     0.107 C 
ATOM      7  C   UNL A   1      32.968  21.962  23.861  1.00  0.00     0.053 C 
ATOM      8  C   UNL A   1      32.540  22.690  22.592  1.00  0.00     0.128 C 
ATOM      9  N   UNL A   1      33.279  23.940  22.635  1.00  0.00    -0.341 N 
ATOM     10  C   UNL A   1      34.555  23.756  23.322  1.00  0.00     0.133 C 
BRANCH   7  11
ATOM     11  C   UNL A   1      32.740  20.477  23.803  1.00  0.00    -0.039 A 
ATOM     12  C   UNL A   1      32.756  18.308  24.896  1.00  0.00     0.119 A 
ATOM     13  C   UNL A   1      32.441  17.698  23.682  1.00  0.00     0.046 A 
ATOM     14  C   UNL A   1      32.908  19.691  24.949  1.00  0.00     0.050 A 
ATOM     15  C   UNL A   1      32.251  18.468  22.534  1.00  0.00     0.004 A 
ATOM     16  C   UNL A   1      32.401  19.853  22.593  1.00  0.00     0.004 A 
BRANCH  12  17
ATOM     17  O   UNL A   1      32.969  17.474  25.958  1.00  0.00    -0.497 OA
ATOM     18  C   UNL A   1      32.666  16.101  25.721  1.00  0.00     0.278 C 
ENDBRANCH  12  17
ENDBRANCH   7  11
BRANCH   9  19
ATOM     19  C   UNL A   1      32.906  25.148  22.105  1.00  0.00     0.233 C 
ATOM     20  O   UNL A   1      33.691  25.846  21.457  1.00  0.00    -0.274 OA
BRANCH  19  21
ATOM     21  C   UNL A   1      31.480  25.628  22.288  1.00  0.00     0.178 C 
BRANCH  21  22
ATOM     22  S   UNL A   1      31.272  26.667  23.743  1.00  0.00    -0.077 SA
BRANCH  22  23
ATOM     23  C   UNL A   1      30.659  25.653  24.995  1.00  0.00     0.184 A 
ATOM     24  N   UNL A   1      31.243  24.542  25.373  1.00  0.00    -0.206 NA
ATOM     25  N   UNL A   1      29.528  25.848  25.733  1.00  0.00    -0.254 N 
ATOM     26  C   UNL A   1      30.427  24.084  26.369  1.00  0.00     0.148 A 
ATOM     27  N   UNL A   1      29.367  24.857  26.635  1.00  0.00    -0.158 NA
ATOM     28  H   UNL A   1      28.914  26.609  25.625  1.00  0.00     0.192 HD
ATOM     29  C   UNL A   1      30.719  22.830  27.088  1.00  0.00     0.092 C 
ENDBRANCH  22  23
ENDBRANCH  21  22
ENDBRANCH  19  21
ENDBRANCH   9  19
ENDBRANCH   3   6
ENDBRANCH   1   2
BRANCH   1  30
ATOM     30  C   UNL A   1      37.992  21.420  25.059  1.00  0.00     0.042 C 
BRANCH  30  31
ATOM     31  C   UNL A   1      38.560  22.317  26.109  1.00  0.00     0.118 C 
BRANCH  31  32
ATOM     32  N   UNL A   1      39.944  21.980  26.482  1.00  0.00    -0.352 N 
ATOM     33  C   UNL A   1      40.939  22.874  26.838  1.00  0.00     0.251 C 
ATOM     34  H   UNL A   1      40.185  21.026  26.477  1.00  0.00     0.163 HD
ATOM     35  O   UNL A   1      42.126  22.548  26.876  1.00  0.00    -0.269 OA
BRANCH  33  36
ATOM     36  C   UNL A   1      40.488  24.193  27.279  1.00  0.00     0.039 A 
ATOM     37  C   UNL A   1      39.314  24.886  27.000  1.00  0.00     0.014 A 
ATOM     38  C   UNL A   1      41.459  24.903  27.941  1.00  0.00     0.014 A 
ATOM     39  C   UNL A   1      39.297  26.242  27.388  1.00  0.00     0.010 A 
ATOM     40  C   UNL A   1      41.017  25.737  28.878  1.00  0.00     0.010 A 
ATOM     41  C   UNL A   1      40.363  26.696  28.187  1.00  0.00    -0.014 A 
BRANCH  41  42
ATOM     42  C   UNL A   1      40.624  27.974  28.802  1.00  0.00     0.031 A 
ATOM     43  C   UNL A   1      41.833  28.550  28.137  1.00  0.00     0.074 A 
ATOM     44  C   UNL A   1      39.713  28.605  29.601  1.00  0.00     0.049 A 
ATOM     45  N   UNL A   1      43.044  28.378  28.557  1.00  0.00    -0.248 NA
ATOM     46  C   UNL A   1      41.801  28.959  26.707  1.00  0.00     0.031 C 
ATOM     47  C   UNL A   1      38.366  28.225  30.088  1.00  0.00     0.029 A 
ATOM     48  N   UNL A   1      39.857  29.823  30.207  1.00  0.00    -0.354 N 
ATOM     49  C   UNL A   1      43.847  29.036  27.639  1.00  0.00     0.074 A 
ATOM     50  C   UNL A   1      43.104  29.048  26.416  1.00  0.00     0.031 C 
ATOM     51  C   UNL A   1      37.743  29.297  30.656  1.00  0.00     0.029 A 
ATOM     52  C   UNL A   1      38.675  30.404  30.714  1.00  0.00     0.049 A 
ATOM     53  H   UNL A   1      40.731  30.267  30.284  1.00  0.00     0.167 HD
ATOM     54  C   UNL A   1      44.850  29.840  28.084  1.00  0.00     0.037 A 
ATOM     55  C   UNL A   1      38.566  31.694  31.174  1.00  0.00     0.037 A 
ATOM     56  C   UNL A   1      45.080  29.587  29.491  1.00  0.00     0.049 A 
ATOM     57  C   UNL A   1      39.986  32.094  31.476  1.00  0.00     0.074 A 
ATOM     58  C   UNL A   1      45.447  28.470  30.218  1.00  0.00     0.029 A 
ATOM     59  N   UNL A   1      44.399  30.405  30.365  1.00  0.00    -0.354 N 
ATOM     60  N   UNL A   1      40.693  31.469  32.395  1.00  0.00    -0.248 NA
ATOM     61  C   UNL A   1      40.745  32.631  30.344  1.00  0.00     0.031 C 
ATOM     62  C   UNL A   1      44.558  28.449  31.337  1.00  0.00     0.029 A 
ATOM     63  C   UNL A   1      43.807  29.626  31.334  1.00  0.00     0.049 A 
ATOM     64  H   UNL A   1      44.343  31.387  30.307  1.00  0.00     0.167 HD
ATOM     65  C   UNL A   1      41.893  31.153  31.767  1.00  0.00     0.074 A 
ATOM     66  C   UNL A   1      41.845  31.877  30.483  1.00  0.00     0.031 C 
ATOM     67  C   UNL A   1      42.662  30.068  32.111  1.00  0.00     0.037 A 
BRANCH  54  68
ATOM     68  C   UNL A   1      45.280  31.127  27.424  1.00  0.00     0.058 A 
ATOM     69  C   UNL A   1      46.596  31.215  26.933  1.00  0.00     0.135 A 
ATOM     70  C   UNL A   1      44.570  32.349  27.487  1.00  0.00     0.135 A 
ATOM     71  F   UNL A   1      47.361  30.116  26.832  1.00  0.00    -0.206 F 
ATOM     72  C   UNL A   1      47.184  32.430  26.586  1.00  0.00     0.059 A 
ATOM     73  C   UNL A   1      45.124  33.567  27.104  1.00  0.00     0.059 A 
ATOM     74  F   UNL A   1      43.335  32.439  27.994  1.00  0.00    -0.206 F 
ATOM     75  C   UNL A   1      46.440  33.602  26.677  1.00  0.00     0.060 A 
BRANCH  75  76
ATOM     76  S   UNL A   1      47.215  35.166  26.232  1.00  0.00     0.124 S 
ATOM     77  O   UNL A   1      46.055  36.011  25.978  1.00  0.00    -0.237 OA
ATOM     78  O   UNL A   1      47.977  35.470  27.439  1.00  0.00    -0.237 OA
ATOM     79  O   UNL A   1      48.018  34.824  25.062  1.00  0.00    -0.744 OA
ENDBRANCH  75  76
ENDBRANCH  54  68
BRANCH  55  80
ATOM     80  C   UNL A   1      37.487  32.680  30.791  1.00  0.00     0.058 A 
ATOM     81  C   UNL A   1      37.238  33.178  29.487  1.00  0.00     0.135 A 
ATOM     82  C   UNL A   1      36.478  32.970  31.730  1.00  0.00     0.135 A 
ATOM     83  F   UNL A   1      38.114  32.946  28.495  1.00  0.00    -0.206 F 
ATOM     84  C   UNL A   1      36.060  33.893  29.151  1.00  0.00     0.059 A 
ATOM     85  C   UNL A   1      35.314  33.671  31.424  1.00  0.00     0.059 A 
ATOM     86  F   UNL A   1      36.551  32.492  32.980  1.00  0.00    -0.206 F 
ATOM     87  C   UNL A   1      35.090  34.115  30.131  1.00  0.00     0.060 A 
BRANCH  87  88
ATOM     88  S   UNL A   1      33.483  34.866  29.732  1.00  0.00     0.124 S 
ATOM     89  O   UNL A   1      32.872  35.014  31.048  1.00  0.00    -0.237 OA
ATOM     90  O   UNL A   1      33.873  36.104  29.067  1.00  0.00    -0.237 OA
ATOM     91  O   UNL A   1      32.852  33.874  28.865  1.00  0.00    -0.744 OA
ENDBRANCH  87  88
ENDBRANCH  55  80
BRANCH  67  92
ATOM     92  C   UNL A   1      42.278  29.196  33.300  1.00  0.00     0.058 A 
ATOM     93  C   UNL A   1      41.484  28.029  33.255  1.00  0.00     0.135 A 
ATOM     94  C   UNL A   1      42.935  29.440  34.511  1.00  0.00     0.135 A 
ATOM     95  F   UNL A   1      40.911  27.631  32.115  1.00  0.00    -0.206 F 
ATOM     96  C   UNL A   1      41.314  27.184  34.363  1.00  0.00     0.059 A 
ATOM     97  C   UNL A   1      42.806  28.602  35.619  1.00  0.00     0.059 A 
ATOM     98  F   UNL A   1      43.780  30.477  34.611  1.00  0.00    -0.206 F 
ATOM     99  C   UNL A   1      41.980  27.484  35.548  1.00  0.00     0.060 A 
BRANCH  99 100
ATOM    100  S   UNL A   1      41.802  26.392  36.980  1.00  0.00     0.124 S 
ATOM    101  O   UNL A   1      42.964  26.750  37.786  1.00  0.00    -0.237 OA
ATOM    102  O   UNL A   1      40.507  26.791  37.524  1.00  0.00    -0.237 OA
ATOM    103  O   UNL A   1      41.839  25.054  36.394  1.00  0.00    -0.744 OA
ENDBRANCH  99 100
ENDBRANCH  67  92
ENDBRANCH  41  42
ENDBRANCH  33  36
ENDBRANCH  31  32
ENDBRANCH  30  31
ENDBRANCH   1  30
TORSDOF 19
ENDMDL
MODEL 2
REMARK VINA RESULT:     -12.8      1.473      2.171
REMARK SMILES COc1cccc([C@@H]2CN(C(=O)CSc3nc(C)n[nH]3)C[C@H]2C(=O)NCCCNC(=O)c2ccc(-c3c4nc(c(-c5c(F)cc(S(=O)(=O)[O-])cc5F)c5ccc([nH]5)c(-c5c(F)cc(S(=O)(=O)[O-])cc5F)c5nc(c(-c6c(F)cc(S(=O)(=O)[O-])cc6F)c6ccc3[nH]6)C=C5)C=C4)cc2)c1
REMARK SMILES IDX 26 1 25 2 23 3 24 4 22 6 8 7 9 8 10 9 21 10 7 11 3 12 4 13
REMARK SMILES IDX 98 14 5 15 6 16 2 17 1 18 11 19 12 20 13 21 14 22 15 23
REMARK SMILES IDX 16 24 20 25 17 26 19 27 18 29 27 30 28 31 29 32 30 33 31 35
REMARK SMILES IDX 32 36 33 37 97 38 34 39 96 40 35 41 36 42 37 43 90 44 38 45
REMARK SMILES IDX 95 46 89 47 91 48 39 49 94 50 88 51 87 52 40 54 74 55 53 56
REMARK SMILES IDX 73 57 54 58 57 59 72 60 92 61 55 62 56 63 71 65 93 66 58 67
REMARK SMILES IDX 41 68 42 69 51 70 43 71 44 72 50 73 52 74 45 75 46 76 47 77
REMARK SMILES IDX 48 78 49 79 75 80 76 81 85 82 77 83 78 84 84 85 86 86 79 87
REMARK SMILES IDX 80 88 81 89 82 90 83 91 59 92 60 93 69 94 61 95 62 96 68 97
REMARK SMILES IDX 70 98 63 99 64 100 65 101 66 102 67 103
REMARK H PARENT 25 5 20 28 29 34 91 53 57 64
REMARK Flexibility Score: inf
ROOT
ATOM      1  C   UNL A   1      36.823  22.086  25.268  1.00  0.00     0.117 C 
ENDROOT
BRANCH   1   2
ATOM      2  N   UNL A   1      36.026  21.877  26.467  1.00  0.00    -0.356 N 
ATOM      3  C   UNL A   1      34.675  21.837  26.630  1.00  0.00     0.225 C 
ATOM      4  O   UNL A   1      34.231  21.552  27.742  1.00  0.00    -0.275 OA
ATOM      5  H   UNL A   1      36.546  21.743  27.292  1.00  0.00     0.163 HD
BRANCH   3   6
ATOM      6  C   UNL A   1      33.739  22.127  25.477  1.00  0.00     0.107 C 
ATOM      7  C   UNL A   1      32.478  21.241  25.521  1.00  0.00     0.053 C 
ATOM      8  C   UNL A   1      31.378  22.152  24.990  1.00  0.00     0.128 C 
ATOM      9  N   UNL A   1      31.784  23.481  25.413  1.00  0.00    -0.341 N 
ATOM     10  C   UNL A   1      33.240  23.574  25.477  1.00  0.00     0.133 C 
BRANCH   7  11
ATOM     11  C   UNL A   1      32.555  19.919  24.809  1.00  0.00    -0.039 A 
ATOM     12  C   UNL A   1      33.052  17.542  24.847  1.00  0.00     0.119 A 
ATOM     13  C   UNL A   1      32.824  17.476  23.473  1.00  0.00     0.046 A 
ATOM     14  C   UNL A   1      32.921  18.761  25.506  1.00  0.00     0.050 A 
ATOM     15  C   UNL A   1      32.438  18.616  22.766  1.00  0.00     0.004 A 
ATOM     16  C   UNL A   1      32.305  19.834  23.431  1.00  0.00     0.004 A 
BRANCH  12  17
ATOM     17  O   UNL A   1      33.470  16.388  25.449  1.00  0.00    -0.497 OA
ATOM     18  C   UNL A   1      32.461  15.396  25.625  1.00  0.00     0.278 C 
ENDBRANCH  12  17
ENDBRANCH   7  11
BRANCH   9  19
ATOM     19  C   UNL A   1      30.973  24.549  25.700  1.00  0.00     0.233 C 
ATOM     20  O   UNL A   1      30.629  24.814  26.856  1.00  0.00    -0.274 OA
BRANCH  19  21
ATOM     21  C   UNL A   1      30.510  25.451  24.574  1.00  0.00     0.178 C 
BRANCH  21  22
ATOM     22  S   UNL A   1      31.774  26.622  24.051  1.00  0.00    -0.077 SA
BRANCH  22  23
ATOM     23  C   UNL A   1      32.277  27.475  25.462  1.00  0.00     0.184 A 
ATOM     24  N   UNL A   1      33.503  27.898  25.649  1.00  0.00    -0.206 NA
ATOM     25  N   UNL A   1      31.509  27.812  26.538  1.00  0.00    -0.254 N 
ATOM     26  C   UNL A   1      33.440  28.507  26.871  1.00  0.00     0.148 A 
ATOM     27  N   UNL A   1      32.234  28.490  27.451  1.00  0.00    -0.158 NA
ATOM     28  H   UNL A   1      30.554  27.592  26.634  1.00  0.00     0.192 HD
ATOM     29  C   UNL A   1      34.626  29.136  27.480  1.00  0.00     0.092 C 
ENDBRANCH  22  23
ENDBRANCH  21  22
ENDBRANCH  19  21
ENDBRANCH   9  19
ENDBRANCH   3   6
ENDBRANCH   1   2
BRANCH   1  30
ATOM     30  C   UNL A   1      37.319  23.512  25.111  1.00  0.00     0.042 C 
BRANCH  30  31
ATOM     31  C   UNL A   1      38.138  23.892  26.301  1.00  0.00     0.118 C 
BRANCH  31  32
ATOM     32  N   UNL A   1      39.076  22.840  26.727  1.00  0.00    -0.352 N 
ATOM     33  C   UNL A   1      40.431  22.995  26.964  1.00  0.00     0.251 C 
ATOM     34  H   UNL A   1      38.703  21.938  26.855  1.00  0.00     0.163 HD
ATOM     35  O   UNL A   1      41.192  22.031  27.055  1.00  0.00    -0.269 OA
BRANCH  33  36
ATOM     36  C   UNL A   1      40.886  24.362  27.216  1.00  0.00     0.039 A 
ATOM     37  C   UNL A   1      42.071  24.999  26.863  1.00  0.00     0.014 A 
ATOM     38  C   UNL A   1      40.067  25.054  28.073  1.00  0.00     0.014 A 
ATOM     39  C   UNL A   1      42.299  26.250  27.473  1.00  0.00     0.010 A 
ATOM     40  C   UNL A   1      40.004  26.366  27.867  1.00  0.00     0.010 A 
ATOM     41  C   UNL A   1      41.234  26.814  28.200  1.00  0.00    -0.014 A 
BRANCH  41  42
ATOM     42  C   UNL A   1      41.101  28.078  28.882  1.00  0.00     0.031 A 
ATOM     43  C   UNL A   1      42.171  28.982  28.360  1.00  0.00     0.074 A 
ATOM     44  C   UNL A   1      39.992  28.406  29.609  1.00  0.00     0.049 A 
ATOM     45  N   UNL A   1      43.344  29.101  28.890  1.00  0.00    -0.248 NA
ATOM     46  C   UNL A   1      42.155  29.452  26.948  1.00  0.00     0.031 C 
ATOM     47  C   UNL A   1      38.753  27.667  29.948  1.00  0.00     0.029 A 
ATOM     48  N   UNL A   1      39.761  29.583  30.268  1.00  0.00    -0.354 N 
ATOM     49  C   UNL A   1      44.023  29.995  28.078  1.00  0.00     0.074 A 
ATOM     50  C   UNL A   1      43.411  29.889  26.789  1.00  0.00     0.031 C 
ATOM     51  C   UNL A   1      37.826  28.509  30.489  1.00  0.00     0.029 A 
ATOM     52  C   UNL A   1      38.430  29.811  30.677  1.00  0.00     0.049 A 
ATOM     53  H   UNL A   1      40.480  30.231  30.446  1.00  0.00     0.167 HD
ATOM     54  C   UNL A   1      44.741  31.001  28.647  1.00  0.00     0.037 A 
ATOM     55  C   UNL A   1      37.950  31.001  31.167  1.00  0.00     0.037 A 
ATOM     56  C   UNL A   1      44.907  30.734  30.060  1.00  0.00     0.049 A 
ATOM     57  C   UNL A   1      39.185  31.733  31.621  1.00  0.00     0.074 A 
ATOM     58  C   UNL A   1      45.489  29.707  30.781  1.00  0.00     0.029 A 
ATOM     59  N   UNL A   1      43.964  31.298  30.891  1.00  0.00    -0.354 N 
ATOM     60  N   UNL A   1      39.949  31.257  32.583  1.00  0.00    -0.248 NA
ATOM     61  C   UNL A   1      39.873  32.512  30.588  1.00  0.00     0.031 C 
ATOM     62  C   UNL A   1      44.543  29.394  31.806  1.00  0.00     0.029 A 
ATOM     63  C   UNL A   1      43.515  30.337  31.770  1.00  0.00     0.049 A 
ATOM     64  H   UNL A   1      43.660  32.234  30.861  1.00  0.00     0.167 HD
ATOM     65  C   UNL A   1      41.240  31.296  32.065  1.00  0.00     0.074 A 
ATOM     66  C   UNL A   1      41.115  32.057  30.809  1.00  0.00     0.031 C 
ATOM     67  C   UNL A   1      42.232  30.426  32.445  1.00  0.00     0.037 A 
BRANCH  54  68
ATOM     68  C   UNL A   1      44.876  32.392  28.077  1.00  0.00     0.058 A 
ATOM     69  C   UNL A   1      46.135  32.792  27.591  1.00  0.00     0.135 A 
ATOM     70  C   UNL A   1      43.924  33.428  28.227  1.00  0.00     0.135 A 
ATOM     71  F   UNL A   1      47.114  31.890  27.411  1.00  0.00    -0.206 F 
ATOM     72  C   UNL A   1      46.445  34.125  27.328  1.00  0.00     0.059 A 
ATOM     73  C   UNL A   1      44.199  34.759  27.928  1.00  0.00     0.059 A 
ATOM     74  F   UNL A   1      42.707  33.218  28.741  1.00  0.00    -0.206 F 
ATOM     75  C   UNL A   1      45.471  35.103  27.502  1.00  0.00     0.060 A 
BRANCH  75  76
ATOM     76  S   UNL A   1      45.889  36.822  27.165  1.00  0.00     0.124 S 
ATOM     77  O   UNL A   1      44.570  37.417  26.978  1.00  0.00    -0.237 OA
ATOM     78  O   UNL A   1      46.593  37.197  28.386  1.00  0.00    -0.237 OA
ATOM     79  O   UNL A   1      46.722  36.739  25.969  1.00  0.00    -0.744 OA
ENDBRANCH  75  76
ENDBRANCH  54  68
BRANCH  55  80
ATOM     80  C   UNL A   1      36.688  31.699  30.715  1.00  0.00     0.058 A 
ATOM     81  C   UNL A   1      35.685  32.237  31.561  1.00  0.00     0.135 A 
ATOM     82  C   UNL A   1      36.575  32.072  29.362  1.00  0.00     0.135 A 
ATOM     83  F   UNL A   1      35.698  31.975  32.879  1.00  0.00    -0.206 F 
ATOM     84  C   UNL A   1      34.664  33.100  31.087  1.00  0.00     0.059 A 
ATOM     85  C   UNL A   1      35.580  32.916  28.873  1.00  0.00     0.059 A 
ATOM     86  F   UNL A   1      37.501  31.695  28.470  1.00  0.00    -0.206 F 
ATOM     87  C   UNL A   1      34.635  33.450  29.735  1.00  0.00     0.060 A 
BRANCH  87  88
ATOM     88  S   UNL A   1      33.466  34.685  29.093  1.00  0.00     0.124 S 
ATOM     89  O   UNL A   1      32.677  33.905  28.145  1.00  0.00    -0.237 OA
ATOM     90  O   UNL A   1      32.771  35.114  30.300  1.00  0.00    -0.237 OA
ATOM     91  O   UNL A   1      34.336  35.693  28.491  1.00  0.00    -0.744 OA
ENDBRANCH  87  88
ENDBRANCH  55  80
BRANCH  67  92
ATOM     92  C   UNL A   1      41.987  29.416  33.560  1.00  0.00     0.058 A 
ATOM     93  C   UNL A   1      41.577  28.075  33.394  1.00  0.00     0.135 A 
ATOM     94  C   UNL A   1      42.404  29.770  34.848  1.00  0.00     0.135 A 
ATOM     95  F   UNL A   1      41.277  27.592  32.185  1.00  0.00    -0.206 F 
ATOM     96  C   UNL A   1      41.537  27.157  34.456  1.00  0.00     0.059 A 
ATOM     97  C   UNL A   1      42.402  28.872  35.915  1.00  0.00     0.059 A 
ATOM     98  F   UNL A   1      42.894  30.999  35.071  1.00  0.00    -0.206 F 
ATOM     99  C   UNL A   1      41.950  27.569  35.719  1.00  0.00     0.060 A 
BRANCH  99 100
ATOM    100  S   UNL A   1      41.938  26.395  37.096  1.00  0.00     0.124 S 
ATOM    101  O   UNL A   1      40.608  26.598  37.662  1.00  0.00    -0.237 OA
ATOM    102  O   UNL A   1      42.151  25.116  36.425  1.00  0.00    -0.237 OA
ATOM    103  O   UNL A   1      43.046  26.843  37.936  1.00  0.00    -0.744 OA
ENDBRANCH  99 100
ENDBRANCH  67  92
ENDBRANCH  41  42
ENDBRANCH  33  36
ENDBRANCH  31  32
ENDBRANCH  30  31
ENDBRANCH   1  30
TORSDOF 19
ENDMDL
MODEL 3
REMARK VINA RESULT:     -12.6      3.528      8.234
REMARK SMILES COc1cccc([C@@H]2CN(C(=O)CSc3nc(C)n[nH]3)C[C@H]2C(=O)NCCCNC(=O)c2ccc(-c3c4nc(c(-c5c(F)cc(S(=O)(=O)[O-])cc5F)c5ccc([nH]5)c(-c5c(F)cc(S(=O)(=O)[O-])cc5F)c5nc(c(-c6c(F)cc(S(=O)(=O)[O-])cc6F)c6ccc3[nH]6)C=C5)C=C4)cc2)c1
REMARK SMILES IDX 26 1 25 2 23 3 24 4 22 6 8 7 9 8 10 9 21 10 7 11 3 12 4 13
REMARK SMILES IDX 98 14 5 15 6 16 2 17 1 18 11 19 12 20 13 21 14 22 15 23
REMARK SMILES IDX 16 24 20 25 17 26 19 27 18 29 27 30 28 31 29 32 30 33 31 35
REMARK SMILES IDX 32 36 33 37 97 38 34 39 96 40 35 41 36 42 37 43 90 44 38 45
REMARK SMILES IDX 95 46 89 47 91 48 39 49 94 50 88 51 87 52 40 54 74 55 53 56
REMARK SMILES IDX 73 57 54 58 57 59 72 60 92 61 55 62 56 63 71 65 93 66 58 67
REMARK SMILES IDX 41 68 42 69 51 70 43 71 44 72 50 73 52 74 45 75 46 76 47 77
REMARK SMILES IDX 48 78 49 79 75 80 76 81 85 82 77 83 78 84 84 85 86 86 79 87
REMARK SMILES IDX 80 88 81 89 82 90 83 91 59 92 60 93 69 94 61 95 62 96 68 97
REMARK SMILES IDX 70 98 63 99 64 100 65 101 66 102 67 103
REMARK H PARENT 25 5 20 28 29 34 91 53 57 64
REMARK Flexibility Score: inf
ROOT
ATOM      1  C   UNL A   1      31.413  30.401  25.892  1.00  0.00     0.117 C 
ENDROOT
BRANCH   1   2
ATOM      2  N   UNL A   1      32.596  30.053  25.121  1.00  0.00    -0.356 N 
ATOM      3  C   UNL A   1      32.858  28.959  24.357  1.00  0.00     0.225 C 
ATOM      4  O   UNL A   1      33.912  28.931  23.720  1.00  0.00    -0.275 OA
ATOM      5  H   UNL A   1      33.324  30.716  25.159  1.00  0.00     0.163 HD
BRANCH   3   6
ATOM      6  C   UNL A   1      31.882  27.805  24.281  1.00  0.00     0.107 C 
ATOM      7  C   UNL A   1      31.156  27.751  22.922  1.00  0.00     0.053 C 
ATOM      8  C   UNL A   1      30.987  26.259  22.662  1.00  0.00     0.128 C 
ATOM      9  N   UNL A   1      32.145  25.654  23.297  1.00  0.00    -0.341 N 
ATOM     10  C   UNL A   1      32.567  26.446  24.450  1.00  0.00     0.133 C 
BRANCH   7  11
ATOM     11  C   UNL A   1      29.874  28.527  22.809  1.00  0.00    -0.039 A 
ATOM     12  C   UNL A   1      28.711  30.591  22.274  1.00  0.00     0.119 A 
ATOM     13  C   UNL A   1      27.514  30.026  22.710  1.00  0.00     0.046 A 
ATOM     14  C   UNL A   1      29.883  29.842  22.330  1.00  0.00     0.050 A 
ATOM     15  C   UNL A   1      27.483  28.709  23.173  1.00  0.00     0.004 A 
ATOM     16  C   UNL A   1      28.658  27.962  23.223  1.00  0.00     0.004 A 
BRANCH  12  17
ATOM     17  O   UNL A   1      28.657  31.900  21.881  1.00  0.00    -0.497 OA
ATOM     18  C   UNL A   1      28.107  32.122  20.585  1.00  0.00     0.278 C 
ENDBRANCH  12  17
ENDBRANCH   7  11
BRANCH   9  19
ATOM     19  C   UNL A   1      32.785  24.497  22.935  1.00  0.00     0.233 C 
ATOM     20  O   UNL A   1      33.773  24.503  22.195  1.00  0.00    -0.274 OA
BRANCH  19  21
ATOM     21  C   UNL A   1      32.290  23.174  23.484  1.00  0.00     0.178 C 
BRANCH  21  22
ATOM     22  S   UNL A   1      33.446  22.419  24.639  1.00  0.00    -0.077 SA
BRANCH  22  23
ATOM     23  C   UNL A   1      33.057  20.741  24.706  1.00  0.00     0.184 A 
ATOM     24  N   UNL A   1      33.381  19.889  23.764  1.00  0.00    -0.206 NA
ATOM     25  N   UNL A   1      32.385  20.090  25.699  1.00  0.00    -0.254 N 
ATOM     26  C   UNL A   1      32.885  18.704  24.231  1.00  0.00     0.148 A 
ATOM     27  N   UNL A   1      32.275  18.774  25.421  1.00  0.00    -0.158 NA
ATOM     28  H   UNL A   1      32.029  20.521  26.508  1.00  0.00     0.192 HD
ATOM     29  C   UNL A   1      33.032  17.452  23.466  1.00  0.00     0.092 C 
ENDBRANCH  22  23
ENDBRANCH  21  22
ENDBRANCH  19  21
ENDBRANCH   9  19
ENDBRANCH   3   6
ENDBRANCH   1   2
BRANCH   1  30
ATOM     30  C   UNL A   1      31.310  31.882  26.210  1.00  0.00     0.042 C 
BRANCH  30  31
ATOM     31  C   UNL A   1      32.402  32.270  27.151  1.00  0.00     0.118 C 
BRANCH  31  32
ATOM     32  N   UNL A   1      32.447  33.714  27.434  1.00  0.00    -0.352 N 
ATOM     33  C   UNL A   1      33.134  34.328  28.468  1.00  0.00     0.251 C 
ATOM     34  H   UNL A   1      31.938  34.301  26.829  1.00  0.00     0.163 HD
ATOM     35  O   UNL A   1      32.912  35.493  28.797  1.00  0.00    -0.269 OA
BRANCH  33  36
ATOM     36  C   UNL A   1      34.219  33.551  29.066  1.00  0.00     0.039 A 
ATOM     37  C   UNL A   1      34.235  32.749  30.203  1.00  0.00     0.014 A 
ATOM     38  C   UNL A   1      35.440  33.793  28.488  1.00  0.00     0.014 A 
ATOM     39  C   UNL A   1      35.510  32.334  30.642  1.00  0.00     0.010 A 
ATOM     40  C   UNL A   1      36.285  32.766  28.486  1.00  0.00     0.010 A 
ATOM     41  C   UNL A   1      36.599  32.592  29.789  1.00  0.00    -0.014 A 
BRANCH  41  42
ATOM     42  C   UNL A   1      37.998  32.256  29.890  1.00  0.00     0.031 A 
ATOM     43  C   UNL A   1      38.165  30.874  29.345  1.00  0.00     0.074 A 
ATOM     44  C   UNL A   1      38.961  33.191  30.144  1.00  0.00     0.049 A 
ATOM     45  N   UNL A   1      38.109  29.799  30.062  1.00  0.00    -0.248 NA
ATOM     46  C   UNL A   1      37.938  30.585  27.903  1.00  0.00     0.031 C 
ATOM     47  C   UNL A   1      38.906  34.646  30.421  1.00  0.00     0.029 A 
ATOM     48  N   UNL A   1      40.309  32.977  30.234  1.00  0.00    -0.354 N 
ATOM     49  C   UNL A   1      38.270  28.754  29.167  1.00  0.00     0.074 A 
ATOM     50  C   UNL A   1      37.816  29.251  27.905  1.00  0.00     0.031 C 
ATOM     51  C   UNL A   1      40.154  35.192  30.361  1.00  0.00     0.029 A 
ATOM     52  C   UNL A   1      41.122  34.129  30.187  1.00  0.00     0.049 A 
ATOM     53  H   UNL A   1      40.689  32.074  30.325  1.00  0.00     0.167 HD
ATOM     54  C   UNL A   1      39.122  27.738  29.473  1.00  0.00     0.037 A 
ATOM     55  C   UNL A   1      42.490  34.124  30.060  1.00  0.00     0.037 A 
ATOM     56  C   UNL A   1      39.468  27.807  30.877  1.00  0.00     0.049 A 
ATOM     57  C   UNL A   1      42.890  32.738  30.493  1.00  0.00     0.074 A 
ATOM     58  C   UNL A   1      38.737  27.751  32.050  1.00  0.00     0.029 A 
ATOM     59  N   UNL A   1      40.618  28.504  31.177  1.00  0.00    -0.354 N 
ATOM     60  N   UNL A   1      42.665  32.312  31.719  1.00  0.00    -0.248 NA
ATOM     61  C   UNL A   1      42.854  31.714  29.446  1.00  0.00     0.031 C 
ATOM     62  C   UNL A   1      39.243  28.820  32.852  1.00  0.00     0.029 A 
ATOM     63  C   UNL A   1      40.355  29.372  32.213  1.00  0.00     0.049 A 
ATOM     64  H   UNL A   1      41.486  28.399  30.723  1.00  0.00     0.167 HD
ATOM     65  C   UNL A   1      42.040  31.079  31.558  1.00  0.00     0.074 A 
ATOM     66  C   UNL A   1      42.161  30.785  30.119  1.00  0.00     0.031 C 
ATOM     67  C   UNL A   1      41.153  30.558  32.468  1.00  0.00     0.037 A 
BRANCH  54  68
ATOM     68  C   UNL A   1      39.984  27.006  28.474  1.00  0.00     0.058 A 
ATOM     69  C   UNL A   1      39.894  25.602  28.420  1.00  0.00     0.135 A 
ATOM     70  C   UNL A   1      41.070  27.574  27.768  1.00  0.00     0.135 A 
ATOM     71  F   UNL A   1      38.902  24.958  29.056  1.00  0.00    -0.206 F 
ATOM     72  C   UNL A   1      40.842  24.818  27.765  1.00  0.00     0.059 A 
ATOM     73  C   UNL A   1      42.003  26.812  27.070  1.00  0.00     0.059 A 
ATOM     74  F   UNL A   1      41.329  28.887  27.781  1.00  0.00    -0.206 F 
ATOM     75  C   UNL A   1      41.894  25.432  27.094  1.00  0.00     0.060 A 
BRANCH  75  76
ATOM     76  S   UNL A   1      43.114  24.405  26.258  1.00  0.00     0.124 S 
ATOM     77  O   UNL A   1      44.245  24.477  27.176  1.00  0.00    -0.237 OA
ATOM     78  O   UNL A   1      42.423  23.121  26.194  1.00  0.00    -0.237 OA
ATOM     79  O   UNL A   1      43.297  25.075  24.974  1.00  0.00    -0.744 OA
ENDBRANCH  75  76
ENDBRANCH  54  68
BRANCH  55  80
ATOM     80  C   UNL A   1      43.290  34.955  29.084  1.00  0.00     0.058 A 
ATOM     81  C   UNL A   1      42.803  35.525  27.880  1.00  0.00     0.135 A 
ATOM     82  C   UNL A   1      44.559  35.420  29.481  1.00  0.00     0.135 A 
ATOM     83  F   UNL A   1      41.592  35.181  27.410  1.00  0.00    -0.206 F 
ATOM     84  C   UNL A   1      43.526  36.500  27.147  1.00  0.00     0.059 A 
ATOM     85  C   UNL A   1      45.288  36.375  28.776  1.00  0.00     0.059 A 
ATOM     86  F   UNL A   1      45.101  35.020  30.638  1.00  0.00    -0.206 F 
ATOM     87  C   UNL A   1      44.766  36.934  27.620  1.00  0.00     0.060 A 
BRANCH  87  88
ATOM     88  S   UNL A   1      45.664  38.303  26.830  1.00  0.00     0.124 S 
ATOM     89  O   UNL A   1      46.504  38.795  27.917  1.00  0.00    -0.237 OA
ATOM     90  O   UNL A   1      46.361  37.632  25.740  1.00  0.00    -0.237 OA
ATOM     91  O   UNL A   1      44.598  39.211  26.413  1.00  0.00    -0.744 OA
ENDBRANCH  87  88
ENDBRANCH  55  80
BRANCH  67  92
ATOM     92  C   UNL A   1      40.885  31.279  33.784  1.00  0.00     0.058 A 
ATOM     93  C   UNL A   1      39.770  32.095  34.075  1.00  0.00     0.135 A 
ATOM     94  C   UNL A   1      41.694  30.941  34.875  1.00  0.00     0.135 A 
ATOM     95  F   UNL A   1      38.862  32.378  33.137  1.00  0.00    -0.206 F 
ATOM     96  C   UNL A   1      39.506  32.587  35.363  1.00  0.00     0.059 A 
ATOM     97  C   UNL A   1      41.439  31.392  36.170  1.00  0.00     0.059 A 
ATOM     98  F   UNL A   1      42.722  30.096  34.702  1.00  0.00    -0.206 F 
ATOM     99  C   UNL A   1      40.353  32.231  36.408  1.00  0.00     0.060 A 
BRANCH  99 100
ATOM    100  S   UNL A   1      40.014  32.826  38.083  1.00  0.00     0.124 S 
ATOM    101  O   UNL A   1      41.142  32.286  38.835  1.00  0.00    -0.237 OA
ATOM    102  O   UNL A   1      40.005  34.275  37.910  1.00  0.00    -0.237 OA
ATOM    103  O   UNL A   1      38.716  32.234  38.398  1.00  0.00    -0.744 OA
ENDBRANCH  99 100
ENDBRANCH  67  92
ENDBRANCH  41  42
ENDBRANCH  33  36
ENDBRANCH  31  32
ENDBRANCH  30  31
ENDBRANCH   1  30
TORSDOF 19
ENDMDL
