MODEL 1
REMARK VINA RESULT:     -13.5      0.000      0.000
REMARK SMILES CC1=NN(c2ccccc2)C(=O)/C1=C\c1ccc(-c2cc(C(=O)NCCCNC(=O)c3ccc(-c4c5nc(c(-c6c(F)cc(S(=O)(=O)[O-])cc6F)c6ccc([nH]6)c(-c6c(F)cc(S(=O)(=O)[O-])cc6F)c6nc(c(-c7c(F)cc(S(=O)(=O)[O-])cc7F)c7ccc4[nH]7)C=C6)C=C5)cc3)ccc2Cl)o1
REMARK SMILES IDX 26 1 25 2 24 3 22 4 23 5 21 7 19 8 20 9 99 10 98 11 100 12
REMARK SMILES IDX 97 13 18 14 15 15 16 16 101 17 17 18 14 19 1 20 2 21 3 22
REMARK SMILES IDX 13 23 4 24 11 25 12 26 5 27 6 28 10 29 7 30 9 31 8 32 27 33
REMARK SMILES IDX 28 34 29 35 30 37 31 38 32 39 96 40 33 41 95 42 34 43 35 44
REMARK SMILES IDX 36 45 89 46 37 47 94 48 88 49 90 50 38 51 93 52 87 53 86 54
REMARK SMILES IDX 39 56 73 57 52 58 72 59 53 60 56 61 71 62 91 63 54 64 55 65
REMARK SMILES IDX 70 67 92 68 57 69 40 70 41 71 50 72 42 73 43 74 49 75 51 76
REMARK SMILES IDX 44 77 45 78 46 79 47 80 48 81 74 82 75 83 84 84 76 85 77 86
REMARK SMILES IDX 83 87 85 88 78 89 79 90 80 91 81 92 82 93 58 94 59 95 68 96
REMARK SMILES IDX 60 97 61 98 67 99 69 100 62 101 63 102 64 103 65 104 66 105
REMARK H PARENT 24 6 28 36 90 55 56 66
REMARK Flexibility Score: inf
ROOT
ATOM      1  C   UNL A   1      34.223  29.143  26.833  1.00  0.00     0.042 C 
ENDROOT
BRANCH   1   2
ATOM      2  C   UNL A   1      32.928  29.496  27.542  1.00  0.00     0.118 C 
BRANCH   2   3
ATOM      3  N   UNL A   1      32.016  30.319  26.755  1.00  0.00    -0.352 N 
ATOM      4  C   UNL A   1      31.400  30.122  25.538  1.00  0.00     0.251 C 
ATOM      5  O   UNL A   1      30.690  31.019  25.087  1.00  0.00    -0.269 OA
ATOM      6  H   UNL A   1      31.799  31.183  27.174  1.00  0.00     0.163 HD
BRANCH   4   7
ATOM      7  C   UNL A   1      31.597  28.881  24.741  1.00  0.00     0.040 A 
ATOM      8  C   UNL A   1      31.292  26.466  24.516  1.00  0.00     0.037 A 
ATOM      9  C   UNL A   1      31.185  27.646  25.277  1.00  0.00     0.027 A 
ATOM     10  C   UNL A   1      31.712  26.571  23.176  1.00  0.00     0.052 A 
ATOM     11  C   UNL A   1      32.210  27.773  22.683  1.00  0.00     0.022 A 
ATOM     12  Cl  UNL A   1      31.655  25.245  22.061  1.00  0.00    -0.084 Cl
ATOM     13  C   UNL A   1      32.229  28.898  23.498  1.00  0.00     0.015 A 
BRANCH   8  14
ATOM     14  C   UNL A   1      31.145  25.156  25.140  1.00  0.00     0.136 A 
ATOM     15  C   UNL A   1      31.553  22.997  25.430  1.00  0.00     0.128 A 
ATOM     16  C   UNL A   1      30.598  23.382  26.366  1.00  0.00     0.051 A 
ATOM     17  O   UNL A   1      31.912  24.115  24.701  1.00  0.00    -0.457 OA
ATOM     18  C   UNL A   1      30.297  24.731  26.139  1.00  0.00     0.051 A 
BRANCH  15  19
ATOM     19  C   UNL A   1      32.086  21.689  25.258  1.00  0.00     0.063 C 
ATOM     20  C   UNL A   1      33.541  19.077  24.332  1.00  0.00     0.069 C 
ATOM     21  C   UNL A   1      34.171  20.327  24.848  1.00  0.00     0.071 C 
ATOM     22  N   UNL A   1      35.462  20.538  24.868  1.00  0.00    -0.169 NA
ATOM     23  C   UNL A   1      33.407  21.483  25.351  1.00  0.00     0.068 C 
ATOM     24  N   UNL A   1      35.632  21.773  25.487  1.00  0.00    -0.196 N 
ATOM     25  C   UNL A   1      34.445  22.415  25.857  1.00  0.00     0.280 C 
ATOM     26  O   UNL A   1      34.272  23.469  26.433  1.00  0.00    -0.267 OA
BRANCH  24  27
ATOM     27  C   UNL A   1      36.928  22.242  25.774  1.00  0.00     0.069 A 
ATOM     28  C   UNL A   1      37.148  23.583  26.103  1.00  0.00     0.028 A 
ATOM     29  C   UNL A   1      38.017  21.357  25.760  1.00  0.00     0.028 A 
ATOM     30  C   UNL A   1      38.429  24.018  26.457  1.00  0.00     0.002 A 
ATOM     31  C   UNL A   1      39.303  21.803  26.062  1.00  0.00     0.002 A 
ATOM     32  C   UNL A   1      39.507  23.131  26.427  1.00  0.00     0.000 A 
ENDBRANCH  24  27
ENDBRANCH  15  19
ENDBRANCH   8  14
ENDBRANCH   4   7
ENDBRANCH   2   3
ENDBRANCH   1   2
BRANCH   1  33
ATOM     33  C   UNL A   1      35.464  29.797  27.414  1.00  0.00     0.118 C 
BRANCH  33  34
ATOM     34  N   UNL A   1      35.366  30.031  28.851  1.00  0.00    -0.352 N 
ATOM     35  C   UNL A   1      36.303  29.924  29.852  1.00  0.00     0.251 C 
ATOM     36  H   UNL A   1      34.475  30.315  29.156  1.00  0.00     0.163 HD
ATOM     37  O   UNL A   1      35.933  29.993  31.021  1.00  0.00    -0.269 OA
BRANCH  35  38
ATOM     38  C   UNL A   1      37.733  29.700  29.542  1.00  0.00     0.039 A 
ATOM     39  C   UNL A   1      38.595  29.289  30.564  1.00  0.00     0.014 A 
ATOM     40  C   UNL A   1      38.241  29.913  28.260  1.00  0.00     0.014 A 
ATOM     41  C   UNL A   1      39.934  29.012  30.278  1.00  0.00     0.010 A 
ATOM     42  C   UNL A   1      39.541  29.530  27.952  1.00  0.00     0.010 A 
ATOM     43  C   UNL A   1      40.408  29.081  28.957  1.00  0.00    -0.014 A 
BRANCH  43  44
ATOM     44  C   UNL A   1      41.801  28.696  28.607  1.00  0.00     0.031 A 
ATOM     45  C   UNL A   1      42.891  29.735  28.574  1.00  0.00     0.074 A 
ATOM     46  C   UNL A   1      42.070  27.424  28.245  1.00  0.00     0.049 A 
ATOM     47  N   UNL A   1      44.143  29.608  28.216  1.00  0.00    -0.248 NA
ATOM     48  C   UNL A   1      42.518  31.106  28.963  1.00  0.00     0.031 C 
ATOM     49  C   UNL A   1      41.089  26.337  28.184  1.00  0.00     0.029 A 
ATOM     50  N   UNL A   1      43.243  26.831  27.852  1.00  0.00    -0.354 N 
ATOM     51  C   UNL A   1      44.699  30.879  28.321  1.00  0.00     0.074 A 
ATOM     52  C   UNL A   1      43.635  31.774  28.715  1.00  0.00     0.031 C 
ATOM     53  C   UNL A   1      41.707  25.206  27.806  1.00  0.00     0.029 A 
ATOM     54  C   UNL A   1      43.114  25.494  27.551  1.00  0.00     0.049 A 
ATOM     55  H   UNL A   1      44.098  27.316  27.790  1.00  0.00     0.167 HD
ATOM     56  C   UNL A   1      45.985  31.260  28.132  1.00  0.00     0.037 A 
ATOM     57  C   UNL A   1      44.024  24.603  27.110  1.00  0.00     0.037 A 
ATOM     58  C   UNL A   1      47.045  30.357  27.764  1.00  0.00     0.049 A 
ATOM     59  C   UNL A   1      45.445  25.052  26.901  1.00  0.00     0.074 A 
ATOM     60  C   UNL A   1      48.392  30.632  27.610  1.00  0.00     0.029 A 
ATOM     61  N   UNL A   1      46.878  29.008  27.487  1.00  0.00    -0.354 N 
ATOM     62  N   UNL A   1      45.968  26.242  27.075  1.00  0.00    -0.248 NA
ATOM     63  C   UNL A   1      46.402  24.036  26.442  1.00  0.00     0.031 C 
ATOM     64  C   UNL A   1      49.030  29.462  27.184  1.00  0.00     0.029 A 
ATOM     65  C   UNL A   1      48.092  28.442  27.136  1.00  0.00     0.049 A 
ATOM     66  H   UNL A   1      46.021  28.523  27.533  1.00  0.00     0.167 HD
ATOM     67  C   UNL A   1      47.320  26.113  26.775  1.00  0.00     0.074 A 
ATOM     68  C   UNL A   1      47.535  24.724  26.424  1.00  0.00     0.031 C 
ATOM     69  C   UNL A   1      48.293  27.056  26.793  1.00  0.00     0.037 A 
BRANCH  56  70
ATOM     70  C   UNL A   1      46.321  32.716  28.323  1.00  0.00     0.058 A 
ATOM     71  C   UNL A   1      46.743  33.222  29.564  1.00  0.00     0.135 A 
ATOM     72  C   UNL A   1      46.258  33.611  27.242  1.00  0.00     0.135 A 
ATOM     73  F   UNL A   1      46.808  32.417  30.636  1.00  0.00    -0.206 F 
ATOM     74  C   UNL A   1      47.060  34.566  29.733  1.00  0.00     0.059 A 
ATOM     75  C   UNL A   1      46.602  34.952  27.381  1.00  0.00     0.059 A 
ATOM     76  F   UNL A   1      45.861  33.184  26.033  1.00  0.00    -0.206 F 
ATOM     77  C   UNL A   1      46.988  35.424  28.635  1.00  0.00     0.060 A 
BRANCH  77  78
ATOM     78  S   UNL A   1      47.413  37.162  28.871  1.00  0.00     0.124 S 
ATOM     79  O   UNL A   1      46.407  37.823  28.045  1.00  0.00    -0.237 OA
ATOM     80  O   UNL A   1      47.256  37.327  30.313  1.00  0.00    -0.237 OA
ATOM     81  O   UNL A   1      48.784  37.249  28.379  1.00  0.00    -0.744 OA
ENDBRANCH  77  78
ENDBRANCH  56  70
BRANCH  57  82
ATOM     82  C   UNL A   1      43.622  23.192  26.855  1.00  0.00     0.058 A 
ATOM     83  C   UNL A   1      43.292  22.331  27.912  1.00  0.00     0.135 A 
ATOM     84  C   UNL A   1      43.546  22.680  25.550  1.00  0.00     0.135 A 
ATOM     85  F   UNL A   1      43.354  22.771  29.178  1.00  0.00    -0.206 F 
ATOM     86  C   UNL A   1      42.921  21.009  27.690  1.00  0.00     0.059 A 
ATOM     87  C   UNL A   1      43.149  21.369  25.299  1.00  0.00     0.059 A 
ATOM     88  F   UNL A   1      43.833  23.465  24.500  1.00  0.00    -0.206 F 
ATOM     89  C   UNL A   1      42.850  20.538  26.378  1.00  0.00     0.060 A 
BRANCH  89  90
ATOM     90  S   UNL A   1      42.322  18.834  26.098  1.00  0.00     0.124 S 
ATOM     91  O   UNL A   1      43.239  18.411  25.046  1.00  0.00    -0.237 OA
ATOM     92  O   UNL A   1      42.533  18.230  27.410  1.00  0.00    -0.237 OA
ATOM     93  O   UNL A   1      40.925  18.976  25.700  1.00  0.00    -0.744 OA
ENDBRANCH  89  90
ENDBRANCH  57  82
BRANCH  69  94
ATOM     94  C   UNL A   1      49.693  26.616  26.457  1.00  0.00     0.058 A 
ATOM     95  C   UNL A   1      50.525  26.000  27.404  1.00  0.00     0.135 A 
ATOM     96  C   UNL A   1      50.188  26.766  25.150  1.00  0.00     0.135 A 
ATOM     97  F   UNL A   1      50.105  25.838  28.669  1.00  0.00    -0.206 F 
ATOM     98  C   UNL A   1      51.808  25.573  27.076  1.00  0.00     0.059 A 
ATOM     99  C   UNL A   1      51.454  26.317  24.792  1.00  0.00     0.059 A 
ATOM    100  F   UNL A   1      49.431  27.339  24.200  1.00  0.00    -0.206 F 
ATOM    101  C   UNL A   1      52.262  25.733  25.766  1.00  0.00     0.060 A 
BRANCH 101 102
ATOM    102  S   UNL A   1      53.916  25.143  25.347  1.00  0.00     0.124 S 
ATOM    103  O   UNL A   1      54.724  25.766  26.391  1.00  0.00    -0.237 OA
ATOM    104  O   UNL A   1      53.764  23.694  25.444  1.00  0.00    -0.237 OA
ATOM    105  O   UNL A   1      54.130  25.656  23.998  1.00  0.00    -0.744 OA
ENDBRANCH 101 102
ENDBRANCH  69  94
ENDBRANCH  43  44
ENDBRANCH  35  38
ENDBRANCH  33  34
ENDBRANCH   1  33
TORSDOF 16
ENDMDL
MODEL 2
REMARK VINA RESULT:     -13.0      1.087      2.450
REMARK SMILES CC1=NN(c2ccccc2)C(=O)/C1=C\c1ccc(-c2cc(C(=O)NCCCNC(=O)c3ccc(-c4c5nc(c(-c6c(F)cc(S(=O)(=O)[O-])cc6F)c6ccc([nH]6)c(-c6c(F)cc(S(=O)(=O)[O-])cc6F)c6nc(c(-c7c(F)cc(S(=O)(=O)[O-])cc7F)c7ccc4[nH]7)C=C6)C=C5)cc3)ccc2Cl)o1
REMARK SMILES IDX 26 1 25 2 24 3 22 4 23 5 21 7 19 8 20 9 99 10 98 11 100 12
REMARK SMILES IDX 97 13 18 14 15 15 16 16 101 17 17 18 14 19 1 20 2 21 3 22
REMARK SMILES IDX 13 23 4 24 11 25 12 26 5 27 6 28 10 29 7 30 9 31 8 32 27 33
REMARK SMILES IDX 28 34 29 35 30 37 31 38 32 39 96 40 33 41 95 42 34 43 35 44
REMARK SMILES IDX 36 45 89 46 37 47 94 48 88 49 90 50 38 51 93 52 87 53 86 54
REMARK SMILES IDX 39 56 73 57 52 58 72 59 53 60 56 61 71 62 91 63 54 64 55 65
REMARK SMILES IDX 70 67 92 68 57 69 40 70 41 71 50 72 42 73 43 74 49 75 51 76
REMARK SMILES IDX 44 77 45 78 46 79 47 80 48 81 74 82 75 83 84 84 76 85 77 86
REMARK SMILES IDX 83 87 85 88 78 89 79 90 80 91 81 92 82 93 58 94 59 95 68 96
REMARK SMILES IDX 60 97 61 98 67 99 69 100 62 101 63 102 64 103 65 104 66 105
REMARK H PARENT 24 6 28 36 90 55 56 66
REMARK Flexibility Score: inf
ROOT
ATOM      1  C   UNL A   1      34.983  29.794  27.928  1.00  0.00     0.042 C 
ENDROOT
BRANCH   1   2
ATOM      2  C   UNL A   1      34.390  30.025  26.550  1.00  0.00     0.118 C 
BRANCH   2   3
ATOM      3  N   UNL A   1      33.141  30.779  26.550  1.00  0.00    -0.352 N 
ATOM      4  C   UNL A   1      31.878  30.489  26.081  1.00  0.00     0.251 C 
ATOM      5  O   UNL A   1      31.001  31.343  26.189  1.00  0.00    -0.269 OA
ATOM      6  H   UNL A   1      33.215  31.669  26.966  1.00  0.00     0.163 HD
BRANCH   4   7
ATOM      7  C   UNL A   1      31.556  29.196  25.417  1.00  0.00     0.040 A 
ATOM      8  C   UNL A   1      31.716  26.758  25.394  1.00  0.00     0.037 A 
ATOM      9  C   UNL A   1      32.064  28.000  25.958  1.00  0.00     0.027 A 
ATOM     10  C   UNL A   1      30.765  26.737  24.356  1.00  0.00     0.052 A 
ATOM     11  C   UNL A   1      30.343  27.922  23.761  1.00  0.00     0.022 A 
ATOM     12  Cl  UNL A   1      30.067  25.275  23.741  1.00  0.00    -0.084 Cl
ATOM     13  C   UNL A   1      30.809  29.140  24.240  1.00  0.00     0.015 A 
BRANCH   8  14
ATOM     14  C   UNL A   1      32.443  25.544  25.748  1.00  0.00     0.136 A 
ATOM     15  C   UNL A   1      34.121  24.098  25.675  1.00  0.00     0.128 A 
ATOM     16  C   UNL A   1      33.171  23.607  26.565  1.00  0.00     0.051 A 
ATOM     17  O   UNL A   1      33.676  25.318  25.204  1.00  0.00    -0.457 OA
ATOM     18  C   UNL A   1      32.085  24.492  26.561  1.00  0.00     0.051 A 
BRANCH  15  19
ATOM     19  C   UNL A   1      35.348  23.469  25.320  1.00  0.00     0.063 C 
ATOM     20  C   UNL A   1      37.967  21.767  25.127  1.00  0.00     0.069 C 
ATOM     21  C   UNL A   1      36.562  21.272  25.062  1.00  0.00     0.071 C 
ATOM     22  N   UNL A   1      36.236  20.004  25.033  1.00  0.00    -0.169 NA
ATOM     23  C   UNL A   1      35.380  22.153  25.069  1.00  0.00     0.068 C 
ATOM     24  N   UNL A   1      34.851  19.975  24.898  1.00  0.00    -0.196 N 
ATOM     25  C   UNL A   1      34.234  21.230  24.869  1.00  0.00     0.280 C 
ATOM     26  O   UNL A   1      33.066  21.526  24.732  1.00  0.00    -0.267 OA
BRANCH  24  27
ATOM     27  C   UNL A   1      34.189  18.745  24.715  1.00  0.00     0.069 A 
ATOM     28  C   UNL A   1      34.780  17.718  23.975  1.00  0.00     0.028 A 
ATOM     29  C   UNL A   1      32.934  18.527  25.301  1.00  0.00     0.028 A 
ATOM     30  C   UNL A   1      34.143  16.477  23.863  1.00  0.00     0.002 A 
ATOM     31  C   UNL A   1      32.276  17.308  25.146  1.00  0.00     0.002 A 
ATOM     32  C   UNL A   1      32.888  16.277  24.439  1.00  0.00     0.000 A 
ENDBRANCH  24  27
ENDBRANCH  15  19
ENDBRANCH   8  14
ENDBRANCH   4   7
ENDBRANCH   2   3
ENDBRANCH   1   2
BRANCH   1  33
ATOM     33  C   UNL A   1      35.527  31.041  28.601  1.00  0.00     0.118 C 
BRANCH  33  34
ATOM     34  N   UNL A   1      35.504  30.960  30.058  1.00  0.00    -0.352 N 
ATOM     35  C   UNL A   1      36.463  30.558  30.958  1.00  0.00     0.251 C 
ATOM     36  H   UNL A   1      34.655  31.241  30.467  1.00  0.00     0.163 HD
ATOM     37  O   UNL A   1      36.144  30.397  32.134  1.00  0.00    -0.269 OA
BRANCH  35  38
ATOM     38  C   UNL A   1      37.855  30.292  30.528  1.00  0.00     0.039 A 
ATOM     39  C   UNL A   1      38.797  29.893  31.480  1.00  0.00     0.014 A 
ATOM     40  C   UNL A   1      38.248  30.454  29.199  1.00  0.00     0.014 A 
ATOM     41  C   UNL A   1      40.099  29.577  31.083  1.00  0.00     0.010 A 
ATOM     42  C   UNL A   1      39.507  30.032  28.787  1.00  0.00     0.010 A 
ATOM     43  C   UNL A   1      40.452  29.595  29.723  1.00  0.00    -0.014 A 
BRANCH  43  44
ATOM     44  C   UNL A   1      41.800  29.167  29.261  1.00  0.00     0.031 A 
ATOM     45  C   UNL A   1      42.928  30.162  29.186  1.00  0.00     0.074 A 
ATOM     46  C   UNL A   1      41.988  27.900  28.837  1.00  0.00     0.049 A 
ATOM     47  N   UNL A   1      44.145  29.998  28.735  1.00  0.00    -0.248 NA
ATOM     48  C   UNL A   1      42.642  31.531  29.648  1.00  0.00     0.031 C 
ATOM     49  C   UNL A   1      40.959  26.856  28.808  1.00  0.00     0.029 A 
ATOM     50  N   UNL A   1      43.104  27.275  28.340  1.00  0.00    -0.354 N 
ATOM     51  C   UNL A   1      44.761  31.241  28.844  1.00  0.00     0.074 A 
ATOM     52  C   UNL A   1      43.766  32.163  29.344  1.00  0.00     0.031 C 
ATOM     53  C   UNL A   1      41.500  25.717  28.348  1.00  0.00     0.029 A 
ATOM     54  C   UNL A   1      42.897  25.957  28.004  1.00  0.00     0.049 A 
ATOM     55  H   UNL A   1      43.972  27.728  28.235  1.00  0.00     0.167 HD
ATOM     56  C   UNL A   1      46.046  31.577  28.577  1.00  0.00     0.037 A 
ATOM     57  C   UNL A   1      43.735  25.047  27.468  1.00  0.00     0.037 A 
ATOM     58  C   UNL A   1      47.038  30.646  28.103  1.00  0.00     0.049 A 
ATOM     59  C   UNL A   1      45.156  25.446  27.173  1.00  0.00     0.074 A 
ATOM     60  C   UNL A   1      48.381  30.872  27.863  1.00  0.00     0.029 A 
ATOM     61  N   UNL A   1      46.794  29.317  27.792  1.00  0.00    -0.354 N 
ATOM     62  N   UNL A   1      45.739  26.607  27.351  1.00  0.00    -0.248 NA
ATOM     63  C   UNL A   1      46.033  24.410  26.612  1.00  0.00     0.031 C 
ATOM     64  C   UNL A   1      48.937  29.695  27.352  1.00  0.00     0.029 A 
ATOM     65  C   UNL A   1      47.955  28.716  27.335  1.00  0.00     0.049 A 
ATOM     66  H   UNL A   1      45.923  28.865  27.883  1.00  0.00     0.167 HD
ATOM     67  C   UNL A   1      47.060  26.434  26.951  1.00  0.00     0.074 A 
ATOM     68  C   UNL A   1      47.191  25.052  26.537  1.00  0.00     0.031 C 
ATOM     69  C   UNL A   1      48.072  27.336  26.931  1.00  0.00     0.037 A 
BRANCH  56  70
ATOM     70  C   UNL A   1      46.456  33.009  28.794  1.00  0.00     0.058 A 
ATOM     71  C   UNL A   1      46.969  33.455  30.024  1.00  0.00     0.135 A 
ATOM     72  C   UNL A   1      46.373  33.943  27.747  1.00  0.00     0.135 A 
ATOM     73  F   UNL A   1      47.058  32.612  31.065  1.00  0.00    -0.206 F 
ATOM     74  C   UNL A   1      47.355  34.778  30.216  1.00  0.00     0.059 A 
ATOM     75  C   UNL A   1      46.783  35.262  27.908  1.00  0.00     0.059 A 
ATOM     76  F   UNL A   1      45.890  33.574  26.550  1.00  0.00    -0.206 F 
ATOM     77  C   UNL A   1      47.259  35.674  29.151  1.00  0.00     0.060 A 
BRANCH  77  78
ATOM     78  S   UNL A   1      47.774  37.384  29.417  1.00  0.00     0.124 S 
ATOM     79  O   UNL A   1      48.937  37.477  28.540  1.00  0.00    -0.237 OA
ATOM     80  O   UNL A   1      46.597  38.133  28.989  1.00  0.00    -0.237 OA
ATOM     81  O   UNL A   1      48.061  37.437  30.847  1.00  0.00    -0.744 OA
ENDBRANCH  77  78
ENDBRANCH  56  70
BRANCH  57  82
ATOM     82  C   UNL A   1      43.256  23.664  27.193  1.00  0.00     0.058 A 
ATOM     83  C   UNL A   1      42.919  23.261  25.892  1.00  0.00     0.135 A 
ATOM     84  C   UNL A   1      43.137  22.715  28.220  1.00  0.00     0.135 A 
ATOM     85  F   UNL A   1      43.010  24.133  24.876  1.00  0.00    -0.206 F 
ATOM     86  C   UNL A   1      42.463  21.975  25.620  1.00  0.00     0.059 A 
ATOM     87  C   UNL A   1      42.711  21.413  27.969  1.00  0.00     0.059 A 
ATOM     88  F   UNL A   1      43.462  23.042  29.480  1.00  0.00    -0.206 F 
ATOM     89  C   UNL A   1      42.365  21.057  26.667  1.00  0.00     0.060 A 
BRANCH  89  90
ATOM     90  S   UNL A   1      41.817  19.377  26.295  1.00  0.00     0.124 S 
ATOM     91  O   UNL A   1      42.544  19.096  25.062  1.00  0.00    -0.237 OA
ATOM     92  O   UNL A   1      42.257  18.644  27.478  1.00  0.00    -0.237 OA
ATOM     93  O   UNL A   1      40.371  19.518  26.157  1.00  0.00    -0.744 OA
ENDBRANCH  89  90
ENDBRANCH  57  82
BRANCH  69  94
ATOM     94  C   UNL A   1      49.425  26.853  26.481  1.00  0.00     0.058 A 
ATOM     95  C   UNL A   1      50.347  26.287  27.375  1.00  0.00     0.135 A 
ATOM     96  C   UNL A   1      49.781  26.910  25.122  1.00  0.00     0.135 A 
ATOM     97  F   UNL A   1      50.060  26.213  28.684  1.00  0.00    -0.206 F 
ATOM     98  C   UNL A   1      51.584  25.819  26.944  1.00  0.00     0.059 A 
ATOM     99  C   UNL A   1      50.999  26.419  24.664  1.00  0.00     0.059 A 
ATOM    100  F   UNL A   1      48.933  27.433  24.221  1.00  0.00    -0.206 F 
ATOM    101  C   UNL A   1      51.899  25.886  25.586  1.00  0.00     0.060 A 
BRANCH 101 102
ATOM    102  S   UNL A   1      53.494  25.244  25.036  1.00  0.00     0.124 S 
ATOM    103  O   UNL A   1      53.553  25.737  23.664  1.00  0.00    -0.237 OA
ATOM    104  O   UNL A   1      54.422  25.869  25.974  1.00  0.00    -0.237 OA
ATOM    105  O   UNL A   1      53.347  23.799  25.178  1.00  0.00    -0.744 OA
ENDBRANCH 101 102
ENDBRANCH  69  94
ENDBRANCH  43  44
ENDBRANCH  35  38
ENDBRANCH  33  34
ENDBRANCH   1  33
TORSDOF 16
ENDMDL
MODEL 3
REMARK VINA RESULT:     -12.9      1.000      1.963
REMARK SMILES CC1=NN(c2ccccc2)C(=O)/C1=C\c1ccc(-c2cc(C(=O)NCCCNC(=O)c3ccc(-c4c5nc(c(-c6c(F)cc(S(=O)(=O)[O-])cc6F)c6ccc([nH]6)c(-c6c(F)cc(S(=O)(=O)[O-])cc6F)c6nc(c(-c7c(F)cc(S(=O)(=O)[O-])cc7F)c7ccc4[nH]7)C=C6)C=C5)cc3)ccc2Cl)o1
REMARK SMILES IDX 26 1 25 2 24 3 22 4 23 5 21 7 19 8 20 9 99 10 98 11 100 12
REMARK SMILES IDX 97 13 18 14 15 15 16 16 101 17 17 18 14 19 1 20 2 21 3 22
REMARK SMILES IDX 13 23 4 24 11 25 12 26 5 27 6 28 10 29 7 30 9 31 8 32 27 33
REMARK SMILES IDX 28 34 29 35 30 37 31 38 32 39 96 40 33 41 95 42 34 43 35 44
REMARK SMILES IDX 36 45 89 46 37 47 94 48 88 49 90 50 38 51 93 52 87 53 86 54
REMARK SMILES IDX 39 56 73 57 52 58 72 59 53 60 56 61 71 62 91 63 54 64 55 65
REMARK SMILES IDX 70 67 92 68 57 69 40 70 41 71 50 72 42 73 43 74 49 75 51 76
REMARK SMILES IDX 44 77 45 78 46 79 47 80 48 81 74 82 75 83 84 84 76 85 77 86
REMARK SMILES IDX 83 87 85 88 78 89 79 90 80 91 81 92 82 93 58 94 59 95 68 96
REMARK SMILES IDX 60 97 61 98 67 99 69 100 62 101 63 102 64 103 65 104 66 105
REMARK H PARENT 24 6 28 36 90 55 56 66
REMARK Flexibility Score: inf
ROOT
ATOM      1  C   UNL A   1      34.933  29.481  27.711  1.00  0.00     0.042 C 
ENDROOT
BRANCH   1   2
ATOM      2  C   UNL A   1      33.547  29.485  27.092  1.00  0.00     0.118 C 
BRANCH   2   3
ATOM      3  N   UNL A   1      32.839  30.756  27.208  1.00  0.00    -0.352 N 
ATOM      4  C   UNL A   1      31.786  31.301  26.506  1.00  0.00     0.251 C 
ATOM      5  O   UNL A   1      31.404  32.431  26.805  1.00  0.00    -0.269 OA
ATOM      6  H   UNL A   1      33.180  31.336  27.926  1.00  0.00     0.163 HD
BRANCH   4   7
ATOM      7  C   UNL A   1      31.127  30.586  25.380  1.00  0.00     0.040 A 
ATOM      8  C   UNL A   1      30.896  28.557  24.039  1.00  0.00     0.037 A 
ATOM      9  C   UNL A   1      31.550  29.285  25.051  1.00  0.00     0.027 A 
ATOM     10  C   UNL A   1      29.746  29.116  23.448  1.00  0.00     0.052 A 
ATOM     11  C   UNL A   1      29.392  30.437  23.704  1.00  0.00     0.022 A 
ATOM     12  Cl  UNL A   1      28.710  28.236  22.374  1.00  0.00    -0.084 Cl
ATOM     13  C   UNL A   1      30.138  31.190  24.604  1.00  0.00     0.015 A 
BRANCH   8  14
ATOM     14  C   UNL A   1      31.485  27.341  23.490  1.00  0.00     0.136 A 
ATOM     15  C   UNL A   1      31.900  25.166  23.377  1.00  0.00     0.128 A 
ATOM     16  C   UNL A   1      32.582  25.787  22.335  1.00  0.00     0.051 A 
ATOM     17  O   UNL A   1      31.193  26.136  24.063  1.00  0.00    -0.457 OA
ATOM     18  C   UNL A   1      32.368  27.167  22.446  1.00  0.00     0.051 A 
BRANCH  15  19
ATOM     19  C   UNL A   1      31.909  23.776  23.680  1.00  0.00     0.063 C 
ATOM     20  C   UNL A   1      32.379  20.686  23.847  1.00  0.00     0.069 C 
ATOM     21  C   UNL A   1      33.347  21.767  24.195  1.00  0.00     0.071 C 
ATOM     22  N   UNL A   1      34.599  21.550  24.511  1.00  0.00    -0.169 NA
ATOM     23  C   UNL A   1      33.015  23.203  24.175  1.00  0.00     0.068 C 
ATOM     24  N   UNL A   1      35.126  22.798  24.833  1.00  0.00    -0.196 N 
ATOM     25  C   UNL A   1      34.234  23.868  24.700  1.00  0.00     0.280 C 
ATOM     26  O   UNL A   1      34.387  25.049  24.932  1.00  0.00    -0.267 OA
BRANCH  24  27
ATOM     27  C   UNL A   1      36.437  22.897  25.337  1.00  0.00     0.069 A 
ATOM     28  C   UNL A   1      36.879  24.070  25.956  1.00  0.00     0.028 A 
ATOM     29  C   UNL A   1      37.311  21.803  25.248  1.00  0.00     0.028 A 
ATOM     30  C   UNL A   1      38.160  24.128  26.517  1.00  0.00     0.002 A 
ATOM     31  C   UNL A   1      38.605  21.880  25.761  1.00  0.00     0.002 A 
ATOM     32  C   UNL A   1      39.024  23.038  26.409  1.00  0.00     0.000 A 
ENDBRANCH  24  27
ENDBRANCH  15  19
ENDBRANCH   8  14
ENDBRANCH   4   7
ENDBRANCH   2   3
ENDBRANCH   1   2
BRANCH   1  33
ATOM     33  C   UNL A   1      35.468  30.854  28.077  1.00  0.00     0.118 C 
BRANCH  33  34
ATOM     34  N   UNL A   1      35.538  31.074  29.518  1.00  0.00    -0.352 N 
ATOM     35  C   UNL A   1      36.491  30.719  30.444  1.00  0.00     0.251 C 
ATOM     36  H   UNL A   1      34.769  31.561  29.891  1.00  0.00     0.163 HD
ATOM     37  O   UNL A   1      36.237  30.851  31.638  1.00  0.00    -0.269 OA
BRANCH  35  38
ATOM     38  C   UNL A   1      37.795  30.158  30.024  1.00  0.00     0.039 A 
ATOM     39  C   UNL A   1      38.138  30.173  28.668  1.00  0.00     0.014 A 
ATOM     40  C   UNL A   1      38.676  29.595  30.949  1.00  0.00     0.014 A 
ATOM     41  C   UNL A   1      39.391  29.706  28.261  1.00  0.00     0.010 A 
ATOM     42  C   UNL A   1      39.962  29.238  30.560  1.00  0.00     0.010 A 
ATOM     43  C   UNL A   1      40.335  29.281  29.210  1.00  0.00    -0.014 A 
BRANCH  43  44
ATOM     44  C   UNL A   1      41.710  28.874  28.815  1.00  0.00     0.031 A 
ATOM     45  C   UNL A   1      42.817  29.894  28.762  1.00  0.00     0.074 A 
ATOM     46  C   UNL A   1      41.945  27.602  28.434  1.00  0.00     0.049 A 
ATOM     47  N   UNL A   1      44.056  29.749  28.367  1.00  0.00    -0.248 NA
ATOM     48  C   UNL A   1      42.481  31.267  29.175  1.00  0.00     0.031 C 
ATOM     49  C   UNL A   1      40.943  26.533  28.389  1.00  0.00     0.029 A 
ATOM     50  N   UNL A   1      43.096  26.992  28.001  1.00  0.00    -0.354 N 
ATOM     51  C   UNL A   1      44.638  31.008  28.469  1.00  0.00     0.074 A 
ATOM     52  C   UNL A   1      43.602  31.918  28.902  1.00  0.00     0.031 C 
ATOM     53  C   UNL A   1      41.529  25.396  27.982  1.00  0.00     0.029 A 
ATOM     54  C   UNL A   1      42.933  25.661  27.690  1.00  0.00     0.049 A 
ATOM     55  H   UNL A   1      43.957  27.462  27.920  1.00  0.00     0.167 HD
ATOM     56  C   UNL A   1      45.925  31.368  28.246  1.00  0.00     0.037 A 
ATOM     57  C   UNL A   1      43.814  24.758  27.215  1.00  0.00     0.037 A 
ATOM     58  C   UNL A   1      46.957  30.450  27.840  1.00  0.00     0.049 A 
ATOM     59  C   UNL A   1      45.237  25.183  26.969  1.00  0.00     0.074 A 
ATOM     60  C   UNL A   1      48.304  30.701  27.649  1.00  0.00     0.029 A 
ATOM     61  N   UNL A   1      46.758  29.107  27.553  1.00  0.00    -0.354 N 
ATOM     62  N   UNL A   1      45.785  26.363  27.140  1.00  0.00    -0.248 NA
ATOM     63  C   UNL A   1      46.161  24.156  26.472  1.00  0.00     0.031 C 
ATOM     64  C   UNL A   1      48.908  29.525  27.194  1.00  0.00     0.029 A 
ATOM     65  C   UNL A   1      47.950  28.523  27.162  1.00  0.00     0.049 A 
ATOM     66  H   UNL A   1      45.894  28.637  27.620  1.00  0.00     0.167 HD
ATOM     67  C   UNL A   1      47.126  26.212  26.800  1.00  0.00     0.074 A 
ATOM     68  C   UNL A   1      47.305  24.823  26.429  1.00  0.00     0.031 C 
ATOM     69  C   UNL A   1      48.116  27.137  26.799  1.00  0.00     0.037 A 
BRANCH  56  70
ATOM     70  C   UNL A   1      46.293  32.815  28.442  1.00  0.00     0.058 A 
ATOM     71  C   UNL A   1      46.210  33.748  27.395  1.00  0.00     0.135 A 
ATOM     72  C   UNL A   1      46.696  33.285  29.703  1.00  0.00     0.135 A 
ATOM     73  F   UNL A   1      45.844  33.355  26.165  1.00  0.00    -0.206 F 
ATOM     74  C   UNL A   1      46.543  35.086  27.584  1.00  0.00     0.059 A 
ATOM     75  C   UNL A   1      47.002  34.625  29.922  1.00  0.00     0.059 A 
ATOM     76  F   UNL A   1      46.795  32.439  30.740  1.00  0.00    -0.206 F 
ATOM     77  C   UNL A   1      46.937  35.515  28.851  1.00  0.00     0.060 A 
BRANCH  77  78
ATOM     78  S   UNL A   1      47.355  37.257  29.079  1.00  0.00     0.124 S 
ATOM     79  O   UNL A   1      46.558  37.887  28.031  1.00  0.00    -0.237 OA
ATOM     80  O   UNL A   1      46.911  37.506  30.447  1.00  0.00    -0.237 OA
ATOM     81  O   UNL A   1      48.799  37.291  28.876  1.00  0.00    -0.744 OA
ENDBRANCH  77  78
ENDBRANCH  56  70
BRANCH  57  82
ATOM     82  C   UNL A   1      43.379  23.358  26.956  1.00  0.00     0.058 A 
ATOM     83  C   UNL A   1      43.124  22.909  25.651  1.00  0.00     0.135 A 
ATOM     84  C   UNL A   1      43.222  22.437  28.004  1.00  0.00     0.135 A 
ATOM     85  F   UNL A   1      43.254  23.752  24.616  1.00  0.00    -0.206 F 
ATOM     86  C   UNL A   1      42.709  21.606  25.395  1.00  0.00     0.059 A 
ATOM     87  C   UNL A   1      42.837  21.119  27.770  1.00  0.00     0.059 A 
ATOM     88  F   UNL A   1      43.470  22.808  29.270  1.00  0.00    -0.206 F 
ATOM     89  C   UNL A   1      42.572  20.717  26.462  1.00  0.00     0.060 A 
BRANCH  89  90
ATOM     90  S   UNL A   1      42.079  19.015  26.112  1.00  0.00     0.124 S 
ATOM     91  O   UNL A   1      40.677  19.183  25.751  1.00  0.00    -0.237 OA
ATOM     92  O   UNL A   1      42.982  18.654  25.023  1.00  0.00    -0.237 OA
ATOM     93  O   UNL A   1      42.329  18.327  27.375  1.00  0.00    -0.744 OA
ENDBRANCH  89  90
ENDBRANCH  57  82
BRANCH  69  94
ATOM     94  C   UNL A   1      49.498  26.675  26.419  1.00  0.00     0.058 A 
ATOM     95  C   UNL A   1      50.348  26.040  27.337  1.00  0.00     0.135 A 
ATOM     96  C   UNL A   1      49.956  26.825  25.098  1.00  0.00     0.135 A 
ATOM     97  F   UNL A   1      49.963  25.877  28.613  1.00  0.00    -0.206 F 
ATOM     98  C   UNL A   1      51.612  25.593  26.968  1.00  0.00     0.059 A 
ATOM     99  C   UNL A   1      51.203  26.356  24.700  1.00  0.00     0.059 A 
ATOM    100  F   UNL A   1      49.180  27.416  24.175  1.00  0.00    -0.206 F 
ATOM    101  C   UNL A   1      52.029  25.753  25.646  1.00  0.00     0.060 A 
BRANCH 101 102
ATOM    102  S   UNL A   1      53.660  25.138  25.174  1.00  0.00     0.124 S 
ATOM    103  O   UNL A   1      53.500  23.701  25.374  1.00  0.00    -0.237 OA
ATOM    104  O   UNL A   1      53.769  25.576  23.786  1.00  0.00    -0.237 OA
ATOM    105  O   UNL A   1      54.560  25.805  26.109  1.00  0.00    -0.744 OA
ENDBRANCH 101 102
ENDBRANCH  69  94
ENDBRANCH  43  44
ENDBRANCH  35  38
ENDBRANCH  33  34
ENDBRANCH   1  33
TORSDOF 16
ENDMDL
