MODEL 1
REMARK VINA RESULT:     -10.5      0.000      0.000
REMARK SMILES C[C@@H]([NH2+]CC(C)(C)S(C)(=O)=O)C(=O)NCCCNC(=O)c1ccc(-c2c3nc(c(-c4c(F)cc(S(=O)(=O)[O-])cc4F)c4ccc([nH]4)c(-c4c(F)cc(S(=O)(=O)[O-])cc4F)c4nc(c(-c5c(F)cc(S(=O)(=O)[O-])cc5F)c5ccc2[nH]5)C=C4)C=C3)cc1
REMARK SMILES IDX 15 1 14 2 12 3 13 4 2 6 1 7 3 8 4 11 5 12 6 13 7 14 8 15
REMARK SMILES IDX 9 16 10 17 11 18 16 19 17 20 18 21 19 22 20 24 21 25 22 26
REMARK SMILES IDX 86 27 23 28 85 29 24 30 25 31 26 32 79 33 27 34 84 35 78 36
REMARK SMILES IDX 80 37 28 38 83 39 77 40 76 41 29 43 63 44 42 45 62 46 43 47
REMARK SMILES IDX 46 48 61 49 81 50 44 51 45 52 60 54 82 55 47 56 30 57 31 58
REMARK SMILES IDX 40 59 32 60 33 61 39 62 41 63 34 64 35 65 36 66 37 67 38 68
REMARK SMILES IDX 64 69 65 70 74 71 66 72 67 73 73 74 75 75 68 76 69 77 70 78
REMARK SMILES IDX 71 79 72 80 48 81 49 82 58 83 50 84 51 85 57 86 59 87 52 88
REMARK SMILES IDX 53 89 54 90 55 91 56 92
REMARK H PARENT 14 5 3 9 3 10 18 23 80 42 46 53
REMARK Flexibility Score: inf
ROOT
ATOM      1  C   UNL A   1      36.226  23.415  25.744  1.00  0.00     0.118 C 
ENDROOT
BRANCH   1   2
ATOM      2  N   UNL A   1      35.467  22.532  26.606  1.00  0.00    -0.351 N 
ATOM      3  C   UNL A   1      34.512  21.619  26.282  1.00  0.00     0.277 C 
ATOM      4  O   UNL A   1      33.854  21.141  27.211  1.00  0.00    -0.268 OA
ATOM      5  H   UNL A   1      35.672  22.603  27.567  1.00  0.00     0.163 HD
BRANCH   3   6
ATOM      6  C   UNL A   1      34.324  21.121  24.837  1.00  0.00     0.269 C 
ATOM      7  C   UNL A   1      34.236  19.601  24.743  1.00  0.00     0.086 C 
BRANCH   6   8
ATOM      8  N   UNL A   1      33.173  21.771  24.177  1.00  0.00    -0.335 N 
ATOM      9  H   UNL A   1      32.436  21.882  24.874  1.00  0.00     0.347 HD
ATOM     10  H   UNL A   1      32.927  21.160  23.398  1.00  0.00     0.347 HD
BRANCH   8  11
ATOM     11  C   UNL A   1      33.423  23.088  23.575  1.00  0.00     0.283 C 
BRANCH  11  12
ATOM     12  C   UNL A   1      32.371  24.235  23.628  1.00  0.00     0.115 C 
ATOM     13  C   UNL A   1      32.587  25.231  22.475  1.00  0.00     0.034 C 
ATOM     14  C   UNL A   1      30.974  23.590  23.459  1.00  0.00     0.034 C 
BRANCH  12  15
ATOM     15  S   UNL A   1      32.331  25.186  25.204  1.00  0.00     0.158 S 
ATOM     16  C   UNL A   1      33.641  26.392  25.134  1.00  0.00     0.159 C 
ATOM     17  O   UNL A   1      31.064  25.889  25.295  1.00  0.00    -0.228 OA
ATOM     18  O   UNL A   1      32.683  24.273  26.278  1.00  0.00    -0.228 OA
ENDBRANCH  12  15
ENDBRANCH  11  12
ENDBRANCH   8  11
ENDBRANCH   6   8
ENDBRANCH   3   6
ENDBRANCH   1   2
BRANCH   1  19
ATOM     19  C   UNL A   1      37.705  23.045  25.791  1.00  0.00     0.042 C 
BRANCH  19  20
ATOM     20  C   UNL A   1      38.566  24.123  26.438  1.00  0.00     0.118 C 
BRANCH  20  21
ATOM     21  N   UNL A   1      39.987  23.903  26.204  1.00  0.00    -0.352 N 
ATOM     22  C   UNL A   1      41.057  24.671  26.594  1.00  0.00     0.251 C 
ATOM     23  H   UNL A   1      40.212  23.090  25.696  1.00  0.00     0.163 HD
ATOM     24  O   UNL A   1      42.166  24.465  26.110  1.00  0.00    -0.269 OA
BRANCH  22  25
ATOM     25  C   UNL A   1      40.856  25.750  27.581  1.00  0.00     0.039 A 
ATOM     26  C   UNL A   1      39.816  25.641  28.505  1.00  0.00     0.014 A 
ATOM     27  C   UNL A   1      41.703  26.862  27.596  1.00  0.00     0.014 A 
ATOM     28  C   UNL A   1      39.667  26.621  29.489  1.00  0.00     0.010 A 
ATOM     29  C   UNL A   1      41.605  27.791  28.625  1.00  0.00     0.010 A 
ATOM     30  C   UNL A   1      40.582  27.683  29.579  1.00  0.00    -0.014 A 
BRANCH  30  31
ATOM     31  C   UNL A   1      40.489  28.695  30.661  1.00  0.00     0.031 A 
ATOM     32  C   UNL A   1      41.349  28.563  31.889  1.00  0.00     0.074 A 
ATOM     33  C   UNL A   1      39.580  29.686  30.570  1.00  0.00     0.049 A 
ATOM     34  N   UNL A   1      41.354  29.289  32.975  1.00  0.00    -0.248 NA
ATOM     35  C   UNL A   1      42.312  27.449  31.910  1.00  0.00     0.031 C 
ATOM     36  C   UNL A   1      38.657  29.887  29.451  1.00  0.00     0.029 A 
ATOM     37  N   UNL A   1      39.273  30.702  31.439  1.00  0.00    -0.354 N 
ATOM     38  C   UNL A   1      42.303  28.715  33.812  1.00  0.00     0.074 A 
ATOM     39  C   UNL A   1      42.815  27.546  33.131  1.00  0.00     0.031 C 
ATOM     40  C   UNL A   1      37.903  30.972  29.691  1.00  0.00     0.029 A 
ATOM     41  C   UNL A   1      38.256  31.517  30.999  1.00  0.00     0.049 A 
ATOM     42  H   UNL A   1      39.737  30.836  32.297  1.00  0.00     0.167 HD
ATOM     43  C   UNL A   1      42.727  29.136  35.028  1.00  0.00     0.037 A 
ATOM     44  C   UNL A   1      37.666  32.576  31.587  1.00  0.00     0.037 A 
ATOM     45  C   UNL A   1      42.227  30.314  35.687  1.00  0.00     0.049 A 
ATOM     46  C   UNL A   1      38.149  33.021  32.941  1.00  0.00     0.074 A 
ATOM     47  C   UNL A   1      42.631  30.862  36.891  1.00  0.00     0.029 A 
ATOM     48  N   UNL A   1      41.212  31.125  35.200  1.00  0.00    -0.354 N 
ATOM     49  N   UNL A   1      39.095  32.505  33.689  1.00  0.00    -0.248 NA
ATOM     50  C   UNL A   1      37.489  34.195  33.529  1.00  0.00     0.031 C 
ATOM     51  C   UNL A   1      41.828  31.976  37.157  1.00  0.00     0.029 A 
ATOM     52  C   UNL A   1      40.960  32.155  36.090  1.00  0.00     0.049 A 
ATOM     53  H   UNL A   1      40.740  30.989  34.346  1.00  0.00     0.167 HD
ATOM     54  C   UNL A   1      39.163  33.307  34.823  1.00  0.00     0.074 A 
ATOM     55  C   UNL A   1      38.170  34.349  34.657  1.00  0.00     0.031 C 
ATOM     56  C   UNL A   1      39.973  33.191  35.904  1.00  0.00     0.037 A 
BRANCH  43  57
ATOM     57  C   UNL A   1      43.784  28.321  35.721  1.00  0.00     0.058 A 
ATOM     58  C   UNL A   1      45.152  28.555  35.510  1.00  0.00     0.135 A 
ATOM     59  C   UNL A   1      43.427  27.316  36.635  1.00  0.00     0.135 A 
ATOM     60  F   UNL A   1      45.552  29.492  34.636  1.00  0.00    -0.206 F 
ATOM     61  C   UNL A   1      46.128  27.803  36.157  1.00  0.00     0.059 A 
ATOM     62  C   UNL A   1      44.386  26.572  37.316  1.00  0.00     0.059 A 
ATOM     63  F   UNL A   1      42.133  27.049  36.875  1.00  0.00    -0.206 F 
ATOM     64  C   UNL A   1      45.735  26.813  37.059  1.00  0.00     0.060 A 
BRANCH  64  65
ATOM     65  S   UNL A   1      47.014  25.852  37.894  1.00  0.00     0.124 S 
ATOM     66  O   UNL A   1      47.001  24.616  37.118  1.00  0.00    -0.237 OA
ATOM     67  O   UNL A   1      48.195  26.692  37.726  1.00  0.00    -0.237 OA
ATOM     68  O   UNL A   1      46.518  25.739  39.262  1.00  0.00    -0.744 OA
ENDBRANCH  64  65
ENDBRANCH  43  57
BRANCH  44  69
ATOM     69  C   UNL A   1      36.568  33.297  30.890  1.00  0.00     0.058 A 
ATOM     70  C   UNL A   1      35.238  33.177  31.320  1.00  0.00     0.135 A 
ATOM     71  C   UNL A   1      36.825  34.132  29.791  1.00  0.00     0.135 A 
ATOM     72  F   UNL A   1      34.940  32.387  32.363  1.00  0.00    -0.206 F 
ATOM     73  C   UNL A   1      34.200  33.845  30.679  1.00  0.00     0.059 A 
ATOM     74  C   UNL A   1      35.808  34.832  29.149  1.00  0.00     0.059 A 
ATOM     75  F   UNL A   1      38.082  34.296  29.350  1.00  0.00    -0.206 F 
ATOM     76  C   UNL A   1      34.496  34.674  29.594  1.00  0.00     0.060 A 
BRANCH  76  77
ATOM     77  S   UNL A   1      33.148  35.573  28.800  1.00  0.00     0.124 S 
ATOM     78  O   UNL A   1      32.395  36.054  29.953  1.00  0.00    -0.237 OA
ATOM     79  O   UNL A   1      33.866  36.591  28.037  1.00  0.00    -0.237 OA
ATOM     80  O   UNL A   1      32.488  34.549  27.997  1.00  0.00    -0.744 OA
ENDBRANCH  76  77
ENDBRANCH  44  69
BRANCH  56  81
ATOM     81  C   UNL A   1      39.850  34.235  36.979  1.00  0.00     0.058 A 
ATOM     82  C   UNL A   1      40.493  35.479  36.878  1.00  0.00     0.135 A 
ATOM     83  C   UNL A   1      39.028  34.011  38.095  1.00  0.00     0.135 A 
ATOM     84  F   UNL A   1      41.296  35.742  35.835  1.00  0.00    -0.206 F 
ATOM     85  C   UNL A   1      40.339  36.457  37.855  1.00  0.00     0.059 A 
ATOM     86  C   UNL A   1      38.836  34.984  39.070  1.00  0.00     0.059 A 
ATOM     87  F   UNL A   1      38.383  32.841  38.236  1.00  0.00    -0.206 F 
ATOM     88  C   UNL A   1      39.505  36.201  38.945  1.00  0.00     0.060 A 
BRANCH  88  89
ATOM     89  S   UNL A   1      39.280  37.496  40.184  1.00  0.00     0.124 S 
ATOM     90  O   UNL A   1      38.920  36.715  41.363  1.00  0.00    -0.237 OA
ATOM     91  O   UNL A   1      40.596  38.127  40.218  1.00  0.00    -0.237 OA
ATOM     92  O   UNL A   1      38.211  38.319  39.626  1.00  0.00    -0.744 OA
ENDBRANCH  88  89
ENDBRANCH  56  81
ENDBRANCH  30  31
ENDBRANCH  22  25
ENDBRANCH  20  21
ENDBRANCH  19  20
ENDBRANCH   1  19
TORSDOF 17
ENDMDL
MODEL 2
REMARK VINA RESULT:     -10.4      7.113     12.519
REMARK SMILES C[C@@H]([NH2+]CC(C)(C)S(C)(=O)=O)C(=O)NCCCNC(=O)c1ccc(-c2c3nc(c(-c4c(F)cc(S(=O)(=O)[O-])cc4F)c4ccc([nH]4)c(-c4c(F)cc(S(=O)(=O)[O-])cc4F)c4nc(c(-c5c(F)cc(S(=O)(=O)[O-])cc5F)c5ccc2[nH]5)C=C4)C=C3)cc1
REMARK SMILES IDX 15 1 14 2 12 3 13 4 2 6 1 7 3 8 4 11 5 12 6 13 7 14 8 15
REMARK SMILES IDX 9 16 10 17 11 18 16 19 17 20 18 21 19 22 20 24 21 25 22 26
REMARK SMILES IDX 86 27 23 28 85 29 24 30 25 31 26 32 79 33 27 34 84 35 78 36
REMARK SMILES IDX 80 37 28 38 83 39 77 40 76 41 29 43 63 44 42 45 62 46 43 47
REMARK SMILES IDX 46 48 61 49 81 50 44 51 45 52 60 54 82 55 47 56 30 57 31 58
REMARK SMILES IDX 40 59 32 60 33 61 39 62 41 63 34 64 35 65 36 66 37 67 38 68
REMARK SMILES IDX 64 69 65 70 74 71 66 72 67 73 73 74 75 75 68 76 69 77 70 78
REMARK SMILES IDX 71 79 72 80 48 81 49 82 58 83 50 84 51 85 57 86 59 87 52 88
REMARK SMILES IDX 53 89 54 90 55 91 56 92
REMARK H PARENT 14 5 3 9 3 10 18 23 80 42 46 53
REMARK Flexibility Score: inf
ROOT
ATOM      1  C   UNL A   1      34.650  30.502  27.328  1.00  0.00     0.118 C 
ENDROOT
BRANCH   1   2
ATOM      2  N   UNL A   1      33.313  31.052  27.425  1.00  0.00    -0.351 N 
ATOM      3  C   UNL A   1      32.236  30.853  26.618  1.00  0.00     0.277 C 
ATOM      4  O   UNL A   1      31.267  31.601  26.781  1.00  0.00    -0.268 OA
ATOM      5  H   UNL A   1      33.162  31.657  28.187  1.00  0.00     0.163 HD
BRANCH   3   6
ATOM      6  C   UNL A   1      32.179  29.686  25.615  1.00  0.00     0.269 C 
ATOM      7  C   UNL A   1      31.601  28.412  26.224  1.00  0.00     0.086 C 
BRANCH   6   8
ATOM      8  N   UNL A   1      31.471  30.061  24.374  1.00  0.00    -0.335 N 
ATOM      9  H   UNL A   1      32.139  30.001  23.604  1.00  0.00     0.347 HD
ATOM     10  H   UNL A   1      31.107  30.999  24.542  1.00  0.00     0.347 HD
BRANCH   8  11
ATOM     11  C   UNL A   1      30.302  29.246  24.017  1.00  0.00     0.283 C 
BRANCH  11  12
ATOM     12  C   UNL A   1      29.238  29.730  22.988  1.00  0.00     0.115 C 
ATOM     13  C   UNL A   1      29.840  29.816  21.575  1.00  0.00     0.034 C 
ATOM     14  C   UNL A   1      28.099  28.681  22.970  1.00  0.00     0.034 C 
BRANCH  12  15
ATOM     15  S   UNL A   1      28.460  31.353  23.377  1.00  0.00     0.158 S 
ATOM     16  C   UNL A   1      28.404  32.295  21.865  1.00  0.00     0.159 C 
ATOM     17  O   UNL A   1      27.098  31.124  23.826  1.00  0.00    -0.228 OA
ATOM     18  O   UNL A   1      29.358  32.071  24.264  1.00  0.00    -0.228 OA
ENDBRANCH  12  15
ENDBRANCH  11  12
ENDBRANCH   8  11
ENDBRANCH   6   8
ENDBRANCH   3   6
ENDBRANCH   1   2
BRANCH   1  19
ATOM     19  C   UNL A   1      35.529  31.068  28.438  1.00  0.00     0.042 C 
BRANCH  19  20
ATOM     20  C   UNL A   1      35.873  30.037  29.507  1.00  0.00     0.118 C 
BRANCH  20  21
ATOM     21  N   UNL A   1      35.950  30.630  30.835  1.00  0.00    -0.352 N 
ATOM     22  C   UNL A   1      37.030  30.732  31.676  1.00  0.00     0.251 C 
ATOM     23  H   UNL A   1      35.109  31.011  31.178  1.00  0.00     0.163 HD
ATOM     24  O   UNL A   1      36.864  31.046  32.850  1.00  0.00    -0.269 OA
BRANCH  22  25
ATOM     25  C   UNL A   1      38.383  30.443  31.159  1.00  0.00     0.039 A 
ATOM     26  C   UNL A   1      39.281  29.736  31.959  1.00  0.00     0.014 A 
ATOM     27  C   UNL A   1      38.755  30.864  29.878  1.00  0.00     0.014 A 
ATOM     28  C   UNL A   1      40.534  29.394  31.447  1.00  0.00     0.010 A 
ATOM     29  C   UNL A   1      39.968  30.451  29.342  1.00  0.00     0.010 A 
ATOM     30  C   UNL A   1      40.873  29.716  30.123  1.00  0.00    -0.014 A 
BRANCH  30  31
ATOM     31  C   UNL A   1      42.169  29.298  29.532  1.00  0.00     0.031 A 
ATOM     32  C   UNL A   1      43.289  30.295  29.393  1.00  0.00     0.074 A 
ATOM     33  C   UNL A   1      42.310  28.046  29.054  1.00  0.00     0.049 A 
ATOM     34  N   UNL A   1      44.458  30.150  28.829  1.00  0.00    -0.248 NA
ATOM     35  C   UNL A   1      43.050  31.643  29.937  1.00  0.00     0.031 C 
ATOM     36  C   UNL A   1      41.279  27.007  29.086  1.00  0.00     0.029 A 
ATOM     37  N   UNL A   1      43.373  27.438  28.434  1.00  0.00    -0.354 N 
ATOM     38  C   UNL A   1      45.086  31.385  28.935  1.00  0.00     0.074 A 
ATOM     39  C   UNL A   1      44.148  32.285  29.567  1.00  0.00     0.031 C 
ATOM     40  C   UNL A   1      41.766  25.885  28.532  1.00  0.00     0.029 A 
ATOM     41  C   UNL A   1      43.126  26.136  28.066  1.00  0.00     0.049 A 
ATOM     42  H   UNL A   1      44.232  27.891  28.269  1.00  0.00     0.167 HD
ATOM     43  C   UNL A   1      46.341  31.731  28.559  1.00  0.00     0.037 A 
ATOM     44  C   UNL A   1      43.903  25.249  27.414  1.00  0.00     0.037 A 
ATOM     45  C   UNL A   1      47.276  30.822  27.950  1.00  0.00     0.049 A 
ATOM     46  C   UNL A   1      45.290  25.659  27.001  1.00  0.00     0.074 A 
ATOM     47  C   UNL A   1      48.590  31.056  27.587  1.00  0.00     0.029 A 
ATOM     48  N   UNL A   1      46.996  29.506  27.612  1.00  0.00    -0.354 N 
ATOM     49  N   UNL A   1      45.893  26.813  27.169  1.00  0.00    -0.248 NA
ATOM     50  C   UNL A   1      46.106  24.648  26.314  1.00  0.00     0.031 C 
ATOM     51  C   UNL A   1      49.091  29.897  26.985  1.00  0.00     0.029 A 
ATOM     52  C   UNL A   1      48.106  28.922  27.023  1.00  0.00     0.049 A 
ATOM     53  H   UNL A   1      46.136  29.053  27.769  1.00  0.00     0.167 HD
ATOM     54  C   UNL A   1      47.167  26.657  26.634  1.00  0.00     0.074 A 
ATOM     55  C   UNL A   1      47.252  25.294  26.148  1.00  0.00     0.031 C 
ATOM     56  C   UNL A   1      48.176  27.560  26.553  1.00  0.00     0.037 A 
BRANCH  43  57
ATOM     57  C   UNL A   1      46.775  33.152  28.799  1.00  0.00     0.058 A 
ATOM     58  C   UNL A   1      46.591  34.153  27.831  1.00  0.00     0.135 A 
ATOM     59  C   UNL A   1      47.351  33.526  30.024  1.00  0.00     0.135 A 
ATOM     60  F   UNL A   1      46.060  33.850  26.636  1.00  0.00    -0.206 F 
ATOM     61  C   UNL A   1      46.989  35.466  28.057  1.00  0.00     0.059 A 
ATOM     62  C   UNL A   1      47.729  34.841  30.283  1.00  0.00     0.059 A 
ATOM     63  F   UNL A   1      47.551  32.611  30.985  1.00  0.00    -0.206 F 
ATOM     64  C   UNL A   1      47.557  35.801  29.288  1.00  0.00     0.060 A 
BRANCH  64  65
ATOM     65  S   UNL A   1      48.061  37.511  29.566  1.00  0.00     0.124 S 
ATOM     66  O   UNL A   1      47.022  37.976  30.480  1.00  0.00    -0.237 OA
ATOM     67  O   UNL A   1      49.391  37.355  30.146  1.00  0.00    -0.237 OA
ATOM     68  O   UNL A   1      48.028  38.098  28.229  1.00  0.00    -0.744 OA
ENDBRANCH  64  65
ENDBRANCH  43  57
BRANCH  44  69
ATOM     69  C   UNL A   1      43.392  23.881  27.131  1.00  0.00     0.058 A 
ATOM     70  C   UNL A   1      43.426  22.880  28.113  1.00  0.00     0.135 A 
ATOM     71  C   UNL A   1      42.847  23.550  25.880  1.00  0.00     0.135 A 
ATOM     72  F   UNL A   1      43.942  23.145  29.323  1.00  0.00    -0.206 F 
ATOM     73  C   UNL A   1      42.952  21.596  27.863  1.00  0.00     0.059 A 
ATOM     74  C   UNL A   1      42.343  22.281  25.614  1.00  0.00     0.059 A 
ATOM     75  F   UNL A   1      42.775  24.477  24.911  1.00  0.00    -0.206 F 
ATOM     76  C   UNL A   1      42.409  21.307  26.609  1.00  0.00     0.060 A 
BRANCH  76  77
ATOM     77  S   UNL A   1      41.754  19.651  26.311  1.00  0.00     0.124 S 
ATOM     78  O   UNL A   1      42.497  19.251  25.121  1.00  0.00    -0.237 OA
ATOM     79  O   UNL A   1      42.104  18.956  27.546  1.00  0.00    -0.237 OA
ATOM     80  O   UNL A   1      40.326  19.886  26.116  1.00  0.00    -0.744 OA
ENDBRANCH  76  77
ENDBRANCH  44  69
BRANCH  56  81
ATOM     81  C   UNL A   1      49.473  27.099  25.949  1.00  0.00     0.058 A 
ATOM     82  C   UNL A   1      49.750  27.259  24.583  1.00  0.00     0.135 A 
ATOM     83  C   UNL A   1      50.477  26.547  26.762  1.00  0.00     0.135 A 
ATOM     84  F   UNL A   1      48.823  27.774  23.761  1.00  0.00    -0.206 F 
ATOM     85  C   UNL A   1      50.971  26.870  24.039  1.00  0.00     0.059 A 
ATOM     86  C   UNL A   1      51.715  26.178  26.246  1.00  0.00     0.059 A 
ATOM     87  F   UNL A   1      50.266  26.381  28.078  1.00  0.00    -0.206 F 
ATOM     88  C   UNL A   1      51.948  26.334  24.880  1.00  0.00     0.060 A 
BRANCH  88  89
ATOM     89  S   UNL A   1      53.543  25.874  24.169  1.00  0.00     0.124 S 
ATOM     90  O   UNL A   1      53.238  25.869  22.742  1.00  0.00    -0.237 OA
ATOM     91  O   UNL A   1      54.412  26.953  24.629  1.00  0.00    -0.237 OA
ATOM     92  O   UNL A   1      53.813  24.566  24.758  1.00  0.00    -0.744 OA
ENDBRANCH  88  89
ENDBRANCH  56  81
ENDBRANCH  30  31
ENDBRANCH  22  25
ENDBRANCH  20  21
ENDBRANCH  19  20
ENDBRANCH   1  19
TORSDOF 17
ENDMDL
MODEL 3
REMARK VINA RESULT:     -10.3      1.208      2.189
REMARK SMILES C[C@@H]([NH2+]CC(C)(C)S(C)(=O)=O)C(=O)NCCCNC(=O)c1ccc(-c2c3nc(c(-c4c(F)cc(S(=O)(=O)[O-])cc4F)c4ccc([nH]4)c(-c4c(F)cc(S(=O)(=O)[O-])cc4F)c4nc(c(-c5c(F)cc(S(=O)(=O)[O-])cc5F)c5ccc2[nH]5)C=C4)C=C3)cc1
REMARK SMILES IDX 15 1 14 2 12 3 13 4 2 6 1 7 3 8 4 11 5 12 6 13 7 14 8 15
REMARK SMILES IDX 9 16 10 17 11 18 16 19 17 20 18 21 19 22 20 24 21 25 22 26
REMARK SMILES IDX 86 27 23 28 85 29 24 30 25 31 26 32 79 33 27 34 84 35 78 36
REMARK SMILES IDX 80 37 28 38 83 39 77 40 76 41 29 43 63 44 42 45 62 46 43 47
REMARK SMILES IDX 46 48 61 49 81 50 44 51 45 52 60 54 82 55 47 56 30 57 31 58
REMARK SMILES IDX 40 59 32 60 33 61 39 62 41 63 34 64 35 65 36 66 37 67 38 68
REMARK SMILES IDX 64 69 65 70 74 71 66 72 67 73 73 74 75 75 68 76 69 77 70 78
REMARK SMILES IDX 71 79 72 80 48 81 49 82 58 83 50 84 51 85 57 86 59 87 52 88
REMARK SMILES IDX 53 89 54 90 55 91 56 92
REMARK H PARENT 14 5 3 9 3 10 18 23 80 42 46 53
REMARK Flexibility Score: inf
ROOT
ATOM      1  C   UNL A   1      38.735  22.656  26.192  1.00  0.00     0.118 C 
ENDROOT
BRANCH   1   2
ATOM      2  N   UNL A   1      37.766  21.606  25.953  1.00  0.00    -0.351 N 
ATOM      3  C   UNL A   1      36.549  21.674  25.348  1.00  0.00     0.277 C 
ATOM      4  O   UNL A   1      35.812  20.690  25.455  1.00  0.00    -0.268 OA
ATOM      5  H   UNL A   1      38.026  20.712  26.274  1.00  0.00     0.163 HD
BRANCH   3   6
ATOM      6  C   UNL A   1      36.143  22.879  24.480  1.00  0.00     0.269 C 
ATOM      7  C   UNL A   1      36.741  22.825  23.077  1.00  0.00     0.086 C 
BRANCH   6   8
ATOM      8  N   UNL A   1      34.676  23.057  24.436  1.00  0.00    -0.335 N 
ATOM      9  H   UNL A   1      34.251  22.129  24.415  1.00  0.00     0.347 HD
ATOM     10  H   UNL A   1      34.496  23.622  23.606  1.00  0.00     0.347 HD
BRANCH   8  11
ATOM     11  C   UNL A   1      34.075  23.799  25.552  1.00  0.00     0.283 C 
BRANCH  11  12
ATOM     12  C   UNL A   1      32.796  23.298  26.286  1.00  0.00     0.115 C 
ATOM     13  C   UNL A   1      33.164  22.509  27.553  1.00  0.00     0.034 C 
ATOM     14  C   UNL A   1      31.984  24.547  26.708  1.00  0.00     0.034 C 
BRANCH  12  15
ATOM     15  S   UNL A   1      31.672  22.253  25.268  1.00  0.00     0.158 S 
ATOM     16  C   UNL A   1      31.184  23.217  23.850  1.00  0.00     0.159 C 
ATOM     17  O   UNL A   1      32.407  21.091  24.802  1.00  0.00    -0.228 OA
ATOM     18  O   UNL A   1      30.460  22.030  26.037  1.00  0.00    -0.228 OA
ENDBRANCH  12  15
ENDBRANCH  11  12
ENDBRANCH   8  11
ENDBRANCH   6   8
ENDBRANCH   3   6
ENDBRANCH   1   2
BRANCH   1  19
ATOM     19  C   UNL A   1      39.976  22.077  26.864  1.00  0.00     0.042 C 
BRANCH  19  20
ATOM     20  C   UNL A   1      40.955  23.151  27.326  1.00  0.00     0.118 C 
BRANCH  20  21
ATOM     21  N   UNL A   1      41.492  23.919  26.211  1.00  0.00    -0.352 N 
ATOM     22  C   UNL A   1      41.678  25.276  26.105  1.00  0.00     0.251 C 
ATOM     23  H   UNL A   1      41.759  23.392  25.423  1.00  0.00     0.163 HD
ATOM     24  O   UNL A   1      41.918  25.777  25.011  1.00  0.00    -0.269 OA
BRANCH  22  25
ATOM     25  C   UNL A   1      41.568  26.120  27.312  1.00  0.00     0.039 A 
ATOM     26  C   UNL A   1      42.513  27.124  27.527  1.00  0.00     0.014 A 
ATOM     27  C   UNL A   1      40.525  25.923  28.220  1.00  0.00     0.014 A 
ATOM     28  C   UNL A   1      42.372  27.975  28.625  1.00  0.00     0.010 A 
ATOM     29  C   UNL A   1      40.339  26.821  29.264  1.00  0.00     0.010 A 
ATOM     30  C   UNL A   1      41.264  27.853  29.481  1.00  0.00    -0.014 A 
BRANCH  30  31
ATOM     31  C   UNL A   1      41.052  28.793  30.611  1.00  0.00     0.031 A 
ATOM     32  C   UNL A   1      41.877  28.660  31.863  1.00  0.00     0.074 A 
ATOM     33  C   UNL A   1      40.070  29.712  30.537  1.00  0.00     0.049 A 
ATOM     34  N   UNL A   1      41.785  29.322  32.986  1.00  0.00    -0.248 NA
ATOM     35  C   UNL A   1      42.925  27.626  31.862  1.00  0.00     0.031 C 
ATOM     36  C   UNL A   1      39.174  29.903  29.395  1.00  0.00     0.029 A 
ATOM     37  N   UNL A   1      39.652  30.651  31.446  1.00  0.00    -0.354 N 
ATOM     38  C   UNL A   1      42.747  28.778  33.827  1.00  0.00     0.074 A 
ATOM     39  C   UNL A   1      43.376  27.693  33.106  1.00  0.00     0.031 C 
ATOM     40  C   UNL A   1      38.326  30.910  29.662  1.00  0.00     0.029 A 
ATOM     41  C   UNL A   1      38.588  31.407  31.010  1.00  0.00     0.049 A 
ATOM     42  H   UNL A   1      40.073  30.773  32.328  1.00  0.00     0.167 HD
ATOM     43  C   UNL A   1      43.092  29.163  35.079  1.00  0.00     0.037 A 
ATOM     44  C   UNL A   1      37.894  32.381  31.629  1.00  0.00     0.037 A 
ATOM     45  C   UNL A   1      42.476  30.259  35.780  1.00  0.00     0.049 A 
ATOM     46  C   UNL A   1      38.292  32.786  33.023  1.00  0.00     0.074 A 
ATOM     47  C   UNL A   1      42.792  30.768  37.027  1.00  0.00     0.029 A 
ATOM     48  N   UNL A   1      41.417  31.013  35.297  1.00  0.00    -0.354 N 
ATOM     49  N   UNL A   1      39.250  32.305  33.780  1.00  0.00    -0.248 NA
ATOM     50  C   UNL A   1      37.519  33.870  33.647  1.00  0.00     0.031 C 
ATOM     51  C   UNL A   1      41.893  31.799  37.319  1.00  0.00     0.029 A 
ATOM     52  C   UNL A   1      41.052  31.969  36.231  1.00  0.00     0.049 A 
ATOM     53  H   UNL A   1      40.988  30.888  34.420  1.00  0.00     0.167 HD
ATOM     54  C   UNL A   1      39.213  33.045  34.957  1.00  0.00     0.074 A 
ATOM     55  C   UNL A   1      38.146  34.014  34.807  1.00  0.00     0.031 C 
ATOM     56  C   UNL A   1      39.992  32.932  36.061  1.00  0.00     0.037 A 
BRANCH  43  57
ATOM     57  C   UNL A   1      44.187  28.396  35.770  1.00  0.00     0.058 A 
ATOM     58  C   UNL A   1      45.528  28.808  35.709  1.00  0.00     0.135 A 
ATOM     59  C   UNL A   1      43.889  27.254  36.531  1.00  0.00     0.135 A 
ATOM     60  F   UNL A   1      45.874  29.883  34.983  1.00  0.00    -0.206 F 
ATOM     61  C   UNL A   1      46.538  28.099  36.352  1.00  0.00     0.059 A 
ATOM     62  C   UNL A   1      44.879  26.547  37.208  1.00  0.00     0.059 A 
ATOM     63  F   UNL A   1      42.624  26.814  36.624  1.00  0.00    -0.206 F 
ATOM     64  C   UNL A   1      46.203  26.970  37.101  1.00  0.00     0.060 A 
BRANCH  64  65
ATOM     65  S   UNL A   1      47.525  26.067  37.934  1.00  0.00     0.124 S 
ATOM     66  O   UNL A   1      48.569  27.085  38.010  1.00  0.00    -0.237 OA
ATOM     67  O   UNL A   1      46.903  25.703  39.203  1.00  0.00    -0.237 OA
ATOM     68  O   UNL A   1      47.800  24.953  37.031  1.00  0.00    -0.744 OA
ENDBRANCH  64  65
ENDBRANCH  43  57
BRANCH  44  69
ATOM     69  C   UNL A   1      36.766  33.052  30.929  1.00  0.00     0.058 A 
ATOM     70  C   UNL A   1      37.003  33.996  29.919  1.00  0.00     0.135 A 
ATOM     71  C   UNL A   1      35.431  32.753  31.243  1.00  0.00     0.135 A 
ATOM     72  F   UNL A   1      38.262  34.320  29.586  1.00  0.00    -0.206 F 
ATOM     73  C   UNL A   1      35.959  34.632  29.255  1.00  0.00     0.059 A 
ATOM     74  C   UNL A   1      34.370  33.355  30.575  1.00  0.00     0.059 A 
ATOM     75  F   UNL A   1      35.150  31.843  32.190  1.00  0.00    -0.206 F 
ATOM     76  C   UNL A   1      34.643  34.302  29.589  1.00  0.00     0.060 A 
BRANCH  76  77
ATOM     77  S   UNL A   1      33.297  35.097  28.688  1.00  0.00     0.124 S 
ATOM     78  O   UNL A   1      32.481  35.620  29.779  1.00  0.00    -0.237 OA
ATOM     79  O   UNL A   1      34.008  36.092  27.890  1.00  0.00    -0.237 OA
ATOM     80  O   UNL A   1      32.708  34.000  27.928  1.00  0.00    -0.744 OA
ENDBRANCH  76  77
ENDBRANCH  44  69
BRANCH  56  81
ATOM     81  C   UNL A   1      39.747  33.902  37.184  1.00  0.00     0.058 A 
ATOM     82  C   UNL A   1      38.824  33.632  38.206  1.00  0.00     0.135 A 
ATOM     83  C   UNL A   1      40.494  35.089  37.271  1.00  0.00     0.135 A 
ATOM     84  F   UNL A   1      38.080  32.516  38.167  1.00  0.00    -0.206 F 
ATOM     85  C   UNL A   1      38.635  34.514  39.265  1.00  0.00     0.059 A 
ATOM     86  C   UNL A   1      40.343  35.971  38.336  1.00  0.00     0.059 A 
ATOM     87  F   UNL A   1      41.397  35.390  36.324  1.00  0.00    -0.206 F 
ATOM     88  C   UNL A   1      39.403  35.679  39.323  1.00  0.00     0.060 A 
BRANCH  88  89
ATOM     89  S   UNL A   1      39.178  36.793  40.726  1.00  0.00     0.124 S 
ATOM     90  O   UNL A   1      40.556  37.172  41.024  1.00  0.00    -0.237 OA
ATOM     91  O   UNL A   1      38.339  37.844  40.159  1.00  0.00    -0.237 OA
ATOM     92  O   UNL A   1      38.528  35.953  41.728  1.00  0.00    -0.744 OA
ENDBRANCH  88  89
ENDBRANCH  56  81
ENDBRANCH  30  31
ENDBRANCH  22  25
ENDBRANCH  20  21
ENDBRANCH  19  20
ENDBRANCH   1  19
TORSDOF 17
ENDMDL
