MODEL 1
REMARK VINA RESULT:      -9.7      0.000      0.000
REMARK SMILES CC[C@@H](Oc1cccc(/C=C2/SC(=O)N(c3cccc(OC)c3)C2=O)c1)C(=O)NCCCNC(=O)c1ccc(-c2c3nc(c(-c4c(F)cc(S(=O)(=O)[O-])cc4F)c4ccc([nH]4)c(-c4c(F)cc(S(=O)(=O)[O-])cc4F)c4nc(c(-c5c(F)cc(S(=O)(=O)[O-])cc5F)c5ccc2[nH]5)C=C4)C=C3)cc1
REMARK SMILES IDX 30 1 29 2 27 3 28 4 3 6 2 7 1 8 4 9 5 10 6 11 26 12 7 13
REMARK SMILES IDX 9 14 8 15 10 16 11 17 12 18 24 19 13 20 15 21 25 22 14 23
REMARK SMILES IDX 16 24 17 25 23 26 18 27 20 28 19 29 21 30 22 31 31 32 32 33
REMARK SMILES IDX 33 34 34 35 35 37 36 38 37 39 101 40 38 41 100 42 39 43
REMARK SMILES IDX 40 44 41 45 94 46 42 47 99 48 93 49 95 50 43 51 98 52 92 53
REMARK SMILES IDX 91 54 44 56 78 57 57 58 77 59 58 60 61 61 76 62 96 63 59 64
REMARK SMILES IDX 60 65 75 67 97 68 62 69 45 70 46 71 55 72 47 73 48 74 54 75
REMARK SMILES IDX 56 76 49 77 50 78 51 79 52 80 53 81 79 82 80 83 89 84 81 85
REMARK SMILES IDX 82 86 88 87 90 88 83 89 84 90 85 91 86 92 87 93 63 94 64 95
REMARK SMILES IDX 73 96 65 97 66 98 72 99 74 100 67 101 68 102 69 103 70 104
REMARK SMILES IDX 71 105
REMARK H PARENT 29 5 33 36 95 55 61 66
REMARK Flexibility Score: inf
ROOT
ATOM      1  C   UNL A   1      34.525  32.881  30.570  1.00  0.00     0.118 C 
ENDROOT
BRANCH   1   2
ATOM      2  N   UNL A   1      35.175  33.841  31.462  1.00  0.00    -0.353 N 
ATOM      3  C   UNL A   1      36.496  33.955  31.833  1.00  0.00     0.261 C 
ATOM      4  O   UNL A   1      36.820  34.932  32.518  1.00  0.00    -0.271 OA
ATOM      5  H   UNL A   1      34.572  34.510  31.860  1.00  0.00     0.163 HD
BRANCH   3   6
ATOM      6  C   UNL A   1      37.531  32.871  31.446  1.00  0.00     0.261 C 
BRANCH   6   7
ATOM      7  C   UNL A   1      37.879  33.136  29.963  1.00  0.00     0.052 C 
ATOM      8  C   UNL A   1      38.443  34.501  29.583  1.00  0.00     0.008 C 
ENDBRANCH   6   7
BRANCH   6   9
ATOM      9  O   UNL A   1      38.498  33.077  32.484  1.00  0.00    -0.481 OA
BRANCH   9  10
ATOM     10  C   UNL A   1      38.778  32.190  33.469  1.00  0.00     0.121 A 
ATOM     11  C   UNL A   1      37.705  31.834  34.289  1.00  0.00     0.046 A 
ATOM     12  C   UNL A   1      40.045  31.791  33.837  1.00  0.00     0.054 A 
ATOM     13  C   UNL A   1      37.914  31.134  35.485  1.00  0.00     0.004 A 
ATOM     14  C   UNL A   1      40.284  31.233  35.103  1.00  0.00    -0.021 A 
ATOM     15  C   UNL A   1      39.214  30.863  35.914  1.00  0.00     0.008 A 
BRANCH  14  16
ATOM     16  C   UNL A   1      41.657  31.340  35.611  1.00  0.00     0.029 C 
ATOM     17  C   UNL A   1      42.448  30.250  35.682  1.00  0.00     0.083 C 
ATOM     18  S   UNL A   1      43.881  30.179  36.625  1.00  0.00    -0.022 SA
ATOM     19  C   UNL A   1      42.156  28.890  35.119  1.00  0.00     0.272 C 
ATOM     20  C   UNL A   1      43.898  28.412  36.604  1.00  0.00     0.298 C 
ATOM     21  N   UNL A   1      42.963  27.933  35.715  1.00  0.00    -0.236 N 
ATOM     22  O   UNL A   1      41.292  28.699  34.275  1.00  0.00    -0.268 OA
ATOM     23  O   UNL A   1      44.685  27.793  37.308  1.00  0.00    -0.260 OA
BRANCH  21  24
ATOM     24  C   UNL A   1      42.776  26.536  35.447  1.00  0.00     0.057 A 
ATOM     25  C   UNL A   1      41.745  25.817  36.074  1.00  0.00     0.027 A 
ATOM     26  C   UNL A   1      43.647  25.830  34.597  1.00  0.00     0.073 A 
ATOM     27  C   UNL A   1      41.589  24.445  35.876  1.00  0.00     0.006 A 
ATOM     28  C   UNL A   1      43.531  24.442  34.443  1.00  0.00     0.120 A 
ATOM     29  C   UNL A   1      42.487  23.760  35.068  1.00  0.00     0.046 A 
BRANCH  28  30
ATOM     30  O   UNL A   1      44.386  23.640  33.738  1.00  0.00    -0.497 OA
ATOM     31  C   UNL A   1      44.661  24.018  32.394  1.00  0.00     0.278 C 
ENDBRANCH  28  30
ENDBRANCH  21  24
ENDBRANCH  14  16
ENDBRANCH   9  10
ENDBRANCH   6   9
ENDBRANCH   3   6
ENDBRANCH   1   2
BRANCH   1  32
ATOM     32  C   UNL A   1      34.143  33.466  29.209  1.00  0.00     0.042 C 
BRANCH  32  33
ATOM     33  C   UNL A   1      34.599  32.656  28.001  1.00  0.00     0.118 C 
BRANCH  33  34
ATOM     34  N   UNL A   1      33.979  31.344  27.932  1.00  0.00    -0.352 N 
ATOM     35  C   UNL A   1      34.526  30.084  27.940  1.00  0.00     0.251 C 
ATOM     36  H   UNL A   1      32.996  31.361  27.870  1.00  0.00     0.163 HD
ATOM     37  O   UNL A   1      33.792  29.127  27.690  1.00  0.00    -0.269 OA
BRANCH  35  38
ATOM     38  C   UNL A   1      35.965  29.844  28.224  1.00  0.00     0.039 A 
ATOM     39  C   UNL A   1      36.335  29.514  29.533  1.00  0.00     0.014 A 
ATOM     40  C   UNL A   1      36.958  30.003  27.255  1.00  0.00     0.014 A 
ATOM     41  C   UNL A   1      37.678  29.283  29.852  1.00  0.00     0.010 A 
ATOM     42  C   UNL A   1      38.289  29.699  27.556  1.00  0.00     0.010 A 
ATOM     43  C   UNL A   1      38.667  29.335  28.858  1.00  0.00    -0.014 A 
BRANCH  43  44
ATOM     44  C   UNL A   1      40.086  28.989  29.155  1.00  0.00     0.031 A 
ATOM     45  C   UNL A   1      41.036  30.028  29.691  1.00  0.00     0.074 A 
ATOM     46  C   UNL A   1      40.543  27.751  28.876  1.00  0.00     0.049 A 
ATOM     47  N   UNL A   1      42.320  29.929  29.929  1.00  0.00    -0.248 NA
ATOM     48  C   UNL A   1      40.474  31.355  29.993  1.00  0.00     0.031 C 
ATOM     49  C   UNL A   1      39.736  26.652  28.342  1.00  0.00     0.029 A 
ATOM     50  N   UNL A   1      41.803  27.211  28.976  1.00  0.00    -0.354 N 
ATOM     51  C   UNL A   1      42.718  31.170  30.410  1.00  0.00     0.074 A 
ATOM     52  C   UNL A   1      41.551  32.027  30.375  1.00  0.00     0.031 C 
ATOM     53  C   UNL A   1      40.522  25.584  28.133  1.00  0.00     0.029 A 
ATOM     54  C   UNL A   1      41.890  25.920  28.508  1.00  0.00     0.049 A 
ATOM     55  H   UNL A   1      42.571  27.702  29.348  1.00  0.00     0.167 HD
ATOM     56  C   UNL A   1      43.934  31.555  30.869  1.00  0.00     0.037 A 
ATOM     57  C   UNL A   1      42.949  25.098  28.386  1.00  0.00     0.037 A 
ATOM     58  C   UNL A   1      45.090  30.696  30.924  1.00  0.00     0.049 A 
ATOM     59  C   UNL A   1      44.298  25.558  28.867  1.00  0.00     0.074 A 
ATOM     60  C   UNL A   1      46.348  30.978  31.428  1.00  0.00     0.029 A 
ATOM     61  N   UNL A   1      45.133  29.390  30.458  1.00  0.00    -0.354 N 
ATOM     62  N   UNL A   1      44.635  26.714  29.383  1.00  0.00    -0.248 NA
ATOM     63  C   UNL A   1      45.403  24.593  28.773  1.00  0.00     0.031 C 
ATOM     64  C   UNL A   1      47.163  29.857  31.230  1.00  0.00     0.029 A 
ATOM     65  C   UNL A   1      46.401  28.862  30.642  1.00  0.00     0.049 A 
ATOM     66  H   UNL A   1      44.374  28.910  30.054  1.00  0.00     0.167 HD
ATOM     67  C   UNL A   1      45.983  26.604  29.710  1.00  0.00     0.074 A 
ATOM     68  C   UNL A   1      46.395  25.267  29.337  1.00  0.00     0.031 C 
ATOM     69  C   UNL A   1      46.801  27.526  30.275  1.00  0.00     0.037 A 
BRANCH  56  70
ATOM     70  C   UNL A   1      44.079  32.964  31.376  1.00  0.00     0.058 A 
ATOM     71  C   UNL A   1      44.195  34.051  30.493  1.00  0.00     0.135 A 
ATOM     72  C   UNL A   1      44.040  33.241  32.751  1.00  0.00     0.135 A 
ATOM     73  F   UNL A   1      44.249  33.843  29.168  1.00  0.00    -0.206 F 
ATOM     74  C   UNL A   1      44.287  35.359  30.957  1.00  0.00     0.059 A 
ATOM     75  C   UNL A   1      44.106  34.545  33.237  1.00  0.00     0.059 A 
ATOM     76  F   UNL A   1      43.929  32.241  33.639  1.00  0.00    -0.206 F 
ATOM     77  C   UNL A   1      44.240  35.596  32.332  1.00  0.00     0.060 A 
BRANCH  77  78
ATOM     78  S   UNL A   1      44.342  37.302  32.916  1.00  0.00     0.124 S 
ATOM     79  O   UNL A   1      45.771  37.432  33.186  1.00  0.00    -0.237 OA
ATOM     80  O   UNL A   1      43.845  38.055  31.768  1.00  0.00    -0.237 OA
ATOM     81  O   UNL A   1      43.478  37.311  34.091  1.00  0.00    -0.744 OA
ENDBRANCH  77  78
ENDBRANCH  56  70
BRANCH  57  82
ATOM     82  C   UNL A   1      42.774  23.743  27.799  1.00  0.00     0.058 A 
ATOM     83  C   UNL A   1      42.635  22.612  28.617  1.00  0.00     0.135 A 
ATOM     84  C   UNL A   1      42.745  23.551  26.408  1.00  0.00     0.135 A 
ATOM     85  F   UNL A   1      42.659  22.745  29.953  1.00  0.00    -0.206 F 
ATOM     86  C   UNL A   1      42.502  21.336  28.080  1.00  0.00     0.059 A 
ATOM     87  C   UNL A   1      42.590  22.288  25.847  1.00  0.00     0.059 A 
ATOM     88  F   UNL A   1      42.852  24.604  25.581  1.00  0.00    -0.206 F 
ATOM     89  C   UNL A   1      42.484  21.184  26.693  1.00  0.00     0.060 A 
BRANCH  89  90
ATOM     90  S   UNL A   1      42.294  19.524  26.008  1.00  0.00     0.124 S 
ATOM     91  O   UNL A   1      40.876  19.507  25.668  1.00  0.00    -0.237 OA
ATOM     92  O   UNL A   1      43.222  19.549  24.881  1.00  0.00    -0.237 OA
ATOM     93  O   UNL A   1      42.689  18.657  27.115  1.00  0.00    -0.744 OA
ENDBRANCH  89  90
ENDBRANCH  57  82
BRANCH  69  94
ATOM     94  C   UNL A   1      48.216  27.110  30.561  1.00  0.00     0.058 A 
ATOM     95  C   UNL A   1      49.256  27.356  29.650  1.00  0.00     0.135 A 
ATOM     96  C   UNL A   1      48.543  26.488  31.776  1.00  0.00     0.135 A 
ATOM     97  F   UNL A   1      48.996  27.941  28.470  1.00  0.00    -0.206 F 
ATOM     98  C   UNL A   1      50.566  26.975  29.924  1.00  0.00     0.059 A 
ATOM     99  C   UNL A   1      49.850  26.123  32.082  1.00  0.00     0.059 A 
ATOM    100  F   UNL A   1      47.588  26.238  32.686  1.00  0.00    -0.206 F 
ATOM    101  C   UNL A   1      50.853  26.359  31.143  1.00  0.00     0.060 A 
BRANCH 101 102
ATOM    102  S   UNL A   1      52.561  25.893  31.497  1.00  0.00     0.124 S 
ATOM    103  O   UNL A   1      52.394  24.545  32.031  1.00  0.00    -0.237 OA
ATOM    104  O   UNL A   1      53.190  25.981  30.183  1.00  0.00    -0.237 OA
ATOM    105  O   UNL A   1      52.994  26.901  32.460  1.00  0.00    -0.744 OA
ENDBRANCH 101 102
ENDBRANCH  69  94
ENDBRANCH  43  44
ENDBRANCH  35  38
ENDBRANCH  33  34
ENDBRANCH  32  33
ENDBRANCH   1  32
TORSDOF 19
ENDMDL
MODEL 2
REMARK VINA RESULT:      -9.3      4.137     11.555
REMARK SMILES CC[C@@H](Oc1cccc(/C=C2/SC(=O)N(c3cccc(OC)c3)C2=O)c1)C(=O)NCCCNC(=O)c1ccc(-c2c3nc(c(-c4c(F)cc(S(=O)(=O)[O-])cc4F)c4ccc([nH]4)c(-c4c(F)cc(S(=O)(=O)[O-])cc4F)c4nc(c(-c5c(F)cc(S(=O)(=O)[O-])cc5F)c5ccc2[nH]5)C=C4)C=C3)cc1
REMARK SMILES IDX 30 1 29 2 27 3 28 4 3 6 2 7 1 8 4 9 5 10 6 11 26 12 7 13
REMARK SMILES IDX 9 14 8 15 10 16 11 17 12 18 24 19 13 20 15 21 25 22 14 23
REMARK SMILES IDX 16 24 17 25 23 26 18 27 20 28 19 29 21 30 22 31 31 32 32 33
REMARK SMILES IDX 33 34 34 35 35 37 36 38 37 39 101 40 38 41 100 42 39 43
REMARK SMILES IDX 40 44 41 45 94 46 42 47 99 48 93 49 95 50 43 51 98 52 92 53
REMARK SMILES IDX 91 54 44 56 78 57 57 58 77 59 58 60 61 61 76 62 96 63 59 64
REMARK SMILES IDX 60 65 75 67 97 68 62 69 45 70 46 71 55 72 47 73 48 74 54 75
REMARK SMILES IDX 56 76 49 77 50 78 51 79 52 80 53 81 79 82 80 83 89 84 81 85
REMARK SMILES IDX 82 86 88 87 90 88 83 89 84 90 85 91 86 92 87 93 63 94 64 95
REMARK SMILES IDX 73 96 65 97 66 98 72 99 74 100 67 101 68 102 69 103 70 104
REMARK SMILES IDX 71 105
REMARK H PARENT 29 5 33 36 95 55 61 66
REMARK Flexibility Score: inf
ROOT
ATOM      1  C   UNL A   1      42.544  22.647  26.056  1.00  0.00     0.118 C 
ENDROOT
BRANCH   1   2
ATOM      2  N   UNL A   1      42.910  22.591  24.641  1.00  0.00    -0.353 N 
ATOM      3  C   UNL A   1      44.151  22.580  24.043  1.00  0.00     0.261 C 
ATOM      4  O   UNL A   1      44.199  22.412  22.820  1.00  0.00    -0.271 OA
ATOM      5  H   UNL A   1      42.148  22.558  24.018  1.00  0.00     0.163 HD
BRANCH   3   6
ATOM      6  C   UNL A   1      45.438  22.817  24.870  1.00  0.00     0.261 C 
BRANCH   6   7
ATOM      7  C   UNL A   1      46.431  21.720  24.421  1.00  0.00     0.052 C 
ATOM      8  C   UNL A   1      46.172  20.284  24.863  1.00  0.00     0.008 C 
ENDBRANCH   6   7
BRANCH   6   9
ATOM      9  O   UNL A   1      45.669  24.199  24.567  1.00  0.00    -0.481 OA
BRANCH   9  10
ATOM     10  C   UNL A   1      45.736  25.193  25.485  1.00  0.00     0.121 A 
ATOM     11  C   UNL A   1      44.684  26.111  25.465  1.00  0.00     0.046 A 
ATOM     12  C   UNL A   1      46.835  25.473  26.268  1.00  0.00     0.054 A 
ATOM     13  C   UNL A   1      44.763  27.313  26.180  1.00  0.00     0.004 A 
ATOM     14  C   UNL A   1      46.994  26.737  26.858  1.00  0.00    -0.021 A 
ATOM     15  C   UNL A   1      45.939  27.646  26.853  1.00  0.00     0.008 A 
BRANCH  14  16
ATOM     16  C   UNL A   1      48.369  27.127  27.197  1.00  0.00     0.029 C 
ATOM     17  C   UNL A   1      49.246  27.456  26.228  1.00  0.00     0.083 C 
ATOM     18  S   UNL A   1      50.945  27.516  26.467  1.00  0.00    -0.022 SA
ATOM     19  C   UNL A   1      48.943  27.655  24.771  1.00  0.00     0.272 C 
ATOM     20  C   UNL A   1      51.270  27.426  24.733  1.00  0.00     0.298 C 
ATOM     21  N   UNL A   1      50.104  27.574  24.017  1.00  0.00    -0.236 N 
ATOM     22  O   UNL A   1      47.807  27.827  24.353  1.00  0.00    -0.268 OA
ATOM     23  O   UNL A   1      52.413  27.269  24.325  1.00  0.00    -0.260 OA
BRANCH  21  24
ATOM     24  C   UNL A   1      50.059  27.592  22.583  1.00  0.00     0.057 A 
ATOM     25  C   UNL A   1      49.418  26.562  21.874  1.00  0.00     0.027 A 
ATOM     26  C   UNL A   1      50.697  28.602  21.842  1.00  0.00     0.073 A 
ATOM     27  C   UNL A   1      49.419  26.529  20.479  1.00  0.00     0.006 A 
ATOM     28  C   UNL A   1      50.754  28.540  20.443  1.00  0.00     0.120 A 
ATOM     29  C   UNL A   1      50.095  27.512  19.768  1.00  0.00     0.046 A 
BRANCH  28  30
ATOM     30  O   UNL A   1      51.441  29.398  19.630  1.00  0.00    -0.497 OA
ATOM     31  C   UNL A   1      51.991  30.560  20.240  1.00  0.00     0.278 C 
ENDBRANCH  28  30
ENDBRANCH  21  24
ENDBRANCH  14  16
ENDBRANCH   9  10
ENDBRANCH   6   9
ENDBRANCH   3   6
ENDBRANCH   1   2
BRANCH   1  32
ATOM     32  C   UNL A   1      41.963  21.338  26.594  1.00  0.00     0.042 C 
BRANCH  32  33
ATOM     33  C   UNL A   1      40.601  21.458  27.268  1.00  0.00     0.118 C 
BRANCH  33  34
ATOM     34  N   UNL A   1      39.545  21.838  26.345  1.00  0.00    -0.352 N 
ATOM     35  C   UNL A   1      38.895  23.034  26.158  1.00  0.00     0.251 C 
ATOM     36  H   UNL A   1      39.243  21.113  25.751  1.00  0.00     0.163 HD
ATOM     37  O   UNL A   1      37.904  23.051  25.427  1.00  0.00    -0.269 OA
BRANCH  35  38
ATOM     38  C   UNL A   1      39.338  24.290  26.816  1.00  0.00     0.039 A 
ATOM     39  C   UNL A   1      38.889  24.548  28.118  1.00  0.00     0.014 A 
ATOM     40  C   UNL A   1      40.122  25.244  26.165  1.00  0.00     0.014 A 
ATOM     41  C   UNL A   1      39.275  25.720  28.779  1.00  0.00     0.010 A 
ATOM     42  C   UNL A   1      40.568  26.377  26.852  1.00  0.00     0.010 A 
ATOM     43  C   UNL A   1      40.151  26.630  28.169  1.00  0.00    -0.014 A 
BRANCH  43  44
ATOM     44  C   UNL A   1      40.657  27.829  28.896  1.00  0.00     0.031 A 
ATOM     45  C   UNL A   1      42.015  27.817  29.546  1.00  0.00     0.074 A 
ATOM     46  C   UNL A   1      39.863  28.910  29.032  1.00  0.00     0.049 A 
ATOM     47  N   UNL A   1      42.583  28.736  30.287  1.00  0.00    -0.248 NA
ATOM     48  C   UNL A   1      42.842  26.616  29.347  1.00  0.00     0.031 C 
ATOM     49  C   UNL A   1      38.521  29.051  28.465  1.00  0.00     0.029 A 
ATOM     50  N   UNL A   1      40.055  30.089  29.712  1.00  0.00    -0.354 N 
ATOM     51  C   UNL A   1      43.830  28.229  30.637  1.00  0.00     0.074 A 
ATOM     52  C   UNL A   1      43.913  26.897  30.077  1.00  0.00     0.031 C 
ATOM     53  C   UNL A   1      37.999  30.229  28.843  1.00  0.00     0.029 A 
ATOM     54  C   UNL A   1      38.962  30.926  29.686  1.00  0.00     0.049 A 
ATOM     55  H   UNL A   1      40.895  30.314  30.173  1.00  0.00     0.167 HD
ATOM     56  C   UNL A   1      44.827  28.828  31.333  1.00  0.00     0.037 A 
ATOM     57  C   UNL A   1      38.752  32.117  30.279  1.00  0.00     0.037 A 
ATOM     58  C   UNL A   1      44.753  30.163  31.872  1.00  0.00     0.049 A 
ATOM     59  C   UNL A   1      39.858  32.747  31.078  1.00  0.00     0.074 A 
ATOM     60  C   UNL A   1      45.733  30.877  32.539  1.00  0.00     0.029 A 
ATOM     61  N   UNL A   1      43.637  30.984  31.810  1.00  0.00    -0.354 N 
ATOM     62  N   UNL A   1      41.055  32.279  31.337  1.00  0.00    -0.248 NA
ATOM     63  C   UNL A   1      39.597  34.079  31.643  1.00  0.00     0.031 C 
ATOM     64  C   UNL A   1      45.198  32.114  32.915  1.00  0.00     0.029 A 
ATOM     65  C   UNL A   1      43.897  32.188  32.445  1.00  0.00     0.049 A 
ATOM     66  H   UNL A   1      42.784  30.746  31.379  1.00  0.00     0.167 HD
ATOM     67  C   UNL A   1      41.702  33.272  32.064  1.00  0.00     0.074 A 
ATOM     68  C   UNL A   1      40.765  34.369  32.198  1.00  0.00     0.031 C 
ATOM     69  C   UNL A   1      42.961  33.278  32.567  1.00  0.00     0.037 A 
BRANCH  56  70
ATOM     70  C   UNL A   1      46.103  28.057  31.536  1.00  0.00     0.058 A 
ATOM     71  C   UNL A   1      47.208  28.234  30.687  1.00  0.00     0.135 A 
ATOM     72  C   UNL A   1      46.247  27.181  32.623  1.00  0.00     0.135 A 
ATOM     73  F   UNL A   1      47.121  29.051  29.625  1.00  0.00    -0.206 F 
ATOM     74  C   UNL A   1      48.403  27.553  30.896  1.00  0.00     0.059 A 
ATOM     75  C   UNL A   1      47.443  26.508  32.866  1.00  0.00     0.059 A 
ATOM     76  F   UNL A   1      45.225  26.976  33.467  1.00  0.00    -0.206 F 
ATOM     77  C   UNL A   1      48.511  26.694  31.990  1.00  0.00     0.060 A 
BRANCH  77  78
ATOM     78  S   UNL A   1      50.076  25.833  32.258  1.00  0.00     0.124 S 
ATOM     79  O   UNL A   1      51.034  26.930  32.146  1.00  0.00    -0.237 OA
ATOM     80  O   UNL A   1      49.902  25.280  33.597  1.00  0.00    -0.237 OA
ATOM     81  O   UNL A   1      50.115  24.853  31.177  1.00  0.00    -0.744 OA
ENDBRANCH  77  78
ENDBRANCH  56  70
BRANCH  57  82
ATOM     82  C   UNL A   1      37.442  32.804  30.121  1.00  0.00     0.058 A 
ATOM     83  C   UNL A   1      36.368  32.520  30.976  1.00  0.00     0.135 A 
ATOM     84  C   UNL A   1      37.239  33.755  29.108  1.00  0.00     0.135 A 
ATOM     85  F   UNL A   1      36.514  31.616  31.957  1.00  0.00    -0.206 F 
ATOM     86  C   UNL A   1      35.129  33.133  30.818  1.00  0.00     0.059 A 
ATOM     87  C   UNL A   1      36.017  34.399  28.945  1.00  0.00     0.059 A 
ATOM     88  F   UNL A   1      38.243  34.078  28.277  1.00  0.00    -0.206 F 
ATOM     89  C   UNL A   1      34.963  34.070  29.797  1.00  0.00     0.060 A 
BRANCH  89  90
ATOM     90  S   UNL A   1      33.355  34.871  29.612  1.00  0.00     0.124 S 
ATOM     91  O   UNL A   1      32.883  34.902  30.992  1.00  0.00    -0.237 OA
ATOM     92  O   UNL A   1      33.720  36.161  29.033  1.00  0.00    -0.237 OA
ATOM     93  O   UNL A   1      32.634  33.972  28.717  1.00  0.00    -0.744 OA
ENDBRANCH  89  90
ENDBRANCH  57  82
BRANCH  69  94
ATOM     94  C   UNL A   1      43.415  34.522  33.277  1.00  0.00     0.058 A 
ATOM     95  C   UNL A   1      43.936  35.622  32.578  1.00  0.00     0.135 A 
ATOM     96  C   UNL A   1      43.296  34.629  34.672  1.00  0.00     0.135 A 
ATOM     97  F   UNL A   1      44.079  35.569  31.244  1.00  0.00    -0.206 F 
ATOM     98  C   UNL A   1      44.348  36.775  33.241  1.00  0.00     0.059 A 
ATOM     99  C   UNL A   1      43.676  35.781  35.352  1.00  0.00     0.059 A 
ATOM    100  F   UNL A   1      42.794  33.609  35.388  1.00  0.00    -0.206 F 
ATOM    101  C   UNL A   1      44.214  36.844  34.629  1.00  0.00     0.060 A 
BRANCH 101 102
ATOM    102  S   UNL A   1      44.727  38.354  35.473  1.00  0.00     0.124 S 
ATOM    103  O   UNL A   1      46.164  38.141  35.611  1.00  0.00    -0.237 OA
ATOM    104  O   UNL A   1      44.328  39.394  34.530  1.00  0.00    -0.237 OA
ATOM    105  O   UNL A   1      43.965  38.322  36.718  1.00  0.00    -0.744 OA
ENDBRANCH 101 102
ENDBRANCH  69  94
ENDBRANCH  43  44
ENDBRANCH  35  38
ENDBRANCH  33  34
ENDBRANCH  32  33
ENDBRANCH   1  32
TORSDOF 19
ENDMDL
MODEL 3
REMARK VINA RESULT:      -9.0      4.433     11.630
REMARK SMILES CC[C@@H](Oc1cccc(/C=C2/SC(=O)N(c3cccc(OC)c3)C2=O)c1)C(=O)NCCCNC(=O)c1ccc(-c2c3nc(c(-c4c(F)cc(S(=O)(=O)[O-])cc4F)c4ccc([nH]4)c(-c4c(F)cc(S(=O)(=O)[O-])cc4F)c4nc(c(-c5c(F)cc(S(=O)(=O)[O-])cc5F)c5ccc2[nH]5)C=C4)C=C3)cc1
REMARK SMILES IDX 30 1 29 2 27 3 28 4 3 6 2 7 1 8 4 9 5 10 6 11 26 12 7 13
REMARK SMILES IDX 9 14 8 15 10 16 11 17 12 18 24 19 13 20 15 21 25 22 14 23
REMARK SMILES IDX 16 24 17 25 23 26 18 27 20 28 19 29 21 30 22 31 31 32 32 33
REMARK SMILES IDX 33 34 34 35 35 37 36 38 37 39 101 40 38 41 100 42 39 43
REMARK SMILES IDX 40 44 41 45 94 46 42 47 99 48 93 49 95 50 43 51 98 52 92 53
REMARK SMILES IDX 91 54 44 56 78 57 57 58 77 59 58 60 61 61 76 62 96 63 59 64
REMARK SMILES IDX 60 65 75 67 97 68 62 69 45 70 46 71 55 72 47 73 48 74 54 75
REMARK SMILES IDX 56 76 49 77 50 78 51 79 52 80 53 81 79 82 80 83 89 84 81 85
REMARK SMILES IDX 82 86 88 87 90 88 83 89 84 90 85 91 86 92 87 93 63 94 64 95
REMARK SMILES IDX 73 96 65 97 66 98 72 99 74 100 67 101 68 102 69 103 70 104
REMARK SMILES IDX 71 105
REMARK H PARENT 29 5 33 36 95 55 61 66
REMARK Flexibility Score: inf
ROOT
ATOM      1  C   UNL A   1      34.804  21.989  25.270  1.00  0.00     0.118 C 
ENDROOT
BRANCH   1   2
ATOM      2  N   UNL A   1      34.182  22.323  26.550  1.00  0.00    -0.353 N 
ATOM      3  C   UNL A   1      32.864  22.581  26.858  1.00  0.00     0.261 C 
ATOM      4  O   UNL A   1      32.569  22.729  28.048  1.00  0.00    -0.271 OA
ATOM      5  H   UNL A   1      34.803  22.371  27.313  1.00  0.00     0.163 HD
BRANCH   3   6
ATOM      6  C   UNL A   1      31.799  22.731  25.744  1.00  0.00     0.261 C 
BRANCH   6   7
ATOM      7  C   UNL A   1      30.450  22.367  26.405  1.00  0.00     0.052 C 
ATOM      8  C   UNL A   1      29.549  23.500  26.886  1.00  0.00     0.008 C 
ENDBRANCH   6   7
BRANCH   6   9
ATOM      9  O   UNL A   1      32.081  24.070  25.317  1.00  0.00    -0.481 OA
BRANCH   9  10
ATOM     10  C   UNL A   1      31.897  24.537  24.059  1.00  0.00     0.121 A 
ATOM     11  C   UNL A   1      32.871  24.173  23.127  1.00  0.00     0.046 A 
ATOM     12  C   UNL A   1      30.964  25.485  23.696  1.00  0.00     0.054 A 
ATOM     13  C   UNL A   1      32.935  24.793  21.872  1.00  0.00     0.004 A 
ATOM     14  C   UNL A   1      31.113  26.223  22.511  1.00  0.00    -0.021 A 
ATOM     15  C   UNL A   1      32.074  25.850  21.574  1.00  0.00     0.008 A 
BRANCH  14  16
ATOM     16  C   UNL A   1      30.430  27.522  22.464  1.00  0.00     0.029 C 
ATOM     17  C   UNL A   1      30.870  28.554  23.211  1.00  0.00     0.083 C 
ATOM     18  S   UNL A   1      29.928  29.949  23.549  1.00  0.00    -0.022 SA
ATOM     19  C   UNL A   1      32.143  28.612  24.003  1.00  0.00     0.272 C 
ATOM     20  C   UNL A   1      30.946  30.398  24.921  1.00  0.00     0.298 C 
ATOM     21  N   UNL A   1      32.081  29.621  24.953  1.00  0.00    -0.236 N 
ATOM     22  O   UNL A   1      33.067  27.832  23.821  1.00  0.00    -0.268 OA
ATOM     23  O   UNL A   1      30.607  31.303  25.672  1.00  0.00    -0.260 OA
BRANCH  21  24
ATOM     24  C   UNL A   1      33.121  29.786  25.927  1.00  0.00     0.057 A 
ATOM     25  C   UNL A   1      33.997  28.729  26.226  1.00  0.00     0.027 A 
ATOM     26  C   UNL A   1      33.262  30.982  26.653  1.00  0.00     0.073 A 
ATOM     27  C   UNL A   1      34.973  28.849  27.216  1.00  0.00     0.006 A 
ATOM     28  C   UNL A   1      34.199  31.086  27.690  1.00  0.00     0.120 A 
ATOM     29  C   UNL A   1      35.065  30.024  27.951  1.00  0.00     0.046 A 
BRANCH  28  30
ATOM     30  O   UNL A   1      34.346  32.153  28.534  1.00  0.00    -0.497 OA
ATOM     31  C   UNL A   1      33.851  33.406  28.076  1.00  0.00     0.278 C 
ENDBRANCH  28  30
ENDBRANCH  21  24
ENDBRANCH  14  16
ENDBRANCH   9  10
ENDBRANCH   6   9
ENDBRANCH   3   6
ENDBRANCH   1   2
BRANCH   1  32
ATOM     32  C   UNL A   1      35.694  23.100  24.710  1.00  0.00     0.042 C 
BRANCH  32  33
ATOM     33  C   UNL A   1      36.720  23.667  25.685  1.00  0.00     0.118 C 
BRANCH  33  34
ATOM     34  N   UNL A   1      37.728  22.695  26.075  1.00  0.00    -0.352 N 
ATOM     35  C   UNL A   1      39.004  22.860  26.556  1.00  0.00     0.251 C 
ATOM     36  H   UNL A   1      37.447  21.757  25.977  1.00  0.00     0.163 HD
ATOM     37  O   UNL A   1      39.727  21.867  26.645  1.00  0.00    -0.269 OA
BRANCH  35  38
ATOM     38  C   UNL A   1      39.537  24.188  26.955  1.00  0.00     0.039 A 
ATOM     39  C   UNL A   1      39.441  24.563  28.301  1.00  0.00     0.014 A 
ATOM     40  C   UNL A   1      40.063  25.095  26.032  1.00  0.00     0.014 A 
ATOM     41  C   UNL A   1      39.925  25.806  28.725  1.00  0.00     0.010 A 
ATOM     42  C   UNL A   1      40.613  26.304  26.468  1.00  0.00     0.010 A 
ATOM     43  C   UNL A   1      40.552  26.676  27.821  1.00  0.00    -0.014 A 
BRANCH  43  44
ATOM     44  C   UNL A   1      41.167  27.956  28.273  1.00  0.00     0.031 A 
ATOM     45  C   UNL A   1      42.661  28.148  28.231  1.00  0.00     0.074 A 
ATOM     46  C   UNL A   1      40.385  28.926  28.789  1.00  0.00     0.049 A 
ATOM     47  N   UNL A   1      43.375  29.160  28.659  1.00  0.00    -0.248 NA
ATOM     48  C   UNL A   1      43.458  27.062  27.639  1.00  0.00     0.031 C 
ATOM     49  C   UNL A   1      38.927  28.866  28.902  1.00  0.00     0.029 A 
ATOM     50  N   UNL A   1      40.705  30.142  29.342  1.00  0.00    -0.354 N 
ATOM     51  C   UNL A   1      44.699  28.837  28.385  1.00  0.00     0.074 A 
ATOM     52  C   UNL A   1      44.696  27.508  27.809  1.00  0.00     0.031 C 
ATOM     53  C   UNL A   1      38.482  29.976  29.511  1.00  0.00     0.029 A 
ATOM     54  C   UNL A   1      39.620  30.824  29.843  1.00  0.00     0.049 A 
ATOM     55  H   UNL A   1      41.625  30.493  29.375  1.00  0.00     0.167 HD
ATOM     56  C   UNL A   1      45.813  29.587  28.567  1.00  0.00     0.037 A 
ATOM     57  C   UNL A   1      39.545  31.996  30.502  1.00  0.00     0.037 A 
ATOM     58  C   UNL A   1      45.814  30.918  29.121  1.00  0.00     0.049 A 
ATOM     59  C   UNL A   1      40.798  32.796  30.727  1.00  0.00     0.074 A 
ATOM     60  C   UNL A   1      46.884  31.780  29.288  1.00  0.00     0.029 A 
ATOM     61  N   UNL A   1      44.693  31.580  29.600  1.00  0.00    -0.354 N 
ATOM     62  N   UNL A   1      42.031  32.501  30.397  1.00  0.00    -0.248 NA
ATOM     63  C   UNL A   1      40.646  34.099  31.390  1.00  0.00     0.031 C 
ATOM     64  C   UNL A   1      46.418  32.946  29.905  1.00  0.00     0.029 A 
ATOM     65  C   UNL A   1      45.049  32.830  30.082  1.00  0.00     0.049 A 
ATOM     66  H   UNL A   1      43.778  31.216  29.598  1.00  0.00     0.167 HD
ATOM     67  C   UNL A   1      42.799  33.597  30.779  1.00  0.00     0.074 A 
ATOM     68  C   UNL A   1      41.888  34.562  31.359  1.00  0.00     0.031 C 
ATOM     69  C   UNL A   1      44.135  33.788  30.652  1.00  0.00     0.037 A 
BRANCH  56  70
ATOM     70  C   UNL A   1      47.131  29.001  28.142  1.00  0.00     0.058 A 
ATOM     71  C   UNL A   1      47.945  28.296  29.044  1.00  0.00     0.135 A 
ATOM     72  C   UNL A   1      47.559  29.089  26.807  1.00  0.00     0.135 A 
ATOM     73  F   UNL A   1      47.589  28.192  30.335  1.00  0.00    -0.206 F 
ATOM     74  C   UNL A   1      49.144  27.717  28.644  1.00  0.00     0.059 A 
ATOM     75  C   UNL A   1      48.744  28.495  26.380  1.00  0.00     0.059 A 
ATOM     76  F   UNL A   1      46.821  29.749  25.902  1.00  0.00    -0.206 F 
ATOM     77  C   UNL A   1      49.535  27.821  27.309  1.00  0.00     0.060 A 
BRANCH  77  78
ATOM     78  S   UNL A   1      51.086  27.046  26.802  1.00  0.00     0.124 S 
ATOM     79  O   UNL A   1      52.002  28.183  26.831  1.00  0.00    -0.237 OA
ATOM     80  O   UNL A   1      51.289  26.044  27.844  1.00  0.00    -0.237 OA
ATOM     81  O   UNL A   1      50.785  26.516  25.476  1.00  0.00    -0.744 OA
ENDBRANCH  77  78
ENDBRANCH  56  70
BRANCH  57  82
ATOM     82  C   UNL A   1      38.229  32.496  30.980  1.00  0.00     0.058 A 
ATOM     83  C   UNL A   1      37.481  33.407  30.221  1.00  0.00     0.135 A 
ATOM     84  C   UNL A   1      37.694  32.075  32.209  1.00  0.00     0.135 A 
ATOM     85  F   UNL A   1      37.952  33.841  29.042  1.00  0.00    -0.206 F 
ATOM     86  C   UNL A   1      36.263  33.906  30.673  1.00  0.00     0.059 A 
ATOM     87  C   UNL A   1      36.468  32.541  32.671  1.00  0.00     0.059 A 
ATOM     88  F   UNL A   1      38.360  31.186  32.964  1.00  0.00    -0.206 F 
ATOM     89  C   UNL A   1      35.767  33.469  31.901  1.00  0.00     0.060 A 
BRANCH  89  90
ATOM     90  S   UNL A   1      34.177  34.111  32.469  1.00  0.00     0.124 S 
ATOM     91  O   UNL A   1      34.597  35.137  33.417  1.00  0.00    -0.237 OA
ATOM     92  O   UNL A   1      33.580  34.593  31.228  1.00  0.00    -0.237 OA
ATOM     93  O   UNL A   1      33.532  32.939  33.053  1.00  0.00    -0.744 OA
ENDBRANCH  89  90
ENDBRANCH  57  82
BRANCH  69  94
ATOM     94  C   UNL A   1      44.690  35.105  31.114  1.00  0.00     0.058 A 
ATOM     95  C   UNL A   1      44.750  36.220  30.262  1.00  0.00     0.135 A 
ATOM     96  C   UNL A   1      45.137  35.265  32.435  1.00  0.00     0.135 A 
ATOM     97  F   UNL A   1      44.344  36.119  28.987  1.00  0.00    -0.206 F 
ATOM     98  C   UNL A   1      45.259  37.440  30.699  1.00  0.00     0.059 A 
ATOM     99  C   UNL A   1      45.625  36.482  32.900  1.00  0.00     0.059 A 
ATOM    100  F   UNL A   1      45.093  34.233  33.294  1.00  0.00    -0.206 F 
ATOM    101  C   UNL A   1      45.694  37.561  32.020  1.00  0.00     0.060 A 
BRANCH 101 102
ATOM    102  S   UNL A   1      46.328  39.155  32.580  1.00  0.00     0.124 S 
ATOM    103  O   UNL A   1      45.106  39.951  32.644  1.00  0.00    -0.237 OA
ATOM    104  O   UNL A   1      46.932  38.819  33.866  1.00  0.00    -0.237 OA
ATOM    105  O   UNL A   1      47.270  39.534  31.532  1.00  0.00    -0.744 OA
ENDBRANCH 101 102
ENDBRANCH  69  94
ENDBRANCH  43  44
ENDBRANCH  35  38
ENDBRANCH  33  34
ENDBRANCH  32  33
ENDBRANCH   1  32
TORSDOF 19
ENDMDL
