MODEL 1
REMARK VINA RESULT:     -12.4      0.000      0.000
REMARK SMILES C[C@H](NC(=O)c1ccc(NC(N)=O)cc1)C(=O)NCCCNC(=O)c1ccc(-c2c3nc(c(-c4c(F)cc(S(=O)(=O)[O-])cc4F)c4ccc([nH]4)c(-c4c(F)cc(S(=O)(=O)[O-])cc4F)c4nc(c(-c5c(F)cc(S(=O)(=O)[O-])cc5F)c5ccc2[nH]5)C=C4)C=C3)cc1
REMARK SMILES IDX 20 1 19 2 18 3 16 4 17 5 2 7 1 8 3 9 4 10 5 12 6 13 7 14
REMARK SMILES IDX 15 15 8 16 14 17 9 18 10 19 11 20 12 22 13 23 21 26 22 27
REMARK SMILES IDX 23 28 24 30 25 31 26 32 90 33 27 34 89 35 28 36 29 37 30 38
REMARK SMILES IDX 83 39 31 40 88 41 82 42 84 43 32 44 87 45 81 46 80 47 33 49
REMARK SMILES IDX 67 50 46 51 66 52 47 53 50 54 65 55 85 56 48 57 49 58 64 60
REMARK SMILES IDX 86 61 51 62 34 63 35 64 44 65 36 66 37 67 43 68 45 69 38 70
REMARK SMILES IDX 39 71 40 72 41 73 42 74 68 75 69 76 78 77 70 78 71 79 77 80
REMARK SMILES IDX 79 81 72 82 73 83 74 84 75 85 76 86 52 87 53 88 62 89 54 90
REMARK SMILES IDX 55 91 61 92 63 93 56 94 57 95 58 96 59 97 60 98
REMARK H PARENT 18 6 3 11 10 21 12 24 12 25 22 29 84 48 50 59
REMARK Flexibility Score: inf
ROOT
ATOM      1  C   UNL A   1      39.294  22.285  26.317  1.00  0.00     0.042 C 
ENDROOT
BRANCH   1   2
ATOM      2  C   UNL A   1      37.848  21.924  26.018  1.00  0.00     0.117 C 
BRANCH   2   3
ATOM      3  N   UNL A   1      36.956  23.054  26.193  1.00  0.00    -0.354 N 
ATOM      4  C   UNL A   1      35.911  23.457  25.416  1.00  0.00     0.242 C 
ATOM      5  O   UNL A   1      35.277  24.457  25.762  1.00  0.00    -0.273 OA
ATOM      6  H   UNL A   1      37.131  23.611  26.986  1.00  0.00     0.163 HD
BRANCH   4   7
ATOM      7  C   UNL A   1      35.479  22.633  24.186  1.00  0.00     0.168 C 
ATOM      8  C   UNL A   1      36.573  22.724  23.128  1.00  0.00     0.041 C 
BRANCH   7   9
ATOM      9  N   UNL A   1      34.071  22.924  23.862  1.00  0.00    -0.341 N 
ATOM     10  C   UNL A   1      32.917  22.211  23.696  1.00  0.00     0.251 C 
ATOM     11  H   UNL A   1      33.923  23.887  23.728  1.00  0.00     0.164 HD
ATOM     12  O   UNL A   1      31.932  22.767  23.220  1.00  0.00    -0.269 OA
BRANCH  10  13
ATOM     13  C   UNL A   1      32.828  20.785  24.039  1.00  0.00     0.039 A 
ATOM     14  C   UNL A   1      33.065  20.395  25.359  1.00  0.00     0.016 A 
ATOM     15  C   UNL A   1      32.537  19.831  23.068  1.00  0.00     0.016 A 
ATOM     16  C   UNL A   1      32.894  19.059  25.733  1.00  0.00     0.027 A 
ATOM     17  C   UNL A   1      32.345  18.500  23.449  1.00  0.00     0.027 A 
ATOM     18  C   UNL A   1      32.498  18.109  24.787  1.00  0.00     0.042 A 
BRANCH  18  19
ATOM     19  N   UNL A   1      32.216  16.764  25.098  1.00  0.00    -0.308 N 
ATOM     20  C   UNL A   1      33.062  15.692  25.017  1.00  0.00     0.316 C 
ATOM     21  H   UNL A   1      31.302  16.573  25.409  1.00  0.00     0.171 HD
ATOM     22  N   UNL A   1      32.484  14.540  25.451  1.00  0.00    -0.351 N 
ATOM     23  O   UNL A   1      34.218  15.668  24.616  1.00  0.00    -0.249 OA
ATOM     24  H   UNL A   1      31.553  14.548  25.774  1.00  0.00     0.161 HD
ATOM     25  H   UNL A   1      32.994  13.698  25.442  1.00  0.00     0.161 HD
ENDBRANCH  18  19
ENDBRANCH  10  13
ENDBRANCH   7   9
ENDBRANCH   4   7
ENDBRANCH   2   3
ENDBRANCH   1   2
BRANCH   1  26
ATOM     26  C   UNL A   1      39.493  23.758  26.645  1.00  0.00     0.118 C 
BRANCH  26  27
ATOM     27  N   UNL A   1      40.499  24.386  25.800  1.00  0.00    -0.352 N 
ATOM     28  C   UNL A   1      41.128  25.598  25.929  1.00  0.00     0.251 C 
ATOM     29  H   UNL A   1      40.769  23.859  25.013  1.00  0.00     0.163 HD
ATOM     30  O   UNL A   1      41.805  26.024  24.996  1.00  0.00    -0.269 OA
BRANCH  28  31
ATOM     31  C   UNL A   1      40.984  26.389  27.169  1.00  0.00     0.039 A 
ATOM     32  C   UNL A   1      41.735  27.558  27.308  1.00  0.00     0.014 A 
ATOM     33  C   UNL A   1      40.136  25.976  28.200  1.00  0.00     0.014 A 
ATOM     34  C   UNL A   1      41.597  28.333  28.460  1.00  0.00     0.010 A 
ATOM     35  C   UNL A   1      39.925  26.800  29.302  1.00  0.00     0.010 A 
ATOM     36  C   UNL A   1      40.665  27.979  29.451  1.00  0.00    -0.014 A 
BRANCH  36  37
ATOM     37  C   UNL A   1      40.464  28.848  30.638  1.00  0.00     0.031 A 
ATOM     38  C   UNL A   1      41.316  28.680  31.868  1.00  0.00     0.074 A 
ATOM     39  C   UNL A   1      39.490  29.780  30.611  1.00  0.00     0.049 A 
ATOM     40  N   UNL A   1      41.311  29.378  32.975  1.00  0.00    -0.248 NA
ATOM     41  C   UNL A   1      42.280  27.568  31.869  1.00  0.00     0.031 C 
ATOM     42  C   UNL A   1      38.552  29.987  29.504  1.00  0.00     0.029 A 
ATOM     43  N   UNL A   1      39.133  30.735  31.529  1.00  0.00    -0.354 N 
ATOM     44  C   UNL A   1      42.264  28.791  33.800  1.00  0.00     0.074 A 
ATOM     45  C   UNL A   1      42.779  27.639  33.095  1.00  0.00     0.031 C 
ATOM     46  C   UNL A   1      37.760  31.034  29.787  1.00  0.00     0.029 A 
ATOM     47  C   UNL A   1      38.109  31.550  31.106  1.00  0.00     0.049 A 
ATOM     48  H   UNL A   1      39.569  30.827  32.407  1.00  0.00     0.167 HD
ATOM     49  C   UNL A   1      42.693  29.193  35.021  1.00  0.00     0.037 A 
ATOM     50  C   UNL A   1      37.523  32.600  31.711  1.00  0.00     0.037 A 
ATOM     51  C   UNL A   1      42.182  30.351  35.710  1.00  0.00     0.049 A 
ATOM     52  C   UNL A   1      38.030  33.040  33.057  1.00  0.00     0.074 A 
ATOM     53  C   UNL A   1      42.582  30.878  36.926  1.00  0.00     0.029 A 
ATOM     54  N   UNL A   1      41.153  31.161  35.246  1.00  0.00    -0.354 N 
ATOM     55  N   UNL A   1      38.988  32.521  33.789  1.00  0.00    -0.248 NA
ATOM     56  C   UNL A   1      37.389  34.218  33.651  1.00  0.00     0.031 C 
ATOM     57  C   UNL A   1      41.762  31.972  37.221  1.00  0.00     0.029 A 
ATOM     58  C   UNL A   1      40.892  32.168  36.161  1.00  0.00     0.049 A 
ATOM     59  H   UNL A   1      40.679  31.037  34.392  1.00  0.00     0.167 HD
ATOM     60  C   UNL A   1      39.082  33.327  34.918  1.00  0.00     0.074 A 
ATOM     61  C   UNL A   1      38.099  34.380  34.758  1.00  0.00     0.031 C 
ATOM     62  C   UNL A   1      39.905  33.207  35.990  1.00  0.00     0.037 A 
BRANCH  49  63
ATOM     63  C   UNL A   1      43.771  28.379  35.688  1.00  0.00     0.058 A 
ATOM     64  C   UNL A   1      45.135  28.628  35.459  1.00  0.00     0.135 A 
ATOM     65  C   UNL A   1      43.440  27.361  36.597  1.00  0.00     0.135 A 
ATOM     66  F   UNL A   1      45.512  29.578  34.588  1.00  0.00    -0.206 F 
ATOM     67  C   UNL A   1      46.128  27.880  36.083  1.00  0.00     0.059 A 
ATOM     68  C   UNL A   1      44.417  26.621  37.259  1.00  0.00     0.059 A 
ATOM     69  F   UNL A   1      42.154  27.077  36.855  1.00  0.00    -0.206 F 
ATOM     70  C   UNL A   1      45.759  26.880  36.984  1.00  0.00     0.060 A 
BRANCH  70  71
ATOM     71  S   UNL A   1      47.062  25.928  37.794  1.00  0.00     0.124 S 
ATOM     72  O   UNL A   1      47.919  25.584  36.663  1.00  0.00    -0.237 OA
ATOM     73  O   UNL A   1      47.614  26.896  38.737  1.00  0.00    -0.237 OA
ATOM     74  O   UNL A   1      46.342  24.810  38.397  1.00  0.00    -0.744 OA
ENDBRANCH  70  71
ENDBRANCH  49  63
BRANCH  50  75
ATOM     75  C   UNL A   1      36.420  33.330  31.028  1.00  0.00     0.058 A 
ATOM     76  C   UNL A   1      35.092  33.212  31.467  1.00  0.00     0.135 A 
ATOM     77  C   UNL A   1      36.672  34.170  29.932  1.00  0.00     0.135 A 
ATOM     78  F   UNL A   1      34.798  32.419  32.510  1.00  0.00    -0.206 F 
ATOM     79  C   UNL A   1      34.051  33.879  30.830  1.00  0.00     0.059 A 
ATOM     80  C   UNL A   1      35.651  34.872  29.298  1.00  0.00     0.059 A 
ATOM     81  F   UNL A   1      37.927  34.333  29.485  1.00  0.00    -0.206 F 
ATOM     82  C   UNL A   1      34.342  34.709  29.746  1.00  0.00     0.060 A 
BRANCH  82  83
ATOM     83  S   UNL A   1      32.988  35.601  28.952  1.00  0.00     0.124 S 
ATOM     84  O   UNL A   1      32.162  35.962  30.098  1.00  0.00    -0.237 OA
ATOM     85  O   UNL A   1      33.689  36.702  28.297  1.00  0.00    -0.237 OA
ATOM     86  O   UNL A   1      32.414  34.608  28.048  1.00  0.00    -0.744 OA
ENDBRANCH  82  83
ENDBRANCH  50  75
BRANCH  62  87
ATOM     87  C   UNL A   1      39.798  34.268  37.054  1.00  0.00     0.058 A 
ATOM     88  C   UNL A   1      39.008  34.095  38.201  1.00  0.00     0.135 A 
ATOM     89  C   UNL A   1      40.497  35.479  36.920  1.00  0.00     0.135 A 
ATOM     90  F   UNL A   1      38.318  32.956  38.382  1.00  0.00    -0.206 F 
ATOM     91  C   UNL A   1      38.865  35.105  39.146  1.00  0.00     0.059 A 
ATOM     92  C   UNL A   1      40.399  36.489  37.871  1.00  0.00     0.059 A 
ATOM     93  F   UNL A   1      41.283  35.693  35.852  1.00  0.00    -0.206 F 
ATOM     94  C   UNL A   1      39.559  36.303  38.968  1.00  0.00     0.060 A 
BRANCH  94  95
ATOM     95  S   UNL A   1      39.348  37.617  40.186  1.00  0.00     0.124 S 
ATOM     96  O   UNL A   1      38.273  38.401  39.589  1.00  0.00    -0.237 OA
ATOM     97  O   UNL A   1      38.996  36.872  41.393  1.00  0.00    -0.237 OA
ATOM     98  O   UNL A   1      40.655  38.265  40.217  1.00  0.00    -0.744 OA
ENDBRANCH  94  95
ENDBRANCH  62  87
ENDBRANCH  36  37
ENDBRANCH  28  31
ENDBRANCH  26  27
ENDBRANCH   1  26
TORSDOF 16
ENDMDL
MODEL 2
REMARK VINA RESULT:     -12.3      1.933      2.858
REMARK SMILES C[C@H](NC(=O)c1ccc(NC(N)=O)cc1)C(=O)NCCCNC(=O)c1ccc(-c2c3nc(c(-c4c(F)cc(S(=O)(=O)[O-])cc4F)c4ccc([nH]4)c(-c4c(F)cc(S(=O)(=O)[O-])cc4F)c4nc(c(-c5c(F)cc(S(=O)(=O)[O-])cc5F)c5ccc2[nH]5)C=C4)C=C3)cc1
REMARK SMILES IDX 20 1 19 2 18 3 16 4 17 5 2 7 1 8 3 9 4 10 5 12 6 13 7 14
REMARK SMILES IDX 15 15 8 16 14 17 9 18 10 19 11 20 12 22 13 23 21 26 22 27
REMARK SMILES IDX 23 28 24 30 25 31 26 32 90 33 27 34 89 35 28 36 29 37 30 38
REMARK SMILES IDX 83 39 31 40 88 41 82 42 84 43 32 44 87 45 81 46 80 47 33 49
REMARK SMILES IDX 67 50 46 51 66 52 47 53 50 54 65 55 85 56 48 57 49 58 64 60
REMARK SMILES IDX 86 61 51 62 34 63 35 64 44 65 36 66 37 67 43 68 45 69 38 70
REMARK SMILES IDX 39 71 40 72 41 73 42 74 68 75 69 76 78 77 70 78 71 79 77 80
REMARK SMILES IDX 79 81 72 82 73 83 74 84 75 85 76 86 52 87 53 88 62 89 54 90
REMARK SMILES IDX 55 91 61 92 63 93 56 94 57 95 58 96 59 97 60 98
REMARK H PARENT 18 6 3 11 10 21 12 24 12 25 22 29 84 48 50 59
REMARK Flexibility Score: inf
ROOT
ATOM      1  C   UNL A   1      40.448  22.668  27.719  1.00  0.00     0.042 C 
ENDROOT
BRANCH   1   2
ATOM      2  C   UNL A   1      39.569  22.454  26.498  1.00  0.00     0.117 C 
BRANCH   2   3
ATOM      3  N   UNL A   1      39.613  21.083  26.028  1.00  0.00    -0.354 N 
ATOM      4  C   UNL A   1      38.628  20.335  25.454  1.00  0.00     0.242 C 
ATOM      5  O   UNL A   1      38.892  19.177  25.121  1.00  0.00    -0.273 OA
ATOM      6  H   UNL A   1      40.478  20.626  26.139  1.00  0.00     0.163 HD
BRANCH   4   7
ATOM      7  C   UNL A   1      37.247  20.950  25.150  1.00  0.00     0.168 C 
ATOM      8  C   UNL A   1      36.222  19.825  25.049  1.00  0.00     0.041 C 
BRANCH   7   9
ATOM      9  N   UNL A   1      37.377  21.967  24.092  1.00  0.00    -0.341 N 
ATOM     10  C   UNL A   1      36.582  22.922  23.521  1.00  0.00     0.251 C 
ATOM     11  H   UNL A   1      38.273  21.954  23.686  1.00  0.00     0.164 HD
ATOM     12  O   UNL A   1      36.958  23.480  22.494  1.00  0.00    -0.269 OA
BRANCH  10  13
ATOM     13  C   UNL A   1      35.272  23.279  24.082  1.00  0.00     0.039 A 
ATOM     14  C   UNL A   1      35.198  24.324  25.006  1.00  0.00     0.016 A 
ATOM     15  C   UNL A   1      34.124  22.579  23.723  1.00  0.00     0.016 A 
ATOM     16  C   UNL A   1      33.954  24.747  25.482  1.00  0.00     0.027 A 
ATOM     17  C   UNL A   1      32.880  23.018  24.184  1.00  0.00     0.027 A 
ATOM     18  C   UNL A   1      32.783  24.120  25.046  1.00  0.00     0.042 A 
BRANCH  18  19
ATOM     19  N   UNL A   1      31.488  24.541  25.405  1.00  0.00    -0.308 N 
ATOM     20  C   UNL A   1      30.765  24.173  26.507  1.00  0.00     0.316 C 
ATOM     21  H   UNL A   1      31.052  25.173  24.790  1.00  0.00     0.171 HD
ATOM     22  N   UNL A   1      29.567  24.816  26.580  1.00  0.00    -0.351 N 
ATOM     23  O   UNL A   1      31.069  23.372  27.381  1.00  0.00    -0.249 OA
ATOM     24  H   UNL A   1      29.312  25.461  25.881  1.00  0.00     0.161 HD
ATOM     25  H   UNL A   1      28.956  24.634  27.331  1.00  0.00     0.161 HD
ENDBRANCH  18  19
ENDBRANCH  10  13
ENDBRANCH   7   9
ENDBRANCH   4   7
ENDBRANCH   2   3
ENDBRANCH   1   2
BRANCH   1  26
ATOM     26  C   UNL A   1      41.804  23.275  27.387  1.00  0.00     0.118 C 
BRANCH  26  27
ATOM     27  N   UNL A   1      41.751  24.162  26.234  1.00  0.00    -0.352 N 
ATOM     28  C   UNL A   1      41.403  25.486  26.153  1.00  0.00     0.251 C 
ATOM     29  H   UNL A   1      42.005  23.746  25.377  1.00  0.00     0.163 HD
ATOM     30  O   UNL A   1      41.238  25.996  25.048  1.00  0.00    -0.269 OA
BRANCH  28  31
ATOM     31  C   UNL A   1      41.216  26.287  27.380  1.00  0.00     0.039 A 
ATOM     32  C   UNL A   1      42.181  27.241  27.710  1.00  0.00     0.014 A 
ATOM     33  C   UNL A   1      40.114  26.090  28.217  1.00  0.00     0.014 A 
ATOM     34  C   UNL A   1      42.013  28.026  28.851  1.00  0.00     0.010 A 
ATOM     35  C   UNL A   1      39.898  26.940  29.297  1.00  0.00     0.010 A 
ATOM     36  C   UNL A   1      40.852  27.907  29.635  1.00  0.00    -0.014 A 
BRANCH  36  37
ATOM     37  C   UNL A   1      40.639  28.798  30.804  1.00  0.00     0.031 A 
ATOM     38  C   UNL A   1      41.486  28.661  32.040  1.00  0.00     0.074 A 
ATOM     39  C   UNL A   1      39.659  29.722  30.753  1.00  0.00     0.049 A 
ATOM     40  N   UNL A   1      41.472  29.381  33.133  1.00  0.00    -0.248 NA
ATOM     41  C   UNL A   1      42.459  27.556  32.069  1.00  0.00     0.031 C 
ATOM     42  C   UNL A   1      38.724  29.899  29.638  1.00  0.00     0.029 A 
ATOM     43  N   UNL A   1      39.290  30.692  31.650  1.00  0.00    -0.354 N 
ATOM     44  C   UNL A   1      42.425  28.819  33.975  1.00  0.00     0.074 A 
ATOM     45  C   UNL A   1      42.952  27.656  33.295  1.00  0.00     0.031 C 
ATOM     46  C   UNL A   1      37.923  30.945  29.897  1.00  0.00     0.029 A 
ATOM     47  C   UNL A   1      38.262  31.490  31.206  1.00  0.00     0.049 A 
ATOM     48  H   UNL A   1      39.721  30.805  32.528  1.00  0.00     0.167 HD
ATOM     49  C   UNL A   1      42.845  29.248  35.189  1.00  0.00     0.037 A 
ATOM     50  C   UNL A   1      37.665  32.548  31.787  1.00  0.00     0.037 A 
ATOM     51  C   UNL A   1      42.322  30.416  35.852  1.00  0.00     0.049 A 
ATOM     52  C   UNL A   1      38.162  33.019  33.126  1.00  0.00     0.074 A 
ATOM     53  C   UNL A   1      42.713  30.970  37.059  1.00  0.00     0.029 A 
ATOM     54  N   UNL A   1      41.290  31.208  35.367  1.00  0.00    -0.354 N 
ATOM     55  N   UNL A   1      39.121  32.522  33.873  1.00  0.00    -0.248 NA
ATOM     56  C   UNL A   1      37.509  34.204  33.694  1.00  0.00     0.031 C 
ATOM     57  C   UNL A   1      41.883  32.064  37.328  1.00  0.00     0.029 A 
ATOM     58  C   UNL A   1      41.017  32.232  36.261  1.00  0.00     0.049 A 
ATOM     59  H   UNL A   1      40.820  31.064  34.514  1.00  0.00     0.167 HD
ATOM     60  C   UNL A   1      39.203  33.351  34.986  1.00  0.00     0.074 A 
ATOM     61  C   UNL A   1      38.214  34.393  34.800  1.00  0.00     0.031 C 
ATOM     62  C   UNL A   1      40.022  33.259  36.064  1.00  0.00     0.037 A 
BRANCH  49  63
ATOM     63  C   UNL A   1      43.927  28.456  35.877  1.00  0.00     0.058 A 
ATOM     64  C   UNL A   1      45.288  28.753  35.700  1.00  0.00     0.135 A 
ATOM     65  C   UNL A   1      43.598  27.410  36.755  1.00  0.00     0.135 A 
ATOM     66  F   UNL A   1      45.663  29.731  34.860  1.00  0.00    -0.206 F 
ATOM     67  C   UNL A   1      46.283  28.025  36.343  1.00  0.00     0.059 A 
ATOM     68  C   UNL A   1      44.576  26.689  37.435  1.00  0.00     0.059 A 
ATOM     69  F   UNL A   1      42.314  27.079  36.963  1.00  0.00    -0.206 F 
ATOM     70  C   UNL A   1      45.918  26.996  37.212  1.00  0.00     0.060 A 
BRANCH  70  71
ATOM     71  S   UNL A   1      47.223  26.070  38.048  1.00  0.00     0.124 S 
ATOM     72  O   UNL A   1      48.418  26.594  37.392  1.00  0.00    -0.237 OA
ATOM     73  O   UNL A   1      47.040  26.465  39.442  1.00  0.00    -0.237 OA
ATOM     74  O   UNL A   1      46.901  24.678  37.747  1.00  0.00    -0.744 OA
ENDBRANCH  70  71
ENDBRANCH  49  63
BRANCH  50  75
ATOM     75  C   UNL A   1      36.559  33.256  31.085  1.00  0.00     0.058 A 
ATOM     76  C   UNL A   1      36.810  34.061  29.964  1.00  0.00     0.135 A 
ATOM     77  C   UNL A   1      35.229  33.132  31.514  1.00  0.00     0.135 A 
ATOM     78  F   UNL A   1      38.067  34.215  29.515  1.00  0.00    -0.206 F 
ATOM     79  C   UNL A   1      35.788  34.737  29.307  1.00  0.00     0.059 A 
ATOM     80  C   UNL A   1      34.185  33.773  30.854  1.00  0.00     0.059 A 
ATOM     81  F   UNL A   1      34.932  32.357  32.569  1.00  0.00    -0.206 F 
ATOM     82  C   UNL A   1      34.476  34.585  29.760  1.00  0.00     0.060 A 
BRANCH  82  83
ATOM     83  S   UNL A   1      33.151  35.435  28.876  1.00  0.00     0.124 S 
ATOM     84  O   UNL A   1      32.557  34.340  28.115  1.00  0.00    -0.237 OA
ATOM     85  O   UNL A   1      32.344  35.965  29.970  1.00  0.00    -0.237 OA
ATOM     86  O   UNL A   1      33.861  36.438  28.087  1.00  0.00    -0.744 OA
ENDBRANCH  82  83
ENDBRANCH  50  75
BRANCH  62  87
ATOM     87  C   UNL A   1      39.903  34.341  37.106  1.00  0.00     0.058 A 
ATOM     88  C   UNL A   1      39.056  34.212  38.218  1.00  0.00     0.135 A 
ATOM     89  C   UNL A   1      40.646  35.527  36.985  1.00  0.00     0.135 A 
ATOM     90  F   UNL A   1      38.322  33.099  38.384  1.00  0.00    -0.206 F 
ATOM     91  C   UNL A   1      38.904  35.242  39.140  1.00  0.00     0.059 A 
ATOM     92  C   UNL A   1      40.539  36.555  37.915  1.00  0.00     0.059 A 
ATOM     93  F   UNL A   1      41.486  35.697  35.952  1.00  0.00    -0.206 F 
ATOM     94  C   UNL A   1      39.644  36.414  38.976  1.00  0.00     0.060 A 
BRANCH  94  95
ATOM     95  S   UNL A   1      39.422  37.754  40.163  1.00  0.00     0.124 S 
ATOM     96  O   UNL A   1      39.209  37.015  41.403  1.00  0.00    -0.237 OA
ATOM     97  O   UNL A   1      40.688  38.475  40.064  1.00  0.00    -0.237 OA
ATOM     98  O   UNL A   1      38.257  38.471  39.652  1.00  0.00    -0.744 OA
ENDBRANCH  94  95
ENDBRANCH  62  87
ENDBRANCH  36  37
ENDBRANCH  28  31
ENDBRANCH  26  27
ENDBRANCH   1  26
TORSDOF 16
ENDMDL
MODEL 3
REMARK VINA RESULT:     -12.3      7.552     13.084
REMARK SMILES C[C@H](NC(=O)c1ccc(NC(N)=O)cc1)C(=O)NCCCNC(=O)c1ccc(-c2c3nc(c(-c4c(F)cc(S(=O)(=O)[O-])cc4F)c4ccc([nH]4)c(-c4c(F)cc(S(=O)(=O)[O-])cc4F)c4nc(c(-c5c(F)cc(S(=O)(=O)[O-])cc5F)c5ccc2[nH]5)C=C4)C=C3)cc1
REMARK SMILES IDX 20 1 19 2 18 3 16 4 17 5 2 7 1 8 3 9 4 10 5 12 6 13 7 14
REMARK SMILES IDX 15 15 8 16 14 17 9 18 10 19 11 20 12 22 13 23 21 26 22 27
REMARK SMILES IDX 23 28 24 30 25 31 26 32 90 33 27 34 89 35 28 36 29 37 30 38
REMARK SMILES IDX 83 39 31 40 88 41 82 42 84 43 32 44 87 45 81 46 80 47 33 49
REMARK SMILES IDX 67 50 46 51 66 52 47 53 50 54 65 55 85 56 48 57 49 58 64 60
REMARK SMILES IDX 86 61 51 62 34 63 35 64 44 65 36 66 37 67 43 68 45 69 38 70
REMARK SMILES IDX 39 71 40 72 41 73 42 74 68 75 69 76 78 77 70 78 71 79 77 80
REMARK SMILES IDX 79 81 72 82 73 83 74 84 75 85 76 86 52 87 53 88 62 89 54 90
REMARK SMILES IDX 55 91 61 92 63 93 56 94 57 95 58 96 59 97 60 98
REMARK H PARENT 18 6 3 11 10 21 12 24 12 25 22 29 84 48 50 59
REMARK Flexibility Score: inf
ROOT
ATOM      1  C   UNL A   1      34.419  30.750  27.632  1.00  0.00     0.042 C 
ENDROOT
BRANCH   1   2
ATOM      2  C   UNL A   1      34.453  29.258  27.347  1.00  0.00     0.117 C 
BRANCH   2   3
ATOM      3  N   UNL A   1      33.270  28.580  27.840  1.00  0.00    -0.354 N 
ATOM      4  C   UNL A   1      32.119  28.263  27.182  1.00  0.00     0.242 C 
ATOM      5  O   UNL A   1      31.233  27.673  27.805  1.00  0.00    -0.273 OA
ATOM      6  H   UNL A   1      33.302  28.311  28.787  1.00  0.00     0.163 HD
BRANCH   4   7
ATOM      7  C   UNL A   1      31.965  28.558  25.676  1.00  0.00     0.168 C 
ATOM      8  C   UNL A   1      31.439  29.980  25.508  1.00  0.00     0.041 C 
BRANCH   7   9
ATOM      9  N   UNL A   1      31.316  27.416  25.009  1.00  0.00    -0.341 N 
ATOM     10  C   UNL A   1      30.337  27.230  24.074  1.00  0.00     0.251 C 
ATOM     11  H   UNL A   1      31.684  26.558  25.321  1.00  0.00     0.164 HD
ATOM     12  O   UNL A   1      29.892  26.101  23.886  1.00  0.00    -0.269 OA
BRANCH  10  13
ATOM     13  C   UNL A   1      29.773  28.349  23.307  1.00  0.00     0.039 A 
ATOM     14  C   UNL A   1      30.600  29.038  22.417  1.00  0.00     0.016 A 
ATOM     15  C   UNL A   1      28.447  28.738  23.475  1.00  0.00     0.016 A 
ATOM     16  C   UNL A   1      30.066  30.043  21.605  1.00  0.00     0.027 A 
ATOM     17  C   UNL A   1      27.912  29.729  22.648  1.00  0.00     0.027 A 
ATOM     18  C   UNL A   1      28.710  30.371  21.690  1.00  0.00     0.042 A 
BRANCH  18  19
ATOM     19  N   UNL A   1      28.075  31.305  20.849  1.00  0.00    -0.308 N 
ATOM     20  C   UNL A   1      27.897  32.643  21.069  1.00  0.00     0.316 C 
ATOM     21  H   UNL A   1      27.715  30.952  20.003  1.00  0.00     0.171 HD
ATOM     22  N   UNL A   1      27.294  33.267  20.020  1.00  0.00    -0.351 N 
ATOM     23  O   UNL A   1      28.209  33.297  22.055  1.00  0.00    -0.249 OA
ATOM     24  H   UNL A   1      27.037  32.750  19.222  1.00  0.00     0.161 HD
ATOM     25  H   UNL A   1      27.112  34.234  20.061  1.00  0.00     0.161 HD
ENDBRANCH  18  19
ENDBRANCH  10  13
ENDBRANCH   7   9
ENDBRANCH   4   7
ENDBRANCH   2   3
ENDBRANCH   1   2
BRANCH   1  26
ATOM     26  C   UNL A   1      35.648  31.250  28.378  1.00  0.00     0.118 C 
BRANCH  26  27
ATOM     27  N   UNL A   1      35.618  30.910  29.793  1.00  0.00    -0.352 N 
ATOM     28  C   UNL A   1      36.549  30.265  30.566  1.00  0.00     0.251 C 
ATOM     29  H   UNL A   1      34.802  31.187  30.270  1.00  0.00     0.163 HD
ATOM     30  O   UNL A   1      36.242  29.906  31.699  1.00  0.00    -0.269 OA
BRANCH  28  31
ATOM     31  C   UNL A   1      37.902  29.993  30.037  1.00  0.00     0.039 A 
ATOM     32  C   UNL A   1      38.927  29.703  30.940  1.00  0.00     0.014 A 
ATOM     33  C   UNL A   1      38.172  30.045  28.667  1.00  0.00     0.014 A 
ATOM     34  C   UNL A   1      40.206  29.418  30.462  1.00  0.00     0.010 A 
ATOM     35  C   UNL A   1      39.421  29.665  28.187  1.00  0.00     0.010 A 
ATOM     36  C   UNL A   1      40.457  29.362  29.080  1.00  0.00    -0.014 A 
BRANCH  36  37
ATOM     37  C   UNL A   1      41.800  28.983  28.573  1.00  0.00     0.031 A 
ATOM     38  C   UNL A   1      42.903  30.002  28.479  1.00  0.00     0.074 A 
ATOM     39  C   UNL A   1      42.016  27.713  28.176  1.00  0.00     0.049 A 
ATOM     40  N   UNL A   1      44.147  29.839  28.107  1.00  0.00    -0.248 NA
ATOM     41  C   UNL A   1      42.563  31.393  28.821  1.00  0.00     0.031 C 
ATOM     42  C   UNL A   1      41.002  26.654  28.150  1.00  0.00     0.029 A 
ATOM     43  N   UNL A   1      43.154  27.091  27.731  1.00  0.00    -0.354 N 
ATOM     44  C   UNL A   1      44.733  31.098  28.167  1.00  0.00     0.074 A 
ATOM     45  C   UNL A   1      43.693  32.028  28.545  1.00  0.00     0.031 C 
ATOM     46  C   UNL A   1      41.576  25.505  27.759  1.00  0.00     0.029 A 
ATOM     47  C   UNL A   1      42.985  25.751  27.473  1.00  0.00     0.049 A 
ATOM     48  H   UNL A   1      44.010  27.560  27.606  1.00  0.00     0.167 HD
ATOM     49  C   UNL A   1      46.026  31.443  27.956  1.00  0.00     0.037 A 
ATOM     50  C   UNL A   1      43.869  24.822  27.061  1.00  0.00     0.037 A 
ATOM     51  C   UNL A   1      47.058  30.506  27.591  1.00  0.00     0.049 A 
ATOM     52  C   UNL A   1      45.302  25.226  26.852  1.00  0.00     0.074 A 
ATOM     53  C   UNL A   1      48.409  30.740  27.405  1.00  0.00     0.029 A 
ATOM     54  N   UNL A   1      46.853  29.154  27.351  1.00  0.00    -0.354 N 
ATOM     55  N   UNL A   1      45.857  26.407  26.992  1.00  0.00    -0.248 NA
ATOM     56  C   UNL A   1      46.234  24.167  26.448  1.00  0.00     0.031 C 
ATOM     57  C   UNL A   1      49.010  29.543  27.002  1.00  0.00     0.029 A 
ATOM     58  C   UNL A   1      48.048  28.547  26.998  1.00  0.00     0.049 A 
ATOM     59  H   UNL A   1      45.986  28.693  27.421  1.00  0.00     0.167 HD
ATOM     60  C   UNL A   1      47.208  26.227  26.719  1.00  0.00     0.074 A 
ATOM     61  C   UNL A   1      47.388  24.818  26.431  1.00  0.00     0.031 C 
ATOM     62  C   UNL A   1      48.210  27.143  26.707  1.00  0.00     0.037 A 
BRANCH  49  63
ATOM     63  C   UNL A   1      46.400  32.894  28.120  1.00  0.00     0.058 A 
ATOM     64  C   UNL A   1      46.916  33.394  29.327  1.00  0.00     0.135 A 
ATOM     65  C   UNL A   1      46.276  33.790  27.045  1.00  0.00     0.135 A 
ATOM     66  F   UNL A   1      47.042  32.588  30.394  1.00  0.00    -0.206 F 
ATOM     67  C   UNL A   1      47.267  34.732  29.472  1.00  0.00     0.059 A 
ATOM     68  C   UNL A   1      46.652  35.126  27.157  1.00  0.00     0.059 A 
ATOM     69  F   UNL A   1      45.787  33.371  25.868  1.00  0.00    -0.206 F 
ATOM     70  C   UNL A   1      47.134  35.591  28.380  1.00  0.00     0.060 A 
BRANCH  70  71
ATOM     71  S   UNL A   1      47.608  37.321  28.583  1.00  0.00     0.124 S 
ATOM     72  O   UNL A   1      48.861  37.196  29.322  1.00  0.00    -0.237 OA
ATOM     73  O   UNL A   1      47.731  37.774  27.201  1.00  0.00    -0.237 OA
ATOM     74  O   UNL A   1      46.493  37.894  29.331  1.00  0.00    -0.744 OA
ENDBRANCH  70  71
ENDBRANCH  49  63
BRANCH  50  75
ATOM     75  C   UNL A   1      43.428  23.415  26.857  1.00  0.00     0.058 A 
ATOM     76  C   UNL A   1      43.272  22.883  25.568  1.00  0.00     0.135 A 
ATOM     77  C   UNL A   1      43.166  22.570  27.947  1.00  0.00     0.135 A 
ATOM     78  F   UNL A   1      43.508  23.651  24.492  1.00  0.00    -0.206 F 
ATOM     79  C   UNL A   1      42.850  21.574  25.365  1.00  0.00     0.059 A 
ATOM     80  C   UNL A   1      42.772  21.248  27.769  1.00  0.00     0.059 A 
ATOM     81  F   UNL A   1      43.319  23.023  29.201  1.00  0.00    -0.206 F 
ATOM     82  C   UNL A   1      42.603  20.763  26.473  1.00  0.00     0.060 A 
BRANCH  82  83
ATOM     83  S   UNL A   1      42.093  19.053  26.199  1.00  0.00     0.124 S 
ATOM     84  O   UNL A   1      43.038  18.626  25.172  1.00  0.00    -0.237 OA
ATOM     85  O   UNL A   1      42.277  18.462  27.521  1.00  0.00    -0.237 OA
ATOM     86  O   UNL A   1      40.705  19.180  25.764  1.00  0.00    -0.744 OA
ENDBRANCH  82  83
ENDBRANCH  50  75
BRANCH  62  87
ATOM     87  C   UNL A   1      49.596  26.634  26.407  1.00  0.00     0.058 A 
ATOM     88  C   UNL A   1      50.404  26.052  27.395  1.00  0.00     0.135 A 
ATOM     89  C   UNL A   1      50.122  26.736  25.108  1.00  0.00     0.135 A 
ATOM     90  F   UNL A   1      49.951  25.929  28.654  1.00  0.00    -0.206 F 
ATOM     91  C   UNL A   1      51.706  25.644  27.123  1.00  0.00     0.059 A 
ATOM     92  C   UNL A   1      51.408  26.300  24.805  1.00  0.00     0.059 A 
ATOM     93  F   UNL A   1      49.387  27.268  24.119  1.00  0.00    -0.206 F 
ATOM     94  C   UNL A   1      52.202  25.780  25.825  1.00  0.00     0.060 A 
BRANCH  94  95
ATOM     95  S   UNL A   1      53.900  25.270  25.489  1.00  0.00     0.124 S 
ATOM     96  O   UNL A   1      54.038  25.621  24.080  1.00  0.00    -0.237 OA
ATOM     97  O   UNL A   1      54.665  26.089  26.425  1.00  0.00    -0.237 OA
ATOM     98  O   UNL A   1      53.890  23.840  25.781  1.00  0.00    -0.744 OA
ENDBRANCH  94  95
ENDBRANCH  62  87
ENDBRANCH  36  37
ENDBRANCH  28  31
ENDBRANCH  26  27
ENDBRANCH   1  26
TORSDOF 16
ENDMDL
