MODEL 1
REMARK VINA RESULT:     -11.0      0.000      0.000
REMARK SMILES O=C(NCCCNC(=O)c1noc(-c2ccccc2C(F)(F)F)n1)c1ccc(-c2c3nc(c(-c4c(F)cc(S(=O)(=O)[O-])cc4F)c4ccc([nH]4)c(-c4c(F)cc(S(=O)(=O)[O-])cc4F)c4nc(c(-c5c(F)cc(S(=O)(=O)[O-])cc5F)c5ccc2[nH]5)C=C4)C=C3)cc1
REMARK SMILES IDX 4 1 3 2 1 3 2 4 25 6 26 7 90 8 27 9 89 10 28 11 29 12 30 13
REMARK SMILES IDX 83 14 31 15 88 16 82 17 84 18 32 19 87 20 81 21 80 22 33 24
REMARK SMILES IDX 67 25 46 26 66 27 47 28 50 29 65 30 85 31 48 32 49 33 64 35
REMARK SMILES IDX 86 36 51 37 34 38 35 39 44 40 36 41 37 42 43 43 45 44 38 45
REMARK SMILES IDX 39 46 40 47 41 48 42 49 68 50 69 51 78 52 70 53 71 54 77 55
REMARK SMILES IDX 79 56 72 57 73 58 74 59 75 60 76 61 52 62 53 63 62 64 54 65
REMARK SMILES IDX 55 66 61 67 63 68 56 69 57 70 58 71 59 72 60 73 5 74 6 75
REMARK SMILES IDX 7 76 8 77 9 79 10 80 11 81 24 82 12 83 13 84 14 85 15 86
REMARK SMILES IDX 19 87 16 88 18 89 17 90 20 91 21 92 22 93 23 94
REMARK H PARENT 3 5 84 23 50 34 7 78
REMARK Flexibility Score: inf
ROOT
ATOM      1  C   UNL A   1      34.407  32.443  29.008  1.00  0.00     0.118 C 
ENDROOT
BRANCH   1   2
ATOM      2  N   UNL A   1      33.818  31.296  28.331  1.00  0.00    -0.352 N 
ATOM      3  O   UNL A   1      33.762  29.427  27.084  1.00  0.00    -0.269 OA
ATOM      4  C   UNL A   1      34.416  30.175  27.808  1.00  0.00     0.251 C 
ATOM      5  H   UNL A   1      32.839  31.329  28.232  1.00  0.00     0.163 HD
BRANCH   4   6
ATOM      6  C   UNL A   1      35.834  29.874  28.100  1.00  0.00     0.039 A 
ATOM      7  C   UNL A   1      36.831  30.134  27.158  1.00  0.00     0.014 A 
ATOM      8  C   UNL A   1      36.178  29.363  29.357  1.00  0.00     0.014 A 
ATOM      9  C   UNL A   1      38.145  29.761  27.416  1.00  0.00     0.010 A 
ATOM     10  C   UNL A   1      37.513  29.071  29.649  1.00  0.00     0.010 A 
ATOM     11  C   UNL A   1      38.505  29.245  28.672  1.00  0.00    -0.014 A 
BRANCH  11  12
ATOM     12  C   UNL A   1      39.935  28.972  28.961  1.00  0.00     0.031 A 
ATOM     13  C   UNL A   1      40.797  29.987  29.656  1.00  0.00     0.074 A 
ATOM     14  C   UNL A   1      40.445  27.774  28.608  1.00  0.00     0.049 A 
ATOM     15  N   UNL A   1      42.059  29.902  29.990  1.00  0.00    -0.248 NA
ATOM     16  C   UNL A   1      40.167  31.266  30.017  1.00  0.00     0.031 C 
ATOM     17  C   UNL A   1      39.702  26.716  27.915  1.00  0.00     0.029 A 
ATOM     18  N   UNL A   1      41.691  27.236  28.794  1.00  0.00    -0.354 N 
ATOM     19  C   UNL A   1      42.381  31.115  30.586  1.00  0.00     0.074 A 
ATOM     20  C   UNL A   1      41.186  31.931  30.546  1.00  0.00     0.031 C 
ATOM     21  C   UNL A   1      40.492  25.642  27.777  1.00  0.00     0.029 A 
ATOM     22  C   UNL A   1      41.812  25.953  28.313  1.00  0.00     0.049 A 
ATOM     23  H   UNL A   1      42.428  27.721  29.229  1.00  0.00     0.167 HD
ATOM     24  C   UNL A   1      43.563  31.506  31.122  1.00  0.00     0.037 A 
ATOM     25  C   UNL A   1      42.871  25.124  28.289  1.00  0.00     0.037 A 
ATOM     26  C   UNL A   1      44.743  30.680  31.168  1.00  0.00     0.049 A 
ATOM     27  C   UNL A   1      44.172  25.589  28.874  1.00  0.00     0.074 A 
ATOM     28  C   UNL A   1      45.980  30.974  31.716  1.00  0.00     0.029 A 
ATOM     29  N   UNL A   1      44.834  29.397  30.647  1.00  0.00    -0.354 N 
ATOM     30  N   UNL A   1      44.450  26.733  29.451  1.00  0.00    -0.248 NA
ATOM     31  C   UNL A   1      45.304  24.656  28.798  1.00  0.00     0.031 C 
ATOM     32  C   UNL A   1      46.829  29.884  31.492  1.00  0.00     0.029 A 
ATOM     33  C   UNL A   1      46.110  28.894  30.843  1.00  0.00     0.049 A 
ATOM     34  H   UNL A   1      44.099  28.914  30.204  1.00  0.00     0.167 HD
ATOM     35  C   UNL A   1      45.788  26.656  29.816  1.00  0.00     0.074 A 
ATOM     36  C   UNL A   1      46.257  25.345  29.412  1.00  0.00     0.031 C 
ATOM     37  C   UNL A   1      46.560  27.588  30.429  1.00  0.00     0.037 A 
BRANCH  24  38
ATOM     38  C   UNL A   1      43.647  32.896  31.691  1.00  0.00     0.058 A 
ATOM     39  C   UNL A   1      43.340  33.162  33.034  1.00  0.00     0.135 A 
ATOM     40  C   UNL A   1      44.079  33.968  30.894  1.00  0.00     0.135 A 
ATOM     41  F   UNL A   1      42.908  32.177  33.838  1.00  0.00    -0.206 F 
ATOM     42  C   UNL A   1      43.436  34.447  33.561  1.00  0.00     0.059 A 
ATOM     43  C   UNL A   1      44.204  35.257  31.405  1.00  0.00     0.059 A 
ATOM     44  F   UNL A   1      44.386  33.769  29.602  1.00  0.00    -0.206 F 
ATOM     45  C   UNL A   1      43.866  35.489  32.738  1.00  0.00     0.060 A 
BRANCH  45  46
ATOM     46  S   UNL A   1      43.982  37.151  33.435  1.00  0.00     0.124 S 
ATOM     47  O   UNL A   1      42.837  37.165  34.342  1.00  0.00    -0.237 OA
ATOM     48  O   UNL A   1      45.294  37.133  34.074  1.00  0.00    -0.237 OA
ATOM     49  O   UNL A   1      43.868  38.019  32.268  1.00  0.00    -0.744 OA
ENDBRANCH  45  46
ENDBRANCH  24  38
BRANCH  25  50
ATOM     50  C   UNL A   1      42.733  23.775  27.683  1.00  0.00     0.058 A 
ATOM     51  C   UNL A   1      42.900  23.580  26.305  1.00  0.00     0.135 A 
ATOM     52  C   UNL A   1      42.478  22.647  28.480  1.00  0.00     0.135 A 
ATOM     53  F   UNL A   1      43.142  24.629  25.505  1.00  0.00    -0.206 F 
ATOM     54  C   UNL A   1      42.813  22.315  25.734  1.00  0.00     0.059 A 
ATOM     55  C   UNL A   1      42.410  21.369  27.936  1.00  0.00     0.059 A 
ATOM     56  F   UNL A   1      42.329  22.780  29.807  1.00  0.00    -0.206 F 
ATOM     57  C   UNL A   1      42.571  21.215  26.560  1.00  0.00     0.060 A 
BRANCH  57  58
ATOM     58  S   UNL A   1      42.524  19.568  25.822  1.00  0.00     0.124 S 
ATOM     59  O   UNL A   1      41.123  19.462  25.432  1.00  0.00    -0.237 OA
ATOM     60  O   UNL A   1      43.483  19.691  24.728  1.00  0.00    -0.237 OA
ATOM     61  O   UNL A   1      42.944  18.698  26.917  1.00  0.00    -0.744 OA
ENDBRANCH  57  58
ENDBRANCH  25  50
BRANCH  37  62
ATOM     62  C   UNL A   1      47.987  27.215  30.709  1.00  0.00     0.058 A 
ATOM     63  C   UNL A   1      48.337  26.453  31.833  1.00  0.00     0.135 A 
ATOM     64  C   UNL A   1      49.008  27.590  29.822  1.00  0.00     0.135 A 
ATOM     65  F   UNL A   1      47.397  26.079  32.716  1.00  0.00    -0.206 F 
ATOM     66  C   UNL A   1      49.657  26.091  32.081  1.00  0.00     0.059 A 
ATOM     67  C   UNL A   1      50.331  27.220  30.038  1.00  0.00     0.059 A 
ATOM     68  F   UNL A   1      48.722  28.313  28.728  1.00  0.00    -0.206 F 
ATOM     69  C   UNL A   1      50.647  26.480  31.176  1.00  0.00     0.060 A 
BRANCH  69  70
ATOM     70  S   UNL A   1      52.353  25.976  31.488  1.00  0.00     0.124 S 
ATOM     71  O   UNL A   1      52.166  24.635  32.034  1.00  0.00    -0.237 OA
ATOM     72  O   UNL A   1      52.948  26.041  30.157  1.00  0.00    -0.237 OA
ATOM     73  O   UNL A   1      52.834  26.978  32.433  1.00  0.00    -0.744 OA
ENDBRANCH  69  70
ENDBRANCH  37  62
ENDBRANCH  11  12
ENDBRANCH   4   6
ENDBRANCH   1   2
BRANCH   1  74
ATOM     74  C   UNL A   1      33.812  33.762  28.535  1.00  0.00     0.042 C 
BRANCH  74  75
ATOM     75  C   UNL A   1      34.681  34.973  28.862  1.00  0.00     0.118 C 
BRANCH  75  76
ATOM     76  N   UNL A   1      33.896  36.051  29.445  1.00  0.00    -0.349 N 
ATOM     77  C   UNL A   1      33.330  36.136  30.701  1.00  0.00     0.292 C 
ATOM     78  H   UNL A   1      33.749  36.831  28.861  1.00  0.00     0.163 HD
ATOM     79  O   UNL A   1      32.500  37.027  30.899  1.00  0.00    -0.266 OA
BRANCH  77  80
ATOM     80  C   UNL A   1      33.743  35.182  31.738  1.00  0.00     0.260 A 
ATOM     81  N   UNL A   1      32.899  34.292  32.290  1.00  0.00    -0.051 NA
ATOM     82  N   UNL A   1      35.023  35.134  32.262  1.00  0.00    -0.182 NA
ATOM     83  O   UNL A   1      33.704  33.586  33.187  1.00  0.00    -0.333 OA
ATOM     84  C   UNL A   1      34.944  34.147  33.116  1.00  0.00     0.259 A 
BRANCH  84  85
ATOM     85  C   UNL A   1      35.980  33.592  33.965  1.00  0.00     0.052 A 
ATOM     86  C   UNL A   1      36.119  34.084  35.275  1.00  0.00     0.014 A 
ATOM     87  C   UNL A   1      36.795  32.524  33.536  1.00  0.00     0.068 A 
ATOM     88  C   UNL A   1      37.034  33.513  36.160  1.00  0.00     0.001 A 
ATOM     89  C   UNL A   1      37.708  31.958  34.446  1.00  0.00     0.014 A 
ATOM     90  C   UNL A   1      37.826  32.448  35.746  1.00  0.00     0.001 A 
BRANCH  87  91
ATOM     91  C   UNL A   1      36.709  31.941  32.143  1.00  0.00     0.417 C 
ATOM     92  F   UNL A   1      37.621  30.941  31.951  1.00  0.00    -0.166 F 
ATOM     93  F   UNL A   1      35.497  31.380  31.883  1.00  0.00    -0.166 F 
ATOM     94  F   UNL A   1      36.955  32.825  31.139  1.00  0.00    -0.166 F 
ENDBRANCH  87  91
ENDBRANCH  84  85
ENDBRANCH  77  80
ENDBRANCH  75  76
ENDBRANCH  74  75
ENDBRANCH   1  74
TORSDOF 15
ENDMDL
MODEL 2
REMARK VINA RESULT:     -10.8      2.249      2.867
REMARK SMILES O=C(NCCCNC(=O)c1noc(-c2ccccc2C(F)(F)F)n1)c1ccc(-c2c3nc(c(-c4c(F)cc(S(=O)(=O)[O-])cc4F)c4ccc([nH]4)c(-c4c(F)cc(S(=O)(=O)[O-])cc4F)c4nc(c(-c5c(F)cc(S(=O)(=O)[O-])cc5F)c5ccc2[nH]5)C=C4)C=C3)cc1
REMARK SMILES IDX 4 1 3 2 1 3 2 4 25 6 26 7 90 8 27 9 89 10 28 11 29 12 30 13
REMARK SMILES IDX 83 14 31 15 88 16 82 17 84 18 32 19 87 20 81 21 80 22 33 24
REMARK SMILES IDX 67 25 46 26 66 27 47 28 50 29 65 30 85 31 48 32 49 33 64 35
REMARK SMILES IDX 86 36 51 37 34 38 35 39 44 40 36 41 37 42 43 43 45 44 38 45
REMARK SMILES IDX 39 46 40 47 41 48 42 49 68 50 69 51 78 52 70 53 71 54 77 55
REMARK SMILES IDX 79 56 72 57 73 58 74 59 75 60 76 61 52 62 53 63 62 64 54 65
REMARK SMILES IDX 55 66 61 67 63 68 56 69 57 70 58 71 59 72 60 73 5 74 6 75
REMARK SMILES IDX 7 76 8 77 9 79 10 80 11 81 24 82 12 83 13 84 14 85 15 86
REMARK SMILES IDX 19 87 16 88 18 89 17 90 20 91 21 92 22 93 23 94
REMARK H PARENT 3 5 84 23 50 34 7 78
REMARK Flexibility Score: inf
ROOT
ATOM      1  C   UNL A   1      34.980  33.293  28.408  1.00  0.00     0.118 C 
ENDROOT
BRANCH   1   2
ATOM      2  N   UNL A   1      34.355  32.107  27.837  1.00  0.00    -0.352 N 
ATOM      3  O   UNL A   1      34.240  30.047  26.948  1.00  0.00    -0.269 OA
ATOM      4  C   UNL A   1      34.861  30.845  27.646  1.00  0.00     0.251 C 
ATOM      5  H   UNL A   1      33.423  32.230  27.542  1.00  0.00     0.163 HD
BRANCH   4   6
ATOM      6  C   UNL A   1      36.147  30.450  28.261  1.00  0.00     0.039 A 
ATOM      7  C   UNL A   1      37.316  31.168  28.002  1.00  0.00     0.014 A 
ATOM      8  C   UNL A   1      36.174  29.370  29.150  1.00  0.00     0.014 A 
ATOM      9  C   UNL A   1      38.530  30.728  28.517  1.00  0.00     0.010 A 
ATOM     10  C   UNL A   1      37.382  28.982  29.739  1.00  0.00     0.010 A 
ATOM     11  C   UNL A   1      38.574  29.643  29.408  1.00  0.00    -0.014 A 
BRANCH  11  12
ATOM     12  C   UNL A   1      39.866  29.275  30.039  1.00  0.00     0.031 A 
ATOM     13  C   UNL A   1      40.364  29.983  31.267  1.00  0.00     0.074 A 
ATOM     14  C   UNL A   1      40.580  28.265  29.499  1.00  0.00     0.049 A 
ATOM     15  N   UNL A   1      41.464  29.777  31.945  1.00  0.00    -0.248 NA
ATOM     16  C   UNL A   1      39.526  31.067  31.802  1.00  0.00     0.031 C 
ATOM     17  C   UNL A   1      40.199  27.515  28.298  1.00  0.00     0.029 A 
ATOM     18  N   UNL A   1      41.757  27.685  29.892  1.00  0.00    -0.354 N 
ATOM     19  C   UNL A   1      41.461  30.710  32.974  1.00  0.00     0.074 A 
ATOM     20  C   UNL A   1      40.259  31.501  32.818  1.00  0.00     0.031 C 
ATOM     21  C   UNL A   1      41.099  26.547  28.081  1.00  0.00     0.029 A 
ATOM     22  C   UNL A   1      42.151  26.643  29.085  1.00  0.00     0.049 A 
ATOM     23  H   UNL A   1      42.271  27.985  30.676  1.00  0.00     0.167 HD
ATOM     24  C   UNL A   1      42.374  30.882  33.961  1.00  0.00     0.037 A 
ATOM     25  C   UNL A   1      43.245  25.862  29.136  1.00  0.00     0.037 A 
ATOM     26  C   UNL A   1      43.561  30.079  34.114  1.00  0.00     0.049 A 
ATOM     27  C   UNL A   1      44.249  26.087  30.229  1.00  0.00     0.074 A 
ATOM     28  C   UNL A   1      44.532  30.157  35.097  1.00  0.00     0.029 A 
ATOM     29  N   UNL A   1      43.939  29.051  33.262  1.00  0.00    -0.354 N 
ATOM     30  N   UNL A   1      44.217  26.961  31.205  1.00  0.00    -0.248 NA
ATOM     31  C   UNL A   1      45.439  25.226  30.223  1.00  0.00     0.031 C 
ATOM     32  C   UNL A   1      45.516  29.202  34.817  1.00  0.00     0.029 A 
ATOM     33  C   UNL A   1      45.138  28.500  33.684  1.00  0.00     0.049 A 
ATOM     34  H   UNL A   1      43.430  28.757  32.472  1.00  0.00     0.167 HD
ATOM     35  C   UNL A   1      45.379  26.752  31.937  1.00  0.00     0.074 A 
ATOM     36  C   UNL A   1      46.081  25.654  31.302  1.00  0.00     0.031 C 
ATOM     37  C   UNL A   1      45.825  27.411  33.036  1.00  0.00     0.037 A 
BRANCH  24  38
ATOM     38  C   UNL A   1      42.136  31.993  34.947  1.00  0.00     0.058 A 
ATOM     39  C   UNL A   1      41.294  31.824  36.057  1.00  0.00     0.135 A 
ATOM     40  C   UNL A   1      42.790  33.227  34.803  1.00  0.00     0.135 A 
ATOM     41  F   UNL A   1      40.632  30.670  36.236  1.00  0.00    -0.206 F 
ATOM     42  C   UNL A   1      41.090  32.849  36.977  1.00  0.00     0.059 A 
ATOM     43  C   UNL A   1      42.618  34.259  35.723  1.00  0.00     0.059 A 
ATOM     44  F   UNL A   1      43.607  33.442  33.760  1.00  0.00    -0.206 F 
ATOM     45  C   UNL A   1      41.754  34.064  36.800  1.00  0.00     0.060 A 
BRANCH  45  46
ATOM     46  S   UNL A   1      41.477  35.384  38.000  1.00  0.00     0.124 S 
ATOM     47  O   UNL A   1      42.764  36.074  37.975  1.00  0.00    -0.237 OA
ATOM     48  O   UNL A   1      40.357  36.114  37.413  1.00  0.00    -0.237 OA
ATOM     49  O   UNL A   1      41.175  34.666  39.234  1.00  0.00    -0.744 OA
ENDBRANCH  45  46
ENDBRANCH  24  38
BRANCH  25  50
ATOM     50  C   UNL A   1      43.439  24.803  28.113  1.00  0.00     0.058 A 
ATOM     51  C   UNL A   1      44.124  25.068  26.919  1.00  0.00     0.135 A 
ATOM     52  C   UNL A   1      42.983  23.493  28.332  1.00  0.00     0.135 A 
ATOM     53  F   UNL A   1      44.575  26.306  26.666  1.00  0.00    -0.206 F 
ATOM     54  C   UNL A   1      44.346  24.073  25.973  1.00  0.00     0.059 A 
ATOM     55  C   UNL A   1      43.215  22.476  27.412  1.00  0.00     0.059 A 
ATOM     56  F   UNL A   1      42.339  23.186  29.469  1.00  0.00    -0.206 F 
ATOM     57  C   UNL A   1      43.890  22.779  26.231  1.00  0.00     0.060 A 
BRANCH  57  58
ATOM     58  S   UNL A   1      44.239  21.478  25.029  1.00  0.00     0.124 S 
ATOM     59  O   UNL A   1      43.159  20.535  25.297  1.00  0.00    -0.237 OA
ATOM     60  O   UNL A   1      44.159  22.198  23.761  1.00  0.00    -0.237 OA
ATOM     61  O   UNL A   1      45.578  21.029  25.401  1.00  0.00    -0.744 OA
ENDBRANCH  57  58
ENDBRANCH  25  50
BRANCH  37  62
ATOM     62  C   UNL A   1      47.127  26.951  33.625  1.00  0.00     0.058 A 
ATOM     63  C   UNL A   1      48.348  27.523  33.238  1.00  0.00     0.135 A 
ATOM     64  C   UNL A   1      47.148  25.956  34.615  1.00  0.00     0.135 A 
ATOM     65  F   UNL A   1      48.380  28.470  32.288  1.00  0.00    -0.206 F 
ATOM     66  C   UNL A   1      49.551  27.109  33.800  1.00  0.00     0.059 A 
ATOM     67  C   UNL A   1      48.337  25.544  35.206  1.00  0.00     0.059 A 
ATOM     68  F   UNL A   1      46.004  25.384  35.024  1.00  0.00    -0.206 F 
ATOM     69  C   UNL A   1      49.535  26.119  34.784  1.00  0.00     0.060 A 
BRANCH  69  70
ATOM     70  S   UNL A   1      51.099  25.613  35.531  1.00  0.00     0.124 S 
ATOM     71  O   UNL A   1      51.930  25.396  34.352  1.00  0.00    -0.237 OA
ATOM     72  O   UNL A   1      51.447  26.772  36.347  1.00  0.00    -0.237 OA
ATOM     73  O   UNL A   1      50.743  24.412  36.280  1.00  0.00    -0.744 OA
ENDBRANCH  69  70
ENDBRANCH  37  62
ENDBRANCH  11  12
ENDBRANCH   4   6
ENDBRANCH   1   2
BRANCH   1  74
ATOM     74  C   UNL A   1      34.250  34.573  28.025  1.00  0.00     0.042 C 
BRANCH  74  75
ATOM     75  C   UNL A   1      33.009  34.841  28.871  1.00  0.00     0.118 C 
BRANCH  75  76
ATOM     76  N   UNL A   1      33.027  36.184  29.434  1.00  0.00    -0.349 N 
ATOM     77  C   UNL A   1      33.102  36.573  30.756  1.00  0.00     0.292 C 
ATOM     78  H   UNL A   1      32.980  36.918  28.779  1.00  0.00     0.163 HD
ATOM     79  O   UNL A   1      32.852  37.751  31.024  1.00  0.00    -0.266 OA
BRANCH  77  80
ATOM     80  C   UNL A   1      33.481  35.584  31.772  1.00  0.00     0.260 A 
ATOM     81  N   UNL A   1      32.583  34.820  32.420  1.00  0.00    -0.051 NA
ATOM     82  N   UNL A   1      34.787  35.372  32.178  1.00  0.00    -0.182 NA
ATOM     83  O   UNL A   1      33.369  34.023  33.256  1.00  0.00    -0.333 OA
ATOM     84  C   UNL A   1      34.659  34.413  33.058  1.00  0.00     0.259 A 
BRANCH  84  85
ATOM     85  C   UNL A   1      35.689  33.736  33.823  1.00  0.00     0.052 A 
ATOM     86  C   UNL A   1      36.066  34.263  35.070  1.00  0.00     0.014 A 
ATOM     87  C   UNL A   1      36.261  32.525  33.381  1.00  0.00     0.068 A 
ATOM     88  C   UNL A   1      36.978  33.591  35.884  1.00  0.00     0.001 A 
ATOM     89  C   UNL A   1      37.175  31.859  34.220  1.00  0.00     0.014 A 
ATOM     90  C   UNL A   1      37.530  32.387  35.460  1.00  0.00     0.001 A 
BRANCH  87  91
ATOM     91  C   UNL A   1      35.911  31.894  32.051  1.00  0.00     0.417 C 
ATOM     92  F   UNL A   1      36.135  30.545  32.050  1.00  0.00    -0.166 F 
ATOM     93  F   UNL A   1      34.597  32.042  31.730  1.00  0.00    -0.166 F 
ATOM     94  F   UNL A   1      36.627  32.361  30.994  1.00  0.00    -0.166 F 
ENDBRANCH  87  91
ENDBRANCH  84  85
ENDBRANCH  77  80
ENDBRANCH  75  76
ENDBRANCH  74  75
ENDBRANCH   1  74
TORSDOF 15
ENDMDL
MODEL 3
REMARK VINA RESULT:     -10.8      4.274     12.342
REMARK SMILES O=C(NCCCNC(=O)c1noc(-c2ccccc2C(F)(F)F)n1)c1ccc(-c2c3nc(c(-c4c(F)cc(S(=O)(=O)[O-])cc4F)c4ccc([nH]4)c(-c4c(F)cc(S(=O)(=O)[O-])cc4F)c4nc(c(-c5c(F)cc(S(=O)(=O)[O-])cc5F)c5ccc2[nH]5)C=C4)C=C3)cc1
REMARK SMILES IDX 4 1 3 2 1 3 2 4 25 6 26 7 90 8 27 9 89 10 28 11 29 12 30 13
REMARK SMILES IDX 83 14 31 15 88 16 82 17 84 18 32 19 87 20 81 21 80 22 33 24
REMARK SMILES IDX 67 25 46 26 66 27 47 28 50 29 65 30 85 31 48 32 49 33 64 35
REMARK SMILES IDX 86 36 51 37 34 38 35 39 44 40 36 41 37 42 43 43 45 44 38 45
REMARK SMILES IDX 39 46 40 47 41 48 42 49 68 50 69 51 78 52 70 53 71 54 77 55
REMARK SMILES IDX 79 56 72 57 73 58 74 59 75 60 76 61 52 62 53 63 62 64 54 65
REMARK SMILES IDX 55 66 61 67 63 68 56 69 57 70 58 71 59 72 60 73 5 74 6 75
REMARK SMILES IDX 7 76 8 77 9 79 10 80 11 81 24 82 12 83 13 84 14 85 15 86
REMARK SMILES IDX 19 87 16 88 18 89 17 90 20 91 21 92 22 93 23 94
REMARK H PARENT 3 5 84 23 50 34 7 78
REMARK Flexibility Score: inf
ROOT
ATOM      1  C   UNL A   1      40.635  23.008  27.447  1.00  0.00     0.118 C 
ENDROOT
BRANCH   1   2
ATOM      2  N   UNL A   1      41.049  23.796  26.293  1.00  0.00    -0.352 N 
ATOM      3  O   UNL A   1      41.286  25.621  25.006  1.00  0.00    -0.269 OA
ATOM      4  C   UNL A   1      41.117  25.158  26.131  1.00  0.00     0.251 C 
ATOM      5  H   UNL A   1      41.323  23.269  25.508  1.00  0.00     0.163 HD
BRANCH   4   6
ATOM      6  C   UNL A   1      40.977  26.061  27.293  1.00  0.00     0.039 A 
ATOM      7  C   UNL A   1      41.763  27.210  27.406  1.00  0.00     0.014 A 
ATOM      8  C   UNL A   1      40.010  25.779  28.264  1.00  0.00     0.014 A 
ATOM      9  C   UNL A   1      41.681  27.998  28.549  1.00  0.00     0.010 A 
ATOM     10  C   UNL A   1      39.866  26.622  29.370  1.00  0.00     0.010 A 
ATOM     11  C   UNL A   1      40.717  27.725  29.534  1.00  0.00    -0.014 A 
BRANCH  11  12
ATOM     12  C   UNL A   1      40.569  28.655  30.681  1.00  0.00     0.031 A 
ATOM     13  C   UNL A   1      41.470  28.564  31.880  1.00  0.00     0.074 A 
ATOM     14  C   UNL A   1      39.619  29.610  30.616  1.00  0.00     0.049 A 
ATOM     15  N   UNL A   1      41.480  29.304  32.958  1.00  0.00    -0.248 NA
ATOM     16  C   UNL A   1      42.489  27.503  31.873  1.00  0.00     0.031 C 
ATOM     17  C   UNL A   1      38.676  29.784  29.506  1.00  0.00     0.029 A 
ATOM     18  N   UNL A   1      39.296  30.619  31.484  1.00  0.00    -0.354 N 
ATOM     19  C   UNL A   1      42.489  28.793  33.765  1.00  0.00     0.074 A 
ATOM     20  C   UNL A   1      43.056  27.662  33.061  1.00  0.00     0.031 C 
ATOM     21  C   UNL A   1      37.915  30.861  29.739  1.00  0.00     0.029 A 
ATOM     22  C   UNL A   1      38.270  31.419  31.039  1.00  0.00     0.049 A 
ATOM     23  H   UNL A   1      39.754  30.758  32.344  1.00  0.00     0.167 HD
ATOM     24  C   UNL A   1      42.907  29.234  34.977  1.00  0.00     0.037 A 
ATOM     25  C   UNL A   1      37.667  32.474  31.617  1.00  0.00     0.037 A 
ATOM     26  C   UNL A   1      42.344  30.370  35.663  1.00  0.00     0.049 A 
ATOM     27  C   UNL A   1      38.138  32.930  32.967  1.00  0.00     0.074 A 
ATOM     28  C   UNL A   1      42.718  30.912  36.880  1.00  0.00     0.029 A 
ATOM     29  N   UNL A   1      41.289  31.138  35.191  1.00  0.00    -0.354 N 
ATOM     30  N   UNL A   1      39.108  32.445  33.705  1.00  0.00    -0.248 NA
ATOM     31  C   UNL A   1      37.430  34.068  33.567  1.00  0.00     0.031 C 
ATOM     32  C   UNL A   1      41.863  31.984  37.162  1.00  0.00     0.029 A 
ATOM     33  C   UNL A   1      40.984  32.137  36.102  1.00  0.00     0.049 A 
ATOM     34  H   UNL A   1      40.824  30.994  34.335  1.00  0.00     0.167 HD
ATOM     35  C   UNL A   1      39.133  33.225  34.854  1.00  0.00     0.074 A 
ATOM     36  C   UNL A   1      38.094  34.224  34.704  1.00  0.00     0.031 C 
ATOM     37  C   UNL A   1      39.943  33.120  35.938  1.00  0.00     0.037 A 
BRANCH  24  38
ATOM     38  C   UNL A   1      44.019  28.477  35.651  1.00  0.00     0.058 A 
ATOM     39  C   UNL A   1      43.758  27.432  36.550  1.00  0.00     0.135 A 
ATOM     40  C   UNL A   1      45.361  28.772  35.361  1.00  0.00     0.135 A 
ATOM     41  F   UNL A   1      42.494  27.117  36.875  1.00  0.00    -0.206 F 
ATOM     42  C   UNL A   1      44.790  26.722  37.158  1.00  0.00     0.059 A 
ATOM     43  C   UNL A   1      46.408  28.060  35.940  1.00  0.00     0.059 A 
ATOM     44  F   UNL A   1      45.666  29.761  34.506  1.00  0.00    -0.206 F 
ATOM     45  C   UNL A   1      46.112  27.045  36.849  1.00  0.00     0.060 A 
BRANCH  45  46
ATOM     46  S   UNL A   1      47.439  26.117  37.648  1.00  0.00     0.124 S 
ATOM     47  O   UNL A   1      46.751  24.881  38.010  1.00  0.00    -0.237 OA
ATOM     48  O   UNL A   1      48.429  26.000  36.581  1.00  0.00    -0.237 OA
ATOM     49  O   UNL A   1      47.826  26.970  38.767  1.00  0.00    -0.744 OA
ENDBRANCH  45  46
ENDBRANCH  24  38
BRANCH  25  50
ATOM     50  C   UNL A   1      36.552  33.159  30.915  1.00  0.00     0.058 A 
ATOM     51  C   UNL A   1      35.229  33.028  31.359  1.00  0.00     0.135 A 
ATOM     52  C   UNL A   1      36.796  33.995  29.814  1.00  0.00     0.135 A 
ATOM     53  F   UNL A   1      34.949  32.237  32.405  1.00  0.00    -0.206 F 
ATOM     54  C   UNL A   1      34.183  33.697  30.733  1.00  0.00     0.059 A 
ATOM     55  C   UNL A   1      35.771  34.694  29.186  1.00  0.00     0.059 A 
ATOM     56  F   UNL A   1      38.049  34.167  29.364  1.00  0.00    -0.206 F 
ATOM     57  C   UNL A   1      34.466  34.531  29.649  1.00  0.00     0.060 A 
BRANCH  57  58
ATOM     58  S   UNL A   1      33.112  35.448  28.881  1.00  0.00     0.124 S 
ATOM     59  O   UNL A   1      32.383  35.925  30.051  1.00  0.00    -0.237 OA
ATOM     60  O   UNL A   1      33.824  36.466  28.113  1.00  0.00    -0.237 OA
ATOM     61  O   UNL A   1      32.432  34.434  28.081  1.00  0.00    -0.744 OA
ENDBRANCH  57  58
ENDBRANCH  25  50
BRANCH  37  62
ATOM     62  C   UNL A   1      39.743  34.122  37.038  1.00  0.00     0.058 A 
ATOM     63  C   UNL A   1      40.278  35.416  36.956  1.00  0.00     0.135 A 
ATOM     64  C   UNL A   1      38.974  33.796  38.166  1.00  0.00     0.135 A 
ATOM     65  F   UNL A   1      41.029  35.772  35.901  1.00  0.00    -0.206 F 
ATOM     66  C   UNL A   1      40.075  36.350  37.966  1.00  0.00     0.059 A 
ATOM     67  C   UNL A   1      38.739  34.721  39.177  1.00  0.00     0.059 A 
ATOM     68  F   UNL A   1      38.435  32.573  38.287  1.00  0.00    -0.206 F 
ATOM     69  C   UNL A   1      39.303  35.992  39.074  1.00  0.00     0.060 A 
BRANCH  69  70
ATOM     70  S   UNL A   1      39.016  37.222  40.364  1.00  0.00     0.124 S 
ATOM     71  O   UNL A   1      38.307  38.261  39.626  1.00  0.00    -0.237 OA
ATOM     72  O   UNL A   1      38.219  36.479  41.335  1.00  0.00    -0.237 OA
ATOM     73  O   UNL A   1      40.363  37.570  40.805  1.00  0.00    -0.744 OA
ENDBRANCH  69  70
ENDBRANCH  37  62
ENDBRANCH  11  12
ENDBRANCH   4   6
ENDBRANCH   1   2
BRANCH   1  74
ATOM     74  C   UNL A   1      40.850  21.516  27.236  1.00  0.00     0.042 C 
BRANCH  74  75
ATOM     75  C   UNL A   1      42.299  21.078  27.422  1.00  0.00     0.118 C 
BRANCH  75  76
ATOM     76  N   UNL A   1      42.886  20.628  26.168  1.00  0.00    -0.349 N 
ATOM     77  C   UNL A   1      43.889  21.209  25.418  1.00  0.00     0.292 C 
ATOM     78  H   UNL A   1      42.516  19.792  25.803  1.00  0.00     0.163 HD
ATOM     79  O   UNL A   1      44.059  20.797  24.267  1.00  0.00    -0.266 OA
BRANCH  77  80
ATOM     80  C   UNL A   1      44.706  22.271  26.017  1.00  0.00     0.260 A 
ATOM     81  N   UNL A   1      46.043  22.181  26.144  1.00  0.00    -0.051 NA
ATOM     82  N   UNL A   1      44.176  23.440  26.534  1.00  0.00    -0.182 NA
ATOM     83  O   UNL A   1      46.402  23.398  26.727  1.00  0.00    -0.333 OA
ATOM     84  C   UNL A   1      45.242  24.085  26.931  1.00  0.00     0.259 A 
BRANCH  84  85
ATOM     85  C   UNL A   1      45.338  25.397  27.540  1.00  0.00     0.052 A 
ATOM     86  C   UNL A   1      45.859  26.460  26.782  1.00  0.00     0.014 A 
ATOM     87  C   UNL A   1      44.852  25.646  28.840  1.00  0.00     0.068 A 
ATOM     88  C   UNL A   1      45.879  27.759  27.291  1.00  0.00     0.001 A 
ATOM     89  C   UNL A   1      44.875  26.965  29.333  1.00  0.00     0.014 A 
ATOM     90  C   UNL A   1      45.383  28.012  28.565  1.00  0.00     0.001 A 
BRANCH  87  91
ATOM     91  C   UNL A   1      44.280  24.557  29.720  1.00  0.00     0.417 C 
ATOM     92  F   UNL A   1      44.307  24.901  31.043  1.00  0.00    -0.166 F 
ATOM     93  F   UNL A   1      42.974  24.291  29.443  1.00  0.00    -0.166 F 
ATOM     94  F   UNL A   1      44.942  23.371  29.661  1.00  0.00    -0.166 F 
ENDBRANCH  87  91
ENDBRANCH  84  85
ENDBRANCH  77  80
ENDBRANCH  75  76
ENDBRANCH  74  75
ENDBRANCH   1  74
TORSDOF 15
ENDMDL
