MODEL 1
REMARK VINA RESULT:     -13.3      0.000      0.000
REMARK SMILES Cn1c(C(=O)N2CCC[C@@H](C(=O)NCCCNC(=O)c3ccc(-c4c5nc(c(-c6c(F)cc(S(=O)(=O)[O-])cc6F)c6ccc([nH]6)c(-c6c(F)cc(S(=O)(=O)[O-])cc6F)c6nc(c(-c7c(F)cc(S(=O)(=O)[O-])cc7F)c7ccc4[nH]7)C=C6)C=C5)cc3)C2)cc2sccc21
REMARK SMILES IDX 15 1 14 2 13 3 11 4 12 5 10 7 6 8 7 9 86 10 8 11 9 12 4 13
REMARK SMILES IDX 5 14 3 15 1 16 2 17 92 18 87 19 88 20 91 21 89 22 90 23
REMARK SMILES IDX 16 24 17 25 18 26 19 28 20 29 21 30 85 31 22 32 84 33 23 34
REMARK SMILES IDX 24 35 25 36 78 37 26 38 83 39 77 40 79 41 27 42 82 43 76 44
REMARK SMILES IDX 75 45 28 47 62 48 41 49 61 50 42 51 45 52 60 53 80 54 43 55
REMARK SMILES IDX 44 56 59 58 81 59 46 60 29 61 30 62 39 63 31 64 32 65 38 66
REMARK SMILES IDX 40 67 33 68 34 69 35 70 36 71 37 72 63 73 64 74 73 75 65 76
REMARK SMILES IDX 66 77 72 78 74 79 67 80 68 81 69 82 70 83 71 84 47 85 48 86
REMARK SMILES IDX 57 87 49 88 50 89 56 90 58 91 51 92 52 93 53 94 54 95 55 96
REMARK H PARENT 13 6 17 27 79 46 45 57
REMARK Flexibility Score: inf
ROOT
ATOM      1  C   UNL A   1      36.475  22.323  24.816  1.00  0.00     0.042 C 
ENDROOT
BRANCH   1   2
ATOM      2  C   UNL A   1      35.859  21.318  25.790  1.00  0.00     0.117 C 
BRANCH   2   3
ATOM      3  N   UNL A   1      35.024  20.328  25.125  1.00  0.00    -0.356 N 
ATOM      4  C   UNL A   1      33.760  20.454  24.625  1.00  0.00     0.224 C 
ATOM      5  O   UNL A   1      33.229  19.478  24.098  1.00  0.00    -0.275 OA
ATOM      6  H   UNL A   1      35.430  19.437  25.021  1.00  0.00     0.163 HD
BRANCH   4   7
ATOM      7  C   UNL A   1      33.090  21.812  24.669  1.00  0.00     0.098 C 
ATOM      8  N   UNL A   1      32.364  23.667  23.221  1.00  0.00    -0.337 N 
ATOM      9  C   UNL A   1      31.037  23.700  23.821  1.00  0.00     0.120 C 
ATOM     10  C   UNL A   1      33.054  22.377  23.242  1.00  0.00     0.133 C 
ATOM     11  C   UNL A   1      31.029  23.120  25.229  1.00  0.00     0.022 C 
ATOM     12  C   UNL A   1      31.670  21.733  25.246  1.00  0.00     0.017 C 
BRANCH   8  13
ATOM     13  C   UNL A   1      32.951  24.861  22.814  1.00  0.00     0.270 C 
ATOM     14  O   UNL A   1      33.586  24.901  21.760  1.00  0.00    -0.267 OA
BRANCH  13  15
ATOM     15  C   UNL A   1      32.893  25.997  23.739  1.00  0.00     0.108 A 
ATOM     16  C   UNL A   1      31.066  27.371  22.591  1.00  0.00     0.150 C 
ATOM     17  N   UNL A   1      32.091  27.118  23.576  1.00  0.00    -0.339 N 
ATOM     18  C   UNL A   1      32.428  28.056  24.530  1.00  0.00     0.059 A 
ATOM     19  C   UNL A   1      33.706  26.233  24.847  1.00  0.00     0.053 A 
ATOM     20  C   UNL A   1      33.399  27.534  25.323  1.00  0.00     0.053 A 
ATOM     21  C   UNL A   1      32.061  29.386  24.885  1.00  0.00     0.038 A 
ATOM     22  S   UNL A   1      33.913  28.632  26.558  1.00  0.00    -0.142 S 
ATOM     23  C   UNL A   1      32.812  29.811  25.961  1.00  0.00     0.068 A 
ENDBRANCH  13  15
ENDBRANCH   8  13
ENDBRANCH   4   7
ENDBRANCH   2   3
ENDBRANCH   1   2
BRANCH   1  24
ATOM     24  C   UNL A   1      37.795  22.888  25.325  1.00  0.00     0.118 C 
BRANCH  24  25
ATOM     25  N   UNL A   1      38.535  21.939  26.161  1.00  0.00    -0.352 N 
ATOM     26  C   UNL A   1      39.625  22.179  26.982  1.00  0.00     0.251 C 
ATOM     27  H   UNL A   1      38.217  21.008  26.134  1.00  0.00     0.163 HD
ATOM     28  O   UNL A   1      40.310  21.258  27.384  1.00  0.00    -0.269 OA
BRANCH  26  29
ATOM     29  C   UNL A   1      39.945  23.576  27.337  1.00  0.00     0.039 A 
ATOM     30  C   UNL A   1      38.956  24.563  27.352  1.00  0.00     0.014 A 
ATOM     31  C   UNL A   1      41.248  23.875  27.717  1.00  0.00     0.014 A 
ATOM     32  C   UNL A   1      39.272  25.828  27.846  1.00  0.00     0.010 A 
ATOM     33  C   UNL A   1      41.511  25.059  28.357  1.00  0.00     0.010 A 
ATOM     34  C   UNL A   1      40.548  26.066  28.376  1.00  0.00    -0.014 A 
BRANCH  34  35
ATOM     35  C   UNL A   1      40.870  27.334  29.031  1.00  0.00     0.031 A 
ATOM     36  C   UNL A   1      41.971  28.127  28.408  1.00  0.00     0.074 A 
ATOM     37  C   UNL A   1      40.077  27.884  29.978  1.00  0.00     0.049 A 
ATOM     38  N   UNL A   1      43.112  28.454  28.921  1.00  0.00    -0.248 NA
ATOM     39  C   UNL A   1      41.822  28.523  26.998  1.00  0.00     0.031 C 
ATOM     40  C   UNL A   1      38.788  27.393  30.484  1.00  0.00     0.029 A 
ATOM     41  N   UNL A   1      40.203  29.084  30.608  1.00  0.00    -0.354 N 
ATOM     42  C   UNL A   1      43.738  29.277  27.984  1.00  0.00     0.074 A 
ATOM     43  C   UNL A   1      42.982  29.141  26.767  1.00  0.00     0.031 C 
ATOM     44  C   UNL A   1      38.145  28.386  31.134  1.00  0.00     0.029 A 
ATOM     45  C   UNL A   1      39.054  29.507  31.263  1.00  0.00     0.049 A 
ATOM     46  H   UNL A   1      41.037  29.606  30.600  1.00  0.00     0.167 HD
ATOM     47  C   UNL A   1      44.694  30.179  28.347  1.00  0.00     0.037 A 
ATOM     48  C   UNL A   1      38.847  30.702  31.865  1.00  0.00     0.037 A 
ATOM     49  C   UNL A   1      45.192  29.906  29.672  1.00  0.00     0.049 A 
ATOM     50  C   UNL A   1      40.182  31.271  32.165  1.00  0.00     0.074 A 
ATOM     51  C   UNL A   1      45.843  28.849  30.277  1.00  0.00     0.029 A 
ATOM     52  N   UNL A   1      44.717  30.688  30.697  1.00  0.00    -0.354 N 
ATOM     53  N   UNL A   1      41.029  30.735  33.003  1.00  0.00    -0.248 NA
ATOM     54  C   UNL A   1      40.757  32.210  31.215  1.00  0.00     0.031 C 
ATOM     55  C   UNL A   1      45.320  28.803  31.603  1.00  0.00     0.029 A 
ATOM     56  C   UNL A   1      44.420  29.861  31.748  1.00  0.00     0.049 A 
ATOM     57  H   UNL A   1      44.610  31.667  30.679  1.00  0.00     0.167 HD
ATOM     58  C   UNL A   1      42.275  30.933  32.426  1.00  0.00     0.074 A 
ATOM     59  C   UNL A   1      42.054  31.946  31.396  1.00  0.00     0.031 C 
ATOM     60  C   UNL A   1      43.306  30.065  32.651  1.00  0.00     0.037 A 
BRANCH  47  61
ATOM     61  C   UNL A   1      44.923  31.520  27.679  1.00  0.00     0.058 A 
ATOM     62  C   UNL A   1      46.133  31.751  26.987  1.00  0.00     0.135 A 
ATOM     63  C   UNL A   1      44.151  32.672  27.944  1.00  0.00     0.135 A 
ATOM     64  F   UNL A   1      46.947  30.730  26.674  1.00  0.00    -0.206 F 
ATOM     65  C   UNL A   1      46.586  33.034  26.674  1.00  0.00     0.059 A 
ATOM     66  C   UNL A   1      44.557  33.955  27.591  1.00  0.00     0.059 A 
ATOM     67  F   UNL A   1      43.014  32.626  28.647  1.00  0.00    -0.206 F 
ATOM     68  C   UNL A   1      45.799  34.133  27.004  1.00  0.00     0.060 A 
BRANCH  68  69
ATOM     69  S   UNL A   1      46.439  35.795  26.738  1.00  0.00     0.124 S 
ATOM     70  O   UNL A   1      45.205  36.556  26.577  1.00  0.00    -0.237 OA
ATOM     71  O   UNL A   1      47.184  36.037  27.970  1.00  0.00    -0.237 OA
ATOM     72  O   UNL A   1      47.256  35.651  25.537  1.00  0.00    -0.744 OA
ENDBRANCH  68  69
ENDBRANCH  47  61
BRANCH  48  73
ATOM     73  C   UNL A   1      37.586  31.483  31.910  1.00  0.00     0.058 A 
ATOM     74  C   UNL A   1      36.953  31.789  33.126  1.00  0.00     0.135 A 
ATOM     75  C   UNL A   1      37.117  32.170  30.772  1.00  0.00     0.135 A 
ATOM     76  F   UNL A   1      37.356  31.198  34.261  1.00  0.00    -0.206 F 
ATOM     77  C   UNL A   1      35.938  32.747  33.214  1.00  0.00     0.059 A 
ATOM     78  C   UNL A   1      36.101  33.123  30.833  1.00  0.00     0.059 A 
ATOM     79  F   UNL A   1      37.696  31.997  29.573  1.00  0.00    -0.206 F 
ATOM     80  C   UNL A   1      35.530  33.423  32.063  1.00  0.00     0.060 A 
BRANCH  80  81
ATOM     81  S   UNL A   1      34.332  34.771  32.202  1.00  0.00     0.124 S 
ATOM     82  O   UNL A   1      35.088  35.770  32.949  1.00  0.00    -0.237 OA
ATOM     83  O   UNL A   1      34.063  35.090  30.803  1.00  0.00    -0.237 OA
ATOM     84  O   UNL A   1      33.218  34.162  32.924  1.00  0.00    -0.744 OA
ENDBRANCH  80  81
ENDBRANCH  48  73
BRANCH  60  85
ATOM     85  C   UNL A   1      43.169  29.075  33.781  1.00  0.00     0.058 A 
ATOM     86  C   UNL A   1      43.431  29.371  35.130  1.00  0.00     0.135 A 
ATOM     87  C   UNL A   1      42.584  27.831  33.504  1.00  0.00     0.135 A 
ATOM     88  F   UNL A   1      43.897  30.572  35.495  1.00  0.00    -0.206 F 
ATOM     89  C   UNL A   1      43.151  28.463  36.153  1.00  0.00     0.059 A 
ATOM     90  C   UNL A   1      42.269  26.920  34.511  1.00  0.00     0.059 A 
ATOM     91  F   UNL A   1      42.252  27.510  32.242  1.00  0.00    -0.206 F 
ATOM     92  C   UNL A   1      42.563  27.240  35.835  1.00  0.00     0.060 A 
BRANCH  92  93
ATOM     93  S   UNL A   1      42.104  26.112  37.168  1.00  0.00     0.124 S 
ATOM     94  O   UNL A   1      43.035  26.489  38.225  1.00  0.00    -0.237 OA
ATOM     95  O   UNL A   1      40.704  26.451  37.406  1.00  0.00    -0.237 OA
ATOM     96  O   UNL A   1      42.323  24.789  36.586  1.00  0.00    -0.744 OA
ENDBRANCH  92  93
ENDBRANCH  60  85
ENDBRANCH  34  35
ENDBRANCH  26  29
ENDBRANCH  24  25
ENDBRANCH   1  24
TORSDOF 15
ENDMDL
MODEL 2
REMARK VINA RESULT:     -13.2      1.894      2.642
REMARK SMILES Cn1c(C(=O)N2CCC[C@@H](C(=O)NCCCNC(=O)c3ccc(-c4c5nc(c(-c6c(F)cc(S(=O)(=O)[O-])cc6F)c6ccc([nH]6)c(-c6c(F)cc(S(=O)(=O)[O-])cc6F)c6nc(c(-c7c(F)cc(S(=O)(=O)[O-])cc7F)c7ccc4[nH]7)C=C6)C=C5)cc3)C2)cc2sccc21
REMARK SMILES IDX 15 1 14 2 13 3 11 4 12 5 10 7 6 8 7 9 86 10 8 11 9 12 4 13
REMARK SMILES IDX 5 14 3 15 1 16 2 17 92 18 87 19 88 20 91 21 89 22 90 23
REMARK SMILES IDX 16 24 17 25 18 26 19 28 20 29 21 30 85 31 22 32 84 33 23 34
REMARK SMILES IDX 24 35 25 36 78 37 26 38 83 39 77 40 79 41 27 42 82 43 76 44
REMARK SMILES IDX 75 45 28 47 62 48 41 49 61 50 42 51 45 52 60 53 80 54 43 55
REMARK SMILES IDX 44 56 59 58 81 59 46 60 29 61 30 62 39 63 31 64 32 65 38 66
REMARK SMILES IDX 40 67 33 68 34 69 35 70 36 71 37 72 63 73 64 74 73 75 65 76
REMARK SMILES IDX 66 77 72 78 74 79 67 80 68 81 69 82 70 83 71 84 47 85 48 86
REMARK SMILES IDX 57 87 49 88 50 89 56 90 58 91 51 92 52 93 53 94 54 95 55 96
REMARK H PARENT 13 6 17 27 79 46 45 57
REMARK Flexibility Score: inf
ROOT
ATOM      1  C   UNL A   1      38.537  22.234  26.052  1.00  0.00     0.042 C 
ENDROOT
BRANCH   1   2
ATOM      2  C   UNL A   1      37.718  23.480  25.712  1.00  0.00     0.117 C 
BRANCH   2   3
ATOM      3  N   UNL A   1      37.182  23.451  24.359  1.00  0.00    -0.356 N 
ATOM      4  C   UNL A   1      35.912  23.186  23.934  1.00  0.00     0.224 C 
ATOM      5  O   UNL A   1      35.672  23.210  22.728  1.00  0.00    -0.275 OA
ATOM      6  H   UNL A   1      37.831  23.650  23.645  1.00  0.00     0.163 HD
BRANCH   4   7
ATOM      7  C   UNL A   1      34.831  22.949  24.968  1.00  0.00     0.098 C 
ATOM      8  N   UNL A   1      32.443  23.359  25.411  1.00  0.00    -0.337 N 
ATOM      9  C   UNL A   1      32.206  21.967  25.772  1.00  0.00     0.120 C 
ATOM     10  C   UNL A   1      33.537  23.608  24.471  1.00  0.00     0.133 C 
ATOM     11  C   UNL A   1      33.476  21.272  26.243  1.00  0.00     0.022 C 
ATOM     12  C   UNL A   1      34.602  21.453  25.226  1.00  0.00     0.017 C 
BRANCH   8  13
ATOM     13  C   UNL A   1      31.743  24.359  26.078  1.00  0.00     0.270 C 
ATOM     14  O   UNL A   1      31.353  24.166  27.229  1.00  0.00    -0.267 OA
BRANCH  13  15
ATOM     15  C   UNL A   1      31.387  25.561  25.319  1.00  0.00     0.108 A 
ATOM     16  C   UNL A   1      33.065  27.203  26.335  1.00  0.00     0.150 C 
ATOM     17  N   UNL A   1      31.951  26.816  25.503  1.00  0.00    -0.339 N 
ATOM     18  C   UNL A   1      31.251  27.739  24.752  1.00  0.00     0.059 A 
ATOM     19  C   UNL A   1      30.350  25.709  24.399  1.00  0.00     0.053 A 
ATOM     20  C   UNL A   1      30.281  27.085  24.061  1.00  0.00     0.053 A 
ATOM     21  C   UNL A   1      31.257  29.146  24.527  1.00  0.00     0.038 A 
ATOM     22  S   UNL A   1      29.326  28.149  23.086  1.00  0.00    -0.142 S 
ATOM     23  C   UNL A   1      30.246  29.487  23.654  1.00  0.00     0.068 A 
ENDBRANCH  13  15
ENDBRANCH   8  13
ENDBRANCH   4   7
ENDBRANCH   2   3
ENDBRANCH   1   2
BRANCH   1  24
ATOM     24  C   UNL A   1      39.790  22.566  26.851  1.00  0.00     0.118 C 
BRANCH  24  25
ATOM     25  N   UNL A   1      41.024  22.200  26.152  1.00  0.00    -0.352 N 
ATOM     26  C   UNL A   1      42.057  23.024  25.735  1.00  0.00     0.251 C 
ATOM     27  H   UNL A   1      41.133  21.242  25.950  1.00  0.00     0.163 HD
ATOM     28  O   UNL A   1      42.870  22.631  24.919  1.00  0.00    -0.269 OA
BRANCH  26  29
ATOM     29  C   UNL A   1      42.133  24.392  26.286  1.00  0.00     0.039 A 
ATOM     30  C   UNL A   1      41.424  25.445  25.704  1.00  0.00     0.014 A 
ATOM     31  C   UNL A   1      42.883  24.594  27.438  1.00  0.00     0.014 A 
ATOM     32  C   UNL A   1      41.398  26.680  26.350  1.00  0.00     0.010 A 
ATOM     33  C   UNL A   1      42.719  25.752  28.156  1.00  0.00     0.010 A 
ATOM     34  C   UNL A   1      42.027  26.823  27.596  1.00  0.00    -0.014 A 
BRANCH  34  35
ATOM     35  C   UNL A   1      41.902  28.060  28.367  1.00  0.00     0.031 A 
ATOM     36  C   UNL A   1      43.011  29.046  28.203  1.00  0.00     0.074 A 
ATOM     37  C   UNL A   1      40.756  28.412  28.994  1.00  0.00     0.049 A 
ATOM     38  N   UNL A   1      43.841  29.475  29.096  1.00  0.00    -0.248 NA
ATOM     39  C   UNL A   1      43.295  29.541  26.846  1.00  0.00     0.031 C 
ATOM     40  C   UNL A   1      39.466  27.710  28.995  1.00  0.00     0.029 A 
ATOM     41  N   UNL A   1      40.469  29.557  29.672  1.00  0.00    -0.354 N 
ATOM     42  C   UNL A   1      44.613  30.455  28.471  1.00  0.00     0.074 A 
ATOM     43  C   UNL A   1      44.352  30.328  27.061  1.00  0.00     0.031 C 
ATOM     44  C   UNL A   1      38.492  28.546  29.412  1.00  0.00     0.029 A 
ATOM     45  C   UNL A   1      39.114  29.763  29.895  1.00  0.00     0.049 A 
ATOM     46  H   UNL A   1      41.163  30.185  29.977  1.00  0.00     0.167 HD
ATOM     47  C   UNL A   1      45.233  31.440  29.180  1.00  0.00     0.037 A 
ATOM     48  C   UNL A   1      38.529  30.861  30.428  1.00  0.00     0.037 A 
ATOM     49  C   UNL A   1      45.283  31.120  30.585  1.00  0.00     0.049 A 
ATOM     50  C   UNL A   1      39.573  31.575  31.200  1.00  0.00     0.074 A 
ATOM     51  C   UNL A   1      45.843  30.110  31.341  1.00  0.00     0.029 A 
ATOM     52  N   UNL A   1      44.369  31.737  31.404  1.00  0.00    -0.354 N 
ATOM     53  N   UNL A   1      40.155  31.084  32.263  1.00  0.00    -0.248 NA
ATOM     54  C   UNL A   1      40.285  32.662  30.549  1.00  0.00     0.031 C 
ATOM     55  C   UNL A   1      44.912  29.876  32.395  1.00  0.00     0.029 A 
ATOM     56  C   UNL A   1      43.862  30.787  32.252  1.00  0.00     0.049 A 
ATOM     57  H   UNL A   1      44.122  32.690  31.386  1.00  0.00     0.167 HD
ATOM     58  C   UNL A   1      41.475  31.498  32.169  1.00  0.00     0.074 A 
ATOM     59  C   UNL A   1      41.465  32.560  31.165  1.00  0.00     0.031 C 
ATOM     60  C   UNL A   1      42.489  30.759  32.711  1.00  0.00     0.037 A 
BRANCH  47  61
ATOM     61  C   UNL A   1      45.464  32.854  28.686  1.00  0.00     0.058 A 
ATOM     62  C   UNL A   1      46.766  33.402  28.739  1.00  0.00     0.135 A 
ATOM     63  C   UNL A   1      44.428  33.784  28.451  1.00  0.00     0.135 A 
ATOM     64  F   UNL A   1      47.831  32.613  28.950  1.00  0.00    -0.206 F 
ATOM     65  C   UNL A   1      47.006  34.775  28.666  1.00  0.00     0.059 A 
ATOM     66  C   UNL A   1      44.651  35.151  28.319  1.00  0.00     0.059 A 
ATOM     67  F   UNL A   1      43.138  33.431  28.438  1.00  0.00    -0.206 F 
ATOM     68  C   UNL A   1      45.936  35.645  28.481  1.00  0.00     0.060 A 
BRANCH  68  69
ATOM     69  S   UNL A   1      46.217  37.423  28.532  1.00  0.00     0.124 S 
ATOM     70  O   UNL A   1      47.650  37.480  28.794  1.00  0.00    -0.237 OA
ATOM     71  O   UNL A   1      45.792  37.838  27.199  1.00  0.00    -0.237 OA
ATOM     72  O   UNL A   1      45.356  37.866  29.625  1.00  0.00    -0.744 OA
ENDBRANCH  68  69
ENDBRANCH  47  61
BRANCH  48  73
ATOM     73  C   UNL A   1      37.224  31.459  30.054  1.00  0.00     0.058 A 
ATOM     74  C   UNL A   1      36.385  32.052  31.012  1.00  0.00     0.135 A 
ATOM     75  C   UNL A   1      36.892  31.692  28.704  1.00  0.00     0.135 A 
ATOM     76  F   UNL A   1      36.644  31.901  32.319  1.00  0.00    -0.206 F 
ATOM     77  C   UNL A   1      35.301  32.860  30.652  1.00  0.00     0.059 A 
ATOM     78  C   UNL A   1      35.813  32.487  28.320  1.00  0.00     0.059 A 
ATOM     79  F   UNL A   1      37.665  31.223  27.712  1.00  0.00    -0.206 F 
ATOM     80  C   UNL A   1      35.033  33.086  29.301  1.00  0.00     0.060 A 
BRANCH  80  81
ATOM     81  S   UNL A   1      33.733  34.255  28.837  1.00  0.00     0.124 S 
ATOM     82  O   UNL A   1      32.926  33.460  27.918  1.00  0.00    -0.237 OA
ATOM     83  O   UNL A   1      33.118  34.560  30.126  1.00  0.00    -0.237 OA
ATOM     84  O   UNL A   1      34.470  35.358  28.226  1.00  0.00    -0.744 OA
ENDBRANCH  80  81
ENDBRANCH  48  73
BRANCH  60  85
ATOM     85  C   UNL A   1      42.130  29.663  33.683  1.00  0.00     0.058 A 
ATOM     86  C   UNL A   1      41.915  28.321  33.322  1.00  0.00     0.135 A 
ATOM     87  C   UNL A   1      42.177  29.952  35.055  1.00  0.00     0.135 A 
ATOM     88  F   UNL A   1      41.952  27.938  32.039  1.00  0.00    -0.206 F 
ATOM     89  C   UNL A   1      41.727  27.320  34.277  1.00  0.00     0.059 A 
ATOM     90  C   UNL A   1      42.022  28.965  36.027  1.00  0.00     0.059 A 
ATOM     91  F   UNL A   1      42.440  31.203  35.468  1.00  0.00    -0.206 F 
ATOM     92  C   UNL A   1      41.789  27.650  35.630  1.00  0.00     0.060 A 
BRANCH  92  93
ATOM     93  S   UNL A   1      41.653  26.338  36.862  1.00  0.00     0.124 S 
ATOM     94  O   UNL A   1      42.883  26.504  37.627  1.00  0.00    -0.237 OA
ATOM     95  O   UNL A   1      40.419  26.685  37.563  1.00  0.00    -0.237 OA
ATOM     96  O   UNL A   1      41.578  25.120  36.057  1.00  0.00    -0.744 OA
ENDBRANCH  92  93
ENDBRANCH  60  85
ENDBRANCH  34  35
ENDBRANCH  26  29
ENDBRANCH  24  25
ENDBRANCH   1  24
TORSDOF 15
ENDMDL
MODEL 3
REMARK VINA RESULT:     -12.9      3.028      9.402
REMARK SMILES Cn1c(C(=O)N2CCC[C@@H](C(=O)NCCCNC(=O)c3ccc(-c4c5nc(c(-c6c(F)cc(S(=O)(=O)[O-])cc6F)c6ccc([nH]6)c(-c6c(F)cc(S(=O)(=O)[O-])cc6F)c6nc(c(-c7c(F)cc(S(=O)(=O)[O-])cc7F)c7ccc4[nH]7)C=C6)C=C5)cc3)C2)cc2sccc21
REMARK SMILES IDX 15 1 14 2 13 3 11 4 12 5 10 7 6 8 7 9 86 10 8 11 9 12 4 13
REMARK SMILES IDX 5 14 3 15 1 16 2 17 92 18 87 19 88 20 91 21 89 22 90 23
REMARK SMILES IDX 16 24 17 25 18 26 19 28 20 29 21 30 85 31 22 32 84 33 23 34
REMARK SMILES IDX 24 35 25 36 78 37 26 38 83 39 77 40 79 41 27 42 82 43 76 44
REMARK SMILES IDX 75 45 28 47 62 48 41 49 61 50 42 51 45 52 60 53 80 54 43 55
REMARK SMILES IDX 44 56 59 58 81 59 46 60 29 61 30 62 39 63 31 64 32 65 38 66
REMARK SMILES IDX 40 67 33 68 34 69 35 70 36 71 37 72 63 73 64 74 73 75 65 76
REMARK SMILES IDX 66 77 72 78 74 79 67 80 68 81 69 82 70 83 71 84 47 85 48 86
REMARK SMILES IDX 57 87 49 88 50 89 56 90 58 91 51 92 52 93 53 94 54 95 55 96
REMARK H PARENT 13 6 17 27 79 46 45 57
REMARK Flexibility Score: inf
ROOT
ATOM      1  C   UNL A   1      32.453  29.333  26.800  1.00  0.00     0.042 C 
ENDROOT
BRANCH   1   2
ATOM      2  C   UNL A   1      32.645  29.567  25.300  1.00  0.00     0.117 C 
BRANCH   2   3
ATOM      3  N   UNL A   1      31.385  29.728  24.589  1.00  0.00    -0.356 N 
ATOM      4  C   UNL A   1      30.656  28.806  23.896  1.00  0.00     0.224 C 
ATOM      5  O   UNL A   1      29.607  29.159  23.360  1.00  0.00    -0.275 OA
ATOM      6  H   UNL A   1      31.004  30.636  24.610  1.00  0.00     0.163 HD
BRANCH   4   7
ATOM      7  C   UNL A   1      31.126  27.367  23.880  1.00  0.00     0.098 C 
ATOM      8  N   UNL A   1      30.564  25.129  24.744  1.00  0.00    -0.337 N 
ATOM      9  C   UNL A   1      30.692  24.519  23.427  1.00  0.00     0.120 C 
ATOM     10  C   UNL A   1      30.185  26.542  24.771  1.00  0.00     0.133 C 
ATOM     11  C   UNL A   1      31.597  25.326  22.506  1.00  0.00     0.022 C 
ATOM     12  C   UNL A   1      31.156  26.788  22.459  1.00  0.00     0.017 C 
BRANCH   8  13
ATOM     13  C   UNL A   1      30.950  24.403  25.865  1.00  0.00     0.270 C 
ATOM     14  O   UNL A   1      30.227  24.388  26.862  1.00  0.00    -0.267 OA
BRANCH  13  15
ATOM     15  C   UNL A   1      32.280  23.787  25.852  1.00  0.00     0.108 A 
ATOM     16  C   UNL A   1      33.716  25.903  25.905  1.00  0.00     0.150 C 
ATOM     17  N   UNL A   1      33.480  24.482  25.808  1.00  0.00    -0.339 N 
ATOM     18  C   UNL A   1      34.514  23.587  25.623  1.00  0.00     0.059 A 
ATOM     19  C   UNL A   1      32.587  22.432  25.739  1.00  0.00     0.053 A 
ATOM     20  C   UNL A   1      33.995  22.331  25.592  1.00  0.00     0.053 A 
ATOM     21  C   UNL A   1      35.926  23.620  25.441  1.00  0.00     0.038 A 
ATOM     22  S   UNL A   1      35.204  21.116  25.352  1.00  0.00    -0.142 S 
ATOM     23  C   UNL A   1      36.409  22.341  25.267  1.00  0.00     0.068 A 
ENDBRANCH  13  15
ENDBRANCH   8  13
ENDBRANCH   4   7
ENDBRANCH   2   3
ENDBRANCH   1   2
BRANCH   1  24
ATOM     24  C   UNL A   1      33.631  29.842  27.620  1.00  0.00     0.118 C 
BRANCH  24  25
ATOM     25  N   UNL A   1      33.964  31.238  27.331  1.00  0.00    -0.352 N 
ATOM     26  C   UNL A   1      35.100  31.947  27.689  1.00  0.00     0.251 C 
ATOM     27  H   UNL A   1      33.292  31.740  26.815  1.00  0.00     0.163 HD
ATOM     28  O   UNL A   1      35.112  33.163  27.636  1.00  0.00    -0.269 OA
BRANCH  26  29
ATOM     29  C   UNL A   1      36.281  31.195  28.158  1.00  0.00     0.039 A 
ATOM     30  C   UNL A   1      36.588  29.936  27.638  1.00  0.00     0.014 A 
ATOM     31  C   UNL A   1      37.117  31.800  29.088  1.00  0.00     0.014 A 
ATOM     32  C   UNL A   1      37.796  29.335  27.991  1.00  0.00     0.010 A 
ATOM     33  C   UNL A   1      38.373  31.290  29.300  1.00  0.00     0.010 A 
ATOM     34  C   UNL A   1      38.703  30.030  28.804  1.00  0.00    -0.014 A 
BRANCH  34  35
ATOM     35  C   UNL A   1      40.036  29.494  29.079  1.00  0.00     0.031 A 
ATOM     36  C   UNL A   1      40.386  29.326  30.521  1.00  0.00     0.074 A 
ATOM     37  C   UNL A   1      40.812  28.949  28.115  1.00  0.00     0.049 A 
ATOM     38  N   UNL A   1      41.322  29.914  31.192  1.00  0.00    -0.248 NA
ATOM     39  C   UNL A   1      39.518  28.469  31.345  1.00  0.00     0.031 C 
ATOM     40  C   UNL A   1      40.493  28.744  26.696  1.00  0.00     0.029 A 
ATOM     41  N   UNL A   1      42.025  28.341  28.235  1.00  0.00    -0.354 N 
ATOM     42  C   UNL A   1      41.304  29.345  32.465  1.00  0.00     0.074 A 
ATOM     43  C   UNL A   1      40.076  28.599  32.551  1.00  0.00     0.031 C 
ATOM     44  C   UNL A   1      41.355  27.855  26.159  1.00  0.00     0.029 A 
ATOM     45  C   UNL A   1      42.396  27.587  27.131  1.00  0.00     0.049 A 
ATOM     46  H   UNL A   1      42.589  28.430  29.036  1.00  0.00     0.167 HD
ATOM     47  C   UNL A   1      42.406  29.347  33.268  1.00  0.00     0.037 A 
ATOM     48  C   UNL A   1      43.478  26.782  27.014  1.00  0.00     0.037 A 
ATOM     49  C   UNL A   1      43.393  30.286  32.796  1.00  0.00     0.049 A 
ATOM     50  C   UNL A   1      44.460  27.229  28.030  1.00  0.00     0.074 A 
ATOM     51  C   UNL A   1      43.433  31.651  32.598  1.00  0.00     0.029 A 
ATOM     52  N   UNL A   1      44.465  29.777  32.102  1.00  0.00    -0.354 N 
ATOM     53  N   UNL A   1      45.040  28.400  28.016  1.00  0.00    -0.248 NA
ATOM     54  C   UNL A   1      44.483  26.540  29.311  1.00  0.00     0.031 C 
ATOM     55  C   UNL A   1      44.229  31.834  31.429  1.00  0.00     0.029 A 
ATOM     56  C   UNL A   1      44.670  30.577  31.009  1.00  0.00     0.049 A 
ATOM     57  H   UNL A   1      44.990  28.981  32.346  1.00  0.00     0.167 HD
ATOM     58  C   UNL A   1      45.122  28.774  29.349  1.00  0.00     0.074 A 
ATOM     59  C   UNL A   1      44.876  27.544  30.099  1.00  0.00     0.031 C 
ATOM     60  C   UNL A   1      45.108  30.090  29.717  1.00  0.00     0.037 A 
BRANCH  47  61
ATOM     61  C   UNL A   1      42.766  28.255  34.255  1.00  0.00     0.058 A 
ATOM     62  C   UNL A   1      42.954  28.586  35.616  1.00  0.00     0.135 A 
ATOM     63  C   UNL A   1      43.225  26.974  33.877  1.00  0.00     0.135 A 
ATOM     64  F   UNL A   1      42.550  29.775  36.092  1.00  0.00    -0.206 F 
ATOM     65  C   UNL A   1      43.635  27.752  36.504  1.00  0.00     0.059 A 
ATOM     66  C   UNL A   1      43.857  26.104  34.761  1.00  0.00     0.059 A 
ATOM     67  F   UNL A   1      43.178  26.541  32.613  1.00  0.00    -0.206 F 
ATOM     68  C   UNL A   1      44.105  26.521  36.058  1.00  0.00     0.060 A 
BRANCH  68  69
ATOM     69  S   UNL A   1      45.109  25.504  37.153  1.00  0.00     0.124 S 
ATOM     70  O   UNL A   1      46.129  26.457  37.575  1.00  0.00    -0.237 OA
ATOM     71  O   UNL A   1      44.143  25.106  38.172  1.00  0.00    -0.237 OA
ATOM     72  O   UNL A   1      45.571  24.428  36.281  1.00  0.00    -0.744 OA
ENDBRANCH  68  69
ENDBRANCH  47  61
BRANCH  48  73
ATOM     73  C   UNL A   1      43.569  25.491  26.290  1.00  0.00     0.058 A 
ATOM     74  C   UNL A   1      44.551  25.262  25.313  1.00  0.00     0.135 A 
ATOM     75  C   UNL A   1      42.850  24.360  26.730  1.00  0.00     0.135 A 
ATOM     76  F   UNL A   1      45.297  26.279  24.858  1.00  0.00    -0.206 F 
ATOM     77  C   UNL A   1      44.832  23.980  24.828  1.00  0.00     0.059 A 
ATOM     78  C   UNL A   1      43.106  23.074  26.256  1.00  0.00     0.059 A 
ATOM     79  F   UNL A   1      41.934  24.461  27.705  1.00  0.00    -0.206 F 
ATOM     80  C   UNL A   1      44.114  22.888  25.319  1.00  0.00     0.060 A 
BRANCH  80  81
ATOM     81  S   UNL A   1      44.583  21.216  24.811  1.00  0.00     0.124 S 
ATOM     82  O   UNL A   1      44.592  21.334  23.357  1.00  0.00    -0.237 OA
ATOM     83  O   UNL A   1      45.888  21.056  25.446  1.00  0.00    -0.237 OA
ATOM     84  O   UNL A   1      43.519  20.383  25.364  1.00  0.00    -0.744 OA
ENDBRANCH  80  81
ENDBRANCH  48  73
BRANCH  60  85
ATOM     85  C   UNL A   1      45.329  31.131  28.648  1.00  0.00     0.058 A 
ATOM     86  C   UNL A   1      44.298  31.740  27.910  1.00  0.00     0.135 A 
ATOM     87  C   UNL A   1      46.620  31.654  28.488  1.00  0.00     0.135 A 
ATOM     88  F   UNL A   1      43.021  31.371  28.074  1.00  0.00    -0.206 F 
ATOM     89  C   UNL A   1      44.544  32.800  27.035  1.00  0.00     0.059 A 
ATOM     90  C   UNL A   1      46.885  32.730  27.642  1.00  0.00     0.059 A 
ATOM     91  F   UNL A   1      47.639  31.157  29.210  1.00  0.00    -0.206 F 
ATOM     92  C   UNL A   1      45.841  33.294  26.912  1.00  0.00     0.060 A 
BRANCH  92  93
ATOM     93  S   UNL A   1      46.139  34.732  25.861  1.00  0.00     0.124 S 
ATOM     94  O   UNL A   1      47.595  34.802  25.839  1.00  0.00    -0.237 OA
ATOM     95  O   UNL A   1      45.504  34.345  24.604  1.00  0.00    -0.237 OA
ATOM     96  O   UNL A   1      45.472  35.819  26.575  1.00  0.00    -0.744 OA
ENDBRANCH  92  93
ENDBRANCH  60  85
ENDBRANCH  34  35
ENDBRANCH  26  29
ENDBRANCH  24  25
ENDBRANCH   1  24
TORSDOF 15
ENDMDL
