MODEL 1
REMARK VINA RESULT:     -10.4      0.000      0.000
REMARK SMILES C=CC[N@H+](CC(=O)NCCCNC(=O)c1ccc(-c2c3nc(c(-c4c(F)cc(S(=O)(=O)[O-])cc4F)c4ccc([nH]4)c(-c4c(F)cc(S(=O)(=O)[O-])cc4F)c4nc(c(-c5c(F)cc(S(=O)(=O)[O-])cc5F)c5ccc2[nH]5)C=C4)C=C3)cc1)[C@H](C)c1ccsc1
REMARK SMILES IDX 10 1 9 2 8 3 6 4 7 5 5 7 4 8 3 10 2 11 1 12 81 13 82 14
REMARK SMILES IDX 83 15 84 16 87 17 85 18 86 19 11 20 12 21 13 22 14 24 15 25
REMARK SMILES IDX 16 26 80 27 17 28 79 29 18 30 19 31 20 32 73 33 21 34 78 35
REMARK SMILES IDX 72 36 74 37 22 38 77 39 71 40 70 41 23 43 57 44 36 45 56 46
REMARK SMILES IDX 37 47 40 48 55 49 75 50 38 51 39 52 54 54 76 55 41 56 24 57
REMARK SMILES IDX 25 58 34 59 26 60 27 61 33 62 35 63 28 64 29 65 30 66 31 67
REMARK SMILES IDX 32 68 58 69 59 70 68 71 60 72 61 73 67 74 69 75 62 76 63 77
REMARK SMILES IDX 64 78 65 79 66 80 42 81 43 82 52 83 44 84 45 85 51 86 53 87
REMARK SMILES IDX 46 88 47 89 48 90 49 91 50 92
REMARK H PARENT 8 6 4 9 12 23 74 42 40 53
REMARK Flexibility Score: inf
ROOT
ATOM      1  C   UNL A   1      33.853  31.363  27.787  1.00  0.00     0.042 C 
ENDROOT
BRANCH   1   2
ATOM      2  C   UNL A   1      33.222  30.385  26.786  1.00  0.00     0.118 C 
BRANCH   2   3
ATOM      3  N   UNL A   1      32.482  29.298  27.422  1.00  0.00    -0.351 N 
ATOM      4  C   UNL A   1      31.856  28.192  26.904  1.00  0.00     0.275 C 
ATOM      5  O   UNL A   1      31.317  27.423  27.704  1.00  0.00    -0.269 OA
ATOM      6  H   UNL A   1      32.421  29.373  28.402  1.00  0.00     0.163 HD
BRANCH   4   7
ATOM      7  C   UNL A   1      31.860  27.901  25.391  1.00  0.00     0.364 C 
BRANCH   7   8
ATOM      8  N   UNL A   1      31.894  26.441  25.052  1.00  0.00    -0.318 N 
ATOM      9  H   UNL A   1      31.491  25.860  25.787  1.00  0.00     0.349 HD
BRANCH   8  10
ATOM     10  C   UNL A   1      31.046  26.208  23.882  1.00  0.00     0.291 C 
BRANCH  10  11
ATOM     11  C   UNL A   1      30.195  24.986  23.726  1.00  0.00     0.025 C 
ATOM     12  C   UNL A   1      30.652  23.786  23.336  1.00  0.00     0.010 C 
ENDBRANCH  10  11
ENDBRANCH   8  10
BRANCH   8  13
ATOM     13  C   UNL A   1      33.301  25.967  24.974  1.00  0.00     0.213 C 
ATOM     14  C   UNL A   1      33.884  25.917  23.551  1.00  0.00     0.081 C 
BRANCH  13  15
ATOM     15  C   UNL A   1      33.497  24.704  25.803  1.00  0.00     0.020 A 
ATOM     16  C   UNL A   1      34.713  23.946  25.956  1.00  0.00     0.021 A 
ATOM     17  C   UNL A   1      32.475  24.097  26.522  1.00  0.00     0.074 A 
ATOM     18  C   UNL A   1      34.545  22.800  26.702  1.00  0.00     0.065 A 
ATOM     19  S   UNL A   1      32.950  22.646  27.288  1.00  0.00    -0.152 S 
ENDBRANCH  13  15
ENDBRANCH   8  13
ENDBRANCH   7   8
ENDBRANCH   4   7
ENDBRANCH   2   3
ENDBRANCH   1   2
BRANCH   1  20
ATOM     20  C   UNL A   1      35.233  30.960  28.290  1.00  0.00     0.118 C 
BRANCH  20  21
ATOM     21  N   UNL A   1      35.366  31.206  29.714  1.00  0.00    -0.352 N 
ATOM     22  C   UNL A   1      36.357  30.835  30.591  1.00  0.00     0.251 C 
ATOM     23  H   UNL A   1      34.630  31.721  30.116  1.00  0.00     0.163 HD
ATOM     24  O   UNL A   1      36.119  30.895  31.796  1.00  0.00    -0.269 OA
BRANCH  22  25
ATOM     25  C   UNL A   1      37.692  30.363  30.130  1.00  0.00     0.039 A 
ATOM     26  C   UNL A   1      38.642  30.006  31.095  1.00  0.00     0.014 A 
ATOM     27  C   UNL A   1      38.060  30.354  28.781  1.00  0.00     0.014 A 
ATOM     28  C   UNL A   1      39.932  29.617  30.711  1.00  0.00     0.010 A 
ATOM     29  C   UNL A   1      39.321  29.891  28.395  1.00  0.00     0.010 A 
ATOM     30  C   UNL A   1      40.281  29.536  29.354  1.00  0.00    -0.014 A 
BRANCH  30  31
ATOM     31  C   UNL A   1      41.648  29.114  28.932  1.00  0.00     0.031 A 
ATOM     32  C   UNL A   1      42.768  30.124  28.852  1.00  0.00     0.074 A 
ATOM     33  C   UNL A   1      41.876  27.835  28.569  1.00  0.00     0.049 A 
ATOM     34  N   UNL A   1      44.003  29.957  28.450  1.00  0.00    -0.248 NA
ATOM     35  C   UNL A   1      42.454  31.505  29.253  1.00  0.00     0.031 C 
ATOM     36  C   UNL A   1      40.871  26.770  28.544  1.00  0.00     0.029 A 
ATOM     37  N   UNL A   1      43.023  27.216  28.134  1.00  0.00    -0.354 N 
ATOM     38  C   UNL A   1      44.601  31.211  28.520  1.00  0.00     0.074 A 
ATOM     39  C   UNL A   1      43.586  32.137  28.972  1.00  0.00     0.031 C 
ATOM     40  C   UNL A   1      41.445  25.631  28.124  1.00  0.00     0.029 A 
ATOM     41  C   UNL A   1      42.850  25.887  27.820  1.00  0.00     0.049 A 
ATOM     42  H   UNL A   1      43.889  27.679  28.055  1.00  0.00     0.167 HD
ATOM     43  C   UNL A   1      45.883  31.558  28.248  1.00  0.00     0.037 A 
ATOM     44  C   UNL A   1      43.718  24.979  27.330  1.00  0.00     0.037 A 
ATOM     45  C   UNL A   1      46.908  30.628  27.853  1.00  0.00     0.049 A 
ATOM     46  C   UNL A   1      45.147  25.382  27.079  1.00  0.00     0.074 A 
ATOM     47  C   UNL A   1      48.257  30.870  27.658  1.00  0.00     0.029 A 
ATOM     48  N   UNL A   1      46.703  29.282  27.594  1.00  0.00    -0.354 N 
ATOM     49  N   UNL A   1      45.712  26.554  27.237  1.00  0.00    -0.248 NA
ATOM     50  C   UNL A   1      46.059  24.337  26.590  1.00  0.00     0.031 C 
ATOM     51  C   UNL A   1      48.860  29.679  27.239  1.00  0.00     0.029 A 
ATOM     52  C   UNL A   1      47.895  28.685  27.216  1.00  0.00     0.049 A 
ATOM     53  H   UNL A   1      45.837  28.817  27.666  1.00  0.00     0.167 HD
ATOM     54  C   UNL A   1      47.048  26.382  26.890  1.00  0.00     0.074 A 
ATOM     55  C   UNL A   1      47.210  24.990  26.528  1.00  0.00     0.031 C 
ATOM     56  C   UNL A   1      48.048  27.296  26.870  1.00  0.00     0.037 A 
BRANCH  43  57
ATOM     57  C   UNL A   1      46.269  33.006  28.376  1.00  0.00     0.058 A 
ATOM     58  C   UNL A   1      46.167  33.896  27.297  1.00  0.00     0.135 A 
ATOM     59  C   UNL A   1      46.666  33.527  29.619  1.00  0.00     0.135 A 
ATOM     60  F   UNL A   1      45.804  33.450  26.084  1.00  0.00    -0.206 F 
ATOM     61  C   UNL A   1      46.455  35.250  27.441  1.00  0.00     0.059 A 
ATOM     62  C   UNL A   1      46.937  34.881  29.793  1.00  0.00     0.059 A 
ATOM     63  F   UNL A   1      46.780  32.718  30.685  1.00  0.00    -0.206 F 
ATOM     64  C   UNL A   1      46.836  35.734  28.695  1.00  0.00     0.060 A 
BRANCH  64  65
ATOM     65  S   UNL A   1      47.170  37.499  28.872  1.00  0.00     0.124 S 
ATOM     66  O   UNL A   1      46.186  38.075  27.961  1.00  0.00    -0.237 OA
ATOM     67  O   UNL A   1      46.927  37.724  30.292  1.00  0.00    -0.237 OA
ATOM     68  O   UNL A   1      48.563  37.625  28.450  1.00  0.00    -0.744 OA
ENDBRANCH  64  65
ENDBRANCH  43  57
BRANCH  44  69
ATOM     69  C   UNL A   1      43.262  23.591  27.042  1.00  0.00     0.058 A 
ATOM     70  C   UNL A   1      43.081  22.658  28.072  1.00  0.00     0.135 A 
ATOM     71  C   UNL A   1      43.012  23.171  25.727  1.00  0.00     0.135 A 
ATOM     72  F   UNL A   1      43.315  23.010  29.346  1.00  0.00    -0.206 F 
ATOM     73  C   UNL A   1      42.693  21.348  27.809  1.00  0.00     0.059 A 
ATOM     74  C   UNL A   1      42.598  21.874  25.441  1.00  0.00     0.059 A 
ATOM     75  F   UNL A   1      43.154  24.031  24.707  1.00  0.00    -0.206 F 
ATOM     76  C   UNL A   1      42.455  20.965  26.488  1.00  0.00     0.060 A 
BRANCH  76  77
ATOM     77  S   UNL A   1      41.922  19.272  26.155  1.00  0.00     0.124 S 
ATOM     78  O   UNL A   1      42.712  18.942  24.975  1.00  0.00    -0.237 OA
ATOM     79  O   UNL A   1      42.295  18.582  27.387  1.00  0.00    -0.237 OA
ATOM     80  O   UNL A   1      40.485  19.411  25.937  1.00  0.00    -0.744 OA
ENDBRANCH  76  77
ENDBRANCH  44  69
BRANCH  56  81
ATOM     81  C   UNL A   1      49.417  26.820  26.473  1.00  0.00     0.058 A 
ATOM     82  C   UNL A   1      50.274  26.193  27.390  1.00  0.00     0.135 A 
ATOM     83  C   UNL A   1      49.856  26.947  25.145  1.00  0.00     0.135 A 
ATOM     84  F   UNL A   1      49.903  26.053  28.672  1.00  0.00    -0.206 F 
ATOM     85  C   UNL A   1      51.527  25.724  27.010  1.00  0.00     0.059 A 
ATOM     86  C   UNL A   1      51.096  26.463  24.737  1.00  0.00     0.059 A 
ATOM     87  F   UNL A   1      49.072  27.530  24.225  1.00  0.00    -0.206 F 
ATOM     88  C   UNL A   1      51.929  25.863  25.680  1.00  0.00     0.060 A 
BRANCH  88  89
ATOM     89  S   UNL A   1      53.543  25.221  25.190  1.00  0.00     0.124 S 
ATOM     90  O   UNL A   1      54.424  25.875  26.152  1.00  0.00    -0.237 OA
ATOM     91  O   UNL A   1      53.375  23.781  25.362  1.00  0.00    -0.237 OA
ATOM     92  O   UNL A   1      53.681  25.668  23.807  1.00  0.00    -0.744 OA
ENDBRANCH  88  89
ENDBRANCH  56  81
ENDBRANCH  30  31
ENDBRANCH  22  25
ENDBRANCH  20  21
ENDBRANCH   1  20
TORSDOF 18
ENDMDL
MODEL 2
REMARK VINA RESULT:     -10.3      4.863      6.088
REMARK SMILES C=CC[N@H+](CC(=O)NCCCNC(=O)c1ccc(-c2c3nc(c(-c4c(F)cc(S(=O)(=O)[O-])cc4F)c4ccc([nH]4)c(-c4c(F)cc(S(=O)(=O)[O-])cc4F)c4nc(c(-c5c(F)cc(S(=O)(=O)[O-])cc5F)c5ccc2[nH]5)C=C4)C=C3)cc1)[C@H](C)c1ccsc1
REMARK SMILES IDX 10 1 9 2 8 3 6 4 7 5 5 7 4 8 3 10 2 11 1 12 81 13 82 14
REMARK SMILES IDX 83 15 84 16 87 17 85 18 86 19 11 20 12 21 13 22 14 24 15 25
REMARK SMILES IDX 16 26 80 27 17 28 79 29 18 30 19 31 20 32 73 33 21 34 78 35
REMARK SMILES IDX 72 36 74 37 22 38 77 39 71 40 70 41 23 43 57 44 36 45 56 46
REMARK SMILES IDX 37 47 40 48 55 49 75 50 38 51 39 52 54 54 76 55 41 56 24 57
REMARK SMILES IDX 25 58 34 59 26 60 27 61 33 62 35 63 28 64 29 65 30 66 31 67
REMARK SMILES IDX 32 68 58 69 59 70 68 71 60 72 61 73 67 74 69 75 62 76 63 77
REMARK SMILES IDX 64 78 65 79 66 80 42 81 43 82 52 83 44 84 45 85 51 86 53 87
REMARK SMILES IDX 46 88 47 89 48 90 49 91 50 92
REMARK H PARENT 8 6 4 9 12 23 74 42 40 53
REMARK Flexibility Score: inf
ROOT
ATOM      1  C   UNL A   1      32.940  27.628  26.847  1.00  0.00     0.042 C 
ENDROOT
BRANCH   1   2
ATOM      2  C   UNL A   1      32.104  26.670  25.988  1.00  0.00     0.118 C 
BRANCH   2   3
ATOM      3  N   UNL A   1      31.578  25.530  26.732  1.00  0.00    -0.351 N 
ATOM      4  C   UNL A   1      31.213  24.268  26.335  1.00  0.00     0.275 C 
ATOM      5  O   UNL A   1      30.811  23.495  27.210  1.00  0.00    -0.269 OA
ATOM      6  H   UNL A   1      31.464  25.697  27.696  1.00  0.00     0.163 HD
BRANCH   4   7
ATOM      7  C   UNL A   1      31.336  23.820  24.867  1.00  0.00     0.364 C 
BRANCH   7   8
ATOM      8  N   UNL A   1      32.517  22.938  24.596  1.00  0.00    -0.318 N 
ATOM      9  H   UNL A   1      33.094  22.791  25.425  1.00  0.00     0.349 HD
BRANCH   8  10
ATOM     10  C   UNL A   1      32.038  21.603  24.233  1.00  0.00     0.291 C 
BRANCH  10  11
ATOM     11  C   UNL A   1      32.600  20.348  24.825  1.00  0.00     0.025 C 
ATOM     12  C   UNL A   1      33.902  20.027  24.829  1.00  0.00     0.010 C 
ENDBRANCH  10  11
ENDBRANCH   8  10
BRANCH   8  13
ATOM     13  C   UNL A   1      33.447  23.604  23.646  1.00  0.00     0.213 C 
ATOM     14  C   UNL A   1      33.231  23.234  22.169  1.00  0.00     0.081 C 
BRANCH  13  15
ATOM     15  C   UNL A   1      34.886  23.513  24.138  1.00  0.00     0.020 A 
ATOM     16  C   UNL A   1      35.992  22.873  23.471  1.00  0.00     0.021 A 
ATOM     17  C   UNL A   1      35.313  24.038  25.351  1.00  0.00     0.074 A 
ATOM     18  C   UNL A   1      37.151  22.883  24.216  1.00  0.00     0.065 A 
ATOM     19  S   UNL A   1      36.955  23.714  25.693  1.00  0.00    -0.152 S 
ENDBRANCH  13  15
ENDBRANCH   8  13
ENDBRANCH   7   8
ENDBRANCH   4   7
ENDBRANCH   2   3
ENDBRANCH   1   2
BRANCH   1  20
ATOM     20  C   UNL A   1      33.929  28.487  26.069  1.00  0.00     0.118 C 
BRANCH  20  21
ATOM     21  N   UNL A   1      33.771  29.894  26.390  1.00  0.00    -0.352 N 
ATOM     22  C   UNL A   1      34.439  30.678  27.300  1.00  0.00     0.251 C 
ATOM     23  H   UNL A   1      33.075  30.361  25.874  1.00  0.00     0.163 HD
ATOM     24  O   UNL A   1      33.942  31.759  27.611  1.00  0.00    -0.269 OA
BRANCH  22  25
ATOM     25  C   UNL A   1      35.727  30.258  27.918  1.00  0.00     0.039 A 
ATOM     26  C   UNL A   1      35.701  29.715  29.209  1.00  0.00     0.014 A 
ATOM     27  C   UNL A   1      36.962  30.473  27.299  1.00  0.00     0.014 A 
ATOM     28  C   UNL A   1      36.892  29.364  29.856  1.00  0.00     0.010 A 
ATOM     29  C   UNL A   1      38.144  30.051  27.913  1.00  0.00     0.010 A 
ATOM     30  C   UNL A   1      38.129  29.510  29.208  1.00  0.00    -0.014 A 
BRANCH  30  31
ATOM     31  C   UNL A   1      39.404  29.133  29.882  1.00  0.00     0.031 A 
ATOM     32  C   UNL A   1      39.907  29.925  31.065  1.00  0.00     0.074 A 
ATOM     33  C   UNL A   1      40.142  28.110  29.403  1.00  0.00     0.049 A 
ATOM     34  N   UNL A   1      41.019  29.785  31.741  1.00  0.00    -0.248 NA
ATOM     35  C   UNL A   1      39.061  31.035  31.535  1.00  0.00     0.031 C 
ATOM     36  C   UNL A   1      39.803  27.298  28.233  1.00  0.00     0.029 A 
ATOM     37  N   UNL A   1      41.339  27.589  29.830  1.00  0.00    -0.354 N 
ATOM     38  C   UNL A   1      41.021  30.802  32.690  1.00  0.00     0.074 A 
ATOM     39  C   UNL A   1      39.816  31.572  32.485  1.00  0.00     0.031 C 
ATOM     40  C   UNL A   1      40.764  26.379  28.040  1.00  0.00     0.029 A 
ATOM     41  C   UNL A   1      41.803  26.554  29.051  1.00  0.00     0.049 A 
ATOM     42  H   UNL A   1      41.822  27.925  30.620  1.00  0.00     0.167 HD
ATOM     43  C   UNL A   1      41.937  31.060  33.657  1.00  0.00     0.037 A 
ATOM     44  C   UNL A   1      42.940  25.834  29.130  1.00  0.00     0.037 A 
ATOM     45  C   UNL A   1      43.108  30.260  33.899  1.00  0.00     0.049 A 
ATOM     46  C   UNL A   1      43.917  26.115  30.240  1.00  0.00     0.074 A 
ATOM     47  C   UNL A   1      44.036  30.383  34.919  1.00  0.00     0.029 A 
ATOM     48  N   UNL A   1      43.514  29.190  33.118  1.00  0.00    -0.354 N 
ATOM     49  N   UNL A   1      43.854  27.024  31.182  1.00  0.00    -0.248 NA
ATOM     50  C   UNL A   1      45.116  25.266  30.305  1.00  0.00     0.031 C 
ATOM     51  C   UNL A   1      45.026  29.415  34.731  1.00  0.00     0.029 A 
ATOM     52  C   UNL A   1      44.693  28.659  33.618  1.00  0.00     0.049 A 
ATOM     53  H   UNL A   1      43.038  28.856  32.323  1.00  0.00     0.167 HD
ATOM     54  C   UNL A   1      44.992  26.843  31.962  1.00  0.00     0.074 A 
ATOM     55  C   UNL A   1      45.717  25.727  31.392  1.00  0.00     0.031 C 
ATOM     56  C   UNL A   1      45.399  27.541  33.050  1.00  0.00     0.037 A 
BRANCH  43  57
ATOM     57  C   UNL A   1      41.713  32.254  34.544  1.00  0.00     0.058 A 
ATOM     58  C   UNL A   1      42.295  33.500  34.267  1.00  0.00     0.135 A 
ATOM     59  C   UNL A   1      40.837  32.169  35.639  1.00  0.00     0.135 A 
ATOM     60  F   UNL A   1      43.148  33.634  33.241  1.00  0.00    -0.206 F 
ATOM     61  C   UNL A   1      42.025  34.618  35.051  1.00  0.00     0.059 A 
ATOM     62  C   UNL A   1      40.535  33.279  36.423  1.00  0.00     0.059 A 
ATOM     63  F   UNL A   1      40.254  30.999  35.949  1.00  0.00    -0.206 F 
ATOM     64  C   UNL A   1      41.141  34.498  36.125  1.00  0.00     0.060 A 
BRANCH  64  65
ATOM     65  S   UNL A   1      40.774  35.969  37.107  1.00  0.00     0.124 S 
ATOM     66  O   UNL A   1      40.331  35.376  38.364  1.00  0.00    -0.237 OA
ATOM     67  O   UNL A   1      42.063  36.649  37.147  1.00  0.00    -0.237 OA
ATOM     68  O   UNL A   1      39.736  36.645  36.332  1.00  0.00    -0.744 OA
ENDBRANCH  64  65
ENDBRANCH  43  57
BRANCH  44  69
ATOM     69  C   UNL A   1      43.222  24.771  28.126  1.00  0.00     0.058 A 
ATOM     70  C   UNL A   1      42.878  23.434  28.368  1.00  0.00     0.135 A 
ATOM     71  C   UNL A   1      43.853  25.074  26.910  1.00  0.00     0.135 A 
ATOM     72  F   UNL A   1      42.278  23.093  29.520  1.00  0.00    -0.206 F 
ATOM     73  C   UNL A   1      43.172  22.428  27.453  1.00  0.00     0.059 A 
ATOM     74  C   UNL A   1      44.135  24.090  25.968  1.00  0.00     0.059 A 
ATOM     75  F   UNL A   1      44.188  26.342  26.623  1.00  0.00    -0.206 F 
ATOM     76  C   UNL A   1      43.803  22.767  26.255  1.00  0.00     0.060 A 
BRANCH  76  77
ATOM     77  S   UNL A   1      44.155  21.462  25.057  1.00  0.00     0.124 S 
ATOM     78  O   UNL A   1      45.483  21.030  25.475  1.00  0.00    -0.237 OA
ATOM     79  O   UNL A   1      43.070  20.517  25.302  1.00  0.00    -0.237 OA
ATOM     80  O   UNL A   1      44.089  22.159  23.776  1.00  0.00    -0.744 OA
ENDBRANCH  76  77
ENDBRANCH  44  69
BRANCH  56  81
ATOM     81  C   UNL A   1      46.672  27.103  33.720  1.00  0.00     0.058 A 
ATOM     82  C   UNL A   1      46.677  26.117  34.719  1.00  0.00     0.135 A 
ATOM     83  C   UNL A   1      47.907  27.640  33.320  1.00  0.00     0.135 A 
ATOM     84  F   UNL A   1      45.524  25.577  35.140  1.00  0.00    -0.206 F 
ATOM     85  C   UNL A   1      47.862  25.692  35.312  1.00  0.00     0.059 A 
ATOM     86  C   UNL A   1      49.105  27.212  33.882  1.00  0.00     0.059 A 
ATOM     87  F   UNL A   1      47.958  28.579  32.362  1.00  0.00    -0.206 F 
ATOM     88  C   UNL A   1      49.072  26.245  34.887  1.00  0.00     0.060 A 
BRANCH  88  89
ATOM     89  S   UNL A   1      50.604  25.661  35.640  1.00  0.00     0.124 S 
ATOM     90  O   UNL A   1      50.681  24.296  35.132  1.00  0.00    -0.237 OA
ATOM     91  O   UNL A   1      51.592  26.594  35.105  1.00  0.00    -0.237 OA
ATOM     92  O   UNL A   1      50.347  25.785  37.072  1.00  0.00    -0.744 OA
ENDBRANCH  88  89
ENDBRANCH  56  81
ENDBRANCH  30  31
ENDBRANCH  22  25
ENDBRANCH  20  21
ENDBRANCH   1  20
TORSDOF 18
ENDMDL
MODEL 3
REMARK VINA RESULT:     -10.3      6.583     13.378
REMARK SMILES C=CC[N@H+](CC(=O)NCCCNC(=O)c1ccc(-c2c3nc(c(-c4c(F)cc(S(=O)(=O)[O-])cc4F)c4ccc([nH]4)c(-c4c(F)cc(S(=O)(=O)[O-])cc4F)c4nc(c(-c5c(F)cc(S(=O)(=O)[O-])cc5F)c5ccc2[nH]5)C=C4)C=C3)cc1)[C@H](C)c1ccsc1
REMARK SMILES IDX 10 1 9 2 8 3 6 4 7 5 5 7 4 8 3 10 2 11 1 12 81 13 82 14
REMARK SMILES IDX 83 15 84 16 87 17 85 18 86 19 11 20 12 21 13 22 14 24 15 25
REMARK SMILES IDX 16 26 80 27 17 28 79 29 18 30 19 31 20 32 73 33 21 34 78 35
REMARK SMILES IDX 72 36 74 37 22 38 77 39 71 40 70 41 23 43 57 44 36 45 56 46
REMARK SMILES IDX 37 47 40 48 55 49 75 50 38 51 39 52 54 54 76 55 41 56 24 57
REMARK SMILES IDX 25 58 34 59 26 60 27 61 33 62 35 63 28 64 29 65 30 66 31 67
REMARK SMILES IDX 32 68 58 69 59 70 68 71 60 72 61 73 67 74 69 75 62 76 63 77
REMARK SMILES IDX 64 78 65 79 66 80 42 81 43 82 52 83 44 84 45 85 51 86 53 87
REMARK SMILES IDX 46 88 47 89 48 90 49 91 50 92
REMARK H PARENT 8 6 4 9 12 23 74 42 40 53
REMARK Flexibility Score: inf
ROOT
ATOM      1  C   UNL A   1      40.596  21.545  27.064  1.00  0.00     0.042 C 
ENDROOT
BRANCH   1   2
ATOM      2  C   UNL A   1      42.038  21.033  27.175  1.00  0.00     0.118 C 
BRANCH   2   3
ATOM      3  N   UNL A   1      42.595  20.582  25.903  1.00  0.00    -0.351 N 
ATOM      4  C   UNL A   1      43.818  20.788  25.315  1.00  0.00     0.275 C 
ATOM      5  O   UNL A   1      44.015  20.255  24.220  1.00  0.00    -0.269 OA
ATOM      6  H   UNL A   1      41.980  20.028  25.369  1.00  0.00     0.163 HD
BRANCH   4   7
ATOM      7  C   UNL A   1      44.915  21.617  26.010  1.00  0.00     0.364 C 
BRANCH   7   8
ATOM      8  N   UNL A   1      44.597  23.077  26.122  1.00  0.00    -0.318 N 
ATOM      9  H   UNL A   1      43.601  23.270  26.013  1.00  0.00     0.349 HD
BRANCH   8  10
ATOM     10  C   UNL A   1      44.918  23.528  27.477  1.00  0.00     0.291 C 
BRANCH  10  11
ATOM     11  C   UNL A   1      43.897  24.111  28.404  1.00  0.00     0.025 C 
ATOM     12  C   UNL A   1      44.033  25.280  29.047  1.00  0.00     0.010 C 
ENDBRANCH  10  11
ENDBRANCH   8  10
BRANCH   8  13
ATOM     13  C   UNL A   1      45.216  23.824  24.995  1.00  0.00     0.213 C 
ATOM     14  C   UNL A   1      46.307  23.052  24.235  1.00  0.00     0.081 C 
BRANCH  13  15
ATOM     15  C   UNL A   1      45.593  25.237  25.421  1.00  0.00     0.020 A 
ATOM     16  C   UNL A   1      44.758  26.411  25.371  1.00  0.00     0.021 A 
ATOM     17  C   UNL A   1      46.849  25.578  25.907  1.00  0.00     0.074 A 
ATOM     18  C   UNL A   1      45.419  27.561  25.743  1.00  0.00     0.065 A 
ATOM     19  S   UNL A   1      47.026  27.247  26.223  1.00  0.00    -0.152 S 
ENDBRANCH  13  15
ENDBRANCH   8  13
ENDBRANCH   7   8
ENDBRANCH   4   7
ENDBRANCH   2   3
ENDBRANCH   1   2
BRANCH   1  20
ATOM     20  C   UNL A   1      40.431  23.044  27.282  1.00  0.00     0.118 C 
BRANCH  20  21
ATOM     21  N   UNL A   1      41.054  23.803  26.213  1.00  0.00    -0.352 N 
ATOM     22  C   UNL A   1      41.195  25.160  26.051  1.00  0.00     0.251 C 
ATOM     23  H   UNL A   1      41.439  23.258  25.489  1.00  0.00     0.163 HD
ATOM     24  O   UNL A   1      41.491  25.585  24.936  1.00  0.00    -0.269 OA
BRANCH  22  25
ATOM     25  C   UNL A   1      40.994  26.119  27.172  1.00  0.00     0.039 A 
ATOM     26  C   UNL A   1      41.764  27.289  27.194  1.00  0.00     0.014 A 
ATOM     27  C   UNL A   1      40.141  25.851  28.247  1.00  0.00     0.014 A 
ATOM     28  C   UNL A   1      41.657  28.190  28.260  1.00  0.00     0.010 A 
ATOM     29  C   UNL A   1      39.977  26.787  29.272  1.00  0.00     0.010 A 
ATOM     30  C   UNL A   1      40.747  27.959  29.304  1.00  0.00    -0.014 A 
BRANCH  30  31
ATOM     31  C   UNL A   1      40.616  28.915  30.441  1.00  0.00     0.031 A 
ATOM     32  C   UNL A   1      41.483  28.765  31.669  1.00  0.00     0.074 A 
ATOM     33  C   UNL A   1      39.685  29.890  30.399  1.00  0.00     0.049 A 
ATOM     34  N   UNL A   1      41.472  29.460  32.778  1.00  0.00    -0.248 NA
ATOM     35  C   UNL A   1      42.475  27.677  31.659  1.00  0.00     0.031 C 
ATOM     36  C   UNL A   1      38.743  30.112  29.299  1.00  0.00     0.029 A 
ATOM     37  N   UNL A   1      39.363  30.866  31.310  1.00  0.00    -0.354 N 
ATOM     38  C   UNL A   1      42.427  28.878  33.605  1.00  0.00     0.074 A 
ATOM     39  C   UNL A   1      42.978  27.752  32.884  1.00  0.00     0.031 C 
ATOM     40  C   UNL A   1      37.957  31.159  29.597  1.00  0.00     0.029 A 
ATOM     41  C   UNL A   1      38.313  31.665  30.919  1.00  0.00     0.049 A 
ATOM     42  H   UNL A   1      39.839  30.982  32.165  1.00  0.00     0.167 HD
ATOM     43  C   UNL A   1      42.821  29.256  34.846  1.00  0.00     0.037 A 
ATOM     44  C   UNL A   1      37.698  32.682  31.556  1.00  0.00     0.037 A 
ATOM     45  C   UNL A   1      42.315  30.410  35.540  1.00  0.00     0.049 A 
ATOM     46  C   UNL A   1      38.186  33.108  32.915  1.00  0.00     0.074 A 
ATOM     47  C   UNL A   1      42.729  30.931  36.755  1.00  0.00     0.029 A 
ATOM     48  N   UNL A   1      41.287  31.222  35.088  1.00  0.00    -0.354 N 
ATOM     49  N   UNL A   1      39.152  32.598  33.640  1.00  0.00    -0.248 NA
ATOM     50  C   UNL A   1      37.507  34.254  33.539  1.00  0.00     0.031 C 
ATOM     51  C   UNL A   1      41.923  32.033  37.057  1.00  0.00     0.029 A 
ATOM     52  C   UNL A   1      41.036  32.226  36.010  1.00  0.00     0.049 A 
ATOM     53  H   UNL A   1      40.805  31.104  34.238  1.00  0.00     0.167 HD
ATOM     54  C   UNL A   1      39.211  33.373  34.794  1.00  0.00     0.074 A 
ATOM     55  C   UNL A   1      38.194  34.396  34.663  1.00  0.00     0.031 C 
ATOM     56  C   UNL A   1      40.030  33.246  35.865  1.00  0.00     0.037 A 
BRANCH  43  57
ATOM     57  C   UNL A   1      43.865  28.426  35.542  1.00  0.00     0.058 A 
ATOM     58  C   UNL A   1      45.236  28.662  35.363  1.00  0.00     0.135 A 
ATOM     59  C   UNL A   1      43.485  27.436  36.464  1.00  0.00     0.135 A 
ATOM     60  F   UNL A   1      45.654  29.587  34.486  1.00  0.00    -0.206 F 
ATOM     61  C   UNL A   1      46.195  27.939  36.066  1.00  0.00     0.059 A 
ATOM     62  C   UNL A   1      44.426  26.717  37.194  1.00  0.00     0.059 A 
ATOM     63  F   UNL A   1      42.185  27.169  36.672  1.00  0.00    -0.206 F 
ATOM     64  C   UNL A   1      45.781  26.970  36.982  1.00  0.00     0.060 A 
BRANCH  64  65
ATOM     65  S   UNL A   1      47.039  26.069  37.912  1.00  0.00     0.124 S 
ATOM     66  O   UNL A   1      47.972  25.696  36.854  1.00  0.00    -0.237 OA
ATOM     67  O   UNL A   1      47.516  27.076  38.852  1.00  0.00    -0.237 OA
ATOM     68  O   UNL A   1      46.293  24.963  38.509  1.00  0.00    -0.744 OA
ENDBRANCH  64  65
ENDBRANCH  43  57
BRANCH  44  69
ATOM     69  C   UNL A   1      36.545  33.374  30.916  1.00  0.00     0.058 A 
ATOM     70  C   UNL A   1      36.723  34.191  29.790  1.00  0.00     0.135 A 
ATOM     71  C   UNL A   1      35.246  33.240  31.428  1.00  0.00     0.135 A 
ATOM     72  F   UNL A   1      37.948  34.356  29.267  1.00  0.00    -0.206 F 
ATOM     73  C   UNL A   1      35.659  34.873  29.208  1.00  0.00     0.059 A 
ATOM     74  C   UNL A   1      34.161  33.890  30.848  1.00  0.00     0.059 A 
ATOM     75  F   UNL A   1      35.020  32.456  32.494  1.00  0.00    -0.206 F 
ATOM     76  C   UNL A   1      34.381  34.717  29.747  1.00  0.00     0.060 A 
BRANCH  76  77
ATOM     77  S   UNL A   1      32.997  35.579  28.969  1.00  0.00     0.124 S 
ATOM     78  O   UNL A   1      33.687  36.612  28.206  1.00  0.00    -0.237 OA
ATOM     79  O   UNL A   1      32.373  34.517  28.186  1.00  0.00    -0.237 OA
ATOM     80  O   UNL A   1      32.214  36.049  30.108  1.00  0.00    -0.744 OA
ENDBRANCH  76  77
ENDBRANCH  44  69
BRANCH  56  81
ATOM     81  C   UNL A   1      39.889  34.252  36.972  1.00  0.00     0.058 A 
ATOM     82  C   UNL A   1      40.497  35.515  36.902  1.00  0.00     0.135 A 
ATOM     83  C   UNL A   1      39.092  33.969  38.093  1.00  0.00     0.135 A 
ATOM     84  F   UNL A   1      41.273  35.833  35.854  1.00  0.00    -0.206 F 
ATOM     85  C   UNL A   1      40.336  36.457  37.914  1.00  0.00     0.059 A 
ATOM     86  C   UNL A   1      38.897  34.903  39.106  1.00  0.00     0.059 A 
ATOM     87  F   UNL A   1      38.480  32.779  38.206  1.00  0.00    -0.206 F 
ATOM     88  C   UNL A   1      39.533  36.141  39.012  1.00  0.00     0.060 A 
BRANCH  88  89
ATOM     89  S   UNL A   1      39.303  37.382  40.303  1.00  0.00     0.124 S 
ATOM     90  O   UNL A   1      38.606  36.614  41.329  1.00  0.00    -0.237 OA
ATOM     91  O   UNL A   1      40.677  37.763  40.620  1.00  0.00    -0.237 OA
ATOM     92  O   UNL A   1      38.510  38.415  39.644  1.00  0.00    -0.744 OA
ENDBRANCH  88  89
ENDBRANCH  56  81
ENDBRANCH  30  31
ENDBRANCH  22  25
ENDBRANCH  20  21
ENDBRANCH   1  20
TORSDOF 18
ENDMDL
