MODEL 1
REMARK VINA RESULT:     -11.5      0.000      0.000
REMARK SMILES CCOc1cccc(OCC)c1-c1ccc([C@@H](C)C(=O)NCCCNC(=O)c2ccc(-c3c4nc(c(-c5c(F)cc(S(=O)(=O)[O-])cc5F)c5ccc([nH]5)c(-c5c(F)cc(S(=O)(=O)[O-])cc5F)c5nc(c(-c6c(F)cc(S(=O)(=O)[O-])cc6F)c6ccc3[nH]6)C=C5)C=C4)cc2)cc1F
REMARK SMILES IDX 22 1 21 2 19 3 20 4 17 6 18 7 16 8 13 9 14 10 95 11 15 12
REMARK SMILES IDX 94 13 96 14 12 15 4 16 5 17 6 18 8 19 7 20 3 21 2 22 1 23
REMARK SMILES IDX 9 24 10 25 11 26 23 27 24 28 25 29 26 30 27 32 28 33 29 34
REMARK SMILES IDX 93 35 30 36 92 37 31 38 32 39 33 40 86 41 34 42 91 43 85 44
REMARK SMILES IDX 87 45 35 46 90 47 84 48 83 49 36 51 70 52 49 53 69 54 50 55
REMARK SMILES IDX 53 56 68 57 88 58 51 59 52 60 67 62 89 63 54 64 37 65 38 66
REMARK SMILES IDX 47 67 39 68 40 69 46 70 48 71 41 72 42 73 43 74 44 75 45 76
REMARK SMILES IDX 71 77 72 78 81 79 73 80 74 81 80 82 82 83 75 84 76 85 77 86
REMARK SMILES IDX 78 87 79 88 55 89 56 90 65 91 57 92 58 93 64 94 66 95 59 96
REMARK SMILES IDX 60 97 61 98 62 99 63 100
REMARK H PARENT 21 5 25 31 87 50 53 61
REMARK Flexibility Score: inf
ROOT
ATOM      1  C   UNL A   1      34.417  29.912  27.259  1.00  0.00     0.117 C 
ENDROOT
BRANCH   1   2
ATOM      2  N   UNL A   1      33.191  29.711  26.488  1.00  0.00    -0.356 N 
ATOM      3  C   UNL A   1      32.880  29.141  25.287  1.00  0.00     0.227 C 
ATOM      4  O   UNL A   1      31.679  29.203  24.979  1.00  0.00    -0.274 OA
ATOM      5  H   UNL A   1      32.398  30.074  26.945  1.00  0.00     0.163 HD
BRANCH   3   6
ATOM      6  C   UNL A   1      33.862  28.444  24.310  1.00  0.00     0.105 C 
ATOM      7  C   UNL A   1      33.900  29.054  22.913  1.00  0.00     0.023 C 
BRANCH   6   8
ATOM      8  C   UNL A   1      33.765  26.928  24.279  1.00  0.00    -0.033 A 
ATOM      9  C   UNL A   1      33.607  24.086  24.399  1.00  0.00     0.025 A 
ATOM     10  C   UNL A   1      33.962  24.843  25.508  1.00  0.00     0.012 A 
ATOM     11  C   UNL A   1      33.393  24.773  23.198  1.00  0.00     0.131 A 
ATOM     12  C   UNL A   1      33.918  26.220  25.458  1.00  0.00     0.005 A 
ATOM     13  C   UNL A   1      33.500  26.177  23.126  1.00  0.00     0.044 A 
ATOM     14  F   UNL A   1      33.085  24.101  22.078  1.00  0.00    -0.206 F 
BRANCH   9  15
ATOM     15  C   UNL A   1      33.548  22.634  24.595  1.00  0.00     0.069 A 
ATOM     16  C   UNL A   1      34.745  21.899  24.386  1.00  0.00     0.130 A 
ATOM     17  C   UNL A   1      34.854  20.549  24.722  1.00  0.00     0.047 A 
ATOM     18  C   UNL A   1      33.771  19.899  25.299  1.00  0.00     0.008 A 
ATOM     19  C   UNL A   1      32.444  21.952  25.162  1.00  0.00     0.130 A 
ATOM     20  C   UNL A   1      32.579  20.592  25.497  1.00  0.00     0.047 A 
BRANCH  16  21
ATOM     21  O   UNL A   1      35.810  22.520  23.777  1.00  0.00    -0.493 OA
BRANCH  21  22
ATOM     22  C   UNL A   1      37.062  22.256  24.419  1.00  0.00     0.226 C 
ATOM     23  C   UNL A   1      37.226  23.228  25.578  1.00  0.00     0.049 C 
ENDBRANCH  21  22
ENDBRANCH  16  21
BRANCH  19  24
ATOM     24  O   UNL A   1      31.165  22.378  25.417  1.00  0.00    -0.493 OA
BRANCH  24  25
ATOM     25  C   UNL A   1      30.795  23.165  26.540  1.00  0.00     0.226 C 
ATOM     26  C   UNL A   1      30.406  24.583  26.142  1.00  0.00     0.049 C 
ENDBRANCH  24  25
ENDBRANCH  19  24
ENDBRANCH   9  15
ENDBRANCH   6   8
ENDBRANCH   3   6
ENDBRANCH   1   2
BRANCH   1  27
ATOM     27  C   UNL A   1      34.484  31.306  27.911  1.00  0.00     0.042 C 
BRANCH  27  28
ATOM     28  C   UNL A   1      35.737  31.612  28.713  1.00  0.00     0.118 C 
BRANCH  28  29
ATOM     29  N   UNL A   1      35.687  31.066  30.056  1.00  0.00    -0.352 N 
ATOM     30  C   UNL A   1      36.559  30.249  30.736  1.00  0.00     0.251 C 
ATOM     31  H   UNL A   1      34.887  31.327  30.570  1.00  0.00     0.163 HD
ATOM     32  O   UNL A   1      36.181  29.761  31.800  1.00  0.00    -0.269 OA
BRANCH  30  33
ATOM     33  C   UNL A   1      37.918  29.921  30.226  1.00  0.00     0.039 A 
ATOM     34  C   UNL A   1      38.113  29.870  28.840  1.00  0.00     0.014 A 
ATOM     35  C   UNL A   1      38.982  29.588  31.068  1.00  0.00     0.014 A 
ATOM     36  C   UNL A   1      39.367  29.541  28.309  1.00  0.00     0.010 A 
ATOM     37  C   UNL A   1      40.253  29.342  30.541  1.00  0.00     0.010 A 
ATOM     38  C   UNL A   1      40.461  29.306  29.154  1.00  0.00    -0.014 A 
BRANCH  38  39
ATOM     39  C   UNL A   1      41.815  28.997  28.614  1.00  0.00     0.031 A 
ATOM     40  C   UNL A   1      42.163  27.589  28.197  1.00  0.00     0.074 A 
ATOM     41  C   UNL A   1      42.750  29.966  28.542  1.00  0.00     0.049 A 
ATOM     42  N   UNL A   1      43.315  27.100  27.815  1.00  0.00    -0.248 NA
ATOM     43  C   UNL A   1      41.075  26.598  28.233  1.00  0.00     0.031 C 
ATOM     44  C   UNL A   1      42.555  31.364  28.930  1.00  0.00     0.029 A 
ATOM     45  N   UNL A   1      44.060  29.921  28.129  1.00  0.00    -0.354 N 
ATOM     46  C   UNL A   1      43.094  25.748  27.572  1.00  0.00     0.074 A 
ATOM     47  C   UNL A   1      41.710  25.482  27.902  1.00  0.00     0.031 C 
ATOM     48  C   UNL A   1      43.693  32.045  28.722  1.00  0.00     0.029 A 
ATOM     49  C   UNL A   1      44.716  31.127  28.230  1.00  0.00     0.049 A 
ATOM     50  H   UNL A   1      44.490  29.102  27.791  1.00  0.00     0.167 HD
ATOM     51  C   UNL A   1      43.955  24.817  27.092  1.00  0.00     0.037 A 
ATOM     52  C   UNL A   1      45.998  31.452  27.974  1.00  0.00     0.037 A 
ATOM     53  C   UNL A   1      45.326  25.083  26.744  1.00  0.00     0.049 A 
ATOM     54  C   UNL A   1      46.944  30.390  27.481  1.00  0.00     0.074 A 
ATOM     55  C   UNL A   1      46.272  24.209  26.237  1.00  0.00     0.029 A 
ATOM     56  N   UNL A   1      45.946  26.319  26.854  1.00  0.00    -0.354 N 
ATOM     57  N   UNL A   1      46.709  29.123  27.240  1.00  0.00    -0.248 NA
ATOM     58  C   UNL A   1      48.333  30.802  27.225  1.00  0.00     0.031 C 
ATOM     59  C   UNL A   1      47.472  24.908  26.069  1.00  0.00     0.029 A 
ATOM     60  C   UNL A   1      47.263  26.227  26.433  1.00  0.00     0.049 A 
ATOM     61  H   UNL A   1      45.514  27.141  27.183  1.00  0.00     0.167 HD
ATOM     62  C   UNL A   1      47.910  28.595  26.777  1.00  0.00     0.074 A 
ATOM     63  C   UNL A   1      48.866  29.682  26.758  1.00  0.00     0.031 C 
ATOM     64  C   UNL A   1      48.197  27.323  26.403  1.00  0.00     0.037 A 
BRANCH  51  65
ATOM     65  C   UNL A   1      43.434  23.418  26.893  1.00  0.00     0.058 A 
ATOM     66  C   UNL A   1      43.166  22.917  25.609  1.00  0.00     0.135 A 
ATOM     67  C   UNL A   1      43.255  22.553  27.984  1.00  0.00     0.135 A 
ATOM     68  F   UNL A   1      43.304  23.707  24.533  1.00  0.00    -0.206 F 
ATOM     69  C   UNL A   1      42.718  21.614  25.415  1.00  0.00     0.059 A 
ATOM     70  C   UNL A   1      42.834  21.237  27.811  1.00  0.00     0.059 A 
ATOM     71  F   UNL A   1      43.497  22.980  29.232  1.00  0.00    -0.206 F 
ATOM     72  C   UNL A   1      42.557  20.781  26.523  1.00  0.00     0.060 A 
BRANCH  72  73
ATOM     73  S   UNL A   1      41.994  19.088  26.249  1.00  0.00     0.124 S 
ATOM     74  O   UNL A   1      42.249  18.481  27.552  1.00  0.00    -0.237 OA
ATOM     75  O   UNL A   1      40.589  19.277  25.902  1.00  0.00    -0.237 OA
ATOM     76  O   UNL A   1      42.847  18.617  25.161  1.00  0.00    -0.744 OA
ENDBRANCH  72  73
ENDBRANCH  51  65
BRANCH  52  77
ATOM     77  C   UNL A   1      46.477  32.847  28.179  1.00  0.00     0.058 A 
ATOM     78  C   UNL A   1      46.979  33.262  29.422  1.00  0.00     0.135 A 
ATOM     79  C   UNL A   1      46.407  33.801  27.151  1.00  0.00     0.135 A 
ATOM     80  F   UNL A   1      47.058  32.389  30.438  1.00  0.00    -0.206 F 
ATOM     81  C   UNL A   1      47.362  34.579  29.652  1.00  0.00     0.059 A 
ATOM     82  C   UNL A   1      46.811  35.117  27.349  1.00  0.00     0.059 A 
ATOM     83  F   UNL A   1      45.951  33.452  25.939  1.00  0.00    -0.206 F 
ATOM     84  C   UNL A   1      47.267  35.501  28.609  1.00  0.00     0.060 A 
BRANCH  84  85
ATOM     85  S   UNL A   1      47.770  37.210  28.911  1.00  0.00     0.124 S 
ATOM     86  O   UNL A   1      46.896  37.936  27.997  1.00  0.00    -0.237 OA
ATOM     87  O   UNL A   1      47.485  37.369  30.333  1.00  0.00    -0.237 OA
ATOM     88  O   UNL A   1      49.188  37.205  28.561  1.00  0.00    -0.744 OA
ENDBRANCH  84  85
ENDBRANCH  52  77
BRANCH  64  89
ATOM     89  C   UNL A   1      49.587  27.047  25.901  1.00  0.00     0.058 A 
ATOM     90  C   UNL A   1      50.589  26.545  26.746  1.00  0.00     0.135 A 
ATOM     91  C   UNL A   1      49.906  27.244  24.548  1.00  0.00     0.135 A 
ATOM     92  F   UNL A   1      50.337  26.347  28.049  1.00  0.00    -0.206 F 
ATOM     93  C   UNL A   1      51.867  26.270  26.272  1.00  0.00     0.059 A 
ATOM     94  C   UNL A   1      51.170  26.951  24.046  1.00  0.00     0.059 A 
ATOM     95  F   UNL A   1      48.981  27.713  23.696  1.00  0.00    -0.206 F 
ATOM     96  C   UNL A   1      52.148  26.475  24.919  1.00  0.00     0.060 A 
BRANCH  96  97
ATOM     97  S   UNL A   1      53.801  26.080  24.308  1.00  0.00     0.124 S 
ATOM     98  O   UNL A   1      54.585  27.185  24.848  1.00  0.00    -0.237 OA
ATOM     99  O   UNL A   1      54.052  24.772  24.906  1.00  0.00    -0.237 OA
ATOM    100  O   UNL A   1      53.634  26.076  22.858  1.00  0.00    -0.744 OA
ENDBRANCH  96  97
ENDBRANCH  64  89
ENDBRANCH  38  39
ENDBRANCH  30  33
ENDBRANCH  28  29
ENDBRANCH  27  28
ENDBRANCH   1  27
TORSDOF 19
ENDMDL
MODEL 2
REMARK VINA RESULT:     -11.5      0.981      8.153
REMARK SMILES CCOc1cccc(OCC)c1-c1ccc([C@@H](C)C(=O)NCCCNC(=O)c2ccc(-c3c4nc(c(-c5c(F)cc(S(=O)(=O)[O-])cc5F)c5ccc([nH]5)c(-c5c(F)cc(S(=O)(=O)[O-])cc5F)c5nc(c(-c6c(F)cc(S(=O)(=O)[O-])cc6F)c6ccc3[nH]6)C=C5)C=C4)cc2)cc1F
REMARK SMILES IDX 22 1 21 2 19 3 20 4 17 6 18 7 16 8 13 9 14 10 95 11 15 12
REMARK SMILES IDX 94 13 96 14 12 15 4 16 5 17 6 18 8 19 7 20 3 21 2 22 1 23
REMARK SMILES IDX 9 24 10 25 11 26 23 27 24 28 25 29 26 30 27 32 28 33 29 34
REMARK SMILES IDX 93 35 30 36 92 37 31 38 32 39 33 40 86 41 34 42 91 43 85 44
REMARK SMILES IDX 87 45 35 46 90 47 84 48 83 49 36 51 70 52 49 53 69 54 50 55
REMARK SMILES IDX 53 56 68 57 88 58 51 59 52 60 67 62 89 63 54 64 37 65 38 66
REMARK SMILES IDX 47 67 39 68 40 69 46 70 48 71 41 72 42 73 43 74 44 75 45 76
REMARK SMILES IDX 71 77 72 78 81 79 73 80 74 81 80 82 82 83 75 84 76 85 77 86
REMARK SMILES IDX 78 87 79 88 55 89 56 90 65 91 57 92 58 93 64 94 66 95 59 96
REMARK SMILES IDX 60 97 61 98 62 99 63 100
REMARK H PARENT 21 5 25 31 87 50 53 61
REMARK Flexibility Score: inf
ROOT
ATOM      1  C   UNL A   1      33.897  30.071  27.227  1.00  0.00     0.117 C 
ENDROOT
BRANCH   1   2
ATOM      2  N   UNL A   1      33.466  29.950  25.834  1.00  0.00    -0.356 N 
ATOM      3  C   UNL A   1      32.739  29.045  25.116  1.00  0.00     0.227 C 
ATOM      4  O   UNL A   1      32.620  29.315  23.911  1.00  0.00    -0.274 OA
ATOM      5  H   UNL A   1      33.776  30.703  25.280  1.00  0.00     0.163 HD
BRANCH   3   6
ATOM      6  C   UNL A   1      32.067  27.757  25.660  1.00  0.00     0.105 C 
ATOM      7  C   UNL A   1      31.645  27.838  27.123  1.00  0.00     0.023 C 
BRANCH   6   8
ATOM      8  C   UNL A   1      32.803  26.467  25.338  1.00  0.00    -0.033 A 
ATOM      9  C   UNL A   1      34.143  23.992  24.900  1.00  0.00     0.025 A 
ATOM     10  C   UNL A   1      33.655  24.344  26.152  1.00  0.00     0.012 A 
ATOM     11  C   UNL A   1      34.008  24.933  23.873  1.00  0.00     0.131 A 
ATOM     12  C   UNL A   1      32.909  25.493  26.314  1.00  0.00     0.005 A 
ATOM     13  C   UNL A   1      33.372  26.173  24.091  1.00  0.00     0.044 A 
ATOM     14  F   UNL A   1      34.490  24.674  22.648  1.00  0.00    -0.206 F 
BRANCH   9  15
ATOM     15  C   UNL A   1      34.800  22.685  24.803  1.00  0.00     0.069 A 
ATOM     16  C   UNL A   1      36.201  22.642  25.026  1.00  0.00     0.130 A 
ATOM     17  C   UNL A   1      36.897  21.438  25.143  1.00  0.00     0.047 A 
ATOM     18  C   UNL A   1      36.203  20.238  25.064  1.00  0.00     0.008 A 
ATOM     19  C   UNL A   1      34.109  21.453  24.700  1.00  0.00     0.130 A 
ATOM     20  C   UNL A   1      34.831  20.251  24.827  1.00  0.00     0.047 A 
BRANCH  16  21
ATOM     21  O   UNL A   1      36.907  23.822  25.064  1.00  0.00    -0.493 OA
BRANCH  21  22
ATOM     22  C   UNL A   1      37.538  24.064  26.326  1.00  0.00     0.226 C 
ATOM     23  C   UNL A   1      39.038  24.186  26.102  1.00  0.00     0.049 C 
ENDBRANCH  21  22
ENDBRANCH  16  21
BRANCH  19  24
ATOM     24  O   UNL A   1      32.790  21.187  24.430  1.00  0.00    -0.493 OA
BRANCH  24  25
ATOM     25  C   UNL A   1      32.348  20.295  23.417  1.00  0.00     0.226 C 
ATOM     26  C   UNL A   1      31.924  21.031  22.152  1.00  0.00     0.049 C 
ENDBRANCH  24  25
ENDBRANCH  19  24
ENDBRANCH   9  15
ENDBRANCH   6   8
ENDBRANCH   3   6
ENDBRANCH   1   2
BRANCH   1  27
ATOM     27  C   UNL A   1      34.186  31.529  27.632  1.00  0.00     0.042 C 
BRANCH  27  28
ATOM     28  C   UNL A   1      35.499  31.777  28.355  1.00  0.00     0.118 C 
BRANCH  28  29
ATOM     29  N   UNL A   1      35.423  31.463  29.769  1.00  0.00    -0.352 N 
ATOM     30  C   UNL A   1      36.276  30.763  30.589  1.00  0.00     0.251 C 
ATOM     31  H   UNL A   1      34.621  31.813  30.220  1.00  0.00     0.163 HD
ATOM     32  O   UNL A   1      35.878  30.463  31.714  1.00  0.00    -0.269 OA
BRANCH  30  33
ATOM     33  C   UNL A   1      37.639  30.341  30.162  1.00  0.00     0.039 A 
ATOM     34  C   UNL A   1      38.625  30.184  31.144  1.00  0.00     0.014 A 
ATOM     35  C   UNL A   1      37.992  30.174  28.820  1.00  0.00     0.014 A 
ATOM     36  C   UNL A   1      39.929  29.814  30.792  1.00  0.00     0.010 A 
ATOM     37  C   UNL A   1      39.270  29.724  28.476  1.00  0.00     0.010 A 
ATOM     38  C   UNL A   1      40.258  29.547  29.455  1.00  0.00    -0.014 A 
BRANCH  38  39
ATOM     39  C   UNL A   1      41.627  29.110  29.059  1.00  0.00     0.031 A 
ATOM     40  C   UNL A   1      42.765  30.101  29.042  1.00  0.00     0.074 A 
ATOM     41  C   UNL A   1      41.842  27.838  28.667  1.00  0.00     0.049 A 
ATOM     42  N   UNL A   1      43.994  29.943  28.618  1.00  0.00    -0.248 NA
ATOM     43  C   UNL A   1      42.477  31.452  29.550  1.00  0.00     0.031 C 
ATOM     44  C   UNL A   1      40.828  26.782  28.617  1.00  0.00     0.029 A 
ATOM     45  N   UNL A   1      42.984  27.216  28.223  1.00  0.00    -0.354 N 
ATOM     46  C   UNL A   1      44.622  31.171  28.803  1.00  0.00     0.074 A 
ATOM     47  C   UNL A   1      43.623  32.079  29.325  1.00  0.00     0.031 C 
ATOM     48  C   UNL A   1      41.394  25.645  28.184  1.00  0.00     0.029 A 
ATOM     49  C   UNL A   1      42.800  25.896  27.881  1.00  0.00     0.049 A 
ATOM     50  H   UNL A   1      43.854  27.673  28.155  1.00  0.00     0.167 HD
ATOM     51  C   UNL A   1      45.916  31.506  28.584  1.00  0.00     0.037 A 
ATOM     52  C   UNL A   1      43.659  24.995  27.365  1.00  0.00     0.037 A 
ATOM     53  C   UNL A   1      46.916  30.599  28.084  1.00  0.00     0.049 A 
ATOM     54  C   UNL A   1      45.082  25.405  27.093  1.00  0.00     0.074 A 
ATOM     55  C   UNL A   1      48.257  30.842  27.842  1.00  0.00     0.029 A 
ATOM     56  N   UNL A   1      46.689  29.270  27.759  1.00  0.00    -0.354 N 
ATOM     57  N   UNL A   1      45.659  26.566  27.292  1.00  0.00    -0.248 NA
ATOM     58  C   UNL A   1      45.973  24.382  26.523  1.00  0.00     0.031 C 
ATOM     59  C   UNL A   1      48.834  29.670  27.342  1.00  0.00     0.029 A 
ATOM     60  C   UNL A   1      47.861  28.684  27.312  1.00  0.00     0.049 A 
ATOM     61  H   UNL A   1      45.821  28.810  27.835  1.00  0.00     0.167 HD
ATOM     62  C   UNL A   1      46.984  26.402  26.902  1.00  0.00     0.074 A 
ATOM     63  C   UNL A   1      47.128  25.030  26.467  1.00  0.00     0.031 C 
ATOM     64  C   UNL A   1      47.992  27.310  26.900  1.00  0.00     0.037 A 
BRANCH  51  65
ATOM     65  C   UNL A   1      46.338  32.915  28.904  1.00  0.00     0.058 A 
ATOM     66  C   UNL A   1      46.837  33.256  30.172  1.00  0.00     0.135 A 
ATOM     67  C   UNL A   1      46.298  33.921  27.925  1.00  0.00     0.135 A 
ATOM     68  F   UNL A   1      46.882  32.338  31.149  1.00  0.00    -0.206 F 
ATOM     69  C   UNL A   1      47.262  34.548  30.464  1.00  0.00     0.059 A 
ATOM     70  C   UNL A   1      46.743  35.214  28.187  1.00  0.00     0.059 A 
ATOM     71  F   UNL A   1      45.831  33.650  26.697  1.00  0.00    -0.206 F 
ATOM     72  C   UNL A   1      47.213  35.521  29.464  1.00  0.00     0.060 A 
BRANCH  72  73
ATOM     73  S   UNL A   1      47.787  37.186  29.857  1.00  0.00     0.124 S 
ATOM     74  O   UNL A   1      48.489  36.962  31.117  1.00  0.00    -0.237 OA
ATOM     75  O   UNL A   1      48.629  37.506  28.710  1.00  0.00    -0.237 OA
ATOM     76  O   UNL A   1      46.550  37.957  29.958  1.00  0.00    -0.744 OA
ENDBRANCH  72  73
ENDBRANCH  51  65
BRANCH  52  77
ATOM     77  C   UNL A   1      43.207  23.608  27.064  1.00  0.00     0.058 A 
ATOM     78  C   UNL A   1      43.030  22.668  28.090  1.00  0.00     0.135 A 
ATOM     79  C   UNL A   1      42.981  23.186  25.745  1.00  0.00     0.135 A 
ATOM     80  F   UNL A   1      43.240  23.023  29.367  1.00  0.00    -0.206 F 
ATOM     81  C   UNL A   1      42.679  21.350  27.821  1.00  0.00     0.059 A 
ATOM     82  C   UNL A   1      42.602  21.880  25.452  1.00  0.00     0.059 A 
ATOM     83  F   UNL A   1      43.120  24.049  24.727  1.00  0.00    -0.206 F 
ATOM     84  C   UNL A   1      42.474  20.964  26.495  1.00  0.00     0.060 A 
BRANCH  84  85
ATOM     85  S   UNL A   1      42.015  19.251  26.150  1.00  0.00     0.124 S 
ATOM     86  O   UNL A   1      42.797  18.977  24.950  1.00  0.00    -0.237 OA
ATOM     87  O   UNL A   1      42.443  18.566  27.364  1.00  0.00    -0.237 OA
ATOM     88  O   UNL A   1      40.569  19.328  25.958  1.00  0.00    -0.744 OA
ENDBRANCH  84  85
ENDBRANCH  52  77
BRANCH  64  89
ATOM     89  C   UNL A   1      49.348  26.837  26.455  1.00  0.00     0.058 A 
ATOM     90  C   UNL A   1      50.230  26.192  27.336  1.00  0.00     0.135 A 
ATOM     91  C   UNL A   1      49.750  26.989  25.119  1.00  0.00     0.135 A 
ATOM     92  F   UNL A   1      49.896  26.029  28.626  1.00  0.00    -0.206 F 
ATOM     93  C   UNL A   1      51.474  25.736  26.914  1.00  0.00     0.059 A 
ATOM     94  C   UNL A   1      50.979  26.517  24.667  1.00  0.00     0.059 A 
ATOM     95  F   UNL A   1      48.940  27.590  24.232  1.00  0.00    -0.206 F 
ATOM     96  C   UNL A   1      51.839  25.902  25.576  1.00  0.00     0.060 A 
BRANCH  96  97
ATOM     97  S   UNL A   1      53.442  25.273  25.032  1.00  0.00     0.124 S 
ATOM     98  O   UNL A   1      54.356  26.017  25.890  1.00  0.00    -0.237 OA
ATOM     99  O   UNL A   1      53.329  23.845  25.311  1.00  0.00    -0.237 OA
ATOM    100  O   UNL A   1      53.481  25.626  23.615  1.00  0.00    -0.744 OA
ENDBRANCH  96  97
ENDBRANCH  64  89
ENDBRANCH  38  39
ENDBRANCH  30  33
ENDBRANCH  28  29
ENDBRANCH  27  28
ENDBRANCH   1  27
TORSDOF 19
ENDMDL
MODEL 3
REMARK VINA RESULT:     -11.4      0.857      8.245
REMARK SMILES CCOc1cccc(OCC)c1-c1ccc([C@@H](C)C(=O)NCCCNC(=O)c2ccc(-c3c4nc(c(-c5c(F)cc(S(=O)(=O)[O-])cc5F)c5ccc([nH]5)c(-c5c(F)cc(S(=O)(=O)[O-])cc5F)c5nc(c(-c6c(F)cc(S(=O)(=O)[O-])cc6F)c6ccc3[nH]6)C=C5)C=C4)cc2)cc1F
REMARK SMILES IDX 22 1 21 2 19 3 20 4 17 6 18 7 16 8 13 9 14 10 95 11 15 12
REMARK SMILES IDX 94 13 96 14 12 15 4 16 5 17 6 18 8 19 7 20 3 21 2 22 1 23
REMARK SMILES IDX 9 24 10 25 11 26 23 27 24 28 25 29 26 30 27 32 28 33 29 34
REMARK SMILES IDX 93 35 30 36 92 37 31 38 32 39 33 40 86 41 34 42 91 43 85 44
REMARK SMILES IDX 87 45 35 46 90 47 84 48 83 49 36 51 70 52 49 53 69 54 50 55
REMARK SMILES IDX 53 56 68 57 88 58 51 59 52 60 67 62 89 63 54 64 37 65 38 66
REMARK SMILES IDX 47 67 39 68 40 69 46 70 48 71 41 72 42 73 43 74 44 75 45 76
REMARK SMILES IDX 71 77 72 78 81 79 73 80 74 81 80 82 82 83 75 84 76 85 77 86
REMARK SMILES IDX 78 87 79 88 55 89 56 90 65 91 57 92 58 93 64 94 66 95 59 96
REMARK SMILES IDX 60 97 61 98 62 99 63 100
REMARK H PARENT 21 5 25 31 87 50 53 61
REMARK Flexibility Score: inf
ROOT
ATOM      1  C   UNL A   1      33.989  29.846  26.915  1.00  0.00     0.117 C 
ENDROOT
BRANCH   1   2
ATOM      2  N   UNL A   1      32.852  29.753  26.000  1.00  0.00    -0.356 N 
ATOM      3  C   UNL A   1      32.632  29.193  24.775  1.00  0.00     0.227 C 
ATOM      4  O   UNL A   1      31.490  29.368  24.322  1.00  0.00    -0.274 OA
ATOM      5  H   UNL A   1      32.050  30.203  26.353  1.00  0.00     0.163 HD
BRANCH   3   6
ATOM      6  C   UNL A   1      33.649  28.380  23.933  1.00  0.00     0.105 C 
ATOM      7  C   UNL A   1      33.586  28.654  22.434  1.00  0.00     0.023 C 
BRANCH   6   8
ATOM      8  C   UNL A   1      33.700  26.894  24.250  1.00  0.00    -0.033 A 
ATOM      9  C   UNL A   1      33.807  24.079  24.668  1.00  0.00     0.025 A 
ATOM     10  C   UNL A   1      33.694  24.622  23.395  1.00  0.00     0.012 A 
ATOM     11  C   UNL A   1      33.800  24.971  25.747  1.00  0.00     0.131 A 
ATOM     12  C   UNL A   1      33.761  25.987  23.209  1.00  0.00     0.005 A 
ATOM     13  C   UNL A   1      33.717  26.364  25.548  1.00  0.00     0.044 A 
ATOM     14  F   UNL A   1      33.867  24.513  27.006  1.00  0.00    -0.206 F 
BRANCH   9  15
ATOM     15  C   UNL A   1      33.866  22.616  24.748  1.00  0.00     0.069 A 
ATOM     16  C   UNL A   1      32.637  21.909  24.674  1.00  0.00     0.130 A 
ATOM     17  C   UNL A   1      32.586  20.520  24.552  1.00  0.00     0.047 A 
ATOM     18  C   UNL A   1      33.770  19.798  24.476  1.00  0.00     0.008 A 
ATOM     19  C   UNL A   1      35.065  21.864  24.694  1.00  0.00     0.130 A 
ATOM     20  C   UNL A   1      34.989  20.465  24.565  1.00  0.00     0.047 A 
BRANCH  16  21
ATOM     21  O   UNL A   1      31.458  22.608  24.791  1.00  0.00    -0.493 OA
BRANCH  21  22
ATOM     22  C   UNL A   1      30.806  22.414  26.051  1.00  0.00     0.226 C 
ATOM     23  C   UNL A   1      30.527  23.776  26.667  1.00  0.00     0.049 C 
ENDBRANCH  21  22
ENDBRANCH  16  21
BRANCH  19  24
ATOM     24  O   UNL A   1      36.374  22.260  24.803  1.00  0.00    -0.493 OA
BRANCH  24  25
ATOM     25  C   UNL A   1      37.480  21.369  24.788  1.00  0.00     0.226 C 
ATOM     26  C   UNL A   1      38.479  21.678  25.896  1.00  0.00     0.049 C 
ENDBRANCH  24  25
ENDBRANCH  19  24
ENDBRANCH   9  15
ENDBRANCH   6   8
ENDBRANCH   3   6
ENDBRANCH   1   2
BRANCH   1  27
ATOM     27  C   UNL A   1      34.143  31.251  27.528  1.00  0.00     0.042 C 
BRANCH  27  28
ATOM     28  C   UNL A   1      35.456  31.533  28.237  1.00  0.00     0.118 C 
BRANCH  28  29
ATOM     29  N   UNL A   1      35.390  31.264  29.660  1.00  0.00    -0.352 N 
ATOM     30  C   UNL A   1      36.259  30.608  30.501  1.00  0.00     0.251 C 
ATOM     31  H   UNL A   1      34.581  31.612  30.102  1.00  0.00     0.163 HD
ATOM     32  O   UNL A   1      35.869  30.337  31.635  1.00  0.00    -0.269 OA
BRANCH  30  33
ATOM     33  C   UNL A   1      37.629  30.202  30.083  1.00  0.00     0.039 A 
ATOM     34  C   UNL A   1      38.521  29.764  31.070  1.00  0.00     0.014 A 
ATOM     35  C   UNL A   1      38.082  30.313  28.766  1.00  0.00     0.014 A 
ATOM     36  C   UNL A   1      39.830  29.395  30.733  1.00  0.00     0.010 A 
ATOM     37  C   UNL A   1      39.360  29.866  28.417  1.00  0.00     0.010 A 
ATOM     38  C   UNL A   1      40.254  29.410  29.397  1.00  0.00    -0.014 A 
BRANCH  38  39
ATOM     39  C   UNL A   1      41.627  28.981  29.007  1.00  0.00     0.031 A 
ATOM     40  C   UNL A   1      42.760  29.978  28.996  1.00  0.00     0.074 A 
ATOM     41  C   UNL A   1      41.852  27.710  28.616  1.00  0.00     0.049 A 
ATOM     42  N   UNL A   1      43.991  29.827  28.578  1.00  0.00    -0.248 NA
ATOM     43  C   UNL A   1      42.462  31.327  29.503  1.00  0.00     0.031 C 
ATOM     44  C   UNL A   1      40.844  26.649  28.561  1.00  0.00     0.029 A 
ATOM     45  N   UNL A   1      42.999  27.095  28.177  1.00  0.00    -0.354 N 
ATOM     46  C   UNL A   1      44.612  31.058  28.766  1.00  0.00     0.074 A 
ATOM     47  C   UNL A   1      43.605  31.961  29.283  1.00  0.00     0.031 C 
ATOM     48  C   UNL A   1      41.419  25.514  28.131  1.00  0.00     0.029 A 
ATOM     49  C   UNL A   1      42.824  25.773  27.834  1.00  0.00     0.049 A 
ATOM     50  H   UNL A   1      43.867  27.556  28.113  1.00  0.00     0.167 HD
ATOM     51  C   UNL A   1      45.905  31.402  28.553  1.00  0.00     0.037 A 
ATOM     52  C   UNL A   1      43.691  24.877  27.322  1.00  0.00     0.037 A 
ATOM     53  C   UNL A   1      46.912  30.500  28.058  1.00  0.00     0.049 A 
ATOM     54  C   UNL A   1      45.113  25.296  27.057  1.00  0.00     0.074 A 
ATOM     55  C   UNL A   1      48.253  30.751  27.822  1.00  0.00     0.029 A 
ATOM     56  N   UNL A   1      46.694  29.170  27.731  1.00  0.00    -0.354 N 
ATOM     57  N   UNL A   1      45.682  26.460  27.260  1.00  0.00    -0.248 NA
ATOM     58  C   UNL A   1      46.012  24.278  26.491  1.00  0.00     0.031 C 
ATOM     59  C   UNL A   1      48.839  29.582  27.325  1.00  0.00     0.029 A 
ATOM     60  C   UNL A   1      47.872  28.591  27.290  1.00  0.00     0.049 A 
ATOM     61  H   UNL A   1      45.828  28.705  27.803  1.00  0.00     0.167 HD
ATOM     62  C   UNL A   1      47.010  26.304  26.876  1.00  0.00     0.074 A 
ATOM     63  C   UNL A   1      47.164  24.932  26.441  1.00  0.00     0.031 C 
ATOM     64  C   UNL A   1      48.013  27.218  26.879  1.00  0.00     0.037 A 
BRANCH  51  65
ATOM     65  C   UNL A   1      46.318  32.813  28.876  1.00  0.00     0.058 A 
ATOM     66  C   UNL A   1      46.102  33.861  27.965  1.00  0.00     0.135 A 
ATOM     67  C   UNL A   1      46.880  33.134  30.122  1.00  0.00     0.135 A 
ATOM     68  F   UNL A   1      45.583  33.607  26.754  1.00  0.00    -0.206 F 
ATOM     69  C   UNL A   1      46.448  35.173  28.270  1.00  0.00     0.059 A 
ATOM     70  C   UNL A   1      47.210  34.444  30.458  1.00  0.00     0.059 A 
ATOM     71  F   UNL A   1      47.107  32.172  31.028  1.00  0.00    -0.206 F 
ATOM     72  C   UNL A   1      47.000  35.455  29.521  1.00  0.00     0.060 A 
BRANCH  72  73
ATOM     73  S   UNL A   1      47.424  37.167  29.905  1.00  0.00     0.124 S 
ATOM     74  O   UNL A   1      46.565  37.429  31.056  1.00  0.00    -0.237 OA
ATOM     75  O   UNL A   1      48.853  37.080  30.187  1.00  0.00    -0.237 OA
ATOM     76  O   UNL A   1      47.072  37.887  28.684  1.00  0.00    -0.744 OA
ENDBRANCH  72  73
ENDBRANCH  51  65
BRANCH  52  77
ATOM     77  C   UNL A   1      43.248  23.489  27.019  1.00  0.00     0.058 A 
ATOM     78  C   UNL A   1      43.117  22.534  28.039  1.00  0.00     0.135 A 
ATOM     79  C   UNL A   1      42.985  23.079  25.702  1.00  0.00     0.135 A 
ATOM     80  F   UNL A   1      43.364  22.876  29.312  1.00  0.00    -0.206 F 
ATOM     81  C   UNL A   1      42.776  21.214  27.764  1.00  0.00     0.059 A 
ATOM     82  C   UNL A   1      42.615  21.771  25.406  1.00  0.00     0.059 A 
ATOM     83  F   UNL A   1      43.080  23.956  24.692  1.00  0.00    -0.206 F 
ATOM     84  C   UNL A   1      42.533  20.841  26.441  1.00  0.00     0.060 A 
BRANCH  84  85
ATOM     85  S   UNL A   1      42.086  19.127  26.089  1.00  0.00     0.124 S 
ATOM     86  O   UNL A   1      40.637  19.226  25.955  1.00  0.00    -0.237 OA
ATOM     87  O   UNL A   1      42.827  18.860  24.861  1.00  0.00    -0.237 OA
ATOM     88  O   UNL A   1      42.564  18.411  27.269  1.00  0.00    -0.744 OA
ENDBRANCH  84  85
ENDBRANCH  52  77
BRANCH  64  89
ATOM     89  C   UNL A   1      49.374  26.752  26.440  1.00  0.00     0.058 A 
ATOM     90  C   UNL A   1      50.220  26.035  27.300  1.00  0.00     0.135 A 
ATOM     91  C   UNL A   1      49.816  26.986  25.128  1.00  0.00     0.135 A 
ATOM     92  F   UNL A   1      49.848  25.792  28.567  1.00  0.00    -0.206 F 
ATOM     93  C   UNL A   1      51.469  25.587  26.882  1.00  0.00     0.059 A 
ATOM     94  C   UNL A   1      51.049  26.524  24.680  1.00  0.00     0.059 A 
ATOM     95  F   UNL A   1      49.040  27.658  24.263  1.00  0.00    -0.206 F 
ATOM     96  C   UNL A   1      51.874  25.836  25.568  1.00  0.00     0.060 A 
BRANCH  96  97
ATOM     97  S   UNL A   1      53.482  25.218  25.027  1.00  0.00     0.124 S 
ATOM     98  O   UNL A   1      53.355  23.790  25.300  1.00  0.00    -0.237 OA
ATOM     99  O   UNL A   1      53.504  25.594  23.617  1.00  0.00    -0.237 OA
ATOM    100  O   UNL A   1      54.426  25.940  25.876  1.00  0.00    -0.744 OA
ENDBRANCH  96  97
ENDBRANCH  64  89
ENDBRANCH  38  39
ENDBRANCH  30  33
ENDBRANCH  28  29
ENDBRANCH  27  28
ENDBRANCH   1  27
TORSDOF 19
ENDMDL
