MODEL 1
REMARK VINA RESULT:     -11.5      0.000      0.000
REMARK SMILES C[C@H](C(=O)NCCCNC(=O)c1ccc(-c2c3nc(c(-c4c(F)cc(S(=O)(=O)[O-])cc4F)c4ccc([nH]4)c(-c4c(F)cc(S(=O)(=O)[O-])cc4F)c4nc(c(-c5c(F)cc(S(=O)(=O)[O-])cc5F)c5ccc2[nH]5)C=C4)C=C3)cc1)[C@@H](C)[NH2+]Cc1cccc2ccccc12
REMARK SMILES IDX 6 1 5 2 3 3 4 4 2 6 1 7 78 8 79 9 80 10 81 13 82 14 83 15
REMARK SMILES IDX 91 16 84 17 86 18 90 19 85 20 87 21 89 22 88 23 7 24 8 25
REMARK SMILES IDX 9 26 10 27 11 29 12 30 13 31 77 32 14 33 76 34 15 35 16 36
REMARK SMILES IDX 17 37 70 38 18 39 75 40 69 41 71 42 19 43 74 44 68 45 67 46
REMARK SMILES IDX 20 48 54 49 33 50 53 51 34 52 37 53 52 54 72 55 35 56 36 57
REMARK SMILES IDX 51 59 73 60 38 61 21 62 22 63 31 64 23 65 24 66 30 67 32 68
REMARK SMILES IDX 25 69 26 70 27 71 28 72 29 73 55 74 56 75 65 76 57 77 58 78
REMARK SMILES IDX 64 79 66 80 59 81 60 82 61 83 62 84 63 85 39 86 40 87 49 88
REMARK SMILES IDX 41 89 42 90 48 91 50 92 43 93 44 94 45 95 46 96 47 97
REMARK H PARENT 5 5 80 11 80 12 9 28 71 47 37 58
REMARK Flexibility Score: inf
ROOT
ATOM      1  C   UNL A   1      31.864  28.927  25.414  1.00  0.00     0.117 C 
ENDROOT
BRANCH   1   2
ATOM      2  N   UNL A   1      31.385  28.895  24.038  1.00  0.00    -0.356 N 
ATOM      3  C   UNL A   1      30.963  27.928  23.185  1.00  0.00     0.228 C 
ATOM      4  O   UNL A   1      30.444  28.337  22.137  1.00  0.00    -0.275 OA
ATOM      5  H   UNL A   1      31.361  29.790  23.630  1.00  0.00     0.163 HD
BRANCH   3   6
ATOM      6  C   UNL A   1      31.141  26.413  23.381  1.00  0.00     0.133 C 
ATOM      7  C   UNL A   1      29.749  25.827  23.632  1.00  0.00     0.024 C 
BRANCH   6   8
ATOM      8  C   UNL A   1      31.936  25.683  22.285  1.00  0.00     0.191 C 
ATOM      9  C   UNL A   1      33.421  26.094  22.395  1.00  0.00     0.076 C 
BRANCH   8  10
ATOM     10  N   UNL A   1      31.812  24.217  22.325  1.00  0.00    -0.340 N 
ATOM     11  H   UNL A   1      31.203  23.924  21.560  1.00  0.00     0.346 HD
ATOM     12  H   UNL A   1      31.431  23.975  23.240  1.00  0.00     0.346 HD
BRANCH  10  13
ATOM     13  C   UNL A   1      33.100  23.510  22.192  1.00  0.00     0.298 C 
BRANCH  13  14
ATOM     14  C   UNL A   1      33.382  22.374  23.166  1.00  0.00     0.014 A 
ATOM     15  C   UNL A   1      32.331  21.471  23.444  1.00  0.00     0.010 A 
ATOM     16  C   UNL A   1      34.651  22.171  23.785  1.00  0.00    -0.010 A 
ATOM     17  C   UNL A   1      32.503  20.415  24.334  1.00  0.00     0.001 A 
ATOM     18  C   UNL A   1      34.797  21.111  24.719  1.00  0.00    -0.018 A 
ATOM     19  C   UNL A   1      35.802  22.937  23.494  1.00  0.00     0.009 A 
ATOM     20  C   UNL A   1      33.720  20.256  24.989  1.00  0.00     0.009 A 
ATOM     21  C   UNL A   1      36.030  20.895  25.354  1.00  0.00     0.009 A 
ATOM     22  C   UNL A   1      37.042  22.653  24.068  1.00  0.00     0.001 A 
ATOM     23  C   UNL A   1      37.152  21.648  25.017  1.00  0.00     0.001 A 
ENDBRANCH  13  14
ENDBRANCH  10  13
ENDBRANCH   8  10
ENDBRANCH   6   8
ENDBRANCH   3   6
ENDBRANCH   1   2
BRANCH   1  24
ATOM     24  C   UNL A   1      33.230  28.291  25.570  1.00  0.00     0.042 C 
BRANCH  24  25
ATOM     25  C   UNL A   1      33.741  28.423  26.991  1.00  0.00     0.118 C 
BRANCH  25  26
ATOM     26  N   UNL A   1      33.621  29.794  27.486  1.00  0.00    -0.352 N 
ATOM     27  C   UNL A   1      34.494  30.538  28.242  1.00  0.00     0.251 C 
ATOM     28  H   UNL A   1      32.786  30.254  27.240  1.00  0.00     0.163 HD
ATOM     29  O   UNL A   1      34.119  31.578  28.767  1.00  0.00    -0.269 OA
BRANCH  27  30
ATOM     30  C   UNL A   1      35.878  30.060  28.419  1.00  0.00     0.039 A 
ATOM     31  C   UNL A   1      36.759  30.081  27.336  1.00  0.00     0.014 A 
ATOM     32  C   UNL A   1      36.304  29.611  29.670  1.00  0.00     0.014 A 
ATOM     33  C   UNL A   1      38.092  29.716  27.533  1.00  0.00     0.010 A 
ATOM     34  C   UNL A   1      37.649  29.374  29.891  1.00  0.00     0.010 A 
ATOM     35  C   UNL A   1      38.553  29.399  28.820  1.00  0.00    -0.014 A 
BRANCH  35  36
ATOM     36  C   UNL A   1      39.968  29.044  29.086  1.00  0.00     0.031 A 
ATOM     37  C   UNL A   1      40.900  30.091  29.634  1.00  0.00     0.074 A 
ATOM     38  C   UNL A   1      40.429  27.825  28.747  1.00  0.00     0.049 A 
ATOM     39  N   UNL A   1      42.193  30.035  29.814  1.00  0.00    -0.248 NA
ATOM     40  C   UNL A   1      40.303  31.392  29.986  1.00  0.00     0.031 C 
ATOM     41  C   UNL A   1      39.630  26.749  28.157  1.00  0.00     0.029 A 
ATOM     42  N   UNL A   1      41.689  27.291  28.834  1.00  0.00    -0.354 N 
ATOM     43  C   UNL A   1      42.563  31.294  30.272  1.00  0.00     0.074 A 
ATOM     44  C   UNL A   1      41.374  32.113  30.273  1.00  0.00     0.031 C 
ATOM     45  C   UNL A   1      40.413  25.677  27.958  1.00  0.00     0.029 A 
ATOM     46  C   UNL A   1      41.777  26.004  28.360  1.00  0.00     0.049 A 
ATOM     47  H   UNL A   1      42.458  27.784  29.201  1.00  0.00     0.167 HD
ATOM     48  C   UNL A   1      43.780  31.720  30.683  1.00  0.00     0.037 A 
ATOM     49  C   UNL A   1      42.841  25.186  28.249  1.00  0.00     0.037 A 
ATOM     50  C   UNL A   1      44.950  30.882  30.704  1.00  0.00     0.049 A 
ATOM     51  C   UNL A   1      44.186  25.677  28.714  1.00  0.00     0.074 A 
ATOM     52  C   UNL A   1      46.219  31.188  31.159  1.00  0.00     0.029 A 
ATOM     53  N   UNL A   1      44.992  29.571  30.250  1.00  0.00    -0.354 N 
ATOM     54  N   UNL A   1      44.511  26.850  29.206  1.00  0.00    -0.248 NA
ATOM     55  C   UNL A   1      45.307  24.732  28.620  1.00  0.00     0.031 C 
ATOM     56  C   UNL A   1      47.042  30.082  30.928  1.00  0.00     0.029 A 
ATOM     57  C   UNL A   1      46.271  29.063  30.390  1.00  0.00     0.049 A 
ATOM     58  H   UNL A   1      44.225  29.076  29.881  1.00  0.00     0.167 HD
ATOM     59  C   UNL A   1      45.865  26.775  29.508  1.00  0.00     0.074 A 
ATOM     60  C   UNL A   1      46.296  25.438  29.151  1.00  0.00     0.031 C 
ATOM     61  C   UNL A   1      46.678  27.724  30.037  1.00  0.00     0.037 A 
BRANCH  48  62
ATOM     62  C   UNL A   1      43.900  33.149  31.140  1.00  0.00     0.058 A 
ATOM     63  C   UNL A   1      43.808  33.505  32.497  1.00  0.00     0.135 A 
ATOM     64  C   UNL A   1      44.110  34.179  30.210  1.00  0.00     0.135 A 
ATOM     65  F   UNL A   1      43.591  32.564  33.430  1.00  0.00    -0.206 F 
ATOM     66  C   UNL A   1      43.877  34.831  32.909  1.00  0.00     0.059 A 
ATOM     67  C   UNL A   1      44.217  35.511  30.604  1.00  0.00     0.059 A 
ATOM     68  F   UNL A   1      44.204  33.902  28.900  1.00  0.00    -0.206 F 
ATOM     69  C   UNL A   1      44.080  35.828  31.954  1.00  0.00     0.060 A 
BRANCH  69  70
ATOM     70  S   UNL A   1      44.153  37.545  32.506  1.00  0.00     0.124 S 
ATOM     71  O   UNL A   1      45.510  37.620  33.039  1.00  0.00    -0.237 OA
ATOM     72  O   UNL A   1      43.917  38.281  31.268  1.00  0.00    -0.237 OA
ATOM     73  O   UNL A   1      43.085  37.629  33.497  1.00  0.00    -0.744 OA
ENDBRANCH  69  70
ENDBRANCH  48  62
BRANCH  49  74
ATOM     74  C   UNL A   1      42.665  23.814  27.702  1.00  0.00     0.058 A 
ATOM     75  C   UNL A   1      42.427  22.724  28.552  1.00  0.00     0.135 A 
ATOM     76  C   UNL A   1      42.691  23.571  26.320  1.00  0.00     0.135 A 
ATOM     77  F   UNL A   1      42.398  22.905  29.881  1.00  0.00    -0.206 F 
ATOM     78  C   UNL A   1      42.231  21.441  28.055  1.00  0.00     0.059 A 
ATOM     79  C   UNL A   1      42.471  22.300  25.796  1.00  0.00     0.059 A 
ATOM     80  F   UNL A   1      42.896  24.582  25.463  1.00  0.00    -0.206 F 
ATOM     81  C   UNL A   1      42.247  21.240  26.673  1.00  0.00     0.060 A 
BRANCH  81  82
ATOM     82  S   UNL A   1      41.924  19.581  26.038  1.00  0.00     0.124 S 
ATOM     83  O   UNL A   1      42.796  19.536  24.870  1.00  0.00    -0.237 OA
ATOM     84  O   UNL A   1      42.320  18.741  27.164  1.00  0.00    -0.237 OA
ATOM     85  O   UNL A   1      40.491  19.601  25.756  1.00  0.00    -0.744 OA
ENDBRANCH  81  82
ENDBRANCH  49  74
BRANCH  61  86
ATOM     86  C   UNL A   1      48.108  27.342  30.308  1.00  0.00     0.058 A 
ATOM     87  C   UNL A   1      49.155  27.737  29.463  1.00  0.00     0.135 A 
ATOM     88  C   UNL A   1      48.437  26.628  31.472  1.00  0.00     0.135 A 
ATOM     89  F   UNL A   1      48.894  28.416  28.334  1.00  0.00    -0.206 F 
ATOM     90  C   UNL A   1      50.478  27.418  29.750  1.00  0.00     0.059 A 
ATOM     91  C   UNL A   1      49.755  26.326  31.796  1.00  0.00     0.059 A 
ATOM     92  F   UNL A   1      47.474  26.235  32.321  1.00  0.00    -0.206 F 
ATOM     93  C   UNL A   1      50.769  26.717  30.923  1.00  0.00     0.060 A 
BRANCH  93  94
ATOM     94  S   UNL A   1      52.494  26.349  31.305  1.00  0.00     0.124 S 
ATOM     95  O   UNL A   1      52.358  25.202  32.198  1.00  0.00    -0.237 OA
ATOM     96  O   UNL A   1      53.050  26.062  29.986  1.00  0.00    -0.237 OA
ATOM     97  O   UNL A   1      52.974  27.578  31.928  1.00  0.00    -0.744 OA
ENDBRANCH  93  94
ENDBRANCH  61  86
ENDBRANCH  35  36
ENDBRANCH  27  30
ENDBRANCH  25  26
ENDBRANCH  24  25
ENDBRANCH   1  24
TORSDOF 17
ENDMDL
MODEL 2
REMARK VINA RESULT:     -11.4      4.432     10.959
REMARK SMILES C[C@H](C(=O)NCCCNC(=O)c1ccc(-c2c3nc(c(-c4c(F)cc(S(=O)(=O)[O-])cc4F)c4ccc([nH]4)c(-c4c(F)cc(S(=O)(=O)[O-])cc4F)c4nc(c(-c5c(F)cc(S(=O)(=O)[O-])cc5F)c5ccc2[nH]5)C=C4)C=C3)cc1)[C@@H](C)[NH2+]Cc1cccc2ccccc12
REMARK SMILES IDX 6 1 5 2 3 3 4 4 2 6 1 7 78 8 79 9 80 10 81 13 82 14 83 15
REMARK SMILES IDX 91 16 84 17 86 18 90 19 85 20 87 21 89 22 88 23 7 24 8 25
REMARK SMILES IDX 9 26 10 27 11 29 12 30 13 31 77 32 14 33 76 34 15 35 16 36
REMARK SMILES IDX 17 37 70 38 18 39 75 40 69 41 71 42 19 43 74 44 68 45 67 46
REMARK SMILES IDX 20 48 54 49 33 50 53 51 34 52 37 53 52 54 72 55 35 56 36 57
REMARK SMILES IDX 51 59 73 60 38 61 21 62 22 63 31 64 23 65 24 66 30 67 32 68
REMARK SMILES IDX 25 69 26 70 27 71 28 72 29 73 55 74 56 75 65 76 57 77 58 78
REMARK SMILES IDX 64 79 66 80 59 81 60 82 61 83 62 84 63 85 39 86 40 87 49 88
REMARK SMILES IDX 41 89 42 90 48 91 50 92 43 93 44 94 45 95 46 96 47 97
REMARK H PARENT 5 5 80 11 80 12 9 28 71 47 37 58
REMARK Flexibility Score: inf
ROOT
ATOM      1  C   UNL A   1      42.378  22.424  25.893  1.00  0.00     0.117 C 
ENDROOT
BRANCH   1   2
ATOM      2  N   UNL A   1      43.111  22.327  24.637  1.00  0.00    -0.356 N 
ATOM      3  C   UNL A   1      44.406  22.479  24.260  1.00  0.00     0.228 C 
ATOM      4  O   UNL A   1      44.666  22.117  23.104  1.00  0.00    -0.275 OA
ATOM      5  H   UNL A   1      42.526  22.095  23.880  1.00  0.00     0.163 HD
BRANCH   3   6
ATOM      6  C   UNL A   1      45.522  23.114  25.106  1.00  0.00     0.133 C 
ATOM      7  C   UNL A   1      46.732  23.297  24.186  1.00  0.00     0.024 C 
BRANCH   6   8
ATOM      8  C   UNL A   1      45.135  24.382  25.885  1.00  0.00     0.191 C 
ATOM      9  C   UNL A   1      46.379  24.896  26.643  1.00  0.00     0.076 C 
BRANCH   8  10
ATOM     10  N   UNL A   1      44.573  25.456  25.050  1.00  0.00    -0.340 N 
ATOM     11  H   UNL A   1      43.556  25.416  25.115  1.00  0.00     0.346 HD
ATOM     12  H   UNL A   1      44.908  25.300  24.099  1.00  0.00     0.346 HD
BRANCH  10  13
ATOM     13  C   UNL A   1      45.012  26.807  25.447  1.00  0.00     0.298 C 
BRANCH  13  14
ATOM     14  C   UNL A   1      43.935  27.811  25.835  1.00  0.00     0.014 A 
ATOM     15  C   UNL A   1      42.730  27.799  25.099  1.00  0.00     0.010 A 
ATOM     16  C   UNL A   1      44.080  28.736  26.911  1.00  0.00    -0.010 A 
ATOM     17  C   UNL A   1      41.702  28.694  25.382  1.00  0.00     0.001 A 
ATOM     18  C   UNL A   1      43.036  29.667  27.161  1.00  0.00    -0.018 A 
ATOM     19  C   UNL A   1      45.189  28.761  27.787  1.00  0.00     0.009 A 
ATOM     20  C   UNL A   1      41.868  29.641  26.387  1.00  0.00     0.009 A 
ATOM     21  C   UNL A   1      43.155  30.598  28.205  1.00  0.00     0.009 A 
ATOM     22  C   UNL A   1      45.251  29.635  28.874  1.00  0.00     0.001 A 
ATOM     23  C   UNL A   1      44.247  30.570  29.069  1.00  0.00     0.001 A 
ENDBRANCH  13  14
ENDBRANCH  10  13
ENDBRANCH   8  10
ENDBRANCH   6   8
ENDBRANCH   3   6
ENDBRANCH   1   2
BRANCH   1  24
ATOM     24  C   UNL A   1      41.615  21.158  26.222  1.00  0.00     0.042 C 
BRANCH  24  25
ATOM     25  C   UNL A   1      40.307  21.467  26.922  1.00  0.00     0.118 C 
BRANCH  25  26
ATOM     26  N   UNL A   1      39.308  22.001  25.996  1.00  0.00    -0.352 N 
ATOM     27  C   UNL A   1      38.688  23.227  25.978  1.00  0.00     0.251 C 
ATOM     28  H   UNL A   1      39.038  21.387  25.275  1.00  0.00     0.163 HD
ATOM     29  O   UNL A   1      37.702  23.406  25.275  1.00  0.00    -0.269 OA
BRANCH  27  30
ATOM     30  C   UNL A   1      39.220  24.313  26.822  1.00  0.00     0.039 A 
ATOM     31  C   UNL A   1      40.121  25.231  26.279  1.00  0.00     0.014 A 
ATOM     32  C   UNL A   1      38.805  24.429  28.149  1.00  0.00     0.014 A 
ATOM     33  C   UNL A   1      40.548  26.309  27.055  1.00  0.00     0.010 A 
ATOM     34  C   UNL A   1      39.128  25.564  28.871  1.00  0.00     0.010 A 
ATOM     35  C   UNL A   1      40.022  26.504  28.342  1.00  0.00    -0.014 A 
BRANCH  35  36
ATOM     36  C   UNL A   1      40.414  27.657  29.188  1.00  0.00     0.031 A 
ATOM     37  C   UNL A   1      41.691  27.587  29.982  1.00  0.00     0.074 A 
ATOM     38  C   UNL A   1      39.585  28.710  29.313  1.00  0.00     0.049 A 
ATOM     39  N   UNL A   1      42.153  28.417  30.879  1.00  0.00    -0.248 NA
ATOM     40  C   UNL A   1      42.539  26.400  29.772  1.00  0.00     0.031 C 
ATOM     41  C   UNL A   1      38.296  28.862  28.635  1.00  0.00     0.029 A 
ATOM     42  N   UNL A   1      39.695  29.847  30.071  1.00  0.00    -0.354 N 
ATOM     43  C   UNL A   1      43.326  27.842  31.354  1.00  0.00     0.074 A 
ATOM     44  C   UNL A   1      43.466  26.561  30.702  1.00  0.00     0.031 C 
ATOM     45  C   UNL A   1      37.748  30.035  28.988  1.00  0.00     0.029 A 
ATOM     46  C   UNL A   1      38.619  30.695  29.953  1.00  0.00     0.049 A 
ATOM     47  H   UNL A   1      40.471  30.039  30.646  1.00  0.00     0.167 HD
ATOM     48  C   UNL A   1      44.221  28.349  32.233  1.00  0.00     0.037 A 
ATOM     49  C   UNL A   1      38.361  31.866  30.566  1.00  0.00     0.037 A 
ATOM     50  C   UNL A   1      44.082  29.641  32.852  1.00  0.00     0.049 A 
ATOM     51  C   UNL A   1      39.370  32.416  31.538  1.00  0.00     0.074 A 
ATOM     52  C   UNL A   1      44.958  30.283  33.709  1.00  0.00     0.029 A 
ATOM     53  N   UNL A   1      42.996  30.487  32.680  1.00  0.00    -0.354 N 
ATOM     54  N   UNL A   1      40.507  31.891  31.931  1.00  0.00    -0.248 NA
ATOM     55  C   UNL A   1      39.067  33.720  32.144  1.00  0.00     0.031 C 
ATOM     56  C   UNL A   1      44.376  31.493  34.098  1.00  0.00     0.029 A 
ATOM     57  C   UNL A   1      43.167  31.636  33.433  1.00  0.00     0.049 A 
ATOM     58  H   UNL A   1      42.218  30.299  32.107  1.00  0.00     0.167 HD
ATOM     59  C   UNL A   1      41.070  32.813  32.805  1.00  0.00     0.074 A 
ATOM     60  C   UNL A   1      40.152  33.932  32.877  1.00  0.00     0.031 C 
ATOM     61  C   UNL A   1      42.243  32.744  33.483  1.00  0.00     0.037 A 
BRANCH  48  62
ATOM     62  C   UNL A   1      45.421  27.505  32.570  1.00  0.00     0.058 A 
ATOM     63  C   UNL A   1      46.675  27.725  31.973  1.00  0.00     0.135 A 
ATOM     64  C   UNL A   1      45.319  26.462  33.503  1.00  0.00     0.135 A 
ATOM     65  F   UNL A   1      46.829  28.698  31.059  1.00  0.00    -0.206 F 
ATOM     66  C   UNL A   1      47.769  26.915  32.256  1.00  0.00     0.059 A 
ATOM     67  C   UNL A   1      46.411  25.661  33.829  1.00  0.00     0.059 A 
ATOM     68  F   UNL A   1      44.148  26.203  34.106  1.00  0.00    -0.206 F 
ATOM     69  C   UNL A   1      47.626  25.884  33.185  1.00  0.00     0.060 A 
BRANCH  69  70
ATOM     70  S   UNL A   1      49.054  24.835  33.531  1.00  0.00     0.124 S 
ATOM     71  O   UNL A   1      48.410  23.618  34.013  1.00  0.00    -0.237 OA
ATOM     72  O   UNL A   1      49.694  24.738  32.223  1.00  0.00    -0.237 OA
ATOM     73  O   UNL A   1      49.796  25.592  34.534  1.00  0.00    -0.744 OA
ENDBRANCH  69  70
ENDBRANCH  48  62
BRANCH  49  74
ATOM     74  C   UNL A   1      37.108  32.604  30.251  1.00  0.00     0.058 A 
ATOM     75  C   UNL A   1      35.979  32.493  31.075  1.00  0.00     0.135 A 
ATOM     76  C   UNL A   1      37.027  33.466  29.146  1.00  0.00     0.135 A 
ATOM     77  F   UNL A   1      36.005  31.678  32.141  1.00  0.00    -0.206 F 
ATOM     78  C   UNL A   1      34.810  33.199  30.811  1.00  0.00     0.059 A 
ATOM     79  C   UNL A   1      35.879  34.204  28.876  1.00  0.00     0.059 A 
ATOM     80  F   UNL A   1      38.086  33.624  28.337  1.00  0.00    -0.206 F 
ATOM     81  C   UNL A   1      34.772  34.059  29.712  1.00  0.00     0.060 A 
BRANCH  81  82
ATOM     82  S   UNL A   1      33.273  35.021  29.419  1.00  0.00     0.124 S 
ATOM     83  O   UNL A   1      32.621  34.957  30.722  1.00  0.00    -0.237 OA
ATOM     84  O   UNL A   1      33.816  36.322  29.039  1.00  0.00    -0.237 OA
ATOM     85  O   UNL A   1      32.609  34.290  28.343  1.00  0.00    -0.744 OA
ENDBRANCH  81  82
ENDBRANCH  49  74
BRANCH  61  86
ATOM     86  C   UNL A   1      42.629  33.927  34.329  1.00  0.00     0.058 A 
ATOM     87  C   UNL A   1      42.396  33.959  35.711  1.00  0.00     0.135 A 
ATOM     88  C   UNL A   1      43.306  35.014  33.751  1.00  0.00     0.135 A 
ATOM     89  F   UNL A   1      41.748  32.949  36.312  1.00  0.00    -0.206 F 
ATOM     90  C   UNL A   1      42.801  35.039  36.490  1.00  0.00     0.059 A 
ATOM     91  C   UNL A   1      43.748  36.089  34.514  1.00  0.00     0.059 A 
ATOM     92  F   UNL A   1      43.564  35.028  32.434  1.00  0.00    -0.206 F 
ATOM     93  C   UNL A   1      43.481  36.097  35.882  1.00  0.00     0.060 A 
BRANCH  93  94
ATOM     94  S   UNL A   1      44.039  37.470  36.912  1.00  0.00     0.124 S 
ATOM     95  O   UNL A   1      45.323  36.972  37.395  1.00  0.00    -0.237 OA
ATOM     96  O   UNL A   1      44.107  38.570  35.954  1.00  0.00    -0.237 OA
ATOM     97  O   UNL A   1      42.990  37.588  37.919  1.00  0.00    -0.744 OA
ENDBRANCH  93  94
ENDBRANCH  61  86
ENDBRANCH  35  36
ENDBRANCH  27  30
ENDBRANCH  25  26
ENDBRANCH  24  25
ENDBRANCH   1  24
TORSDOF 17
ENDMDL
MODEL 3
REMARK VINA RESULT:     -11.3      2.920      3.748
REMARK SMILES C[C@H](C(=O)NCCCNC(=O)c1ccc(-c2c3nc(c(-c4c(F)cc(S(=O)(=O)[O-])cc4F)c4ccc([nH]4)c(-c4c(F)cc(S(=O)(=O)[O-])cc4F)c4nc(c(-c5c(F)cc(S(=O)(=O)[O-])cc5F)c5ccc2[nH]5)C=C4)C=C3)cc1)[C@@H](C)[NH2+]Cc1cccc2ccccc12
REMARK SMILES IDX 6 1 5 2 3 3 4 4 2 6 1 7 78 8 79 9 80 10 81 13 82 14 83 15
REMARK SMILES IDX 91 16 84 17 86 18 90 19 85 20 87 21 89 22 88 23 7 24 8 25
REMARK SMILES IDX 9 26 10 27 11 29 12 30 13 31 77 32 14 33 76 34 15 35 16 36
REMARK SMILES IDX 17 37 70 38 18 39 75 40 69 41 71 42 19 43 74 44 68 45 67 46
REMARK SMILES IDX 20 48 54 49 33 50 53 51 34 52 37 53 52 54 72 55 35 56 36 57
REMARK SMILES IDX 51 59 73 60 38 61 21 62 22 63 31 64 23 65 24 66 30 67 32 68
REMARK SMILES IDX 25 69 26 70 27 71 28 72 29 73 55 74 56 75 65 76 57 77 58 78
REMARK SMILES IDX 64 79 66 80 59 81 60 82 61 83 62 84 63 85 39 86 40 87 49 88
REMARK SMILES IDX 41 89 42 90 48 91 50 92 43 93 44 94 45 95 46 96 47 97
REMARK H PARENT 5 5 80 11 80 12 9 28 71 47 37 58
REMARK Flexibility Score: inf
ROOT
ATOM      1  C   UNL A   1      32.700  26.512  26.080  1.00  0.00     0.117 C 
ENDROOT
BRANCH   1   2
ATOM      2  N   UNL A   1      31.413  26.003  26.536  1.00  0.00    -0.356 N 
ATOM      3  C   UNL A   1      30.250  25.641  25.936  1.00  0.00     0.228 C 
ATOM      4  O   UNL A   1      29.435  25.064  26.669  1.00  0.00    -0.275 OA
ATOM      5  H   UNL A   1      31.378  25.896  27.513  1.00  0.00     0.163 HD
BRANCH   3   6
ATOM      6  C   UNL A   1      29.853  25.947  24.482  1.00  0.00     0.133 C 
ATOM      7  C   UNL A   1      30.241  27.403  24.209  1.00  0.00     0.024 C 
BRANCH   6   8
ATOM      8  C   UNL A   1      30.365  24.956  23.424  1.00  0.00     0.191 C 
ATOM      9  C   UNL A   1      31.457  25.653  22.582  1.00  0.00     0.076 C 
BRANCH   8  10
ATOM     10  N   UNL A   1      30.881  23.694  23.977  1.00  0.00    -0.340 N 
ATOM     11  H   UNL A   1      30.094  23.062  24.126  1.00  0.00     0.346 HD
ATOM     12  H   UNL A   1      31.363  23.925  24.846  1.00  0.00     0.346 HD
BRANCH  10  13
ATOM     13  C   UNL A   1      31.861  23.021  23.104  1.00  0.00     0.298 C 
BRANCH  13  14
ATOM     14  C   UNL A   1      32.794  22.004  23.748  1.00  0.00     0.014 A 
ATOM     15  C   UNL A   1      32.423  20.642  23.687  1.00  0.00     0.010 A 
ATOM     16  C   UNL A   1      34.020  22.360  24.384  1.00  0.00    -0.010 A 
ATOM     17  C   UNL A   1      33.214  19.653  24.265  1.00  0.00     0.001 A 
ATOM     18  C   UNL A   1      34.795  21.341  25.000  1.00  0.00    -0.018 A 
ATOM     19  C   UNL A   1      34.547  23.671  24.403  1.00  0.00     0.009 A 
ATOM     20  C   UNL A   1      34.376  20.005  24.942  1.00  0.00     0.009 A 
ATOM     21  C   UNL A   1      36.000  21.664  25.644  1.00  0.00     0.009 A 
ATOM     22  C   UNL A   1      35.789  23.959  24.971  1.00  0.00     0.001 A 
ATOM     23  C   UNL A   1      36.505  22.961  25.613  1.00  0.00     0.001 A 
ENDBRANCH  13  14
ENDBRANCH  10  13
ENDBRANCH   8  10
ENDBRANCH   6   8
ENDBRANCH   3   6
ENDBRANCH   1   2
BRANCH   1  24
ATOM     24  C   UNL A   1      33.141  27.746  26.841  1.00  0.00     0.042 C 
BRANCH  24  25
ATOM     25  C   UNL A   1      33.929  28.689  25.953  1.00  0.00     0.118 C 
BRANCH  25  26
ATOM     26  N   UNL A   1      33.744  30.086  26.346  1.00  0.00    -0.352 N 
ATOM     27  C   UNL A   1      34.389  30.824  27.309  1.00  0.00     0.251 C 
ATOM     28  H   UNL A   1      33.052  30.572  25.843  1.00  0.00     0.163 HD
ATOM     29  O   UNL A   1      33.933  31.903  27.662  1.00  0.00    -0.269 OA
BRANCH  27  30
ATOM     30  C   UNL A   1      35.624  30.291  27.915  1.00  0.00     0.039 A 
ATOM     31  C   UNL A   1      36.842  30.451  27.252  1.00  0.00     0.014 A 
ATOM     32  C   UNL A   1      35.570  29.651  29.154  1.00  0.00     0.014 A 
ATOM     33  C   UNL A   1      38.018  30.028  27.873  1.00  0.00     0.010 A 
ATOM     34  C   UNL A   1      36.745  29.351  29.821  1.00  0.00     0.010 A 
ATOM     35  C   UNL A   1      37.980  29.512  29.179  1.00  0.00    -0.014 A 
BRANCH  35  36
ATOM     36  C   UNL A   1      39.207  29.087  29.895  1.00  0.00     0.031 A 
ATOM     37  C   UNL A   1      39.636  29.835  31.128  1.00  0.00     0.074 A 
ATOM     38  C   UNL A   1      39.973  28.103  29.387  1.00  0.00     0.049 A 
ATOM     39  N   UNL A   1      40.735  29.719  31.826  1.00  0.00    -0.248 NA
ATOM     40  C   UNL A   1      38.727  30.889  31.615  1.00  0.00     0.031 C 
ATOM     41  C   UNL A   1      39.685  27.345  28.168  1.00  0.00     0.029 A 
ATOM     42  N   UNL A   1      41.164  27.585  29.825  1.00  0.00    -0.354 N 
ATOM     43  C   UNL A   1      40.659  30.695  32.812  1.00  0.00     0.074 A 
ATOM     44  C   UNL A   1      39.445  31.442  32.579  1.00  0.00     0.031 C 
ATOM     45  C   UNL A   1      40.658  26.443  27.969  1.00  0.00     0.029 A 
ATOM     46  C   UNL A   1      41.663  26.590  29.017  1.00  0.00     0.049 A 
ATOM     47  H   UNL A   1      41.620  27.895  30.640  1.00  0.00     0.167 HD
ATOM     48  C   UNL A   1      41.510  30.928  33.838  1.00  0.00     0.037 A 
ATOM     49  C   UNL A   1      42.809  25.888  29.105  1.00  0.00     0.037 A 
ATOM     50  C   UNL A   1      42.701  30.155  34.074  1.00  0.00     0.049 A 
ATOM     51  C   UNL A   1      43.741  26.160  30.254  1.00  0.00     0.074 A 
ATOM     52  C   UNL A   1      43.603  30.262  35.116  1.00  0.00     0.029 A 
ATOM     53  N   UNL A   1      43.155  29.132  33.253  1.00  0.00    -0.354 N 
ATOM     54  N   UNL A   1      43.627  27.044  31.217  1.00  0.00    -0.248 NA
ATOM     55  C   UNL A   1      44.954  25.335  30.336  1.00  0.00     0.031 C 
ATOM     56  C   UNL A   1      44.632  29.341  34.897  1.00  0.00     0.029 A 
ATOM     57  C   UNL A   1      44.337  28.615  33.753  1.00  0.00     0.049 A 
ATOM     58  H   UNL A   1      42.702  28.820  32.436  1.00  0.00     0.167 HD
ATOM     59  C   UNL A   1      44.734  26.861  32.036  1.00  0.00     0.074 A 
ATOM     60  C   UNL A   1      45.503  25.777  31.459  1.00  0.00     0.031 C 
ATOM     61  C   UNL A   1      45.083  27.526  33.167  1.00  0.00     0.037 A 
BRANCH  48  62
ATOM     62  C   UNL A   1      41.179  32.060  34.773  1.00  0.00     0.058 A 
ATOM     63  C   UNL A   1      41.712  33.349  34.597  1.00  0.00     0.135 A 
ATOM     64  C   UNL A   1      40.316  31.856  35.861  1.00  0.00     0.135 A 
ATOM     65  F   UNL A   1      42.557  33.599  33.584  1.00  0.00    -0.206 F 
ATOM     66  C   UNL A   1      41.436  34.380  35.489  1.00  0.00     0.059 A 
ATOM     67  C   UNL A   1      39.997  32.883  36.746  1.00  0.00     0.059 A 
ATOM     68  F   UNL A   1      39.777  30.647  36.082  1.00  0.00    -0.206 F 
ATOM     69  C   UNL A   1      40.579  34.136  36.562  1.00  0.00     0.060 A 
BRANCH  69  70
ATOM     70  S   UNL A   1      40.243  35.483  37.716  1.00  0.00     0.124 S 
ATOM     71  O   UNL A   1      39.969  36.587  36.802  1.00  0.00    -0.237 OA
ATOM     72  O   UNL A   1      39.094  34.977  38.460  1.00  0.00    -0.237 OA
ATOM     73  O   UNL A   1      41.482  35.593  38.479  1.00  0.00    -0.744 OA
ENDBRANCH  69  70
ENDBRANCH  48  62
BRANCH  49  74
ATOM     74  C   UNL A   1      43.115  24.843  28.090  1.00  0.00     0.058 A 
ATOM     75  C   UNL A   1      43.703  25.180  26.863  1.00  0.00     0.135 A 
ATOM     76  C   UNL A   1      42.863  23.486  28.343  1.00  0.00     0.135 A 
ATOM     77  F   UNL A   1      43.959  26.466  26.573  1.00  0.00    -0.206 F 
ATOM     78  C   UNL A   1      44.023  24.213  25.917  1.00  0.00     0.059 A 
ATOM     79  C   UNL A   1      43.198  22.496  27.424  1.00  0.00     0.059 A 
ATOM     80  F   UNL A   1      42.319  23.108  29.510  1.00  0.00    -0.206 F 
ATOM     81  C   UNL A   1      43.773  22.871  26.210  1.00  0.00     0.060 A 
BRANCH  81  82
ATOM     82  S   UNL A   1      44.254  21.619  25.002  1.00  0.00     0.124 S 
ATOM     83  O   UNL A   1      43.172  20.650  25.132  1.00  0.00    -0.237 OA
ATOM     84  O   UNL A   1      44.278  22.387  23.761  1.00  0.00    -0.237 OA
ATOM     85  O   UNL A   1      45.561  21.175  25.479  1.00  0.00    -0.744 OA
ENDBRANCH  81  82
ENDBRANCH  49  74
BRANCH  61  86
ATOM     86  C   UNL A   1      46.325  27.075  33.885  1.00  0.00     0.058 A 
ATOM     87  C   UNL A   1      46.295  26.063  34.855  1.00  0.00     0.135 A 
ATOM     88  C   UNL A   1      47.574  27.620  33.542  1.00  0.00     0.135 A 
ATOM     89  F   UNL A   1      45.128  25.514  35.224  1.00  0.00    -0.206 F 
ATOM     90  C   UNL A   1      47.459  25.621  35.478  1.00  0.00     0.059 A 
ATOM     91  C   UNL A   1      48.753  27.172  34.127  1.00  0.00     0.059 A 
ATOM     92  F   UNL A   1      47.659  28.583  32.611  1.00  0.00    -0.206 F 
ATOM     93  C   UNL A   1      48.683  26.178  35.102  1.00  0.00     0.060 A 
BRANCH  93  94
ATOM     94  S   UNL A   1      50.189  25.565  35.887  1.00  0.00     0.124 S 
ATOM     95  O   UNL A   1      50.886  24.965  34.754  1.00  0.00    -0.237 OA
ATOM     96  O   UNL A   1      50.782  26.787  36.421  1.00  0.00    -0.237 OA
ATOM     97  O   UNL A   1      49.692  24.626  36.888  1.00  0.00    -0.744 OA
ENDBRANCH  93  94
ENDBRANCH  61  86
ENDBRANCH  35  36
ENDBRANCH  27  30
ENDBRANCH  25  26
ENDBRANCH  24  25
ENDBRANCH   1  24
TORSDOF 17
ENDMDL
