MODEL 1
REMARK VINA RESULT:     -13.8      0.000      0.000
REMARK SMILES O=C(NCCCNC(=O)[C@H](CO)NC(=O)[C@H](Cc1c[nH]c2ccccc12)NC(=O)c1ccc(F)cc1)c1ccc(-c2c3nc(c(-c4c(F)cc(S(=O)(=O)[O-])cc4F)c4ccc([nH]4)c(-c4c(F)cc(S(=O)(=O)[O-])cc4F)c4nc(c(-c5c(F)cc(S(=O)(=O)[O-])cc5F)c5ccc2[nH]5)C=C4)C=C3)cc1
REMARK SMILES IDX 5 1 4 2 3 3 1 4 2 5 37 7 38 8 102 9 39 10 101 11 40 12 41 13
REMARK SMILES IDX 42 14 95 15 43 16 100 17 94 18 96 19 44 20 99 21 93 22 92 23
REMARK SMILES IDX 45 25 79 26 58 27 78 28 59 29 62 30 77 31 97 32 60 33 61 34
REMARK SMILES IDX 76 36 98 37 63 38 46 39 47 40 56 41 48 42 49 43 55 44 57 45
REMARK SMILES IDX 50 46 51 47 52 48 53 49 54 50 80 51 81 52 90 53 82 54 83 55
REMARK SMILES IDX 89 56 91 57 84 58 85 59 86 60 87 61 88 62 64 63 65 64 74 65
REMARK SMILES IDX 66 66 67 67 73 68 75 69 68 70 69 71 70 72 71 73 72 74 6 75
REMARK SMILES IDX 7 76 8 77 9 79 10 80 13 81 14 82 15 84 16 85 27 86 28 87
REMARK SMILES IDX 29 89 30 90 31 91 36 92 32 93 35 94 33 95 34 96 17 97 18 98
REMARK SMILES IDX 19 99 26 100 20 101 21 102 25 103 22 105 24 106 23 107
REMARK SMILES IDX 11 108 12 109
REMARK H PARENT 3 6 96 24 62 35 7 78 13 83 27 88 20 104 12 110
REMARK Flexibility Score: inf
ROOT
ATOM      1  C   UNL A   1      32.512  28.648  26.958  1.00  0.00     0.042 C 
ENDROOT
BRANCH   1   2
ATOM      2  C   UNL A   1      33.918  29.132  27.128  1.00  0.00     0.118 C 
BRANCH   2   3
ATOM      3  N   UNL A   1      33.878  30.520  27.578  1.00  0.00    -0.352 N 
ATOM      4  O   UNL A   1      34.219  32.033  29.224  1.00  0.00    -0.269 OA
ATOM      5  C   UNL A   1      34.645  31.089  28.571  1.00  0.00     0.251 C 
ATOM      6  H   UNL A   1      33.234  31.112  27.125  1.00  0.00     0.163 HD
BRANCH   5   7
ATOM      7  C   UNL A   1      35.986  30.522  28.804  1.00  0.00     0.039 A 
ATOM      8  C   UNL A   1      36.969  30.780  27.853  1.00  0.00     0.014 A 
ATOM      9  C   UNL A   1      36.277  29.741  29.921  1.00  0.00     0.014 A 
ATOM     10  C   UNL A   1      38.129  30.051  27.855  1.00  0.00     0.010 A 
ATOM     11  C   UNL A   1      37.569  29.228  30.063  1.00  0.00     0.010 A 
ATOM     12  C   UNL A   1      38.501  29.382  29.022  1.00  0.00    -0.014 A 
BRANCH  12  13
ATOM     13  C   UNL A   1      39.932  29.035  29.144  1.00  0.00     0.031 A 
ATOM     14  C   UNL A   1      40.448  27.706  28.702  1.00  0.00     0.074 A 
ATOM     15  C   UNL A   1      40.761  30.006  29.589  1.00  0.00     0.049 A 
ATOM     16  N   UNL A   1      41.682  27.278  28.712  1.00  0.00    -0.248 NA
ATOM     17  C   UNL A   1      39.474  26.724  28.197  1.00  0.00     0.031 C 
ATOM     18  C   UNL A   1      40.337  31.343  30.039  1.00  0.00     0.029 A 
ATOM     19  N   UNL A   1      42.125  30.060  29.685  1.00  0.00    -0.354 N 
ATOM     20  C   UNL A   1      41.634  25.976  28.239  1.00  0.00     0.074 A 
ATOM     21  C   UNL A   1      40.246  25.668  27.975  1.00  0.00     0.031 C 
ATOM     22  C   UNL A   1      41.410  32.109  30.247  1.00  0.00     0.029 A 
ATOM     23  C   UNL A   1      42.596  31.288  30.093  1.00  0.00     0.049 A 
ATOM     24  H   UNL A   1      42.711  29.296  29.483  1.00  0.00     0.167 HD
ATOM     25  C   UNL A   1      42.669  25.130  28.038  1.00  0.00     0.037 A 
ATOM     26  C   UNL A   1      43.847  31.701  30.354  1.00  0.00     0.037 A 
ATOM     27  C   UNL A   1      44.044  25.476  28.298  1.00  0.00     0.049 A 
ATOM     28  C   UNL A   1      44.957  30.711  30.181  1.00  0.00     0.074 A 
ATOM     29  C   UNL A   1      45.169  24.691  28.120  1.00  0.00     0.029 A 
ATOM     30  N   UNL A   1      44.482  26.700  28.785  1.00  0.00    -0.354 N 
ATOM     31  N   UNL A   1      44.894  29.482  29.726  1.00  0.00    -0.248 NA
ATOM     32  C   UNL A   1      46.299  31.151  30.567  1.00  0.00     0.031 C 
ATOM     33  C   UNL A   1      46.279  25.417  28.560  1.00  0.00     0.029 A 
ATOM     34  C   UNL A   1      45.858  26.681  28.942  1.00  0.00     0.049 A 
ATOM     35  H   UNL A   1      43.900  27.468  28.990  1.00  0.00     0.167 HD
ATOM     36  C   UNL A   1      46.197  29.007  29.751  1.00  0.00     0.074 A 
ATOM     37  C   UNL A   1      47.025  30.094  30.233  1.00  0.00     0.031 C 
ATOM     38  C   UNL A   1      46.664  27.779  29.417  1.00  0.00     0.037 A 
BRANCH  25  39
ATOM     39  C   UNL A   1      42.377  23.752  27.518  1.00  0.00     0.058 A 
ATOM     40  C   UNL A   1      42.245  22.673  28.408  1.00  0.00     0.135 A 
ATOM     41  C   UNL A   1      42.349  23.476  26.142  1.00  0.00     0.135 A 
ATOM     42  F   UNL A   1      42.249  22.884  29.732  1.00  0.00    -0.206 F 
ATOM     43  C   UNL A   1      42.145  21.363  27.952  1.00  0.00     0.059 A 
ATOM     44  C   UNL A   1      42.220  22.176  25.663  1.00  0.00     0.059 A 
ATOM     45  F   UNL A   1      42.439  24.475  25.250  1.00  0.00    -0.206 F 
ATOM     46  C   UNL A   1      42.145  21.124  26.576  1.00  0.00     0.060 A 
BRANCH  46  47
ATOM     47  S   UNL A   1      42.052  19.416  26.004  1.00  0.00     0.124 S 
ATOM     48  O   UNL A   1      42.986  19.422  24.883  1.00  0.00    -0.237 OA
ATOM     49  O   UNL A   1      42.482  18.677  27.188  1.00  0.00    -0.237 OA
ATOM     50  O   UNL A   1      40.646  19.253  25.650  1.00  0.00    -0.744 OA
ENDBRANCH  46  47
ENDBRANCH  25  39
BRANCH  26  51
ATOM     51  C   UNL A   1      44.099  33.088  30.830  1.00  0.00     0.058 A 
ATOM     52  C   UNL A   1      44.385  34.131  29.933  1.00  0.00     0.135 A 
ATOM     53  C   UNL A   1      44.068  33.399  32.197  1.00  0.00     0.135 A 
ATOM     54  F   UNL A   1      44.451  33.891  28.613  1.00  0.00    -0.206 F 
ATOM     55  C   UNL A   1      44.645  35.423  30.371  1.00  0.00     0.059 A 
ATOM     56  C   UNL A   1      44.280  34.694  32.659  1.00  0.00     0.059 A 
ATOM     57  F   UNL A   1      43.801  32.438  33.095  1.00  0.00    -0.206 F 
ATOM     58  C   UNL A   1      44.577  35.697  31.737  1.00  0.00     0.060 A 
BRANCH  58  59
ATOM     59  S   UNL A   1      44.862  37.395  32.278  1.00  0.00     0.124 S 
ATOM     60  O   UNL A   1      45.031  38.084  31.003  1.00  0.00    -0.237 OA
ATOM     61  O   UNL A   1      43.632  37.691  33.004  1.00  0.00    -0.237 OA
ATOM     62  O   UNL A   1      46.064  37.288  33.099  1.00  0.00    -0.744 OA
ENDBRANCH  58  59
ENDBRANCH  26  51
BRANCH  38  63
ATOM     63  C   UNL A   1      48.145  27.558  29.531  1.00  0.00     0.058 A 
ATOM     64  C   UNL A   1      48.982  27.767  28.423  1.00  0.00     0.135 A 
ATOM     65  C   UNL A   1      48.732  27.095  30.720  1.00  0.00     0.135 A 
ATOM     66  F   UNL A   1      48.471  28.202  27.260  1.00  0.00    -0.206 F 
ATOM     67  C   UNL A   1      50.345  27.511  28.485  1.00  0.00     0.059 A 
ATOM     68  C   UNL A   1      50.101  26.873  30.817  1.00  0.00     0.059 A 
ATOM     69  F   UNL A   1      47.977  26.891  31.811  1.00  0.00    -0.206 F 
ATOM     70  C   UNL A   1      50.896  27.071  29.689  1.00  0.00     0.060 A 
BRANCH  70  71
ATOM     71  S   UNL A   1      52.676  26.785  29.760  1.00  0.00     0.124 S 
ATOM     72  O   UNL A   1      52.784  25.847  30.871  1.00  0.00    -0.237 OA
ATOM     73  O   UNL A   1      52.948  26.236  28.435  1.00  0.00    -0.237 OA
ATOM     74  O   UNL A   1      53.224  28.115  30.005  1.00  0.00    -0.744 OA
ENDBRANCH  70  71
ENDBRANCH  38  63
ENDBRANCH  12  13
ENDBRANCH   5   7
ENDBRANCH   2   3
ENDBRANCH   1   2
BRANCH   1  75
ATOM     75  C   UNL A   1      31.900  29.357  25.750  1.00  0.00     0.117 C 
BRANCH  75  76
ATOM     76  N   UNL A   1      32.683  29.251  24.459  1.00  0.00    -0.354 N 
ATOM     77  C   UNL A   1      32.548  28.819  23.130  1.00  0.00     0.244 C 
ATOM     78  H   UNL A   1      33.593  29.603  24.598  1.00  0.00     0.163 HD
ATOM     79  O   UNL A   1      33.547  28.998  22.418  1.00  0.00    -0.273 OA
BRANCH  77  80
ATOM     80  C   UNL A   1      31.051  28.090  22.390  1.00  0.00     0.197 C 
BRANCH  80  81
ATOM     81  N   UNL A   1      31.710  26.872  21.442  1.00  0.00    -0.340 N 
ATOM     82  C   UNL A   1      32.435  25.738  21.787  1.00  0.00     0.243 C 
ATOM     83  H   UNL A   1      31.555  26.979  20.477  1.00  0.00     0.164 HD
ATOM     84  O   UNL A   1      32.946  25.065  20.884  1.00  0.00    -0.273 OA
BRANCH  82  85
ATOM     85  C   UNL A   1      32.721  25.349  23.298  1.00  0.00     0.176 C 
BRANCH  85  86
ATOM     86  N   UNL A   1      33.833  26.012  24.024  1.00  0.00    -0.340 N 
ATOM     87  C   UNL A   1      34.401  25.452  25.147  1.00  0.00     0.251 C 
ATOM     88  H   UNL A   1      34.174  26.874  23.694  1.00  0.00     0.164 HD
ATOM     89  O   UNL A   1      34.534  26.088  26.184  1.00  0.00    -0.269 OA
BRANCH  87  90
ATOM     90  C   UNL A   1      34.807  24.042  25.045  1.00  0.00     0.040 A 
ATOM     91  C   UNL A   1      34.738  23.251  26.199  1.00  0.00     0.017 A 
ATOM     92  C   UNL A   1      35.288  23.526  23.839  1.00  0.00     0.017 A 
ATOM     93  C   UNL A   1      35.215  21.950  26.167  1.00  0.00     0.040 A 
ATOM     94  C   UNL A   1      35.748  22.210  23.811  1.00  0.00     0.040 A 
ATOM     95  C   UNL A   1      35.718  21.443  24.975  1.00  0.00     0.123 A 
ATOM     96  F   UNL A   1      36.190  20.190  24.950  1.00  0.00    -0.207 F 
ENDBRANCH  87  90
ENDBRANCH  85  86
BRANCH  85  97
ATOM     97  C   UNL A   1      31.537  25.564  24.200  1.00  0.00     0.072 C 
BRANCH  97  98
ATOM     98  C   UNL A   1      31.016  24.204  24.594  1.00  0.00    -0.020 A 
ATOM     99  C   UNL A   1      30.565  23.944  26.319  1.00  0.00     0.087 A 
ATOM    100  C   UNL A   1      31.700  22.493  23.930  1.00  0.00     0.003 A 
ATOM    101  N   UNL A   1      31.089  22.186  26.747  1.00  0.00    -0.361 N 
ATOM    102  C   UNL A   1      31.825  21.381  25.294  1.00  0.00     0.046 A 
ATOM    103  C   UNL A   1      32.068  21.933  22.690  1.00  0.00     0.010 A 
ATOM    104  H   UNL A   1      30.980  21.764  27.630  1.00  0.00     0.166 HD
ATOM    105  C   UNL A   1      32.265  20.077  25.105  1.00  0.00     0.026 A 
ATOM    106  C   UNL A   1      32.433  20.570  22.652  1.00  0.00     0.001 A 
ATOM    107  C   UNL A   1      32.529  19.709  23.776  1.00  0.00     0.002 A 
ENDBRANCH  97  98
ENDBRANCH  85  97
ENDBRANCH  82  85
ENDBRANCH  80  81
BRANCH  80 108
ATOM    108  C   UNL A   1      28.911  28.258  23.123  1.00  0.00     0.191 C 
BRANCH 108 109
ATOM    109  O   UNL A   1      27.963  27.008  23.505  1.00  0.00    -0.394 OA
ATOM    110  H   UNL A   1      27.084  27.137  23.114  1.00  0.00     0.210 HD
ENDBRANCH 108 109
ENDBRANCH  80 108
ENDBRANCH  77  80
ENDBRANCH  75  76
ENDBRANCH   1  75
TORSDOF 21
ENDMDL
MODEL 2
REMARK VINA RESULT:     -13.6      0.944      2.079
REMARK SMILES O=C(NCCCNC(=O)[C@H](CO)NC(=O)[C@H](Cc1c[nH]c2ccccc12)NC(=O)c1ccc(F)cc1)c1ccc(-c2c3nc(c(-c4c(F)cc(S(=O)(=O)[O-])cc4F)c4ccc([nH]4)c(-c4c(F)cc(S(=O)(=O)[O-])cc4F)c4nc(c(-c5c(F)cc(S(=O)(=O)[O-])cc5F)c5ccc2[nH]5)C=C4)C=C3)cc1
REMARK SMILES IDX 5 1 4 2 3 3 1 4 2 5 37 7 38 8 102 9 39 10 101 11 40 12 41 13
REMARK SMILES IDX 42 14 95 15 43 16 100 17 94 18 96 19 44 20 99 21 93 22 92 23
REMARK SMILES IDX 45 25 79 26 58 27 78 28 59 29 62 30 77 31 97 32 60 33 61 34
REMARK SMILES IDX 76 36 98 37 63 38 46 39 47 40 56 41 48 42 49 43 55 44 57 45
REMARK SMILES IDX 50 46 51 47 52 48 53 49 54 50 80 51 81 52 90 53 82 54 83 55
REMARK SMILES IDX 89 56 91 57 84 58 85 59 86 60 87 61 88 62 64 63 65 64 74 65
REMARK SMILES IDX 66 66 67 67 73 68 75 69 68 70 69 71 70 72 71 73 72 74 6 75
REMARK SMILES IDX 7 76 8 77 9 79 10 80 13 81 14 82 15 84 16 85 27 86 28 87
REMARK SMILES IDX 29 89 30 90 31 91 36 92 32 93 35 94 33 95 34 96 17 97 18 98
REMARK SMILES IDX 19 99 26 100 20 101 21 102 25 103 22 105 24 106 23 107
REMARK SMILES IDX 11 108 12 109
REMARK H PARENT 3 6 96 24 62 35 7 78 13 83 27 88 20 104 12 110
REMARK Flexibility Score: inf
ROOT
ATOM      1  C   UNL A   1      32.412  28.244  26.677  1.00  0.00     0.042 C 
ENDROOT
BRANCH   1   2
ATOM      2  C   UNL A   1      33.704  28.658  27.308  1.00  0.00     0.118 C 
BRANCH   2   3
ATOM      3  N   UNL A   1      33.685  30.107  27.491  1.00  0.00    -0.352 N 
ATOM      4  O   UNL A   1      34.087  31.896  28.813  1.00  0.00    -0.269 OA
ATOM      5  C   UNL A   1      34.488  30.842  28.335  1.00  0.00     0.251 C 
ATOM      6  H   UNL A   1      33.030  30.610  26.956  1.00  0.00     0.163 HD
BRANCH   5   7
ATOM      7  C   UNL A   1      35.833  30.315  28.627  1.00  0.00     0.039 A 
ATOM      8  C   UNL A   1      36.804  30.442  27.639  1.00  0.00     0.014 A 
ATOM      9  C   UNL A   1      36.139  29.694  29.837  1.00  0.00     0.014 A 
ATOM     10  C   UNL A   1      37.967  29.723  27.726  1.00  0.00     0.010 A 
ATOM     11  C   UNL A   1      37.434  29.207  30.032  1.00  0.00     0.010 A 
ATOM     12  C   UNL A   1      38.353  29.220  28.969  1.00  0.00    -0.014 A 
BRANCH  12  13
ATOM     13  C   UNL A   1      39.787  28.894  29.120  1.00  0.00     0.031 A 
ATOM     14  C   UNL A   1      40.333  27.573  28.690  1.00  0.00     0.074 A 
ATOM     15  C   UNL A   1      40.592  29.878  29.582  1.00  0.00     0.049 A 
ATOM     16  N   UNL A   1      41.573  27.165  28.726  1.00  0.00    -0.248 NA
ATOM     17  C   UNL A   1      39.384  26.577  28.166  1.00  0.00     0.031 C 
ATOM     18  C   UNL A   1      40.138  31.208  30.022  1.00  0.00     0.029 A 
ATOM     19  N   UNL A   1      41.952  29.953  29.706  1.00  0.00    -0.354 N 
ATOM     20  C   UNL A   1      41.554  25.862  28.252  1.00  0.00     0.074 A 
ATOM     21  C   UNL A   1      40.177  25.532  27.960  1.00  0.00     0.031 C 
ATOM     22  C   UNL A   1      41.195  31.991  30.253  1.00  0.00     0.029 A 
ATOM     23  C   UNL A   1      42.397  31.188  30.123  1.00  0.00     0.049 A 
ATOM     24  H   UNL A   1      42.554  29.198  29.516  1.00  0.00     0.167 HD
ATOM     25  C   UNL A   1      42.606  25.032  28.073  1.00  0.00     0.037 A 
ATOM     26  C   UNL A   1      43.635  31.620  30.409  1.00  0.00     0.037 A 
ATOM     27  C   UNL A   1      43.970  25.398  28.360  1.00  0.00     0.049 A 
ATOM     28  C   UNL A   1      44.763  30.647  30.260  1.00  0.00     0.074 A 
ATOM     29  C   UNL A   1      45.110  24.631  28.206  1.00  0.00     0.029 A 
ATOM     30  N   UNL A   1      44.378  26.629  28.856  1.00  0.00    -0.354 N 
ATOM     31  N   UNL A   1      44.729  29.418  29.804  1.00  0.00    -0.248 NA
ATOM     32  C   UNL A   1      46.091  31.108  30.673  1.00  0.00     0.031 C 
ATOM     33  C   UNL A   1      46.199  25.374  28.669  1.00  0.00     0.029 A 
ATOM     34  C   UNL A   1      45.751  26.631  29.041  1.00  0.00     0.049 A 
ATOM     35  H   UNL A   1      43.781  27.388  29.049  1.00  0.00     0.167 HD
ATOM     36  C   UNL A   1      46.039  28.962  29.856  1.00  0.00     0.074 A 
ATOM     37  C   UNL A   1      46.840  30.062  30.355  1.00  0.00     0.031 C 
ATOM     38  C   UNL A   1      46.530  27.742  29.532  1.00  0.00     0.037 A 
BRANCH  25  39
ATOM     39  C   UNL A   1      42.346  23.649  27.547  1.00  0.00     0.058 A 
ATOM     40  C   UNL A   1      42.285  22.557  28.428  1.00  0.00     0.135 A 
ATOM     41  C   UNL A   1      42.278  23.386  26.170  1.00  0.00     0.135 A 
ATOM     42  F   UNL A   1      42.329  22.754  29.755  1.00  0.00    -0.206 F 
ATOM     43  C   UNL A   1      42.217  21.249  27.961  1.00  0.00     0.059 A 
ATOM     44  C   UNL A   1      42.180  22.088  25.681  1.00  0.00     0.059 A 
ATOM     45  F   UNL A   1      42.300  24.397  25.287  1.00  0.00    -0.206 F 
ATOM     46  C   UNL A   1      42.176  21.025  26.584  1.00  0.00     0.060 A 
BRANCH  46  47
ATOM     47  S   UNL A   1      42.125  19.320  25.996  1.00  0.00     0.124 S 
ATOM     48  O   UNL A   1      40.717  19.165  25.643  1.00  0.00    -0.237 OA
ATOM     49  O   UNL A   1      43.062  19.358  24.877  1.00  0.00    -0.237 OA
ATOM     50  O   UNL A   1      42.572  18.549  27.152  1.00  0.00    -0.744 OA
ENDBRANCH  46  47
ENDBRANCH  25  39
BRANCH  26  51
ATOM     51  C   UNL A   1      43.856  33.011  30.890  1.00  0.00     0.058 A 
ATOM     52  C   UNL A   1      43.808  33.332  32.257  1.00  0.00     0.135 A 
ATOM     53  C   UNL A   1      44.113  34.054  29.987  1.00  0.00     0.135 A 
ATOM     54  F   UNL A   1      43.545  32.381  33.167  1.00  0.00    -0.206 F 
ATOM     55  C   UNL A   1      43.991  34.632  32.710  1.00  0.00     0.059 A 
ATOM     56  C   UNL A   1      44.344  35.356  30.419  1.00  0.00     0.059 A 
ATOM     57  F   UNL A   1      44.167  33.800  28.670  1.00  0.00    -0.206 F 
ATOM     58  C   UNL A   1      44.271  35.636  31.783  1.00  0.00     0.060 A 
BRANCH  58  59
ATOM     59  S   UNL A   1      44.559  37.306  32.400  1.00  0.00     0.124 S 
ATOM     60  O   UNL A   1      43.538  37.416  33.437  1.00  0.00    -0.237 OA
ATOM     61  O   UNL A   1      45.938  37.220  32.870  1.00  0.00    -0.237 OA
ATOM     62  O   UNL A   1      44.350  38.141  31.222  1.00  0.00    -0.744 OA
ENDBRANCH  58  59
ENDBRANCH  26  51
BRANCH  38  63
ATOM     63  C   UNL A   1      48.013  27.544  29.676  1.00  0.00     0.058 A 
ATOM     64  C   UNL A   1      48.551  27.073  30.884  1.00  0.00     0.135 A 
ATOM     65  C   UNL A   1      48.904  27.864  28.639  1.00  0.00     0.135 A 
ATOM     66  F   UNL A   1      47.744  26.760  31.910  1.00  0.00    -0.206 F 
ATOM     67  C   UNL A   1      49.922  26.940  31.064  1.00  0.00     0.059 A 
ATOM     68  C   UNL A   1      50.276  27.697  28.783  1.00  0.00     0.059 A 
ATOM     69  F   UNL A   1      48.438  28.307  27.460  1.00  0.00    -0.206 F 
ATOM     70  C   UNL A   1      50.775  27.248  30.004  1.00  0.00     0.060 A 
BRANCH  70  71
ATOM     71  S   UNL A   1      52.550  27.027  30.246  1.00  0.00     0.124 S 
ATOM     72  O   UNL A   1      52.587  26.170  31.425  1.00  0.00    -0.237 OA
ATOM     73  O   UNL A   1      52.950  26.398  28.991  1.00  0.00    -0.237 OA
ATOM     74  O   UNL A   1      53.038  28.388  30.442  1.00  0.00    -0.744 OA
ENDBRANCH  70  71
ENDBRANCH  38  63
ENDBRANCH  12  13
ENDBRANCH   5   7
ENDBRANCH   2   3
ENDBRANCH   1   2
BRANCH   1  75
ATOM     75  C   UNL A   1      32.048  29.269  25.602  1.00  0.00     0.117 C 
BRANCH  75  76
ATOM     76  N   UNL A   1      32.760  29.111  24.276  1.00  0.00    -0.354 N 
ATOM     77  C   UNL A   1      32.608  28.506  23.018  1.00  0.00     0.244 C 
ATOM     78  H   UNL A   1      33.618  29.594  24.305  1.00  0.00     0.163 HD
ATOM     79  O   UNL A   1      33.528  28.726  22.216  1.00  0.00    -0.273 OA
BRANCH  77  80
ATOM     80  C   UNL A   1      31.186  27.501  22.481  1.00  0.00     0.197 C 
BRANCH  80  81
ATOM     81  N   UNL A   1      31.928  26.398  21.457  1.00  0.00    -0.340 N 
ATOM     82  C   UNL A   1      32.430  25.125  21.697  1.00  0.00     0.243 C 
ATOM     83  H   UNL A   1      32.022  26.705  20.527  1.00  0.00     0.164 HD
ATOM     84  O   UNL A   1      33.074  24.565  20.802  1.00  0.00    -0.273 OA
BRANCH  82  85
ATOM     85  C   UNL A   1      32.303  24.423  23.114  1.00  0.00     0.176 C 
BRANCH  85  86
ATOM     86  N   UNL A   1      31.662  25.153  24.235  1.00  0.00    -0.340 N 
ATOM     87  C   UNL A   1      31.790  24.733  25.540  1.00  0.00     0.251 C 
ATOM     88  H   UNL A   1      31.132  25.960  24.041  1.00  0.00     0.164 HD
ATOM     89  O   UNL A   1      30.815  24.578  26.263  1.00  0.00    -0.269 OA
BRANCH  87  90
ATOM     90  C   UNL A   1      33.155  24.448  26.009  1.00  0.00     0.040 A 
ATOM     91  C   UNL A   1      34.187  25.298  25.591  1.00  0.00     0.017 A 
ATOM     92  C   UNL A   1      33.413  23.333  26.810  1.00  0.00     0.017 A 
ATOM     93  C   UNL A   1      35.499  24.998  25.923  1.00  0.00     0.040 A 
ATOM     94  C   UNL A   1      34.734  23.049  27.156  1.00  0.00     0.040 A 
ATOM     95  C   UNL A   1      35.760  23.875  26.698  1.00  0.00     0.123 A 
ATOM     96  F   UNL A   1      37.029  23.580  27.006  1.00  0.00    -0.207 F 
ENDBRANCH  87  90
ENDBRANCH  85  86
BRANCH  85  97
ATOM     97  C   UNL A   1      31.547  23.123  23.065  1.00  0.00     0.072 C 
BRANCH  97  98
ATOM     98  C   UNL A   1      32.564  22.008  23.083  1.00  0.00    -0.020 A 
ATOM     99  C   UNL A   1      32.091  20.454  23.863  1.00  0.00     0.087 A 
ATOM    100  C   UNL A   1      34.484  22.231  23.395  1.00  0.00     0.003 A 
ATOM    101  N   UNL A   1      33.627  19.816  24.749  1.00  0.00    -0.361 N 
ATOM    102  C   UNL A   1      35.018  20.956  24.490  1.00  0.00     0.046 A 
ATOM    103  C   UNL A   1      35.514  23.089  22.959  1.00  0.00     0.010 A 
ATOM    104  H   UNL A   1      33.670  18.986  25.278  1.00  0.00     0.166 HD
ATOM    105  C   UNL A   1      36.352  20.860  24.866  1.00  0.00     0.026 A 
ATOM    106  C   UNL A   1      36.834  22.821  23.380  1.00  0.00     0.001 A 
ATOM    107  C   UNL A   1      37.222  21.787  24.271  1.00  0.00     0.002 A 
ENDBRANCH  97  98
ENDBRANCH  85  97
ENDBRANCH  82  85
ENDBRANCH  80  81
BRANCH  80 108
ATOM    108  C   UNL A   1      29.162  27.301  23.485  1.00  0.00     0.191 C 
BRANCH 108 109
ATOM    109  O   UNL A   1      28.725  26.081  24.450  1.00  0.00    -0.394 OA
ATOM    110  H   UNL A   1      28.317  25.379  23.918  1.00  0.00     0.210 HD
ENDBRANCH 108 109
ENDBRANCH  80 108
ENDBRANCH  77  80
ENDBRANCH  75  76
ENDBRANCH   1  75
TORSDOF 21
ENDMDL
MODEL 3
REMARK VINA RESULT:     -13.5      5.303      9.889
REMARK SMILES O=C(NCCCNC(=O)[C@H](CO)NC(=O)[C@H](Cc1c[nH]c2ccccc12)NC(=O)c1ccc(F)cc1)c1ccc(-c2c3nc(c(-c4c(F)cc(S(=O)(=O)[O-])cc4F)c4ccc([nH]4)c(-c4c(F)cc(S(=O)(=O)[O-])cc4F)c4nc(c(-c5c(F)cc(S(=O)(=O)[O-])cc5F)c5ccc2[nH]5)C=C4)C=C3)cc1
REMARK SMILES IDX 5 1 4 2 3 3 1 4 2 5 37 7 38 8 102 9 39 10 101 11 40 12 41 13
REMARK SMILES IDX 42 14 95 15 43 16 100 17 94 18 96 19 44 20 99 21 93 22 92 23
REMARK SMILES IDX 45 25 79 26 58 27 78 28 59 29 62 30 77 31 97 32 60 33 61 34
REMARK SMILES IDX 76 36 98 37 63 38 46 39 47 40 56 41 48 42 49 43 55 44 57 45
REMARK SMILES IDX 50 46 51 47 52 48 53 49 54 50 80 51 81 52 90 53 82 54 83 55
REMARK SMILES IDX 89 56 91 57 84 58 85 59 86 60 87 61 88 62 64 63 65 64 74 65
REMARK SMILES IDX 66 66 67 67 73 68 75 69 68 70 69 71 70 72 71 73 72 74 6 75
REMARK SMILES IDX 7 76 8 77 9 79 10 80 13 81 14 82 15 84 16 85 27 86 28 87
REMARK SMILES IDX 29 89 30 90 31 91 36 92 32 93 35 94 33 95 34 96 17 97 18 98
REMARK SMILES IDX 19 99 26 100 20 101 21 102 25 103 22 105 24 106 23 107
REMARK SMILES IDX 11 108 12 109
REMARK H PARENT 3 6 96 24 62 35 7 78 13 83 27 88 20 104 12 110
REMARK Flexibility Score: inf
ROOT
ATOM      1  C   UNL A   1      38.164  22.949  25.900  1.00  0.00     0.042 C 
ENDROOT
BRANCH   1   2
ATOM      2  C   UNL A   1      38.697  24.172  26.577  1.00  0.00     0.118 C 
BRANCH   2   3
ATOM      3  N   UNL A   1      39.953  24.547  25.933  1.00  0.00    -0.352 N 
ATOM      4  O   UNL A   1      41.341  26.171  25.196  1.00  0.00    -0.269 OA
ATOM      5  C   UNL A   1      40.647  25.725  26.100  1.00  0.00     0.251 C 
ATOM      6  H   UNL A   1      40.345  23.888  25.315  1.00  0.00     0.163 HD
BRANCH   5   7
ATOM      7  C   UNL A   1      40.523  26.411  27.399  1.00  0.00     0.039 A 
ATOM      8  C   UNL A   1      41.245  27.586  27.578  1.00  0.00     0.014 A 
ATOM      9  C   UNL A   1      39.728  25.910  28.429  1.00  0.00     0.014 A 
ATOM     10  C   UNL A   1      41.407  28.103  28.837  1.00  0.00     0.010 A 
ATOM     11  C   UNL A   1      39.675  26.612  29.636  1.00  0.00     0.010 A 
ATOM     12  C   UNL A   1      40.521  27.714  29.842  1.00  0.00    -0.014 A 
BRANCH  12  13
ATOM     13  C   UNL A   1      40.418  28.623  31.004  1.00  0.00     0.031 A 
ATOM     14  C   UNL A   1      41.378  28.537  32.144  1.00  0.00     0.074 A 
ATOM     15  C   UNL A   1      39.473  29.587  30.943  1.00  0.00     0.049 A 
ATOM     16  N   UNL A   1      41.432  29.292  33.208  1.00  0.00    -0.248 NA
ATOM     17  C   UNL A   1      42.397  27.474  32.105  1.00  0.00     0.031 C 
ATOM     18  C   UNL A   1      38.492  29.746  29.856  1.00  0.00     0.029 A 
ATOM     19  N   UNL A   1      39.208  30.650  31.763  1.00  0.00    -0.354 N 
ATOM     20  C   UNL A   1      42.471  28.788  33.975  1.00  0.00     0.074 A 
ATOM     21  C   UNL A   1      43.006  27.643  33.272  1.00  0.00     0.031 C 
ATOM     22  C   UNL A   1      37.823  30.890  30.017  1.00  0.00     0.029 A 
ATOM     23  C   UNL A   1      38.214  31.475  31.286  1.00  0.00     0.049 A 
ATOM     24  H   UNL A   1      39.682  30.809  32.611  1.00  0.00     0.167 HD
ATOM     25  C   UNL A   1      42.932  29.258  35.156  1.00  0.00     0.037 A 
ATOM     26  C   UNL A   1      37.647  32.565  31.829  1.00  0.00     0.037 A 
ATOM     27  C   UNL A   1      42.384  30.413  35.823  1.00  0.00     0.049 A 
ATOM     28  C   UNL A   1      38.143  33.012  33.169  1.00  0.00     0.074 A 
ATOM     29  C   UNL A   1      42.784  30.976  37.021  1.00  0.00     0.029 A 
ATOM     30  N   UNL A   1      41.326  31.179  35.354  1.00  0.00    -0.354 N 
ATOM     31  N   UNL A   1      39.133  32.527  33.880  1.00  0.00    -0.248 NA
ATOM     32  C   UNL A   1      37.444  34.141  33.788  1.00  0.00     0.031 C 
ATOM     33  C   UNL A   1      41.929  32.042  37.308  1.00  0.00     0.029 A 
ATOM     34  C   UNL A   1      41.042  32.193  36.254  1.00  0.00     0.049 A 
ATOM     35  H   UNL A   1      40.847  31.025  34.507  1.00  0.00     0.167 HD
ATOM     36  C   UNL A   1      39.189  33.307  35.026  1.00  0.00     0.074 A 
ATOM     37  C   UNL A   1      38.156  34.314  34.892  1.00  0.00     0.031 C 
ATOM     38  C   UNL A   1      40.013  33.192  36.096  1.00  0.00     0.037 A 
BRANCH  25  39
ATOM     39  C   UNL A   1      44.075  28.542  35.815  1.00  0.00     0.058 A 
ATOM     40  C   UNL A   1      43.828  27.527  36.755  1.00  0.00     0.135 A 
ATOM     41  C   UNL A   1      45.406  28.939  35.613  1.00  0.00     0.135 A 
ATOM     42  F   UNL A   1      42.575  27.100  36.975  1.00  0.00    -0.206 F 
ATOM     43  C   UNL A   1      44.854  26.966  37.505  1.00  0.00     0.059 A 
ATOM     44  C   UNL A   1      46.453  28.370  36.332  1.00  0.00     0.059 A 
ATOM     45  F   UNL A   1      45.699  29.882  34.704  1.00  0.00    -0.206 F 
ATOM     46  C   UNL A   1      46.163  27.402  37.294  1.00  0.00     0.060 A 
BRANCH  46  47
ATOM     47  S   UNL A   1      47.477  26.688  38.303  1.00  0.00     0.124 S 
ATOM     48  O   UNL A   1      46.914  26.789  39.645  1.00  0.00    -0.237 OA
ATOM     49  O   UNL A   1      47.580  25.339  37.754  1.00  0.00    -0.237 OA
ATOM     50  O   UNL A   1      48.620  27.556  38.034  1.00  0.00    -0.744 OA
ENDBRANCH  46  47
ENDBRANCH  25  39
BRANCH  26  51
ATOM     51  C   UNL A   1      36.542  33.270  31.125  1.00  0.00     0.058 A 
ATOM     52  C   UNL A   1      36.786  34.078  30.001  1.00  0.00     0.135 A 
ATOM     53  C   UNL A   1      35.216  33.158  31.568  1.00  0.00     0.135 A 
ATOM     54  F   UNL A   1      38.038  34.242  29.543  1.00  0.00    -0.206 F 
ATOM     55  C   UNL A   1      35.764  34.758  29.353  1.00  0.00     0.059 A 
ATOM     56  C   UNL A   1      34.168  33.793  30.909  1.00  0.00     0.059 A 
ATOM     57  F   UNL A   1      34.931  32.400  32.638  1.00  0.00    -0.206 F 
ATOM     58  C   UNL A   1      34.454  34.599  29.808  1.00  0.00     0.060 A 
BRANCH  58  59
ATOM     59  S   UNL A   1      33.136  35.447  28.916  1.00  0.00     0.124 S 
ATOM     60  O   UNL A   1      33.890  36.423  28.137  1.00  0.00    -0.237 OA
ATOM     61  O   UNL A   1      32.534  34.356  28.158  1.00  0.00    -0.237 OA
ATOM     62  O   UNL A   1      32.308  36.000  29.983  1.00  0.00    -0.744 OA
ENDBRANCH  58  59
ENDBRANCH  26  51
BRANCH  38  63
ATOM     63  C   UNL A   1      39.850  34.205  37.193  1.00  0.00     0.058 A 
ATOM     64  C   UNL A   1      39.082  33.903  38.329  1.00  0.00     0.135 A 
ATOM     65  C   UNL A   1      40.412  35.488  37.101  1.00  0.00     0.135 A 
ATOM     66  F   UNL A   1      38.516  32.693  38.464  1.00  0.00    -0.206 F 
ATOM     67  C   UNL A   1      38.865  34.843  39.328  1.00  0.00     0.059 A 
ATOM     68  C   UNL A   1      40.244  36.430  38.110  1.00  0.00     0.059 A 
ATOM     69  F   UNL A   1      41.165  35.823  36.040  1.00  0.00    -0.206 F 
ATOM     70  C   UNL A   1      39.457  36.101  39.213  1.00  0.00     0.060 A 
BRANCH  70  71
ATOM     71  S   UNL A   1      39.197  37.292  40.543  1.00  0.00     0.124 S 
ATOM     72  O   UNL A   1      40.548  37.799  40.758  1.00  0.00    -0.237 OA
ATOM     73  O   UNL A   1      38.256  38.227  39.934  1.00  0.00    -0.237 OA
ATOM     74  O   UNL A   1      38.652  36.478  41.625  1.00  0.00    -0.744 OA
ENDBRANCH  70  71
ENDBRANCH  38  63
ENDBRANCH  12  13
ENDBRANCH   5   7
ENDBRANCH   2   3
ENDBRANCH   1   2
BRANCH   1  75
ATOM     75  C   UNL A   1      36.700  23.199  25.534  1.00  0.00     0.117 C 
BRANCH  75  76
ATOM     76  N   UNL A   1      35.680  22.426  26.341  1.00  0.00    -0.354 N 
ATOM     77  C   UNL A   1      34.296  22.343  26.563  1.00  0.00     0.244 C 
ATOM     78  H   UNL A   1      36.141  21.756  26.897  1.00  0.00     0.163 HD
ATOM     79  O   UNL A   1      33.945  21.453  27.351  1.00  0.00    -0.273 OA
BRANCH  77  80
ATOM     80  C   UNL A   1      33.022  23.375  25.768  1.00  0.00     0.197 C 
BRANCH  80  81
ATOM     81  N   UNL A   1      33.168  22.905  24.164  1.00  0.00    -0.340 N 
ATOM     82  C   UNL A   1      33.083  23.638  22.986  1.00  0.00     0.243 C 
ATOM     83  H   UNL A   1      33.346  21.946  24.035  1.00  0.00     0.164 HD
ATOM     84  O   UNL A   1      33.076  23.030  21.910  1.00  0.00    -0.273 OA
BRANCH  82  85
ATOM     85  C   UNL A   1      32.880  25.212  22.987  1.00  0.00     0.176 C 
BRANCH  85  86
ATOM     86  N   UNL A   1      33.986  26.091  22.536  1.00  0.00    -0.340 N 
ATOM     87  C   UNL A   1      33.947  27.455  22.715  1.00  0.00     0.251 C 
ATOM     88  H   UNL A   1      34.771  25.687  22.098  1.00  0.00     0.164 HD
ATOM     89  O   UNL A   1      34.149  28.230  21.790  1.00  0.00    -0.269 OA
BRANCH  87  90
ATOM     90  C   UNL A   1      33.616  27.932  24.066  1.00  0.00     0.040 A 
ATOM     91  C   UNL A   1      33.825  27.061  25.143  1.00  0.00     0.017 A 
ATOM     92  C   UNL A   1      33.066  29.202  24.257  1.00  0.00     0.017 A 
ATOM     93  C   UNL A   1      33.423  27.435  26.415  1.00  0.00     0.040 A 
ATOM     94  C   UNL A   1      32.681  29.579  25.543  1.00  0.00     0.040 A 
ATOM     95  C   UNL A   1      32.852  28.688  26.603  1.00  0.00     0.123 A 
ATOM     96  F   UNL A   1      32.452  29.042  27.831  1.00  0.00    -0.207 F 
ENDBRANCH  87  90
ENDBRANCH  85  86
BRANCH  85  97
ATOM     97  C   UNL A   1      31.714  25.658  22.148  1.00  0.00     0.072 C 
BRANCH  97  98
ATOM     98  C   UNL A   1      30.743  26.364  23.063  1.00  0.00    -0.020 A 
ATOM     99  C   UNL A   1      29.535  25.357  23.942  1.00  0.00     0.087 A 
ATOM    100  C   UNL A   1      29.877  28.080  22.689  1.00  0.00     0.003 A 
ATOM    101  N   UNL A   1      27.937  26.355  23.978  1.00  0.00    -0.361 N 
ATOM    102  C   UNL A   1      28.180  27.956  23.154  1.00  0.00     0.046 A 
ATOM    103  C   UNL A   1      30.253  29.348  22.200  1.00  0.00     0.010 A 
ATOM    104  H   UNL A   1      27.092  26.053  24.385  1.00  0.00     0.166 HD
ATOM    105  C   UNL A   1      27.328  29.044  23.018  1.00  0.00     0.026 A 
ATOM    106  C   UNL A   1      29.284  30.374  22.183  1.00  0.00     0.001 A 
ATOM    107  C   UNL A   1      27.923  30.231  22.559  1.00  0.00     0.002 A 
ENDBRANCH  97  98
ENDBRANCH  85  97
ENDBRANCH  82  85
ENDBRANCH  80  81
BRANCH  80 108
ATOM    108  C   UNL A   1      31.252  24.404  26.745  1.00  0.00     0.191 C 
BRANCH 108 109
ATOM    109  O   UNL A   1      29.945  23.649  27.318  1.00  0.00    -0.394 OA
ATOM    110  H   UNL A   1      29.314  23.500  26.596  1.00  0.00     0.210 HD
ENDBRANCH 108 109
ENDBRANCH  80 108
ENDBRANCH  77  80
ENDBRANCH  75  76
ENDBRANCH   1  75
TORSDOF 21
ENDMDL
