MODEL 1
REMARK VINA RESULT:     -11.8      0.000      0.000
REMARK SMILES Cc1oc2c(c1C(=O)NCCCC(=O)NCCCNC(=O)c1ccc(-c3c4nc(c(-c5c(F)cc(S(=O)(=O)[O-])cc5F)c5ccc([nH]5)c(-c5c(F)cc(S(=O)(=O)[O-])cc5F)c5nc(c(-c6c(F)cc(S(=O)(=O)[O-])cc6F)c6ccc3[nH]6)C=C5)C=C4)cc1)CCCC2
REMARK SMILES IDX 16 1 15 2 13 3 14 4 12 6 11 7 10 8 9 9 7 10 8 11 6 13 1 14
REMARK SMILES IDX 2 15 3 16 4 17 5 18 91 19 88 20 90 21 89 22 17 23 18 24
REMARK SMILES IDX 19 25 20 26 21 28 22 29 23 30 87 31 24 32 86 33 25 34 26 35
REMARK SMILES IDX 27 36 80 37 28 38 85 39 79 40 81 41 29 42 84 43 78 44 77 45
REMARK SMILES IDX 30 47 64 48 43 49 63 50 44 51 47 52 62 53 82 54 45 55 46 56
REMARK SMILES IDX 61 58 83 59 48 60 31 61 32 62 41 63 33 64 34 65 40 66 42 67
REMARK SMILES IDX 35 68 36 69 37 70 38 71 39 72 65 73 66 74 75 75 67 76 68 77
REMARK SMILES IDX 74 78 76 79 69 80 70 81 71 82 72 83 73 84 49 85 50 86 59 87
REMARK SMILES IDX 51 88 52 89 58 90 60 91 53 92 54 93 55 94 56 95 57 96
REMARK H PARENT 15 5 9 12 19 27 81 46 47 57
REMARK Flexibility Score: inf
ROOT
ATOM      1  C   UNL A   1      39.199  21.355  26.076  1.00  0.00     0.117 C 
ENDROOT
BRANCH   1   2
ATOM      2  N   UNL A   1      39.008  22.702  26.600  1.00  0.00    -0.356 N 
ATOM      3  C   UNL A   1      38.153  23.692  26.220  1.00  0.00     0.220 C 
ATOM      4  O   UNL A   1      38.200  24.771  26.810  1.00  0.00    -0.275 OA
ATOM      5  H   UNL A   1      39.594  22.935  27.356  1.00  0.00     0.163 HD
BRANCH   3   6
ATOM      6  C   UNL A   1      37.158  23.472  25.100  1.00  0.00     0.102 C 
BRANCH   6   7
ATOM      7  C   UNL A   1      35.801  24.135  25.338  1.00  0.00     0.031 C 
BRANCH   7   8
ATOM      8  C   UNL A   1      34.647  23.669  24.456  1.00  0.00     0.116 C 
BRANCH   8   9
ATOM      9  N   UNL A   1      34.168  24.653  23.516  1.00  0.00    -0.352 N 
ATOM     10  C   UNL A   1      33.324  25.726  23.651  1.00  0.00     0.255 C 
ATOM     11  O   UNL A   1      33.188  26.403  22.626  1.00  0.00    -0.269 OA
ATOM     12  H   UNL A   1      34.514  24.531  22.601  1.00  0.00     0.163 HD
BRANCH  10  13
ATOM     13  C   UNL A   1      32.569  26.047  24.864  1.00  0.00     0.084 A 
ATOM     14  C   UNL A   1      30.880  24.071  25.535  1.00  0.00     0.088 C 
ATOM     15  C   UNL A   1      31.565  25.381  25.574  1.00  0.00     0.114 A 
ATOM     16  O   UNL A   1      31.126  26.146  26.623  1.00  0.00    -0.465 OA
ATOM     17  C   UNL A   1      31.883  27.250  26.651  1.00  0.00     0.108 A 
ATOM     18  C   UNL A   1      32.824  27.233  25.654  1.00  0.00     0.007 A 
ATOM     19  C   UNL A   1      31.665  28.272  27.695  1.00  0.00     0.076 C 
ATOM     20  C   UNL A   1      33.822  28.336  25.513  1.00  0.00     0.040 C 
ATOM     21  C   UNL A   1      32.405  29.557  27.284  1.00  0.00     0.008 C 
ATOM     22  C   UNL A   1      33.824  29.257  26.758  1.00  0.00     0.005 C 
ENDBRANCH  10  13
ENDBRANCH   8   9
ENDBRANCH   7   8
ENDBRANCH   6   7
ENDBRANCH   3   6
ENDBRANCH   1   2
BRANCH   1  23
ATOM     23  C   UNL A   1      40.497  20.711  26.573  1.00  0.00     0.042 C 
BRANCH  23  24
ATOM     24  C   UNL A   1      41.501  21.715  27.091  1.00  0.00     0.118 C 
BRANCH  24  25
ATOM     25  N   UNL A   1      42.534  22.061  26.113  1.00  0.00    -0.352 N 
ATOM     26  C   UNL A   1      42.893  23.331  25.674  1.00  0.00     0.251 C 
ATOM     27  H   UNL A   1      43.031  21.307  25.720  1.00  0.00     0.163 HD
ATOM     28  O   UNL A   1      43.474  23.484  24.616  1.00  0.00    -0.269 OA
BRANCH  26  29
ATOM     29  C   UNL A   1      42.529  24.484  26.524  1.00  0.00     0.039 A 
ATOM     30  C   UNL A   1      43.149  24.746  27.746  1.00  0.00     0.014 A 
ATOM     31  C   UNL A   1      41.578  25.359  26.018  1.00  0.00     0.014 A 
ATOM     32  C   UNL A   1      42.850  25.944  28.394  1.00  0.00     0.010 A 
ATOM     33  C   UNL A   1      41.510  26.633  26.501  1.00  0.00     0.010 A 
ATOM     34  C   UNL A   1      42.044  26.898  27.748  1.00  0.00    -0.014 A 
BRANCH  34  35
ATOM     35  C   UNL A   1      41.748  28.196  28.336  1.00  0.00     0.031 A 
ATOM     36  C   UNL A   1      42.764  29.242  28.085  1.00  0.00     0.074 A 
ATOM     37  C   UNL A   1      40.575  28.495  28.938  1.00  0.00     0.049 A 
ATOM     38  N   UNL A   1      43.679  29.642  28.901  1.00  0.00    -0.248 NA
ATOM     39  C   UNL A   1      42.892  29.792  26.729  1.00  0.00     0.031 C 
ATOM     40  C   UNL A   1      39.334  27.711  29.019  1.00  0.00     0.029 A 
ATOM     41  N   UNL A   1      40.233  29.648  29.569  1.00  0.00    -0.354 N 
ATOM     42  C   UNL A   1      44.354  30.666  28.250  1.00  0.00     0.074 A 
ATOM     43  C   UNL A   1      43.968  30.573  26.864  1.00  0.00     0.031 C 
ATOM     44  C   UNL A   1      38.325  28.493  29.461  1.00  0.00     0.029 A 
ATOM     45  C   UNL A   1      38.884  29.762  29.883  1.00  0.00     0.049 A 
ATOM     46  H   UNL A   1      40.889  30.347  29.787  1.00  0.00     0.167 HD
ATOM     47  C   UNL A   1      44.995  31.640  28.955  1.00  0.00     0.037 A 
ATOM     48  C   UNL A   1      38.277  30.826  30.461  1.00  0.00     0.037 A 
ATOM     49  C   UNL A   1      45.095  31.281  30.351  1.00  0.00     0.049 A 
ATOM     50  C   UNL A   1      39.340  31.578  31.180  1.00  0.00     0.074 A 
ATOM     51  C   UNL A   1      45.678  30.237  31.046  1.00  0.00     0.029 A 
ATOM     52  N   UNL A   1      44.184  31.841  31.217  1.00  0.00    -0.354 N 
ATOM     53  N   UNL A   1      39.985  31.109  32.214  1.00  0.00    -0.248 NA
ATOM     54  C   UNL A   1      40.011  32.653  30.466  1.00  0.00     0.031 C 
ATOM     55  C   UNL A   1      44.754  29.924  32.086  1.00  0.00     0.029 A 
ATOM     56  C   UNL A   1      43.698  30.836  32.016  1.00  0.00     0.049 A 
ATOM     57  H   UNL A   1      43.926  32.790  31.256  1.00  0.00     0.167 HD
ATOM     58  C   UNL A   1      41.300  31.512  32.028  1.00  0.00     0.074 A 
ATOM     59  C   UNL A   1      41.236  32.535  30.986  1.00  0.00     0.031 C 
ATOM     60  C   UNL A   1      42.344  30.789  32.532  1.00  0.00     0.037 A 
BRANCH  47  61
ATOM     61  C   UNL A   1      45.217  33.057  28.485  1.00  0.00     0.058 A 
ATOM     62  C   UNL A   1      46.534  33.562  28.432  1.00  0.00     0.135 A 
ATOM     63  C   UNL A   1      44.192  34.018  28.346  1.00  0.00     0.135 A 
ATOM     64  F   UNL A   1      47.588  32.739  28.546  1.00  0.00    -0.206 F 
ATOM     65  C   UNL A   1      46.809  34.925  28.339  1.00  0.00     0.059 A 
ATOM     66  C   UNL A   1      44.446  35.377  28.198  1.00  0.00     0.059 A 
ATOM     67  F   UNL A   1      42.895  33.704  28.449  1.00  0.00    -0.206 F 
ATOM     68  C   UNL A   1      45.754  35.827  28.241  1.00  0.00     0.060 A 
BRANCH  68  69
ATOM     69  S   UNL A   1      46.101  37.594  28.239  1.00  0.00     0.124 S 
ATOM     70  O   UNL A   1      46.015  37.903  26.815  1.00  0.00    -0.237 OA
ATOM     71  O   UNL A   1      45.024  38.114  29.074  1.00  0.00    -0.237 OA
ATOM     72  O   UNL A   1      47.436  37.674  28.823  1.00  0.00    -0.744 OA
ENDBRANCH  68  69
ENDBRANCH  47  61
BRANCH  48  73
ATOM     73  C   UNL A   1      36.951  31.409  30.130  1.00  0.00     0.058 A 
ATOM     74  C   UNL A   1      36.157  32.005  31.127  1.00  0.00     0.135 A 
ATOM     75  C   UNL A   1      36.572  31.666  28.796  1.00  0.00     0.135 A 
ATOM     76  F   UNL A   1      36.452  31.819  32.423  1.00  0.00    -0.206 F 
ATOM     77  C   UNL A   1      35.099  32.866  30.820  1.00  0.00     0.059 A 
ATOM     78  C   UNL A   1      35.516  32.515  28.467  1.00  0.00     0.059 A 
ATOM     79  F   UNL A   1      37.282  31.177  27.768  1.00  0.00    -0.206 F 
ATOM     80  C   UNL A   1      34.803  33.138  29.485  1.00  0.00     0.060 A 
BRANCH  80  81
ATOM     81  S   UNL A   1      33.579  34.409  29.088  1.00  0.00     0.124 S 
ATOM     82  O   UNL A   1      32.689  33.698  28.177  1.00  0.00    -0.237 OA
ATOM     83  O   UNL A   1      33.026  34.727  30.401  1.00  0.00    -0.237 OA
ATOM     84  O   UNL A   1      34.378  35.470  28.480  1.00  0.00    -0.744 OA
ENDBRANCH  80  81
ENDBRANCH  48  73
BRANCH  60  85
ATOM     85  C   UNL A   1      42.047  29.713  33.550  1.00  0.00     0.058 A 
ATOM     86  C   UNL A   1      41.692  28.389  33.237  1.00  0.00     0.135 A 
ATOM     87  C   UNL A   1      42.284  30.005  34.902  1.00  0.00     0.135 A 
ATOM     88  F   UNL A   1      41.543  27.995  31.965  1.00  0.00    -0.206 F 
ATOM     89  C   UNL A   1      41.543  27.411  34.225  1.00  0.00     0.059 A 
ATOM     90  C   UNL A   1      42.172  29.040  35.900  1.00  0.00     0.059 A 
ATOM     91  F   UNL A   1      42.683  31.236  35.264  1.00  0.00    -0.206 F 
ATOM     92  C   UNL A   1      41.788  27.746  35.556  1.00  0.00     0.060 A 
BRANCH  92  93
ATOM     93  S   UNL A   1      41.668  26.467  36.827  1.00  0.00     0.124 S 
ATOM     94  O   UNL A   1      41.754  25.243  36.037  1.00  0.00    -0.237 OA
ATOM     95  O   UNL A   1      42.820  26.755  37.678  1.00  0.00    -0.237 OA
ATOM     96  O   UNL A   1      40.369  26.721  37.445  1.00  0.00    -0.744 OA
ENDBRANCH  92  93
ENDBRANCH  60  85
ENDBRANCH  34  35
ENDBRANCH  26  29
ENDBRANCH  24  25
ENDBRANCH  23  24
ENDBRANCH   1  23
TORSDOF 17
ENDMDL
MODEL 2
REMARK VINA RESULT:     -11.8      2.965      9.583
REMARK SMILES Cc1oc2c(c1C(=O)NCCCC(=O)NCCCNC(=O)c1ccc(-c3c4nc(c(-c5c(F)cc(S(=O)(=O)[O-])cc5F)c5ccc([nH]5)c(-c5c(F)cc(S(=O)(=O)[O-])cc5F)c5nc(c(-c6c(F)cc(S(=O)(=O)[O-])cc6F)c6ccc3[nH]6)C=C5)C=C4)cc1)CCCC2
REMARK SMILES IDX 16 1 15 2 13 3 14 4 12 6 11 7 10 8 9 9 7 10 8 11 6 13 1 14
REMARK SMILES IDX 2 15 3 16 4 17 5 18 91 19 88 20 90 21 89 22 17 23 18 24
REMARK SMILES IDX 19 25 20 26 21 28 22 29 23 30 87 31 24 32 86 33 25 34 26 35
REMARK SMILES IDX 27 36 80 37 28 38 85 39 79 40 81 41 29 42 84 43 78 44 77 45
REMARK SMILES IDX 30 47 64 48 43 49 63 50 44 51 47 52 62 53 82 54 45 55 46 56
REMARK SMILES IDX 61 58 83 59 48 60 31 61 32 62 41 63 33 64 34 65 40 66 42 67
REMARK SMILES IDX 35 68 36 69 37 70 38 71 39 72 65 73 66 74 75 75 67 76 68 77
REMARK SMILES IDX 74 78 76 79 69 80 70 81 71 82 72 83 73 84 49 85 50 86 59 87
REMARK SMILES IDX 51 88 52 89 58 90 60 91 53 92 54 93 55 94 56 95 57 96
REMARK H PARENT 15 5 9 12 19 27 81 46 47 57
REMARK Flexibility Score: inf
ROOT
ATOM      1  C   UNL A   1      31.833  30.227  26.005  1.00  0.00     0.117 C 
ENDROOT
BRANCH   1   2
ATOM      2  N   UNL A   1      32.243  29.688  24.713  1.00  0.00    -0.356 N 
ATOM      3  C   UNL A   1      31.868  28.552  24.062  1.00  0.00     0.220 C 
ATOM      4  O   UNL A   1      32.385  28.297  22.975  1.00  0.00    -0.275 OA
ATOM      5  H   UNL A   1      32.901  30.239  24.230  1.00  0.00     0.163 HD
BRANCH   3   6
ATOM      6  C   UNL A   1      30.832  27.623  24.657  1.00  0.00     0.102 C 
BRANCH   6   7
ATOM      7  C   UNL A   1      29.997  26.878  23.615  1.00  0.00     0.031 C 
BRANCH   7   8
ATOM      8  C   UNL A   1      30.372  25.422  23.350  1.00  0.00     0.116 C 
BRANCH   8   9
ATOM      9  N   UNL A   1      31.436  25.236  22.394  1.00  0.00    -0.352 N 
ATOM     10  C   UNL A   1      32.633  24.569  22.461  1.00  0.00     0.255 C 
ATOM     11  O   UNL A   1      33.277  24.564  21.407  1.00  0.00    -0.269 OA
ATOM     12  H   UNL A   1      31.272  25.672  21.525  1.00  0.00     0.163 HD
BRANCH  10  13
ATOM     13  C   UNL A   1      33.179  23.955  23.673  1.00  0.00     0.084 A 
ATOM     14  C   UNL A   1      34.054  25.802  25.414  1.00  0.00     0.088 C 
ATOM     15  C   UNL A   1      33.781  24.473  24.824  1.00  0.00     0.114 A 
ATOM     16  O   UNL A   1      34.193  23.463  25.652  1.00  0.00    -0.465 OA
ATOM     17  C   UNL A   1      33.795  22.310  25.097  1.00  0.00     0.108 A 
ATOM     18  C   UNL A   1      33.117  22.531  23.927  1.00  0.00     0.007 A 
ATOM     19  C   UNL A   1      34.076  21.027  25.773  1.00  0.00     0.076 C 
ATOM     20  C   UNL A   1      32.528  21.399  23.148  1.00  0.00     0.040 C 
ATOM     21  C   UNL A   1      33.837  19.884  24.770  1.00  0.00     0.008 C 
ATOM     22  C   UNL A   1      32.533  20.087  23.971  1.00  0.00     0.005 C 
ENDBRANCH  10  13
ENDBRANCH   8   9
ENDBRANCH   7   8
ENDBRANCH   6   7
ENDBRANCH   3   6
ENDBRANCH   1   2
BRANCH   1  23
ATOM     23  C   UNL A   1      32.744  29.768  27.147  1.00  0.00     0.042 C 
BRANCH  23  24
ATOM     24  C   UNL A   1      34.035  30.550  27.233  1.00  0.00     0.118 C 
BRANCH  24  25
ATOM     25  N   UNL A   1      34.008  31.604  28.249  1.00  0.00    -0.352 N 
ATOM     26  C   UNL A   1      34.905  31.795  29.295  1.00  0.00     0.251 C 
ATOM     27  H   UNL A   1      33.270  32.252  28.184  1.00  0.00     0.163 HD
ATOM     28  O   UNL A   1      34.592  32.444  30.275  1.00  0.00    -0.269 OA
BRANCH  26  29
ATOM     29  C   UNL A   1      36.239  31.168  29.184  1.00  0.00     0.039 A 
ATOM     30  C   UNL A   1      37.413  31.911  29.053  1.00  0.00     0.014 A 
ATOM     31  C   UNL A   1      36.293  29.786  29.291  1.00  0.00     0.014 A 
ATOM     32  C   UNL A   1      38.632  31.236  29.120  1.00  0.00     0.010 A 
ATOM     33  C   UNL A   1      37.465  29.181  29.638  1.00  0.00     0.010 A 
ATOM     34  C   UNL A   1      38.648  29.867  29.440  1.00  0.00    -0.014 A 
BRANCH  34  35
ATOM     35  C   UNL A   1      39.885  29.116  29.593  1.00  0.00     0.031 A 
ATOM     36  C   UNL A   1      40.309  28.888  30.992  1.00  0.00     0.074 A 
ATOM     37  C   UNL A   1      40.537  28.531  28.563  1.00  0.00     0.049 A 
ATOM     38  N   UNL A   1      41.213  29.540  31.642  1.00  0.00    -0.248 NA
ATOM     39  C   UNL A   1      39.539  27.949  31.818  1.00  0.00     0.031 C 
ATOM     40  C   UNL A   1      40.129  28.374  27.160  1.00  0.00     0.029 A 
ATOM     41  N   UNL A   1      41.723  27.870  28.596  1.00  0.00    -0.354 N 
ATOM     42  C   UNL A   1      41.297  28.938  32.891  1.00  0.00     0.074 A 
ATOM     43  C   UNL A   1      40.119  28.115  33.011  1.00  0.00     0.031 C 
ATOM     44  C   UNL A   1      40.938  27.486  26.543  1.00  0.00     0.029 A 
ATOM     45  C   UNL A   1      42.032  27.167  27.439  1.00  0.00     0.049 A 
ATOM     46  H   UNL A   1      42.318  27.888  29.380  1.00  0.00     0.167 HD
ATOM     47  C   UNL A   1      42.447  28.998  33.620  1.00  0.00     0.037 A 
ATOM     48  C   UNL A   1      43.121  26.387  27.232  1.00  0.00     0.037 A 
ATOM     49  C   UNL A   1      43.363  29.961  33.053  1.00  0.00     0.049 A 
ATOM     50  C   UNL A   1      44.155  26.844  28.199  1.00  0.00     0.074 A 
ATOM     51  C   UNL A   1      43.313  31.321  32.808  1.00  0.00     0.029 A 
ATOM     52  N   UNL A   1      44.384  29.478  32.267  1.00  0.00    -0.354 N 
ATOM     53  N   UNL A   1      44.719  28.021  28.153  1.00  0.00    -0.248 NA
ATOM     54  C   UNL A   1      44.217  26.177  29.490  1.00  0.00     0.031 C 
ATOM     55  C   UNL A   1      43.960  31.493  31.549  1.00  0.00     0.029 A 
ATOM     56  C   UNL A   1      44.432  30.246  31.130  1.00  0.00     0.049 A 
ATOM     57  H   UNL A   1      44.973  28.719  32.480  1.00  0.00     0.167 HD
ATOM     58  C   UNL A   1      44.818  28.423  29.478  1.00  0.00     0.074 A 
ATOM     59  C   UNL A   1      44.580  27.209  30.257  1.00  0.00     0.031 C 
ATOM     60  C   UNL A   1      44.809  29.745  29.824  1.00  0.00     0.037 A 
BRANCH  47  61
ATOM     61  C   UNL A   1      42.904  27.961  34.617  1.00  0.00     0.058 A 
ATOM     62  C   UNL A   1      43.067  28.336  35.967  1.00  0.00     0.135 A 
ATOM     63  C   UNL A   1      43.445  26.706  34.265  1.00  0.00     0.135 A 
ATOM     64  F   UNL A   1      42.586  29.507  36.416  1.00  0.00    -0.206 F 
ATOM     65  C   UNL A   1      43.790  27.565  36.875  1.00  0.00     0.059 A 
ATOM     66  C   UNL A   1      44.122  25.895  35.170  1.00  0.00     0.059 A 
ATOM     67  F   UNL A   1      43.435  26.246  33.009  1.00  0.00    -0.206 F 
ATOM     68  C   UNL A   1      44.330  26.352  36.460  1.00  0.00     0.060 A 
BRANCH  68  69
ATOM     69  S   UNL A   1      45.361  25.410  37.596  1.00  0.00     0.124 S 
ATOM     70  O   UNL A   1      45.125  24.045  37.134  1.00  0.00    -0.237 OA
ATOM     71  O   UNL A   1      46.685  25.958  37.326  1.00  0.00    -0.237 OA
ATOM     72  O   UNL A   1      44.805  25.739  38.904  1.00  0.00    -0.744 OA
ENDBRANCH  68  69
ENDBRANCH  47  61
BRANCH  48  73
ATOM     73  C   UNL A   1      43.185  25.079  26.532  1.00  0.00     0.058 A 
ATOM     74  C   UNL A   1      43.948  24.926  25.360  1.00  0.00     0.135 A 
ATOM     75  C   UNL A   1      42.755  23.889  27.154  1.00  0.00     0.135 A 
ATOM     76  F   UNL A   1      44.405  26.007  24.709  1.00  0.00    -0.206 F 
ATOM     77  C   UNL A   1      44.327  23.670  24.877  1.00  0.00     0.059 A 
ATOM     78  C   UNL A   1      43.114  22.626  26.685  1.00  0.00     0.059 A 
ATOM     79  F   UNL A   1      42.052  23.920  28.296  1.00  0.00    -0.206 F 
ATOM     80  C   UNL A   1      43.929  22.524  25.564  1.00  0.00     0.060 A 
BRANCH  80  81
ATOM     81  S   UNL A   1      44.591  20.916  25.066  1.00  0.00     0.124 S 
ATOM     82  O   UNL A   1      43.621  19.996  25.650  1.00  0.00    -0.237 OA
ATOM     83  O   UNL A   1      44.580  21.014  23.610  1.00  0.00    -0.237 OA
ATOM     84  O   UNL A   1      45.919  20.893  25.675  1.00  0.00    -0.744 OA
ENDBRANCH  80  81
ENDBRANCH  48  73
BRANCH  60  85
ATOM     85  C   UNL A   1      44.994  30.773  28.733  1.00  0.00     0.058 A 
ATOM     86  C   UNL A   1      43.957  31.295  27.939  1.00  0.00     0.135 A 
ATOM     87  C   UNL A   1      46.259  31.364  28.596  1.00  0.00     0.135 A 
ATOM     88  F   UNL A   1      42.697  30.861  28.073  1.00  0.00    -0.206 F 
ATOM     89  C   UNL A   1      44.177  32.330  27.025  1.00  0.00     0.059 A 
ATOM     90  C   UNL A   1      46.495  32.417  27.715  1.00  0.00     0.059 A 
ATOM     91  F   UNL A   1      47.280  30.953  29.366  1.00  0.00    -0.206 F 
ATOM     92  C   UNL A   1      45.451  32.887  26.921  1.00  0.00     0.060 A 
BRANCH  92  93
ATOM     93  S   UNL A   1      45.721  34.274  25.795  1.00  0.00     0.124 S 
ATOM     94  O   UNL A   1      47.168  34.238  25.607  1.00  0.00    -0.237 OA
ATOM     95  O   UNL A   1      44.921  33.899  24.632  1.00  0.00    -0.237 OA
ATOM     96  O   UNL A   1      45.217  35.424  26.542  1.00  0.00    -0.744 OA
ENDBRANCH  92  93
ENDBRANCH  60  85
ENDBRANCH  34  35
ENDBRANCH  26  29
ENDBRANCH  24  25
ENDBRANCH  23  24
ENDBRANCH   1  23
TORSDOF 17
ENDMDL
MODEL 3
REMARK VINA RESULT:     -11.7      2.094      2.884
REMARK SMILES Cc1oc2c(c1C(=O)NCCCC(=O)NCCCNC(=O)c1ccc(-c3c4nc(c(-c5c(F)cc(S(=O)(=O)[O-])cc5F)c5ccc([nH]5)c(-c5c(F)cc(S(=O)(=O)[O-])cc5F)c5nc(c(-c6c(F)cc(S(=O)(=O)[O-])cc6F)c6ccc3[nH]6)C=C5)C=C4)cc1)CCCC2
REMARK SMILES IDX 16 1 15 2 13 3 14 4 12 6 11 7 10 8 9 9 7 10 8 11 6 13 1 14
REMARK SMILES IDX 2 15 3 16 4 17 5 18 91 19 88 20 90 21 89 22 17 23 18 24
REMARK SMILES IDX 19 25 20 26 21 28 22 29 23 30 87 31 24 32 86 33 25 34 26 35
REMARK SMILES IDX 27 36 80 37 28 38 85 39 79 40 81 41 29 42 84 43 78 44 77 45
REMARK SMILES IDX 30 47 64 48 43 49 63 50 44 51 47 52 62 53 82 54 45 55 46 56
REMARK SMILES IDX 61 58 83 59 48 60 31 61 32 62 41 63 33 64 34 65 40 66 42 67
REMARK SMILES IDX 35 68 36 69 37 70 38 71 39 72 65 73 66 74 75 75 67 76 68 77
REMARK SMILES IDX 74 78 76 79 69 80 70 81 71 82 72 83 73 84 49 85 50 86 59 87
REMARK SMILES IDX 51 88 52 89 58 90 60 91 53 92 54 93 55 94 56 95 57 96
REMARK H PARENT 15 5 9 12 19 27 81 46 47 57
REMARK Flexibility Score: inf
ROOT
ATOM      1  C   UNL A   1      35.871  21.452  25.634  1.00  0.00     0.117 C 
ENDROOT
BRANCH   1   2
ATOM      2  N   UNL A   1      35.302  20.123  25.442  1.00  0.00    -0.356 N 
ATOM      3  C   UNL A   1      34.173  19.723  24.795  1.00  0.00     0.220 C 
ATOM      4  O   UNL A   1      33.885  18.527  24.793  1.00  0.00    -0.275 OA
ATOM      5  H   UNL A   1      35.822  19.392  25.847  1.00  0.00     0.163 HD
BRANCH   3   6
ATOM      6  C   UNL A   1      33.289  20.726  24.083  1.00  0.00     0.102 C 
BRANCH   6   7
ATOM      7  C   UNL A   1      32.119  21.230  24.927  1.00  0.00     0.031 C 
BRANCH   7   8
ATOM      8  C   UNL A   1      31.546  22.595  24.558  1.00  0.00     0.116 C 
BRANCH   8   9
ATOM      9  N   UNL A   1      30.762  23.221  25.595  1.00  0.00    -0.352 N 
ATOM     10  C   UNL A   1      30.566  24.535  25.940  1.00  0.00     0.255 C 
ATOM     11  O   UNL A   1      29.759  24.709  26.859  1.00  0.00    -0.269 OA
ATOM     12  H   UNL A   1      30.272  22.584  26.164  1.00  0.00     0.163 HD
BRANCH  10  13
ATOM     13  C   UNL A   1      31.278  25.669  25.347  1.00  0.00     0.084 A 
ATOM     14  C   UNL A   1      33.931  25.481  25.720  1.00  0.00     0.088 C 
ATOM     15  C   UNL A   1      32.625  26.043  25.310  1.00  0.00     0.114 A 
ATOM     16  O   UNL A   1      32.775  27.250  24.680  1.00  0.00    -0.465 OA
ATOM     17  C   UNL A   1      31.565  27.618  24.239  1.00  0.00     0.108 A 
ATOM     18  C   UNL A   1      30.616  26.679  24.549  1.00  0.00     0.007 A 
ATOM     19  C   UNL A   1      31.402  28.882  23.491  1.00  0.00     0.076 C 
ATOM     20  C   UNL A   1      29.195  26.842  24.115  1.00  0.00     0.040 C 
ATOM     21  C   UNL A   1      29.902  29.221  23.425  1.00  0.00     0.008 C 
ATOM     22  C   UNL A   1      29.050  27.983  23.078  1.00  0.00     0.005 C 
ENDBRANCH  10  13
ENDBRANCH   8   9
ENDBRANCH   7   8
ENDBRANCH   6   7
ENDBRANCH   3   6
ENDBRANCH   1   2
BRANCH   1  23
ATOM     23  C   UNL A   1      37.256  21.594  24.995  1.00  0.00     0.042 C 
BRANCH  23  24
ATOM     24  C   UNL A   1      38.188  22.487  25.783  1.00  0.00     0.118 C 
BRANCH  24  25
ATOM     25  N   UNL A   1      39.187  21.745  26.555  1.00  0.00    -0.352 N 
ATOM     26  C   UNL A   1      40.330  22.249  27.166  1.00  0.00     0.251 C 
ATOM     27  H   UNL A   1      39.031  20.778  26.653  1.00  0.00     0.163 HD
ATOM     28  O   UNL A   1      41.262  21.519  27.446  1.00  0.00    -0.269 OA
BRANCH  26  29
ATOM     29  C   UNL A   1      40.382  23.700  27.444  1.00  0.00     0.039 A 
ATOM     30  C   UNL A   1      39.317  24.559  27.169  1.00  0.00     0.014 A 
ATOM     31  C   UNL A   1      41.524  24.178  28.071  1.00  0.00     0.014 A 
ATOM     32  C   UNL A   1      39.401  25.878  27.616  1.00  0.00     0.010 A 
ATOM     33  C   UNL A   1      41.478  25.362  28.744  1.00  0.00     0.010 A 
ATOM     34  C   UNL A   1      40.480  26.265  28.430  1.00  0.00    -0.014 A 
BRANCH  34  35
ATOM     35  C   UNL A   1      40.595  27.605  28.987  1.00  0.00     0.031 A 
ATOM     36  C   UNL A   1      41.638  28.452  28.366  1.00  0.00     0.074 A 
ATOM     37  C   UNL A   1      39.732  28.115  29.894  1.00  0.00     0.049 A 
ATOM     38  N   UNL A   1      42.814  28.699  28.837  1.00  0.00    -0.248 NA
ATOM     39  C   UNL A   1      41.425  28.947  27.000  1.00  0.00     0.031 C 
ATOM     40  C   UNL A   1      38.468  27.563  30.402  1.00  0.00     0.029 A 
ATOM     41  N   UNL A   1      39.794  29.321  30.515  1.00  0.00    -0.354 N 
ATOM     42  C   UNL A   1      43.410  29.576  27.941  1.00  0.00     0.074 A 
ATOM     43  C   UNL A   1      42.602  29.529  26.747  1.00  0.00     0.031 C 
ATOM     44  C   UNL A   1      37.787  28.518  31.073  1.00  0.00     0.029 A 
ATOM     45  C   UNL A   1      38.648  29.677  31.214  1.00  0.00     0.049 A 
ATOM     46  H   UNL A   1      40.590  29.898  30.475  1.00  0.00     0.167 HD
ATOM     47  C   UNL A   1      44.387  30.435  28.348  1.00  0.00     0.037 A 
ATOM     48  C   UNL A   1      38.430  30.841  31.873  1.00  0.00     0.037 A 
ATOM     49  C   UNL A   1      44.856  30.087  29.670  1.00  0.00     0.049 A 
ATOM     50  C   UNL A   1      39.771  31.406  32.181  1.00  0.00     0.074 A 
ATOM     51  C   UNL A   1      45.449  28.968  30.227  1.00  0.00     0.029 A 
ATOM     52  N   UNL A   1      44.362  30.813  30.729  1.00  0.00    -0.354 N 
ATOM     53  N   UNL A   1      40.621  30.848  33.001  1.00  0.00    -0.248 NA
ATOM     54  C   UNL A   1      40.352  32.334  31.222  1.00  0.00     0.031 C 
ATOM     55  C   UNL A   1      44.855  28.841  31.517  1.00  0.00     0.029 A 
ATOM     56  C   UNL A   1      43.992  29.923  31.707  1.00  0.00     0.049 A 
ATOM     57  H   UNL A   1      44.287  31.793  30.777  1.00  0.00     0.167 HD
ATOM     58  C   UNL A   1      41.860  31.010  32.397  1.00  0.00     0.074 A 
ATOM     59  C   UNL A   1      41.642  32.011  31.354  1.00  0.00     0.031 C 
ATOM     60  C   UNL A   1      42.878  30.124  32.611  1.00  0.00     0.037 A 
BRANCH  47  61
ATOM     61  C   UNL A   1      44.678  31.782  27.733  1.00  0.00     0.058 A 
ATOM     62  C   UNL A   1      45.875  31.958  27.007  1.00  0.00     0.135 A 
ATOM     63  C   UNL A   1      43.979  32.967  28.050  1.00  0.00     0.135 A 
ATOM     64  F   UNL A   1      46.618  30.901  26.645  1.00  0.00    -0.206 F 
ATOM     65  C   UNL A   1      46.383  33.219  26.698  1.00  0.00     0.059 A 
ATOM     66  C   UNL A   1      44.441  34.232  27.703  1.00  0.00     0.059 A 
ATOM     67  F   UNL A   1      42.869  32.968  28.797  1.00  0.00    -0.206 F 
ATOM     68  C   UNL A   1      45.666  34.352  27.069  1.00  0.00     0.060 A 
BRANCH  68  69
ATOM     69  S   UNL A   1      46.375  35.980  26.776  1.00  0.00     0.124 S 
ATOM     70  O   UNL A   1      47.037  35.780  25.491  1.00  0.00    -0.237 OA
ATOM     71  O   UNL A   1      45.187  36.828  26.759  1.00  0.00    -0.237 OA
ATOM     72  O   UNL A   1      47.260  36.172  27.920  1.00  0.00    -0.744 OA
ENDBRANCH  68  69
ENDBRANCH  47  61
BRANCH  48  73
ATOM     73  C   UNL A   1      37.180  31.641  31.919  1.00  0.00     0.058 A 
ATOM     74  C   UNL A   1      36.645  32.072  33.147  1.00  0.00     0.135 A 
ATOM     75  C   UNL A   1      36.656  32.256  30.763  1.00  0.00     0.135 A 
ATOM     76  F   UNL A   1      37.093  31.545  34.297  1.00  0.00    -0.206 F 
ATOM     77  C   UNL A   1      35.704  33.102  33.229  1.00  0.00     0.059 A 
ATOM     78  C   UNL A   1      35.711  33.280  30.820  1.00  0.00     0.059 A 
ATOM     79  F   UNL A   1      37.121  31.946  29.543  1.00  0.00    -0.206 F 
ATOM     80  C   UNL A   1      35.263  33.721  32.060  1.00  0.00     0.060 A 
BRANCH  80  81
ATOM     81  S   UNL A   1      34.212  35.189  32.174  1.00  0.00     0.124 S 
ATOM     82  O   UNL A   1      34.058  35.561  30.772  1.00  0.00    -0.237 OA
ATOM     83  O   UNL A   1      33.019  34.664  32.830  1.00  0.00    -0.237 OA
ATOM     84  O   UNL A   1      35.007  36.112  32.982  1.00  0.00    -0.744 OA
ENDBRANCH  80  81
ENDBRANCH  48  73
BRANCH  60  85
ATOM     85  C   UNL A   1      42.741  29.135  33.744  1.00  0.00     0.058 A 
ATOM     86  C   UNL A   1      43.067  29.402  35.086  1.00  0.00     0.135 A 
ATOM     87  C   UNL A   1      42.109  27.912  33.475  1.00  0.00     0.135 A 
ATOM     88  F   UNL A   1      43.583  30.583  35.450  1.00  0.00    -0.206 F 
ATOM     89  C   UNL A   1      42.808  28.481  36.106  1.00  0.00     0.059 A 
ATOM     90  C   UNL A   1      41.812  26.992  34.478  1.00  0.00     0.059 A 
ATOM     91  F   UNL A   1      41.718  27.618  32.223  1.00  0.00    -0.206 F 
ATOM     92  C   UNL A   1      42.178  27.277  35.792  1.00  0.00     0.060 A 
BRANCH  92  93
ATOM     93  S   UNL A   1      41.776  26.117  37.118  1.00  0.00     0.124 S 
ATOM     94  O   UNL A   1      41.707  24.847  36.403  1.00  0.00    -0.237 OA
ATOM     95  O   UNL A   1      42.907  26.272  38.029  1.00  0.00    -0.237 OA
ATOM     96  O   UNL A   1      40.502  26.614  37.632  1.00  0.00    -0.744 OA
ENDBRANCH  92  93
ENDBRANCH  60  85
ENDBRANCH  34  35
ENDBRANCH  26  29
ENDBRANCH  24  25
ENDBRANCH  23  24
ENDBRANCH   1  23
TORSDOF 17
ENDMDL
