MODEL 1
REMARK VINA RESULT:     -12.7      0.000      0.000
REMARK SMILES O=C(NCCCNC(=O)c1ccccc1Nc1cccc(C(F)(F)F)c1)c1ccc(-c2c3nc(c(-c4c(F)cc(S(=O)(=O)[O-])cc4F)c4ccc([nH]4)c(-c4c(F)cc(S(=O)(=O)[O-])cc4F)c4nc(c(-c5c(F)cc(S(=O)(=O)[O-])cc5F)c5ccc2[nH]5)C=C4)C=C3)cc1
REMARK SMILES IDX 5 1 4 2 3 3 1 4 2 5 27 7 28 8 92 9 29 10 91 11 30 12 31 13
REMARK SMILES IDX 32 14 85 15 33 16 90 17 84 18 86 19 34 20 89 21 83 22 82 23
REMARK SMILES IDX 35 25 69 26 48 27 68 28 49 29 52 30 67 31 87 32 50 33 51 34
REMARK SMILES IDX 66 36 88 37 53 38 36 39 37 40 46 41 38 42 39 43 45 44 47 45
REMARK SMILES IDX 40 46 41 47 42 48 43 49 44 50 70 51 71 52 80 53 72 54 73 55
REMARK SMILES IDX 79 56 81 57 74 58 75 59 76 60 77 61 78 62 54 63 55 64 64 65
REMARK SMILES IDX 56 66 57 67 63 68 65 69 58 70 59 71 60 72 61 73 62 74 6 75
REMARK SMILES IDX 7 76 8 77 9 79 10 80 11 81 15 82 12 83 14 84 13 85 16 86
REMARK SMILES IDX 17 88 18 89 26 90 19 91 21 92 20 93 22 94 23 95 24 96 25 97
REMARK H PARENT 3 6 86 24 52 35 7 78 16 87
REMARK Flexibility Score: inf
ROOT
ATOM      1  C   UNL A   1      34.014  30.696  27.252  1.00  0.00     0.042 C 
ENDROOT
BRANCH   1   2
ATOM      2  C   UNL A   1      35.368  30.299  27.821  1.00  0.00     0.118 C 
BRANCH   2   3
ATOM      3  N   UNL A   1      35.373  30.138  29.270  1.00  0.00    -0.352 N 
ATOM      4  O   UNL A   1      36.135  29.639  31.326  1.00  0.00    -0.269 OA
ATOM      5  C   UNL A   1      36.396  29.844  30.143  1.00  0.00     0.251 C 
ATOM      6  H   UNL A   1      34.495  30.262  29.698  1.00  0.00     0.163 HD
BRANCH   5   7
ATOM      7  C   UNL A   1      37.793  29.732  29.665  1.00  0.00     0.039 A 
ATOM      8  C   UNL A   1      38.091  29.706  28.305  1.00  0.00     0.014 A 
ATOM      9  C   UNL A   1      38.831  29.648  30.600  1.00  0.00     0.014 A 
ATOM     10  C   UNL A   1      39.373  29.375  27.883  1.00  0.00     0.010 A 
ATOM     11  C   UNL A   1      40.146  29.432  30.169  1.00  0.00     0.010 A 
ATOM     12  C   UNL A   1      40.420  29.232  28.808  1.00  0.00    -0.014 A 
BRANCH  12  13
ATOM     13  C   UNL A   1      41.781  28.883  28.311  1.00  0.00     0.031 A 
ATOM     14  C   UNL A   1      42.900  29.893  28.323  1.00  0.00     0.074 A 
ATOM     15  C   UNL A   1      42.023  27.618  27.910  1.00  0.00     0.049 A 
ATOM     16  N   UNL A   1      44.157  29.732  27.991  1.00  0.00    -0.248 NA
ATOM     17  C   UNL A   1      42.569  31.262  28.749  1.00  0.00     0.031 C 
ATOM     18  C   UNL A   1      41.019  26.552  27.832  1.00  0.00     0.029 A 
ATOM     19  N   UNL A   1      43.187  27.002  27.529  1.00  0.00    -0.354 N 
ATOM     20  C   UNL A   1      44.756  30.978  28.134  1.00  0.00     0.074 A 
ATOM     21  C   UNL A   1      43.721  31.893  28.566  1.00  0.00     0.031 C 
ATOM     22  C   UNL A   1      41.623  25.401  27.506  1.00  0.00     0.029 A 
ATOM     23  C   UNL A   1      43.043  25.655  27.289  1.00  0.00     0.049 A 
ATOM     24  H   UNL A   1      44.044  27.477  27.437  1.00  0.00     0.167 HD
ATOM     25  C   UNL A   1      46.050  31.328  27.930  1.00  0.00     0.037 A 
ATOM     26  C   UNL A   1      43.948  24.725  26.932  1.00  0.00     0.037 A 
ATOM     27  C   UNL A   1      47.088  30.407  27.542  1.00  0.00     0.049 A 
ATOM     28  C   UNL A   1      45.381  25.131  26.748  1.00  0.00     0.074 A 
ATOM     29  C   UNL A   1      48.436  30.658  27.351  1.00  0.00     0.029 A 
ATOM     30  N   UNL A   1      46.897  29.056  27.293  1.00  0.00    -0.354 N 
ATOM     31  N   UNL A   1      45.928  26.312  26.906  1.00  0.00    -0.248 NA
ATOM     32  C   UNL A   1      46.318  24.080  26.332  1.00  0.00     0.031 C 
ATOM     33  C   UNL A   1      49.054  29.466  26.957  1.00  0.00     0.029 A 
ATOM     34  C   UNL A   1      48.098  28.464  26.939  1.00  0.00     0.049 A 
ATOM     35  H   UNL A   1      46.033  28.587  27.357  1.00  0.00     0.167 HD
ATOM     36  C   UNL A   1      47.277  26.145  26.623  1.00  0.00     0.074 A 
ATOM     37  C   UNL A   1      47.466  24.744  26.302  1.00  0.00     0.031 C 
ATOM     38  C   UNL A   1      48.269  27.068  26.625  1.00  0.00     0.037 A 
BRANCH  25  39
ATOM     39  C   UNL A   1      46.419  32.776  28.108  1.00  0.00     0.058 A 
ATOM     40  C   UNL A   1      46.274  33.712  27.072  1.00  0.00     0.135 A 
ATOM     41  C   UNL A   1      46.888  33.240  29.348  1.00  0.00     0.135 A 
ATOM     42  F   UNL A   1      45.843  33.320  25.863  1.00  0.00    -0.206 F 
ATOM     43  C   UNL A   1      46.606  35.052  27.250  1.00  0.00     0.059 A 
ATOM     44  C   UNL A   1      47.206  34.580  29.555  1.00  0.00     0.059 A 
ATOM     45  F   UNL A   1      47.043  32.389  30.374  1.00  0.00    -0.206 F 
ATOM     46  C   UNL A   1      47.077  35.476  28.495  1.00  0.00     0.060 A 
BRANCH  46  47
ATOM     47  S   UNL A   1      47.506  37.216  28.714  1.00  0.00     0.124 S 
ATOM     48  O   UNL A   1      46.632  37.592  29.821  1.00  0.00    -0.237 OA
ATOM     49  O   UNL A   1      48.930  37.153  29.026  1.00  0.00    -0.237 OA
ATOM     50  O   UNL A   1      47.177  37.812  27.423  1.00  0.00    -0.744 OA
ENDBRANCH  46  47
ENDBRANCH  25  39
BRANCH  26  51
ATOM     51  C   UNL A   1      43.519  23.314  26.744  1.00  0.00     0.058 A 
ATOM     52  C   UNL A   1      43.461  22.743  25.465  1.00  0.00     0.135 A 
ATOM     53  C   UNL A   1      43.193  22.503  27.841  1.00  0.00     0.135 A 
ATOM     54  F   UNL A   1      43.760  23.481  24.386  1.00  0.00    -0.206 F 
ATOM     55  C   UNL A   1      43.086  21.417  25.278  1.00  0.00     0.059 A 
ATOM     56  C   UNL A   1      42.841  21.168  27.682  1.00  0.00     0.059 A 
ATOM     57  F   UNL A   1      43.253  23.000  29.086  1.00  0.00    -0.206 F 
ATOM     58  C   UNL A   1      42.781  20.636  26.395  1.00  0.00     0.060 A 
BRANCH  58  59
ATOM     59  S   UNL A   1      42.358  18.897  26.153  1.00  0.00     0.124 S 
ATOM     60  O   UNL A   1      42.541  18.362  27.497  1.00  0.00    -0.237 OA
ATOM     61  O   UNL A   1      40.980  18.974  25.678  1.00  0.00    -0.237 OA
ATOM     62  O   UNL A   1      43.329  18.454  25.157  1.00  0.00    -0.744 OA
ENDBRANCH  58  59
ENDBRANCH  26  51
BRANCH  38  63
ATOM     63  C   UNL A   1      49.651  26.583  26.296  1.00  0.00     0.058 A 
ATOM     64  C   UNL A   1      50.421  25.869  27.227  1.00  0.00     0.135 A 
ATOM     65  C   UNL A   1      50.205  26.820  25.028  1.00  0.00     0.135 A 
ATOM     66  F   UNL A   1      49.938  25.622  28.455  1.00  0.00    -0.206 F 
ATOM     67  C   UNL A   1      51.706  25.431  26.923  1.00  0.00     0.059 A 
ATOM     68  C   UNL A   1      51.480  26.374  24.694  1.00  0.00     0.059 A 
ATOM     69  F   UNL A   1      49.505  27.492  24.099  1.00  0.00    -0.206 F 
ATOM     70  C   UNL A   1      52.229  25.694  25.655  1.00  0.00     0.060 A 
BRANCH  70  71
ATOM     71  S   UNL A   1      53.893  25.116  25.263  1.00  0.00     0.124 S 
ATOM     72  O   UNL A   1      53.795  23.697  25.592  1.00  0.00    -0.237 OA
ATOM     73  O   UNL A   1      54.011  25.430  23.842  1.00  0.00    -0.237 OA
ATOM     74  O   UNL A   1      54.743  25.910  26.145  1.00  0.00    -0.744 OA
ENDBRANCH  70  71
ENDBRANCH  38  63
ENDBRANCH  12  13
ENDBRANCH   5   7
ENDBRANCH   2   3
ENDBRANCH   1   2
BRANCH   1  75
ATOM     75  C   UNL A   1      33.311  29.608  26.456  1.00  0.00     0.118 C 
BRANCH  75  76
ATOM     76  N   UNL A   1      33.679  29.603  25.047  1.00  0.00    -0.352 N 
ATOM     77  C   UNL A   1      33.701  28.568  24.148  1.00  0.00     0.253 C 
ATOM     78  H   UNL A   1      33.952  30.477  24.684  1.00  0.00     0.163 HD
ATOM     79  O   UNL A   1      34.136  28.760  23.015  1.00  0.00    -0.269 OA
BRANCH  77  80
ATOM     80  C   UNL A   1      33.220  27.220  24.518  1.00  0.00     0.063 A 
ATOM     81  C   UNL A   1      33.970  26.542  25.492  1.00  0.00     0.016 A 
ATOM     82  C   UNL A   1      32.114  26.605  23.896  1.00  0.00     0.051 A 
ATOM     83  C   UNL A   1      33.603  25.260  25.894  1.00  0.00     0.001 A 
ATOM     84  C   UNL A   1      31.757  25.319  24.333  1.00  0.00     0.027 A 
ATOM     85  C   UNL A   1      32.492  24.653  25.319  1.00  0.00     0.002 A 
BRANCH  82  86
ATOM     86  N   UNL A   1      31.359  27.259  22.900  1.00  0.00    -0.355 N 
ATOM     87  H   UNL A   1      31.818  27.343  22.032  1.00  0.00     0.167 HD
BRANCH  86  88
ATOM     88  C   UNL A   1      30.067  27.811  22.930  1.00  0.00     0.039 A 
ATOM     89  C   UNL A   1      29.026  27.069  23.499  1.00  0.00     0.026 A 
ATOM     90  C   UNL A   1      29.777  29.094  22.445  1.00  0.00     0.039 A 
ATOM     91  C   UNL A   1      27.732  27.588  23.580  1.00  0.00     0.003 A 
ATOM     92  C   UNL A   1      28.480  29.629  22.511  1.00  0.00     0.058 A 
ATOM     93  C   UNL A   1      27.460  28.864  23.092  1.00  0.00     0.013 A 
BRANCH  92  94
ATOM     94  C   UNL A   1      28.186  31.016  21.992  1.00  0.00     0.416 C 
ATOM     95  F   UNL A   1      27.333  31.708  22.796  1.00  0.00    -0.166 F 
ATOM     96  F   UNL A   1      29.313  31.776  21.902  1.00  0.00    -0.166 F 
ATOM     97  F   UNL A   1      27.629  31.026  20.751  1.00  0.00    -0.166 F 
ENDBRANCH  92  94
ENDBRANCH  86  88
ENDBRANCH  82  86
ENDBRANCH  77  80
ENDBRANCH  75  76
ENDBRANCH   1  75
TORSDOF 16
ENDMDL
MODEL 2
REMARK VINA RESULT:     -12.7      2.518      3.546
REMARK SMILES O=C(NCCCNC(=O)c1ccccc1Nc1cccc(C(F)(F)F)c1)c1ccc(-c2c3nc(c(-c4c(F)cc(S(=O)(=O)[O-])cc4F)c4ccc([nH]4)c(-c4c(F)cc(S(=O)(=O)[O-])cc4F)c4nc(c(-c5c(F)cc(S(=O)(=O)[O-])cc5F)c5ccc2[nH]5)C=C4)C=C3)cc1
REMARK SMILES IDX 5 1 4 2 3 3 1 4 2 5 27 7 28 8 92 9 29 10 91 11 30 12 31 13
REMARK SMILES IDX 32 14 85 15 33 16 90 17 84 18 86 19 34 20 89 21 83 22 82 23
REMARK SMILES IDX 35 25 69 26 48 27 68 28 49 29 52 30 67 31 87 32 50 33 51 34
REMARK SMILES IDX 66 36 88 37 53 38 36 39 37 40 46 41 38 42 39 43 45 44 47 45
REMARK SMILES IDX 40 46 41 47 42 48 43 49 44 50 70 51 71 52 80 53 72 54 73 55
REMARK SMILES IDX 79 56 81 57 74 58 75 59 76 60 77 61 78 62 54 63 55 64 64 65
REMARK SMILES IDX 56 66 57 67 63 68 65 69 58 70 59 71 60 72 61 73 62 74 6 75
REMARK SMILES IDX 7 76 8 77 9 79 10 80 11 81 15 82 12 83 14 84 13 85 16 86
REMARK SMILES IDX 17 88 18 89 26 90 19 91 21 92 20 93 22 94 23 95 24 96 25 97
REMARK H PARENT 3 6 86 24 52 35 7 78 16 87
REMARK Flexibility Score: inf
ROOT
ATOM      1  C   UNL A   1      34.201  31.345  27.647  1.00  0.00     0.042 C 
ENDROOT
BRANCH   1   2
ATOM      2  C   UNL A   1      35.552  31.384  28.348  1.00  0.00     0.118 C 
BRANCH   2   3
ATOM      3  N   UNL A   1      35.518  30.886  29.718  1.00  0.00    -0.352 N 
ATOM      4  O   UNL A   1      36.191  29.833  31.588  1.00  0.00    -0.269 OA
ATOM      5  C   UNL A   1      36.490  30.282  30.484  1.00  0.00     0.251 C 
ATOM      6  H   UNL A   1      34.653  31.002  30.174  1.00  0.00     0.163 HD
BRANCH   5   7
ATOM      7  C   UNL A   1      37.872  30.132  29.976  1.00  0.00     0.039 A 
ATOM      8  C   UNL A   1      38.139  30.088  28.610  1.00  0.00     0.014 A 
ATOM      9  C   UNL A   1      38.929  30.032  30.888  1.00  0.00     0.014 A 
ATOM     10  C   UNL A   1      39.403  29.722  28.163  1.00  0.00     0.010 A 
ATOM     11  C   UNL A   1      40.229  29.781  30.430  1.00  0.00     0.010 A 
ATOM     12  C   UNL A   1      40.467  29.563  29.066  1.00  0.00    -0.014 A 
BRANCH  12  13
ATOM     13  C   UNL A   1      41.807  29.177  28.541  1.00  0.00     0.031 A 
ATOM     14  C   UNL A   1      42.957  30.152  28.542  1.00  0.00     0.074 A 
ATOM     15  C   UNL A   1      42.003  27.908  28.125  1.00  0.00     0.049 A 
ATOM     16  N   UNL A   1      44.202  29.956  28.186  1.00  0.00    -0.248 NA
ATOM     17  C   UNL A   1      42.675  31.527  28.985  1.00  0.00     0.031 C 
ATOM     18  C   UNL A   1      40.967  26.874  28.057  1.00  0.00     0.029 A 
ATOM     19  N   UNL A   1      43.141  27.261  27.719  1.00  0.00    -0.354 N 
ATOM     20  C   UNL A   1      44.842  31.182  28.328  1.00  0.00     0.074 A 
ATOM     21  C   UNL A   1      43.843  32.124  28.786  1.00  0.00     0.031 C 
ATOM     22  C   UNL A   1      41.530  25.708  27.711  1.00  0.00     0.029 A 
ATOM     23  C   UNL A   1      42.952  25.921  27.470  1.00  0.00     0.049 A 
ATOM     24  H   UNL A   1      44.011  27.711  27.616  1.00  0.00     0.167 HD
ATOM     25  C   UNL A   1      46.142  31.494  28.104  1.00  0.00     0.037 A 
ATOM     26  C   UNL A   1      43.822  24.967  27.090  1.00  0.00     0.037 A 
ATOM     27  C   UNL A   1      47.144  30.546  27.690  1.00  0.00     0.049 A 
ATOM     28  C   UNL A   1      45.263  25.331  26.884  1.00  0.00     0.074 A 
ATOM     29  C   UNL A   1      48.496  30.758  27.478  1.00  0.00     0.029 A 
ATOM     30  N   UNL A   1      46.907  29.204  27.433  1.00  0.00    -0.354 N 
ATOM     31  N   UNL A   1      45.849  26.493  27.042  1.00  0.00    -0.248 NA
ATOM     32  C   UNL A   1      46.161  24.256  26.443  1.00  0.00     0.031 C 
ATOM     33  C   UNL A   1      49.070  29.551  27.062  1.00  0.00     0.029 A 
ATOM     34  C   UNL A   1      48.084  28.578  27.054  1.00  0.00     0.049 A 
ATOM     35  H   UNL A   1      46.031  28.760  27.510  1.00  0.00     0.167 HD
ATOM     36  C   UNL A   1      47.188  26.288  26.733  1.00  0.00     0.074 A 
ATOM     37  C   UNL A   1      47.327  24.885  26.398  1.00  0.00     0.031 C 
ATOM     38  C   UNL A   1      48.207  27.181  26.725  1.00  0.00     0.037 A 
BRANCH  25  39
ATOM     39  C   UNL A   1      46.557  32.929  28.287  1.00  0.00     0.058 A 
ATOM     40  C   UNL A   1      46.497  33.859  27.238  1.00  0.00     0.135 A 
ATOM     41  C   UNL A   1      46.986  33.387  29.544  1.00  0.00     0.135 A 
ATOM     42  F   UNL A   1      46.107  33.473  26.013  1.00  0.00    -0.206 F 
ATOM     43  C   UNL A   1      46.872  35.188  27.421  1.00  0.00     0.059 A 
ATOM     44  C   UNL A   1      47.347  34.716  29.755  1.00  0.00     0.059 A 
ATOM     45  F   UNL A   1      47.061  32.541  30.583  1.00  0.00    -0.206 F 
ATOM     46  C   UNL A   1      47.300  35.605  28.682  1.00  0.00     0.060 A 
BRANCH  46  47
ATOM     47  S   UNL A   1      47.786  37.330  28.907  1.00  0.00     0.124 S 
ATOM     48  O   UNL A   1      46.738  38.025  28.166  1.00  0.00    -0.237 OA
ATOM     49  O   UNL A   1      47.744  37.483  30.357  1.00  0.00    -0.237 OA
ATOM     50  O   UNL A   1      49.118  37.387  28.313  1.00  0.00    -0.744 OA
ENDBRANCH  46  47
ENDBRANCH  25  39
BRANCH  26  51
ATOM     51  C   UNL A   1      43.347  23.572  26.898  1.00  0.00     0.058 A 
ATOM     52  C   UNL A   1      43.133  23.053  25.613  1.00  0.00     0.135 A 
ATOM     53  C   UNL A   1      43.132  22.722  27.994  1.00  0.00     0.135 A 
ATOM     54  F   UNL A   1      43.323  23.830  24.536  1.00  0.00    -0.206 F 
ATOM     55  C   UNL A   1      42.714  21.742  25.419  1.00  0.00     0.059 A 
ATOM     56  C   UNL A   1      42.738  21.399  27.825  1.00  0.00     0.059 A 
ATOM     57  F   UNL A   1      43.342  23.168  29.242  1.00  0.00    -0.206 F 
ATOM     58  C   UNL A   1      42.522  20.921  26.533  1.00  0.00     0.060 A 
BRANCH  58  59
ATOM     59  S   UNL A   1      42.041  19.200  26.274  1.00  0.00     0.124 S 
ATOM     60  O   UNL A   1      42.258  18.633  27.600  1.00  0.00    -0.237 OA
ATOM     61  O   UNL A   1      40.649  19.325  25.853  1.00  0.00    -0.237 OA
ATOM     62  O   UNL A   1      42.962  18.750  25.234  1.00  0.00    -0.744 OA
ENDBRANCH  58  59
ENDBRANCH  26  51
BRANCH  38  63
ATOM     63  C   UNL A   1      49.568  26.657  26.367  1.00  0.00     0.058 A 
ATOM     64  C   UNL A   1      50.373  25.999  27.310  1.00  0.00     0.135 A 
ATOM     65  C   UNL A   1      50.063  26.799  25.062  1.00  0.00     0.135 A 
ATOM     66  F   UNL A   1      49.946  25.844  28.573  1.00  0.00    -0.206 F 
ATOM     67  C   UNL A   1      51.639  25.526  26.978  1.00  0.00     0.059 A 
ATOM     68  C   UNL A   1      51.317  26.315  24.703  1.00  0.00     0.059 A 
ATOM     69  F   UNL A   1      49.328  27.413  24.122  1.00  0.00    -0.206 F 
ATOM     70  C   UNL A   1      52.104  25.694  25.672  1.00  0.00     0.060 A 
BRANCH  70  71
ATOM     71  S   UNL A   1      53.743  25.069  25.246  1.00  0.00     0.124 S 
ATOM     72  O   UNL A   1      53.931  25.631  23.911  1.00  0.00    -0.237 OA
ATOM     73  O   UNL A   1      54.582  25.637  26.296  1.00  0.00    -0.237 OA
ATOM     74  O   UNL A   1      53.577  23.620  25.301  1.00  0.00    -0.744 OA
ENDBRANCH  70  71
ENDBRANCH  38  63
ENDBRANCH  12  13
ENDBRANCH   5   7
ENDBRANCH   2   3
ENDBRANCH   1   2
BRANCH   1  75
ATOM     75  C   UNL A   1      33.878  30.029  26.957  1.00  0.00     0.118 C 
BRANCH  75  76
ATOM     76  N   UNL A   1      32.971  29.188  27.725  1.00  0.00    -0.352 N 
ATOM     77  C   UNL A   1      32.017  28.303  27.296  1.00  0.00     0.253 C 
ATOM     78  H   UNL A   1      33.057  29.268  28.703  1.00  0.00     0.163 HD
ATOM     79  O   UNL A   1      31.286  27.755  28.118  1.00  0.00    -0.269 OA
BRANCH  77  80
ATOM     80  C   UNL A   1      31.843  28.000  25.859  1.00  0.00     0.063 A 
ATOM     81  C   UNL A   1      31.331  29.040  25.067  1.00  0.00     0.016 A 
ATOM     82  C   UNL A   1      32.105  26.729  25.307  1.00  0.00     0.051 A 
ATOM     83  C   UNL A   1      31.118  28.844  23.705  1.00  0.00     0.001 A 
ATOM     84  C   UNL A   1      31.896  26.565  23.928  1.00  0.00     0.027 A 
ATOM     85  C   UNL A   1      31.408  27.608  23.135  1.00  0.00     0.002 A 
BRANCH  82  86
ATOM     86  N   UNL A   1      32.598  25.664  26.090  1.00  0.00    -0.355 N 
ATOM     87  H   UNL A   1      32.492  25.790  27.061  1.00  0.00     0.167 HD
BRANCH  86  88
ATOM     88  C   UNL A   1      33.214  24.454  25.726  1.00  0.00     0.039 A 
ATOM     89  C   UNL A   1      32.473  23.268  25.798  1.00  0.00     0.026 A 
ATOM     90  C   UNL A   1      34.532  24.383  25.255  1.00  0.00     0.039 A 
ATOM     91  C   UNL A   1      33.031  22.046  25.416  1.00  0.00     0.003 A 
ATOM     92  C   UNL A   1      35.112  23.162  24.875  1.00  0.00     0.058 A 
ATOM     93  C   UNL A   1      34.343  21.993  24.953  1.00  0.00     0.013 A 
BRANCH  92  94
ATOM     94  C   UNL A   1      36.530  23.103  24.362  1.00  0.00     0.416 C 
ATOM     95  F   UNL A   1      37.163  21.945  24.696  1.00  0.00    -0.166 F 
ATOM     96  F   UNL A   1      36.586  23.180  23.003  1.00  0.00    -0.166 F 
ATOM     97  F   UNL A   1      37.319  24.112  24.825  1.00  0.00    -0.166 F 
ENDBRANCH  92  94
ENDBRANCH  86  88
ENDBRANCH  82  86
ENDBRANCH  77  80
ENDBRANCH  75  76
ENDBRANCH   1  75
TORSDOF 16
ENDMDL
MODEL 3
REMARK VINA RESULT:     -12.6      5.134      7.879
REMARK SMILES O=C(NCCCNC(=O)c1ccccc1Nc1cccc(C(F)(F)F)c1)c1ccc(-c2c3nc(c(-c4c(F)cc(S(=O)(=O)[O-])cc4F)c4ccc([nH]4)c(-c4c(F)cc(S(=O)(=O)[O-])cc4F)c4nc(c(-c5c(F)cc(S(=O)(=O)[O-])cc5F)c5ccc2[nH]5)C=C4)C=C3)cc1
REMARK SMILES IDX 5 1 4 2 3 3 1 4 2 5 27 7 28 8 92 9 29 10 91 11 30 12 31 13
REMARK SMILES IDX 32 14 85 15 33 16 90 17 84 18 86 19 34 20 89 21 83 22 82 23
REMARK SMILES IDX 35 25 69 26 48 27 68 28 49 29 52 30 67 31 87 32 50 33 51 34
REMARK SMILES IDX 66 36 88 37 53 38 36 39 37 40 46 41 38 42 39 43 45 44 47 45
REMARK SMILES IDX 40 46 41 47 42 48 43 49 44 50 70 51 71 52 80 53 72 54 73 55
REMARK SMILES IDX 79 56 81 57 74 58 75 59 76 60 77 61 78 62 54 63 55 64 64 65
REMARK SMILES IDX 56 66 57 67 63 68 65 69 58 70 59 71 60 72 61 73 62 74 6 75
REMARK SMILES IDX 7 76 8 77 9 79 10 80 11 81 15 82 12 83 14 84 13 85 16 86
REMARK SMILES IDX 17 88 18 89 26 90 19 91 21 92 20 93 22 94 23 95 24 96 25 97
REMARK H PARENT 3 6 86 24 52 35 7 78 16 87
REMARK Flexibility Score: inf
ROOT
ATOM      1  C   UNL A   1      34.711  32.628  30.728  1.00  0.00     0.042 C 
ENDROOT
BRANCH   1   2
ATOM      2  C   UNL A   1      34.797  32.676  29.209  1.00  0.00     0.118 C 
BRANCH   2   3
ATOM      3  N   UNL A   1      34.021  31.636  28.543  1.00  0.00    -0.352 N 
ATOM      4  O   UNL A   1      33.581  29.756  27.390  1.00  0.00    -0.269 OA
ATOM      5  C   UNL A   1      34.401  30.421  28.018  1.00  0.00     0.251 C 
ATOM      6  H   UNL A   1      33.061  31.837  28.454  1.00  0.00     0.163 HD
BRANCH   5   7
ATOM      7  C   UNL A   1      35.791  29.932  28.167  1.00  0.00     0.039 A 
ATOM      8  C   UNL A   1      36.223  29.335  29.348  1.00  0.00     0.014 A 
ATOM      9  C   UNL A   1      36.684  30.075  27.099  1.00  0.00     0.014 A 
ATOM     10  C   UNL A   1      37.578  29.093  29.545  1.00  0.00     0.010 A 
ATOM     11  C   UNL A   1      38.029  29.718  27.258  1.00  0.00     0.010 A 
ATOM     12  C   UNL A   1      38.501  29.281  28.503  1.00  0.00    -0.014 A 
BRANCH  12  13
ATOM     13  C   UNL A   1      39.943  29.001  28.757  1.00  0.00     0.031 A 
ATOM     14  C   UNL A   1      40.815  29.994  29.483  1.00  0.00     0.074 A 
ATOM     15  C   UNL A   1      40.449  27.806  28.388  1.00  0.00     0.049 A 
ATOM     16  N   UNL A   1      42.068  29.877  29.844  1.00  0.00    -0.248 NA
ATOM     17  C   UNL A   1      40.212  31.288  29.838  1.00  0.00     0.031 C 
ATOM     18  C   UNL A   1      39.714  26.767  27.661  1.00  0.00     0.029 A 
ATOM     19  N   UNL A   1      41.682  27.247  28.604  1.00  0.00    -0.354 N 
ATOM     20  C   UNL A   1      42.413  31.087  30.436  1.00  0.00     0.074 A 
ATOM     21  C   UNL A   1      41.242  31.934  30.370  1.00  0.00     0.031 C 
ATOM     22  C   UNL A   1      40.481  25.673  27.561  1.00  0.00     0.029 A 
ATOM     23  C   UNL A   1      41.783  25.950  28.157  1.00  0.00     0.049 A 
ATOM     24  H   UNL A   1      42.425  27.727  29.037  1.00  0.00     0.167 HD
ATOM     25  C   UNL A   1      43.594  31.457  30.989  1.00  0.00     0.037 A 
ATOM     26  C   UNL A   1      42.806  25.077  28.217  1.00  0.00     0.037 A 
ATOM     27  C   UNL A   1      44.746  30.598  31.093  1.00  0.00     0.049 A 
ATOM     28  C   UNL A   1      44.091  25.499  28.867  1.00  0.00     0.074 A 
ATOM     29  C   UNL A   1      45.974  30.868  31.674  1.00  0.00     0.029 A 
ATOM     30  N   UNL A   1      44.811  29.298  30.614  1.00  0.00    -0.354 N 
ATOM     31  N   UNL A   1      44.388  26.642  29.436  1.00  0.00    -0.248 NA
ATOM     32  C   UNL A   1      45.181  24.516  28.879  1.00  0.00     0.031 C 
ATOM     33  C   UNL A   1      46.791  29.743  31.518  1.00  0.00     0.029 A 
ATOM     34  C   UNL A   1      46.060  28.758  30.875  1.00  0.00     0.049 A 
ATOM     35  H   UNL A   1      44.077  28.828  30.155  1.00  0.00     0.167 HD
ATOM     36  C   UNL A   1      45.695  26.512  29.887  1.00  0.00     0.074 A 
ATOM     37  C   UNL A   1      46.124  25.172  29.540  1.00  0.00     0.031 C 
ATOM     38  C   UNL A   1      46.471  27.421  30.526  1.00  0.00     0.037 A 
BRANCH  25  39
ATOM     39  C   UNL A   1      43.710  32.863  31.514  1.00  0.00     0.058 A 
ATOM     40  C   UNL A   1      43.518  33.167  32.870  1.00  0.00     0.135 A 
ATOM     41  C   UNL A   1      44.057  33.915  30.650  1.00  0.00     0.135 A 
ATOM     42  F   UNL A   1      43.171  32.203  33.737  1.00  0.00    -0.206 F 
ATOM     43  C   UNL A   1      43.639  34.470  33.349  1.00  0.00     0.059 A 
ATOM     44  C   UNL A   1      44.204  35.221  31.110  1.00  0.00     0.059 A 
ATOM     45  F   UNL A   1      44.255  33.679  29.343  1.00  0.00    -0.206 F 
ATOM     46  C   UNL A   1      43.978  35.491  32.459  1.00  0.00     0.060 A 
BRANCH  46  47
ATOM     47  S   UNL A   1      44.131  37.177  33.089  1.00  0.00     0.124 S 
ATOM     48  O   UNL A   1      42.922  37.292  33.900  1.00  0.00    -0.237 OA
ATOM     49  O   UNL A   1      45.387  37.123  33.830  1.00  0.00    -0.237 OA
ATOM     50  O   UNL A   1      44.154  37.991  31.878  1.00  0.00    -0.744 OA
ENDBRANCH  46  47
ENDBRANCH  25  39
BRANCH  26  51
ATOM     51  C   UNL A   1      42.641  23.711  27.656  1.00  0.00     0.058 A 
ATOM     52  C   UNL A   1      42.793  23.471  26.283  1.00  0.00     0.135 A 
ATOM     53  C   UNL A   1      42.365  22.614  28.487  1.00  0.00     0.135 A 
ATOM     54  F   UNL A   1      43.055  24.489  25.449  1.00  0.00    -0.206 F 
ATOM     55  C   UNL A   1      42.667  22.193  25.750  1.00  0.00     0.059 A 
ATOM     56  C   UNL A   1      42.259  21.323  27.981  1.00  0.00     0.059 A 
ATOM     57  F   UNL A   1      42.230  22.791  29.810  1.00  0.00    -0.206 F 
ATOM     58  C   UNL A   1      42.403  21.125  26.609  1.00  0.00     0.060 A 
BRANCH  58  59
ATOM     59  S   UNL A   1      42.306  19.458  25.921  1.00  0.00     0.124 S 
ATOM     60  O   UNL A   1      43.141  19.582  24.732  1.00  0.00    -0.237 OA
ATOM     61  O   UNL A   1      42.850  18.642  27.002  1.00  0.00    -0.237 OA
ATOM     62  O   UNL A   1      40.877  19.282  25.676  1.00  0.00    -0.744 OA
ENDBRANCH  58  59
ENDBRANCH  26  51
BRANCH  38  63
ATOM     63  C   UNL A   1      47.853  26.983  30.915  1.00  0.00     0.058 A 
ATOM     64  C   UNL A   1      48.965  27.247  30.101  1.00  0.00     0.135 A 
ATOM     65  C   UNL A   1      48.068  26.306  32.125  1.00  0.00     0.135 A 
ATOM     66  F   UNL A   1      48.809  27.886  28.930  1.00  0.00    -0.206 F 
ATOM     67  C   UNL A   1      50.242  26.829  30.459  1.00  0.00     0.059 A 
ATOM     68  C   UNL A   1      49.340  25.897  32.514  1.00  0.00     0.059 A 
ATOM     69  F   UNL A   1      47.038  26.037  32.944  1.00  0.00    -0.206 F 
ATOM     70  C   UNL A   1      50.419  26.149  31.666  1.00  0.00     0.060 A 
BRANCH  70  71
ATOM     71  S   UNL A   1      52.079  25.616  32.130  1.00  0.00     0.124 S 
ATOM     72  O   UNL A   1      52.293  26.365  33.365  1.00  0.00    -0.237 OA
ATOM     73  O   UNL A   1      51.919  24.174  32.283  1.00  0.00    -0.237 OA
ATOM     74  O   UNL A   1      52.897  26.031  30.993  1.00  0.00    -0.744 OA
ENDBRANCH  70  71
ENDBRANCH  38  63
ENDBRANCH  12  13
ENDBRANCH   5   7
ENDBRANCH   2   3
ENDBRANCH   1   2
BRANCH   1  75
ATOM     75  C   UNL A   1      35.974  32.145  31.424  1.00  0.00     0.118 C 
BRANCH  75  76
ATOM     76  N   UNL A   1      37.102  33.048  31.249  1.00  0.00    -0.352 N 
ATOM     77  C   UNL A   1      37.835  33.731  32.185  1.00  0.00     0.253 C 
ATOM     78  H   UNL A   1      37.383  33.189  30.316  1.00  0.00     0.163 HD
ATOM     79  O   UNL A   1      38.700  34.523  31.817  1.00  0.00    -0.269 OA
BRANCH  77  80
ATOM     80  C   UNL A   1      37.598  33.541  33.632  1.00  0.00     0.063 A 
ATOM     81  C   UNL A   1      36.521  34.254  34.181  1.00  0.00     0.016 A 
ATOM     82  C   UNL A   1      38.434  32.748  34.447  1.00  0.00     0.051 A 
ATOM     83  C   UNL A   1      36.230  34.151  35.539  1.00  0.00     0.001 A 
ATOM     84  C   UNL A   1      38.106  32.650  35.809  1.00  0.00     0.027 A 
ATOM     85  C   UNL A   1      37.019  33.342  36.350  1.00  0.00     0.002 A 
BRANCH  82  86
ATOM     86  N   UNL A   1      39.535  32.042  33.920  1.00  0.00    -0.355 N 
ATOM     87  H   UNL A   1      40.354  32.580  33.822  1.00  0.00     0.167 HD
BRANCH  86  88
ATOM     88  C   UNL A   1      39.668  30.703  33.512  1.00  0.00     0.039 A 
ATOM     89  C   UNL A   1      38.540  30.026  33.032  1.00  0.00     0.026 A 
ATOM     90  C   UNL A   1      40.892  30.020  33.531  1.00  0.00     0.039 A 
ATOM     91  C   UNL A   1      38.629  28.705  32.586  1.00  0.00     0.003 A 
ATOM     92  C   UNL A   1      40.997  28.690  33.094  1.00  0.00     0.058 A 
ATOM     93  C   UNL A   1      39.852  28.041  32.614  1.00  0.00     0.013 A 
BRANCH  92  94
ATOM     94  C   UNL A   1      42.325  27.971  33.113  1.00  0.00     0.416 C 
ATOM     95  F   UNL A   1      42.342  26.921  33.979  1.00  0.00    -0.166 F 
ATOM     96  F   UNL A   1      42.642  27.453  31.892  1.00  0.00    -0.166 F 
ATOM     97  F   UNL A   1      43.371  28.768  33.463  1.00  0.00    -0.166 F 
ENDBRANCH  92  94
ENDBRANCH  86  88
ENDBRANCH  82  86
ENDBRANCH  77  80
ENDBRANCH  75  76
ENDBRANCH   1  75
TORSDOF 16
ENDMDL
