MODEL 1
REMARK VINA RESULT:     -11.9      0.000      0.000
REMARK SMILES C=C(C(=O)NCCCNC(=O)c1ccc(-c2c3nc(c(-c4c(F)cc(S(=O)(=O)[O-])cc4F)c4ccc([nH]4)c(-c4c(F)cc(S(=O)(=O)[O-])cc4F)c4nc(c(-c5c(F)cc(S(=O)(=O)[O-])cc5F)c5ccc2[nH]5)C=C4)C=C3)cc1)[C@@H]1CC[C@]2(C)CCCC(=C)[C@H]2[C@H]1O
REMARK SMILES IDX 7 1 6 2 5 3 3 4 4 5 2 7 1 8 78 9 79 10 89 11 80 12 88 13
REMARK SMILES IDX 81 14 86 15 82 16 83 17 85 18 87 19 84 20 90 21 8 23 9 24
REMARK SMILES IDX 10 25 11 27 12 28 13 29 77 30 14 31 76 32 15 33 16 34 17 35
REMARK SMILES IDX 70 36 18 37 75 38 69 39 71 40 19 41 74 42 68 43 67 44 20 46
REMARK SMILES IDX 54 47 33 48 53 49 34 50 37 51 52 52 72 53 35 54 36 55 51 57
REMARK SMILES IDX 73 58 38 59 21 60 22 61 31 62 23 63 24 64 30 65 32 66 25 67
REMARK SMILES IDX 26 68 27 69 28 70 29 71 55 72 56 73 65 74 57 75 58 76 64 77
REMARK SMILES IDX 66 78 59 79 60 80 61 81 62 82 63 83 39 84 40 85 49 86 41 87
REMARK SMILES IDX 42 88 48 89 50 90 43 91 44 92 45 93 46 94 47 95
REMARK H PARENT 5 6 90 22 9 26 71 45 37 56
REMARK Flexibility Score: inf
ROOT
ATOM      1  C   UNL A   1      33.547  27.908  25.953  1.00  0.00     0.042 C 
ENDROOT
BRANCH   1   2
ATOM      2  C   UNL A   1      33.277  29.038  24.974  1.00  0.00     0.118 C 
BRANCH   2   3
ATOM      3  N   UNL A   1      33.933  28.855  23.687  1.00  0.00    -0.352 N 
ATOM      4  C   UNL A   1      33.531  28.187  22.568  1.00  0.00     0.246 C 
ATOM      5  O   UNL A   1      34.243  28.224  21.567  1.00  0.00    -0.270 OA
ATOM      6  H   UNL A   1      34.816  29.285  23.612  1.00  0.00     0.163 HD
BRANCH   4   7
ATOM      7  C   UNL A   1      32.242  27.438  22.550  1.00  0.00     0.015 C 
ATOM      8  C   UNL A   1      31.121  28.188  22.478  1.00  0.00     0.019 C 
BRANCH   7   9
ATOM      9  C   UNL A   1      32.238  25.920  22.318  1.00  0.00     0.053 C 
ATOM     10  C   UNL A   1      31.125  25.203  23.124  1.00  0.00     0.012 C 
ATOM     11  C   UNL A   1      33.570  25.097  22.468  1.00  0.00     0.129 C 
ATOM     12  C   UNL A   1      31.502  25.044  24.594  1.00  0.00     0.008 C 
ATOM     13  C   UNL A   1      33.939  24.740  23.947  1.00  0.00     0.050 C 
ATOM     14  C   UNL A   1      32.754  24.159  24.787  1.00  0.00    -0.024 C 
ATOM     15  C   UNL A   1      35.180  23.876  24.219  1.00  0.00    -0.071 C 
ATOM     16  C   UNL A   1      32.398  22.696  24.415  1.00  0.00     0.012 C 
ATOM     17  C   UNL A   1      33.155  24.202  26.293  1.00  0.00     0.008 C 
ATOM     18  C   UNL A   1      35.605  23.871  25.673  1.00  0.00     0.031 C 
ATOM     19  C   UNL A   1      35.849  23.132  23.322  1.00  0.00     0.008 C 
ATOM     20  C   UNL A   1      34.460  23.461  26.601  1.00  0.00     0.005 C 
BRANCH  11  21
ATOM     21  O   UNL A   1      33.477  23.922  21.641  1.00  0.00    -0.392 OA
ATOM     22  H   UNL A   1      33.823  23.156  22.126  1.00  0.00     0.211 HD
ENDBRANCH  11  21
ENDBRANCH   7   9
ENDBRANCH   4   7
ENDBRANCH   2   3
ENDBRANCH   1   2
BRANCH   1  23
ATOM     23  C   UNL A   1      33.423  28.293  27.421  1.00  0.00     0.118 C 
BRANCH  23  24
ATOM     24  N   UNL A   1      33.407  29.736  27.640  1.00  0.00    -0.352 N 
ATOM     25  C   UNL A   1      34.380  30.575  28.129  1.00  0.00     0.251 C 
ATOM     26  H   UNL A   1      32.563  30.180  27.398  1.00  0.00     0.163 HD
ATOM     27  O   UNL A   1      34.091  31.740  28.401  1.00  0.00    -0.269 OA
BRANCH  25  28
ATOM     28  C   UNL A   1      35.758  30.084  28.356  1.00  0.00     0.039 A 
ATOM     29  C   UNL A   1      36.675  30.106  27.301  1.00  0.00     0.014 A 
ATOM     30  C   UNL A   1      36.149  29.595  29.603  1.00  0.00     0.014 A 
ATOM     31  C   UNL A   1      38.000  29.719  27.525  1.00  0.00     0.010 A 
ATOM     32  C   UNL A   1      37.488  29.320  29.853  1.00  0.00     0.010 A 
ATOM     33  C   UNL A   1      38.429  29.368  28.815  1.00  0.00    -0.014 A 
BRANCH  33  34
ATOM     34  C   UNL A   1      39.848  29.030  29.104  1.00  0.00     0.031 A 
ATOM     35  C   UNL A   1      40.766  30.073  29.689  1.00  0.00     0.074 A 
ATOM     36  C   UNL A   1      40.330  27.817  28.766  1.00  0.00     0.049 A 
ATOM     37  N   UNL A   1      42.051  30.006  29.922  1.00  0.00    -0.248 NA
ATOM     38  C   UNL A   1      40.166  31.375  30.023  1.00  0.00     0.031 C 
ATOM     39  C   UNL A   1      39.555  26.742  28.139  1.00  0.00     0.029 A 
ATOM     40  N   UNL A   1      41.588  27.284  28.888  1.00  0.00    -0.354 N 
ATOM     41  C   UNL A   1      42.413  31.257  30.408  1.00  0.00     0.074 A 
ATOM     42  C   UNL A   1      41.227  32.083  30.376  1.00  0.00     0.031 C 
ATOM     43  C   UNL A   1      40.347  25.673  27.960  1.00  0.00     0.029 A 
ATOM     44  C   UNL A   1      41.695  25.997  28.414  1.00  0.00     0.049 A 
ATOM     45  H   UNL A   1      42.346  27.777  29.280  1.00  0.00     0.167 HD
ATOM     46  C   UNL A   1      43.618  31.672  30.868  1.00  0.00     0.037 A 
ATOM     47  C   UNL A   1      42.761  25.174  28.345  1.00  0.00     0.037 A 
ATOM     48  C   UNL A   1      44.785  30.833  30.927  1.00  0.00     0.049 A 
ATOM     49  C   UNL A   1      44.088  25.656  28.866  1.00  0.00     0.074 A 
ATOM     50  C   UNL A   1      46.037  31.133  31.433  1.00  0.00     0.029 A 
ATOM     51  N   UNL A   1      44.844  29.526  30.463  1.00  0.00    -0.354 N 
ATOM     52  N   UNL A   1      44.396  26.821  29.385  1.00  0.00    -0.248 NA
ATOM     53  C   UNL A   1      45.211  24.712  28.798  1.00  0.00     0.031 C 
ATOM     54  C   UNL A   1      46.867  30.026  31.230  1.00  0.00     0.029 A 
ATOM     55  C   UNL A   1      46.117  29.015  30.651  1.00  0.00     0.049 A 
ATOM     56  H   UNL A   1      44.092  29.035  30.061  1.00  0.00     0.167 HD
ATOM     57  C   UNL A   1      45.740  26.739  29.734  1.00  0.00     0.074 A 
ATOM     58  C   UNL A   1      46.181  25.406  29.377  1.00  0.00     0.031 C 
ATOM     59  C   UNL A   1      46.536  27.681  30.297  1.00  0.00     0.037 A 
BRANCH  46  60
ATOM     60  C   UNL A   1      43.731  33.094  31.352  1.00  0.00     0.058 A 
ATOM     61  C   UNL A   1      44.000  34.156  30.473  1.00  0.00     0.135 A 
ATOM     62  C   UNL A   1      43.538  33.404  32.709  1.00  0.00     0.135 A 
ATOM     63  F   UNL A   1      44.211  33.917  29.169  1.00  0.00    -0.206 F 
ATOM     64  C   UNL A   1      44.103  35.467  30.923  1.00  0.00     0.059 A 
ATOM     65  C   UNL A   1      43.604  34.714  33.176  1.00  0.00     0.059 A 
ATOM     66  F   UNL A   1      43.279  32.431  33.595  1.00  0.00    -0.206 F 
ATOM     67  C   UNL A   1      43.903  35.738  32.278  1.00  0.00     0.060 A 
BRANCH  67  68
ATOM     68  S   UNL A   1      44.032  37.447  32.843  1.00  0.00     0.124 S 
ATOM     69  O   UNL A   1      42.932  37.520  33.799  1.00  0.00    -0.237 OA
ATOM     70  O   UNL A   1      45.373  37.485  33.417  1.00  0.00    -0.237 OA
ATOM     71  O   UNL A   1      43.853  38.224  31.621  1.00  0.00    -0.744 OA
ENDBRANCH  67  68
ENDBRANCH  46  60
BRANCH  47  72
ATOM     72  C   UNL A   1      42.608  23.804  27.783  1.00  0.00     0.058 A 
ATOM     73  C   UNL A   1      42.669  23.581  26.399  1.00  0.00     0.135 A 
ATOM     74  C   UNL A   1      42.413  22.690  28.615  1.00  0.00     0.135 A 
ATOM     75  F   UNL A   1      42.847  24.614  25.561  1.00  0.00    -0.206 F 
ATOM     76  C   UNL A   1      42.524  22.307  25.857  1.00  0.00     0.059 A 
ATOM     77  C   UNL A   1      42.295  21.403  28.099  1.00  0.00     0.059 A 
ATOM     78  F   UNL A   1      42.367  22.845  29.947  1.00  0.00    -0.206 F 
ATOM     79  C   UNL A   1      42.340  21.224  26.717  1.00  0.00     0.060 A 
BRANCH  79  80
ATOM     80  S   UNL A   1      42.202  19.569  26.006  1.00  0.00     0.124 S 
ATOM     81  O   UNL A   1      43.097  19.665  24.859  1.00  0.00    -0.237 OA
ATOM     82  O   UNL A   1      42.659  18.725  27.105  1.00  0.00    -0.237 OA
ATOM     83  O   UNL A   1      40.781  19.457  25.690  1.00  0.00    -0.744 OA
ENDBRANCH  79  80
ENDBRANCH  47  72
BRANCH  59  84
ATOM     84  C   UNL A   1      47.958  27.294  30.602  1.00  0.00     0.058 A 
ATOM     85  C   UNL A   1      48.319  26.703  31.822  1.00  0.00     0.135 A 
ATOM     86  C   UNL A   1      48.960  27.465  29.632  1.00  0.00     0.135 A 
ATOM     87  F   UNL A   1      47.400  26.522  32.784  1.00  0.00    -0.206 F 
ATOM     88  C   UNL A   1      49.630  26.319  32.081  1.00  0.00     0.059 A 
ATOM     89  C   UNL A   1      50.271  27.060  29.859  1.00  0.00     0.059 A 
ATOM     90  F   UNL A   1      48.666  28.015  28.444  1.00  0.00    -0.206 F 
ATOM     91  C   UNL A   1      50.599  26.498  31.092  1.00  0.00     0.060 A 
BRANCH  91  92
ATOM     92  S   UNL A   1      52.289  25.961  31.428  1.00  0.00     0.124 S 
ATOM     93  O   UNL A   1      52.073  24.609  31.931  1.00  0.00    -0.237 OA
ATOM     94  O   UNL A   1      52.913  26.056  30.112  1.00  0.00    -0.237 OA
ATOM     95  O   UNL A   1      52.764  26.929  32.412  1.00  0.00    -0.744 OA
ENDBRANCH  91  92
ENDBRANCH  59  84
ENDBRANCH  33  34
ENDBRANCH  25  28
ENDBRANCH  23  24
ENDBRANCH   1  23
TORSDOF 15
ENDMDL
MODEL 2
REMARK VINA RESULT:     -11.7      4.828     10.437
REMARK SMILES C=C(C(=O)NCCCNC(=O)c1ccc(-c2c3nc(c(-c4c(F)cc(S(=O)(=O)[O-])cc4F)c4ccc([nH]4)c(-c4c(F)cc(S(=O)(=O)[O-])cc4F)c4nc(c(-c5c(F)cc(S(=O)(=O)[O-])cc5F)c5ccc2[nH]5)C=C4)C=C3)cc1)[C@@H]1CC[C@]2(C)CCCC(=C)[C@H]2[C@H]1O
REMARK SMILES IDX 7 1 6 2 5 3 3 4 4 5 2 7 1 8 78 9 79 10 89 11 80 12 88 13
REMARK SMILES IDX 81 14 86 15 82 16 83 17 85 18 87 19 84 20 90 21 8 23 9 24
REMARK SMILES IDX 10 25 11 27 12 28 13 29 77 30 14 31 76 32 15 33 16 34 17 35
REMARK SMILES IDX 70 36 18 37 75 38 69 39 71 40 19 41 74 42 68 43 67 44 20 46
REMARK SMILES IDX 54 47 33 48 53 49 34 50 37 51 52 52 72 53 35 54 36 55 51 57
REMARK SMILES IDX 73 58 38 59 21 60 22 61 31 62 23 63 24 64 30 65 32 66 25 67
REMARK SMILES IDX 26 68 27 69 28 70 29 71 55 72 56 73 65 74 57 75 58 76 64 77
REMARK SMILES IDX 66 78 59 79 60 80 61 81 62 82 63 83 39 84 40 85 49 86 41 87
REMARK SMILES IDX 42 88 48 89 50 90 43 91 44 92 45 93 46 94 47 95
REMARK H PARENT 5 6 90 22 9 26 71 45 37 56
REMARK Flexibility Score: inf
ROOT
ATOM      1  C   UNL A   1      37.124  23.722  25.182  1.00  0.00     0.042 C 
ENDROOT
BRANCH   1   2
ATOM      2  C   UNL A   1      36.521  22.327  25.194  1.00  0.00     0.118 C 
BRANCH   2   3
ATOM      3  N   UNL A   1      35.687  22.069  26.360  1.00  0.00    -0.352 N 
ATOM      4  C   UNL A   1      34.480  21.445  26.472  1.00  0.00     0.246 C 
ATOM      5  O   UNL A   1      33.991  21.293  27.589  1.00  0.00    -0.270 OA
ATOM      6  H   UNL A   1      36.056  22.402  27.210  1.00  0.00     0.163 HD
BRANCH   4   7
ATOM      7  C   UNL A   1      33.769  20.938  25.263  1.00  0.00     0.015 C 
ATOM      8  C   UNL A   1      34.104  19.695  24.855  1.00  0.00     0.019 C 
BRANCH   7   9
ATOM      9  C   UNL A   1      32.532  21.678  24.732  1.00  0.00     0.053 C 
ATOM     10  C   UNL A   1      32.632  21.980  23.215  1.00  0.00     0.012 C 
ATOM     11  C   UNL A   1      32.013  22.970  25.464  1.00  0.00     0.129 C 
ATOM     12  C   UNL A   1      33.546  23.168  22.932  1.00  0.00     0.008 C 
ATOM     13  C   UNL A   1      32.794  24.275  25.090  1.00  0.00     0.050 C 
ATOM     14  C   UNL A   1      33.017  24.479  23.555  1.00  0.00    -0.024 C 
ATOM     15  C   UNL A   1      32.335  25.615  25.684  1.00  0.00    -0.071 C 
ATOM     16  C   UNL A   1      31.732  24.910  22.801  1.00  0.00     0.012 C 
ATOM     17  C   UNL A   1      34.098  25.585  23.360  1.00  0.00     0.008 C 
ATOM     18  C   UNL A   1      33.346  26.730  25.508  1.00  0.00     0.031 C 
ATOM     19  C   UNL A   1      31.154  25.867  26.272  1.00  0.00     0.008 C 
ATOM     20  C   UNL A   1      33.749  26.910  24.045  1.00  0.00     0.005 C 
BRANCH  11  21
ATOM     21  O   UNL A   1      30.602  23.101  25.213  1.00  0.00    -0.392 OA
ATOM     22  H   UNL A   1      30.233  22.235  24.978  1.00  0.00     0.211 HD
ENDBRANCH  11  21
ENDBRANCH   7   9
ENDBRANCH   4   7
ENDBRANCH   2   3
ENDBRANCH   1   2
BRANCH   1  23
ATOM     23  C   UNL A   1      37.986  24.054  26.393  1.00  0.00     0.118 C 
BRANCH  23  24
ATOM     24  N   UNL A   1      39.409  23.830  26.168  1.00  0.00    -0.352 N 
ATOM     25  C   UNL A   1      40.503  24.545  26.595  1.00  0.00     0.251 C 
ATOM     26  H   UNL A   1      39.621  23.039  25.621  1.00  0.00     0.163 HD
ATOM     27  O   UNL A   1      41.615  24.278  26.137  1.00  0.00    -0.269 OA
BRANCH  25  28
ATOM     28  C   UNL A   1      40.353  25.643  27.575  1.00  0.00     0.039 A 
ATOM     29  C   UNL A   1      39.450  25.498  28.633  1.00  0.00     0.014 A 
ATOM     30  C   UNL A   1      41.095  26.819  27.454  1.00  0.00     0.014 A 
ATOM     31  C   UNL A   1      39.358  26.495  29.609  1.00  0.00     0.010 A 
ATOM     32  C   UNL A   1      41.086  27.755  28.482  1.00  0.00     0.010 A 
ATOM     33  C   UNL A   1      40.210  27.611  29.567  1.00  0.00    -0.014 A 
BRANCH  33  34
ATOM     34  C   UNL A   1      40.195  28.649  30.632  1.00  0.00     0.031 A 
ATOM     35  C   UNL A   1      41.111  28.519  31.822  1.00  0.00     0.074 A 
ATOM     36  C   UNL A   1      39.303  29.659  30.570  1.00  0.00     0.049 A 
ATOM     37  N   UNL A   1      41.181  29.261  32.896  1.00  0.00    -0.248 NA
ATOM     38  C   UNL A   1      42.049  27.384  31.819  1.00  0.00     0.031 C 
ATOM     39  C   UNL A   1      38.324  29.859  29.498  1.00  0.00     0.029 A 
ATOM     40  N   UNL A   1      39.065  30.700  31.431  1.00  0.00    -0.354 N 
ATOM     41  C   UNL A   1      42.150  28.673  33.700  1.00  0.00     0.074 A 
ATOM     42  C   UNL A   1      42.596  27.478  33.021  1.00  0.00     0.031 C 
ATOM     43  C   UNL A   1      37.613  30.970  29.753  1.00  0.00     0.029 A 
ATOM     44  C   UNL A   1      38.051  31.536  31.024  1.00  0.00     0.049 A 
ATOM     45  H   UNL A   1      39.574  30.838  32.263  1.00  0.00     0.167 HD
ATOM     46  C   UNL A   1      42.647  29.106  34.884  1.00  0.00     0.037 A 
ATOM     47  C   UNL A   1      37.527  32.630  31.612  1.00  0.00     0.037 A 
ATOM     48  C   UNL A   1      42.221  30.315  35.537  1.00  0.00     0.049 A 
ATOM     49  C   UNL A   1      38.098  33.094  32.926  1.00  0.00     0.074 A 
ATOM     50  C   UNL A   1      42.702  30.878  36.706  1.00  0.00     0.029 A 
ATOM     51  N   UNL A   1      41.211  31.149  35.078  1.00  0.00    -0.354 N 
ATOM     52  N   UNL A   1      39.062  32.561  33.639  1.00  0.00    -0.248 NA
ATOM     53  C   UNL A   1      37.515  34.308  33.512  1.00  0.00     0.031 C 
ATOM     54  C   UNL A   1      41.950  32.025  36.979  1.00  0.00     0.029 A 
ATOM     55  C   UNL A   1      41.039  32.210  35.952  1.00  0.00     0.049 A 
ATOM     56  H   UNL A   1      40.693  31.007  34.252  1.00  0.00     0.167 HD
ATOM     57  C   UNL A   1      39.223  33.394  34.742  1.00  0.00     0.074 A 
ATOM     58  C   UNL A   1      38.264  34.469  34.594  1.00  0.00     0.031 C 
ATOM     59  C   UNL A   1      40.085  33.277  35.783  1.00  0.00     0.037 A 
BRANCH  46  60
ATOM     60  C   UNL A   1      43.713  28.271  35.544  1.00  0.00     0.058 A 
ATOM     61  C   UNL A   1      45.076  28.441  35.246  1.00  0.00     0.135 A 
ATOM     62  C   UNL A   1      43.372  27.310  36.510  1.00  0.00     0.135 A 
ATOM     63  F   UNL A   1      45.459  29.333  34.318  1.00  0.00    -0.206 F 
ATOM     64  C   UNL A   1      46.057  27.669  35.856  1.00  0.00     0.059 A 
ATOM     65  C   UNL A   1      44.341  26.549  37.158  1.00  0.00     0.059 A 
ATOM     66  F   UNL A   1      42.087  27.104  36.834  1.00  0.00    -0.206 F 
ATOM     67  C   UNL A   1      45.681  26.725  36.813  1.00  0.00     0.060 A 
BRANCH  67  68
ATOM     68  S   UNL A   1      46.969  25.738  37.602  1.00  0.00     0.124 S 
ATOM     69  O   UNL A   1      46.385  24.402  37.550  1.00  0.00    -0.237 OA
ATOM     70  O   UNL A   1      48.114  25.963  36.725  1.00  0.00    -0.237 OA
ATOM     71  O   UNL A   1      47.079  26.323  38.935  1.00  0.00    -0.744 OA
ENDBRANCH  67  68
ENDBRANCH  46  60
BRANCH  47  72
ATOM     72  C   UNL A   1      36.420  33.372  30.952  1.00  0.00     0.058 A 
ATOM     73  C   UNL A   1      35.115  33.334  31.470  1.00  0.00     0.135 A 
ATOM     74  C   UNL A   1      36.640  34.145  29.801  1.00  0.00     0.135 A 
ATOM     75  F   UNL A   1      34.851  32.605  32.565  1.00  0.00    -0.206 F 
ATOM     76  C   UNL A   1      34.067  34.019  30.863  1.00  0.00     0.059 A 
ATOM     77  C   UNL A   1      35.615  34.862  29.192  1.00  0.00     0.059 A 
ATOM     78  F   UNL A   1      37.872  34.231  29.276  1.00  0.00    -0.206 F 
ATOM     79  C   UNL A   1      34.329  34.784  29.725  1.00  0.00     0.060 A 
BRANCH  79  80
ATOM     80  S   UNL A   1      32.971  35.707  28.972  1.00  0.00     0.124 S 
ATOM     81  O   UNL A   1      33.686  36.775  28.285  1.00  0.00    -0.237 OA
ATOM     82  O   UNL A   1      32.352  34.698  28.118  1.00  0.00    -0.237 OA
ATOM     83  O   UNL A   1      32.170  36.121  30.121  1.00  0.00    -0.744 OA
ENDBRANCH  79  80
ENDBRANCH  47  72
BRANCH  59  84
ATOM     84  C   UNL A   1      40.061  34.361  36.826  1.00  0.00     0.058 A 
ATOM     85  C   UNL A   1      40.888  35.491  36.739  1.00  0.00     0.135 A 
ATOM     86  C   UNL A   1      39.153  34.292  37.897  1.00  0.00     0.135 A 
ATOM     87  F   UNL A   1      41.776  35.603  35.739  1.00  0.00    -0.206 F 
ATOM     88  C   UNL A   1      40.835  36.504  37.691  1.00  0.00     0.059 A 
ATOM     89  C   UNL A   1      39.062  35.308  38.842  1.00  0.00     0.059 A 
ATOM     90  F   UNL A   1      38.332  33.238  38.021  1.00  0.00    -0.206 F 
ATOM     91  C   UNL A   1      39.916  36.405  38.737  1.00  0.00     0.060 A 
BRANCH  91  92
ATOM     92  S   UNL A   1      39.833  37.743  39.946  1.00  0.00     0.124 S 
ATOM     93  O   UNL A   1      41.075  38.460  39.674  1.00  0.00    -0.237 OA
ATOM     94  O   UNL A   1      38.605  38.433  39.561  1.00  0.00    -0.237 OA
ATOM     95  O   UNL A   1      39.778  37.044  41.225  1.00  0.00    -0.744 OA
ENDBRANCH  91  92
ENDBRANCH  59  84
ENDBRANCH  33  34
ENDBRANCH  25  28
ENDBRANCH  23  24
ENDBRANCH   1  23
TORSDOF 15
ENDMDL
MODEL 3
REMARK VINA RESULT:     -11.5      1.256      2.195
REMARK SMILES C=C(C(=O)NCCCNC(=O)c1ccc(-c2c3nc(c(-c4c(F)cc(S(=O)(=O)[O-])cc4F)c4ccc([nH]4)c(-c4c(F)cc(S(=O)(=O)[O-])cc4F)c4nc(c(-c5c(F)cc(S(=O)(=O)[O-])cc5F)c5ccc2[nH]5)C=C4)C=C3)cc1)[C@@H]1CC[C@]2(C)CCCC(=C)[C@H]2[C@H]1O
REMARK SMILES IDX 7 1 6 2 5 3 3 4 4 5 2 7 1 8 78 9 79 10 89 11 80 12 88 13
REMARK SMILES IDX 81 14 86 15 82 16 83 17 85 18 87 19 84 20 90 21 8 23 9 24
REMARK SMILES IDX 10 25 11 27 12 28 13 29 77 30 14 31 76 32 15 33 16 34 17 35
REMARK SMILES IDX 70 36 18 37 75 38 69 39 71 40 19 41 74 42 68 43 67 44 20 46
REMARK SMILES IDX 54 47 33 48 53 49 34 50 37 51 52 52 72 53 35 54 36 55 51 57
REMARK SMILES IDX 73 58 38 59 21 60 22 61 31 62 23 63 24 64 30 65 32 66 25 67
REMARK SMILES IDX 26 68 27 69 28 70 29 71 55 72 56 73 65 74 57 75 58 76 64 77
REMARK SMILES IDX 66 78 59 79 60 80 61 81 62 82 63 83 39 84 40 85 49 86 41 87
REMARK SMILES IDX 42 88 48 89 50 90 43 91 44 92 45 93 46 94 47 95
REMARK H PARENT 5 6 90 22 9 26 71 45 37 56
REMARK Flexibility Score: inf
ROOT
ATOM      1  C   UNL A   1      32.202  27.967  26.681  1.00  0.00     0.042 C 
ENDROOT
BRANCH   1   2
ATOM      2  C   UNL A   1      32.126  27.547  25.223  1.00  0.00     0.118 C 
BRANCH   2   3
ATOM      3  N   UNL A   1      30.773  27.238  24.781  1.00  0.00    -0.352 N 
ATOM      4  C   UNL A   1      30.227  26.074  24.330  1.00  0.00     0.246 C 
ATOM      5  O   UNL A   1      29.027  26.043  24.068  1.00  0.00    -0.270 OA
ATOM      6  H   UNL A   1      30.148  27.998  24.814  1.00  0.00     0.163 HD
BRANCH   4   7
ATOM      7  C   UNL A   1      31.065  24.850  24.171  1.00  0.00     0.015 C 
ATOM      8  C   UNL A   1      31.966  24.875  23.166  1.00  0.00     0.019 C 
BRANCH   7   9
ATOM      9  C   UNL A   1      31.090  23.786  25.279  1.00  0.00     0.053 C 
ATOM     10  C   UNL A   1      31.707  24.322  26.596  1.00  0.00     0.012 C 
ATOM     11  C   UNL A   1      31.693  22.363  24.990  1.00  0.00     0.129 C 
ATOM     12  C   UNL A   1      33.230  24.381  26.527  1.00  0.00     0.008 C 
ATOM     13  C   UNL A   1      33.255  22.300  25.073  1.00  0.00     0.050 C 
ATOM     14  C   UNL A   1      33.864  22.985  26.340  1.00  0.00    -0.024 C 
ATOM     15  C   UNL A   1      33.958  20.947  24.882  1.00  0.00    -0.071 C 
ATOM     16  C   UNL A   1      33.660  22.162  27.639  1.00  0.00     0.012 C 
ATOM     17  C   UNL A   1      35.394  23.170  26.108  1.00  0.00     0.008 C 
ATOM     18  C   UNL A   1      35.453  21.070  24.666  1.00  0.00     0.031 C 
ATOM     19  C   UNL A   1      33.385  19.734  24.934  1.00  0.00     0.008 C 
ATOM     20  C   UNL A   1      36.127  21.864  25.785  1.00  0.00     0.005 C 
BRANCH  11  21
ATOM     21  O   UNL A   1      31.071  21.415  25.878  1.00  0.00    -0.392 OA
ATOM     22  H   UNL A   1      31.747  20.821  26.243  1.00  0.00     0.211 HD
ENDBRANCH  11  21
ENDBRANCH   7   9
ENDBRANCH   4   7
ENDBRANCH   2   3
ENDBRANCH   1   2
BRANCH   1  23
ATOM     23  C   UNL A   1      33.557  28.507  27.119  1.00  0.00     0.118 C 
BRANCH  23  24
ATOM     24  N   UNL A   1      33.510  29.897  27.559  1.00  0.00    -0.352 N 
ATOM     25  C   UNL A   1      34.451  30.659  28.210  1.00  0.00     0.251 C 
ATOM     26  H   UNL A   1      32.668  30.365  27.356  1.00  0.00     0.163 HD
ATOM     27  O   UNL A   1      34.134  31.765  28.648  1.00  0.00    -0.269 OA
BRANCH  25  28
ATOM     28  C   UNL A   1      35.826  30.152  28.411  1.00  0.00     0.039 A 
ATOM     29  C   UNL A   1      36.718  30.141  27.334  1.00  0.00     0.014 A 
ATOM     30  C   UNL A   1      36.242  29.680  29.658  1.00  0.00     0.014 A 
ATOM     31  C   UNL A   1      38.042  29.740  27.532  1.00  0.00     0.010 A 
ATOM     32  C   UNL A   1      37.583  29.390  29.879  1.00  0.00     0.010 A 
ATOM     33  C   UNL A   1      38.498  29.406  28.818  1.00  0.00    -0.014 A 
BRANCH  33  34
ATOM     34  C   UNL A   1      39.919  29.052  29.077  1.00  0.00     0.031 A 
ATOM     35  C   UNL A   1      40.862  30.087  29.635  1.00  0.00     0.074 A 
ATOM     36  C   UNL A   1      40.378  27.831  28.736  1.00  0.00     0.049 A 
ATOM     37  N   UNL A   1      42.150  30.006  29.841  1.00  0.00    -0.248 NA
ATOM     38  C   UNL A   1      40.285  31.399  29.975  1.00  0.00     0.031 C 
ATOM     39  C   UNL A   1      39.577  26.763  28.133  1.00  0.00     0.029 A 
ATOM     40  N   UNL A   1      41.633  27.284  28.834  1.00  0.00    -0.354 N 
ATOM     41  C   UNL A   1      42.538  31.256  30.311  1.00  0.00     0.074 A 
ATOM     42  C   UNL A   1      41.362  32.096  30.300  1.00  0.00     0.031 C 
ATOM     43  C   UNL A   1      40.352  25.683  27.943  1.00  0.00     0.029 A 
ATOM     44  C   UNL A   1      41.714  25.993  28.365  1.00  0.00     0.049 A 
ATOM     45  H   UNL A   1      42.405  27.770  29.206  1.00  0.00     0.167 HD
ATOM     46  C   UNL A   1      43.758  31.659  30.742  1.00  0.00     0.037 A 
ATOM     47  C   UNL A   1      42.767  25.157  28.278  1.00  0.00     0.037 A 
ATOM     48  C   UNL A   1      44.916  30.806  30.780  1.00  0.00     0.049 A 
ATOM     49  C   UNL A   1      44.112  25.625  28.767  1.00  0.00     0.074 A 
ATOM     50  C   UNL A   1      46.182  31.094  31.257  1.00  0.00     0.029 A 
ATOM     51  N   UNL A   1      44.949  29.496  30.323  1.00  0.00    -0.354 N 
ATOM     52  N   UNL A   1      44.445  26.790  29.271  1.00  0.00    -0.248 NA
ATOM     53  C   UNL A   1      45.222  24.667  28.679  1.00  0.00     0.031 C 
ATOM     54  C   UNL A   1      46.994  29.976  31.043  1.00  0.00     0.029 A 
ATOM     55  C   UNL A   1      46.220  28.970  30.486  1.00  0.00     0.049 A 
ATOM     56  H   UNL A   1      44.182  29.011  29.940  1.00  0.00     0.167 HD
ATOM     57  C   UNL A   1      45.795  26.694  29.591  1.00  0.00     0.074 A 
ATOM     58  C   UNL A   1      46.212  25.354  29.233  1.00  0.00     0.031 C 
ATOM     59  C   UNL A   1      46.615  27.629  30.132  1.00  0.00     0.037 A 
BRANCH  46  60
ATOM     60  C   UNL A   1      43.899  33.082  31.215  1.00  0.00     0.058 A 
ATOM     61  C   UNL A   1      44.132  34.140  30.320  1.00  0.00     0.135 A 
ATOM     62  C   UNL A   1      43.768  33.398  32.577  1.00  0.00     0.135 A 
ATOM     63  F   UNL A   1      44.283  33.895  29.008  1.00  0.00    -0.206 F 
ATOM     64  C   UNL A   1      44.261  35.452  30.759  1.00  0.00     0.059 A 
ATOM     65  C   UNL A   1      43.861  34.710  33.036  1.00  0.00     0.059 A 
ATOM     66  F   UNL A   1      43.546  32.429  33.478  1.00  0.00    -0.206 F 
ATOM     67  C   UNL A   1      44.123  35.728  32.121  1.00  0.00     0.060 A 
BRANCH  67  68
ATOM     68  S   UNL A   1      44.284  37.439  32.673  1.00  0.00     0.124 S 
ATOM     69  O   UNL A   1      43.169  37.549  33.608  1.00  0.00    -0.237 OA
ATOM     70  O   UNL A   1      45.616  37.449  33.271  1.00  0.00    -0.237 OA
ATOM     71  O   UNL A   1      44.148  38.209  31.441  1.00  0.00    -0.744 OA
ENDBRANCH  67  68
ENDBRANCH  46  60
BRANCH  47  72
ATOM     72  C   UNL A   1      42.587  23.786  27.728  1.00  0.00     0.058 A 
ATOM     73  C   UNL A   1      42.448  22.678  28.579  1.00  0.00     0.135 A 
ATOM     74  C   UNL A   1      42.535  23.554  26.344  1.00  0.00     0.135 A 
ATOM     75  F   UNL A   1      42.497  22.846  29.910  1.00  0.00    -0.206 F 
ATOM     76  C   UNL A   1      42.283  21.390  28.081  1.00  0.00     0.059 A 
ATOM     77  C   UNL A   1      42.341  22.279  25.822  1.00  0.00     0.059 A 
ATOM     78  F   UNL A   1      42.643  24.580  25.486  1.00  0.00    -0.206 F 
ATOM     79  C   UNL A   1      42.227  21.201  26.699  1.00  0.00     0.060 A 
BRANCH  79  80
ATOM     80  S   UNL A   1      41.964  19.530  26.065  1.00  0.00     0.124 S 
ATOM     81  O   UNL A   1      42.354  18.716  27.209  1.00  0.00    -0.237 OA
ATOM     82  O   UNL A   1      40.540  19.546  25.745  1.00  0.00    -0.237 OA
ATOM     83  O   UNL A   1      42.856  19.466  24.910  1.00  0.00    -0.744 OA
ENDBRANCH  79  80
ENDBRANCH  47  72
BRANCH  59  84
ATOM     84  C   UNL A   1      48.038  27.227  30.407  1.00  0.00     0.058 A 
ATOM     85  C   UNL A   1      49.073  27.492  29.498  1.00  0.00     0.135 A 
ATOM     86  C   UNL A   1      48.376  26.618  31.628  1.00  0.00     0.135 A 
ATOM     87  F   UNL A   1      48.802  28.067  28.315  1.00  0.00    -0.206 F 
ATOM     88  C   UNL A   1      50.390  27.146  29.777  1.00  0.00     0.059 A 
ATOM     89  C   UNL A   1      49.692  26.292  31.940  1.00  0.00     0.059 A 
ATOM     90  F   UNL A   1      47.427  26.352  32.538  1.00  0.00    -0.206 F 
ATOM     91  C   UNL A   1      50.691  26.549  31.002  1.00  0.00     0.060 A 
BRANCH  91  92
ATOM     92  S   UNL A   1      52.410  26.137  31.366  1.00  0.00     0.124 S 
ATOM     93  O   UNL A   1      52.991  26.098  30.028  1.00  0.00    -0.237 OA
ATOM     94  O   UNL A   1      52.827  27.256  32.206  1.00  0.00    -0.237 OA
ATOM     95  O   UNL A   1      52.315  24.850  32.047  1.00  0.00    -0.744 OA
ENDBRANCH  91  92
ENDBRANCH  59  84
ENDBRANCH  33  34
ENDBRANCH  25  28
ENDBRANCH  23  24
ENDBRANCH   1  23
TORSDOF 15
ENDMDL
