MODEL 1
REMARK VINA RESULT:     -11.3      0.000      0.000
REMARK SMILES C[C@@H]([NH2+][C@H]1CCOC2(CCOCC2)C1)C(=O)NCCCNC(=O)c1ccc(-c2c3nc(c(-c4c(F)cc(S(=O)(=O)[O-])cc4F)c4ccc([nH]4)c(-c4c(F)cc(S(=O)(=O)[O-])cc4F)c4nc(c(-c5c(F)cc(S(=O)(=O)[O-])cc5F)c5ccc2[nH]5)C=C4)C=C3)cc1
REMARK SMILES IDX 19 1 18 2 17 3 15 4 16 5 2 7 1 8 3 9 4 12 5 13 14 14 6 15
REMARK SMILES IDX 8 16 7 17 9 18 13 19 10 20 12 21 11 22 20 23 21 24 22 25
REMARK SMILES IDX 23 27 24 28 25 29 89 30 26 31 88 32 27 33 28 34 29 35 82 36
REMARK SMILES IDX 30 37 87 38 81 39 83 40 31 41 86 42 80 43 79 44 32 46 66 47
REMARK SMILES IDX 45 48 65 49 46 50 49 51 64 52 84 53 47 54 48 55 63 57 85 58
REMARK SMILES IDX 50 59 33 60 34 61 43 62 35 63 36 64 42 65 44 66 37 67 38 68
REMARK SMILES IDX 39 69 40 70 41 71 67 72 68 73 77 74 69 75 70 76 76 77 78 78
REMARK SMILES IDX 71 79 72 80 73 81 74 82 75 83 51 84 52 85 61 86 53 87 54 88
REMARK SMILES IDX 60 89 62 90 55 91 56 92 57 93 58 94 59 95
REMARK H PARENT 17 6 3 10 3 11 21 26 83 45 49 56
REMARK Flexibility Score: inf
ROOT
ATOM      1  C   UNL A   1      35.131  33.115  27.895  1.00  0.00     0.042 C 
ENDROOT
BRANCH   1   2
ATOM      2  C   UNL A   1      35.204  34.548  28.387  1.00  0.00     0.118 C 
BRANCH   2   3
ATOM      3  N   UNL A   1      33.917  35.219  28.327  1.00  0.00    -0.351 N 
ATOM      4  C   UNL A   1      33.204  35.826  29.315  1.00  0.00     0.277 C 
ATOM      5  O   UNL A   1      32.154  36.396  28.995  1.00  0.00    -0.268 OA
ATOM      6  H   UNL A   1      33.496  35.237  27.437  1.00  0.00     0.163 HD
BRANCH   4   7
ATOM      7  C   UNL A   1      33.675  35.830  30.784  1.00  0.00     0.269 C 
ATOM      8  C   UNL A   1      32.859  36.835  31.594  1.00  0.00     0.086 C 
BRANCH   7   9
ATOM      9  N   UNL A   1      33.642  34.485  31.411  1.00  0.00    -0.334 N 
ATOM     10  H   UNL A   1      33.639  33.785  30.668  1.00  0.00     0.347 HD
ATOM     11  H   UNL A   1      32.801  34.444  31.986  1.00  0.00     0.347 HD
BRANCH   9  12
ATOM     12  C   UNL A   1      34.785  34.220  32.295  1.00  0.00     0.188 C 
ATOM     13  C   UNL A   1      34.469  34.432  33.775  1.00  0.00     0.093 C 
ATOM     14  C   UNL A   1      35.215  32.762  32.114  1.00  0.00     0.100 C 
ATOM     15  C   UNL A   1      35.686  34.046  34.615  1.00  0.00     0.167 C 
ATOM     16  C   UNL A   1      36.446  32.430  32.969  1.00  0.00     0.078 C 
ATOM     17  O   UNL A   1      36.142  32.717  34.347  1.00  0.00    -0.374 OA
ATOM     18  C   UNL A   1      37.708  33.180  32.489  1.00  0.00     0.064 C 
ATOM     19  C   UNL A   1      36.717  30.916  32.860  1.00  0.00     0.064 C 
ATOM     20  C   UNL A   1      38.952  32.675  33.207  1.00  0.00     0.163 C 
ATOM     21  C   UNL A   1      38.024  30.530  33.538  1.00  0.00     0.163 C 
ATOM     22  O   UNL A   1      39.115  31.274  32.997  1.00  0.00    -0.381 OA
ENDBRANCH   9  12
ENDBRANCH   7   9
ENDBRANCH   4   7
ENDBRANCH   2   3
ENDBRANCH   1   2
BRANCH   1  23
ATOM     23  C   UNL A   1      34.391  32.191  28.853  1.00  0.00     0.118 C 
BRANCH  23  24
ATOM     24  N   UNL A   1      33.916  30.967  28.214  1.00  0.00    -0.352 N 
ATOM     25  C   UNL A   1      34.624  29.863  27.803  1.00  0.00     0.251 C 
ATOM     26  H   UNL A   1      32.947  30.926  28.052  1.00  0.00     0.163 HD
ATOM     27  O   UNL A   1      34.079  29.001  27.119  1.00  0.00    -0.269 OA
BRANCH  25  28
ATOM     28  C   UNL A   1      36.048  29.735  28.170  1.00  0.00     0.039 A 
ATOM     29  C   UNL A   1      36.387  29.321  29.460  1.00  0.00     0.014 A 
ATOM     30  C   UNL A   1      37.044  29.993  27.226  1.00  0.00     0.014 A 
ATOM     31  C   UNL A   1      37.726  29.076  29.773  1.00  0.00     0.010 A 
ATOM     32  C   UNL A   1      38.361  29.661  27.509  1.00  0.00     0.010 A 
ATOM     33  C   UNL A   1      38.715  29.199  28.786  1.00  0.00    -0.014 A 
BRANCH  33  34
ATOM     34  C   UNL A   1      40.134  28.851  29.049  1.00  0.00     0.031 A 
ATOM     35  C   UNL A   1      41.070  29.903  29.578  1.00  0.00     0.074 A 
ATOM     36  C   UNL A   1      40.597  27.631  28.715  1.00  0.00     0.049 A 
ATOM     37  N   UNL A   1      42.367  29.851  29.734  1.00  0.00    -0.248 NA
ATOM     38  C   UNL A   1      40.472  31.197  29.947  1.00  0.00     0.031 C 
ATOM     39  C   UNL A   1      39.794  26.544  28.147  1.00  0.00     0.029 A 
ATOM     40  N   UNL A   1      41.863  27.104  28.785  1.00  0.00    -0.354 N 
ATOM     41  C   UNL A   1      42.742  31.109  30.190  1.00  0.00     0.074 A 
ATOM     42  C   UNL A   1      41.544  31.917  30.240  1.00  0.00     0.031 C 
ATOM     43  C   UNL A   1      40.582  25.478  27.935  1.00  0.00     0.029 A 
ATOM     44  C   UNL A   1      41.952  25.816  28.309  1.00  0.00     0.049 A 
ATOM     45  H   UNL A   1      42.634  27.601  29.142  1.00  0.00     0.167 HD
ATOM     46  C   UNL A   1      43.971  31.543  30.556  1.00  0.00     0.037 A 
ATOM     47  C   UNL A   1      43.021  25.007  28.174  1.00  0.00     0.037 A 
ATOM     48  C   UNL A   1      45.149  30.719  30.541  1.00  0.00     0.049 A 
ATOM     49  C   UNL A   1      44.375  25.507  28.598  1.00  0.00     0.074 A 
ATOM     50  C   UNL A   1      46.429  31.041  30.954  1.00  0.00     0.029 A 
ATOM     51  N   UNL A   1      45.191  29.407  30.092  1.00  0.00    -0.354 N 
ATOM     52  N   UNL A   1      44.703  26.681  29.082  1.00  0.00    -0.248 NA
ATOM     53  C   UNL A   1      45.502  24.575  28.462  1.00  0.00     0.031 C 
ATOM     54  C   UNL A   1      47.254  29.935  30.720  1.00  0.00     0.029 A 
ATOM     55  C   UNL A   1      46.478  28.910  30.203  1.00  0.00     0.049 A 
ATOM     56  H   UNL A   1      44.419  28.904  29.745  1.00  0.00     0.167 HD
ATOM     57  C   UNL A   1      46.068  26.621  29.333  1.00  0.00     0.074 A 
ATOM     58  C   UNL A   1      46.504  25.291  28.954  1.00  0.00     0.031 C 
ATOM     59  C   UNL A   1      46.887  27.577  29.836  1.00  0.00     0.037 A 
BRANCH  46  60
ATOM     60  C   UNL A   1      44.099  32.970  31.013  1.00  0.00     0.058 A 
ATOM     61  C   UNL A   1      43.958  33.326  32.363  1.00  0.00     0.135 A 
ATOM     62  C   UNL A   1      44.392  33.990  30.094  1.00  0.00     0.135 A 
ATOM     63  F   UNL A   1      43.662  32.393  33.282  1.00  0.00    -0.206 F 
ATOM     64  C   UNL A   1      44.074  34.647  32.783  1.00  0.00     0.059 A 
ATOM     65  C   UNL A   1      44.540  35.315  30.495  1.00  0.00     0.059 A 
ATOM     66  F   UNL A   1      44.535  33.705  28.790  1.00  0.00    -0.206 F 
ATOM     67  C   UNL A   1      44.363  35.635  31.841  1.00  0.00     0.060 A 
BRANCH  67  68
ATOM     68  S   UNL A   1      44.512  37.344  32.402  1.00  0.00     0.124 S 
ATOM     69  O   UNL A   1      45.784  37.304  33.118  1.00  0.00    -0.237 OA
ATOM     70  O   UNL A   1      44.517  38.087  31.144  1.00  0.00    -0.237 OA
ATOM     71  O   UNL A   1      43.329  37.534  33.233  1.00  0.00    -0.744 OA
ENDBRANCH  67  68
ENDBRANCH  46  60
BRANCH  47  72
ATOM     72  C   UNL A   1      42.846  23.633  27.632  1.00  0.00     0.058 A 
ATOM     73  C   UNL A   1      42.640  22.543  28.491  1.00  0.00     0.135 A 
ATOM     74  C   UNL A   1      42.863  23.383  26.251  1.00  0.00     0.135 A 
ATOM     75  F   UNL A   1      42.622  22.730  29.819  1.00  0.00    -0.206 F 
ATOM     76  C   UNL A   1      42.469  21.252  28.001  1.00  0.00     0.059 A 
ATOM     77  C   UNL A   1      42.671  22.105  25.736  1.00  0.00     0.059 A 
ATOM     78  F   UNL A   1      43.039  24.395  25.387  1.00  0.00    -0.206 F 
ATOM     79  C   UNL A   1      42.484  21.043  26.621  1.00  0.00     0.060 A 
BRANCH  79  80
ATOM     80  S   UNL A   1      42.209  19.372  25.994  1.00  0.00     0.124 S 
ATOM     81  O   UNL A   1      42.691  18.559  27.105  1.00  0.00    -0.237 OA
ATOM     82  O   UNL A   1      40.767  19.361  25.772  1.00  0.00    -0.237 OA
ATOM     83  O   UNL A   1      43.022  19.332  24.781  1.00  0.00    -0.744 OA
ENDBRANCH  79  80
ENDBRANCH  47  72
BRANCH  59  84
ATOM     84  C   UNL A   1      48.330  27.219  30.045  1.00  0.00     0.058 A 
ATOM     85  C   UNL A   1      49.304  27.487  29.073  1.00  0.00     0.135 A 
ATOM     86  C   UNL A   1      48.753  26.676  31.270  1.00  0.00     0.135 A 
ATOM     87  F   UNL A   1      48.949  27.997  27.883  1.00  0.00    -0.206 F 
ATOM     88  C   UNL A   1      50.651  27.225  29.305  1.00  0.00     0.059 A 
ATOM     89  C   UNL A   1      50.096  26.429  31.533  1.00  0.00     0.059 A 
ATOM     90  F   UNL A   1      47.859  26.410  32.236  1.00  0.00    -0.206 F 
ATOM     91  C   UNL A   1      51.038  26.702  30.541  1.00  0.00     0.060 A 
BRANCH  91  92
ATOM     92  S   UNL A   1      52.794  26.428  30.852  1.00  0.00     0.124 S 
ATOM     93  O   UNL A   1      52.762  25.230  31.685  1.00  0.00    -0.237 OA
ATOM     94  O   UNL A   1      53.327  26.250  29.505  1.00  0.00    -0.237 OA
ATOM     95  O   UNL A   1      53.214  27.653  31.529  1.00  0.00    -0.744 OA
ENDBRANCH  91  92
ENDBRANCH  59  84
ENDBRANCH  33  34
ENDBRANCH  25  28
ENDBRANCH  23  24
ENDBRANCH   1  23
TORSDOF 15
ENDMDL
MODEL 2
REMARK VINA RESULT:     -11.3      3.536     11.808
REMARK SMILES C[C@@H]([NH2+][C@H]1CCOC2(CCOCC2)C1)C(=O)NCCCNC(=O)c1ccc(-c2c3nc(c(-c4c(F)cc(S(=O)(=O)[O-])cc4F)c4ccc([nH]4)c(-c4c(F)cc(S(=O)(=O)[O-])cc4F)c4nc(c(-c5c(F)cc(S(=O)(=O)[O-])cc5F)c5ccc2[nH]5)C=C4)C=C3)cc1
REMARK SMILES IDX 19 1 18 2 17 3 15 4 16 5 2 7 1 8 3 9 4 12 5 13 14 14 6 15
REMARK SMILES IDX 8 16 7 17 9 18 13 19 10 20 12 21 11 22 20 23 21 24 22 25
REMARK SMILES IDX 23 27 24 28 25 29 89 30 26 31 88 32 27 33 28 34 29 35 82 36
REMARK SMILES IDX 30 37 87 38 81 39 83 40 31 41 86 42 80 43 79 44 32 46 66 47
REMARK SMILES IDX 45 48 65 49 46 50 49 51 64 52 84 53 47 54 48 55 63 57 85 58
REMARK SMILES IDX 50 59 33 60 34 61 43 62 35 63 36 64 42 65 44 66 37 67 38 68
REMARK SMILES IDX 39 69 40 70 41 71 67 72 68 73 77 74 69 75 70 76 76 77 78 78
REMARK SMILES IDX 71 79 72 80 73 81 74 82 75 83 51 84 52 85 61 86 53 87 54 88
REMARK SMILES IDX 60 89 62 90 55 91 56 92 57 93 58 94 59 95
REMARK H PARENT 17 6 3 10 3 11 21 26 83 45 49 56
REMARK Flexibility Score: inf
ROOT
ATOM      1  C   UNL A   1      40.645  20.155  26.185  1.00  0.00     0.042 C 
ENDROOT
BRANCH   1   2
ATOM      2  C   UNL A   1      41.919  19.642  26.829  1.00  0.00     0.118 C 
BRANCH   2   3
ATOM      3  N   UNL A   1      42.678  18.778  25.941  1.00  0.00    -0.351 N 
ATOM      4  C   UNL A   1      43.854  19.010  25.294  1.00  0.00     0.277 C 
ATOM      5  O   UNL A   1      44.341  18.079  24.642  1.00  0.00    -0.268 OA
ATOM      6  H   UNL A   1      42.282  17.891  25.782  1.00  0.00     0.163 HD
BRANCH   4   7
ATOM      7  C   UNL A   1      44.578  20.371  25.369  1.00  0.00     0.269 C 
ATOM      8  C   UNL A   1      46.034  20.214  24.935  1.00  0.00     0.086 C 
BRANCH   7   9
ATOM      9  N   UNL A   1      43.899  21.435  24.589  1.00  0.00    -0.334 N 
ATOM     10  H   UNL A   1      42.948  21.126  24.382  1.00  0.00     0.347 HD
ATOM     11  H   UNL A   1      44.450  21.586  23.745  1.00  0.00     0.347 HD
BRANCH   9  12
ATOM     12  C   UNL A   1      43.825  22.723  25.292  1.00  0.00     0.188 C 
ATOM     13  C   UNL A   1      43.979  22.597  26.808  1.00  0.00     0.093 C 
ATOM     14  C   UNL A   1      44.951  23.625  24.782  1.00  0.00     0.100 C 
ATOM     15  C   UNL A   1      43.978  23.990  27.436  1.00  0.00     0.167 C 
ATOM     16  C   UNL A   1      44.898  25.014  25.435  1.00  0.00     0.078 C 
ATOM     17  O   UNL A   1      44.964  24.854  26.864  1.00  0.00    -0.374 OA
ATOM     18  C   UNL A   1      43.649  25.814  25.002  1.00  0.00     0.064 C 
ATOM     19  C   UNL A   1      46.148  25.802  24.998  1.00  0.00     0.064 C 
ATOM     20  C   UNL A   1      43.727  27.255  25.484  1.00  0.00     0.163 C 
ATOM     21  C   UNL A   1      46.087  27.251  25.460  1.00  0.00     0.163 C 
ATOM     22  O   UNL A   1      44.902  27.887  24.982  1.00  0.00    -0.381 OA
ENDBRANCH   9  12
ENDBRANCH   7   9
ENDBRANCH   4   7
ENDBRANCH   2   3
ENDBRANCH   1   2
BRANCH   1  23
ATOM     23  C   UNL A   1      40.367  21.619  26.496  1.00  0.00     0.118 C 
BRANCH  23  24
ATOM     24  N   UNL A   1      39.213  22.147  25.773  1.00  0.00    -0.352 N 
ATOM     25  C   UNL A   1      38.584  23.363  25.897  1.00  0.00     0.251 C 
ATOM     26  H   UNL A   1      38.828  21.544  25.098  1.00  0.00     0.163 HD
ATOM     27  O   UNL A   1      37.514  23.564  25.329  1.00  0.00    -0.269 OA
BRANCH  25  28
ATOM     28  C   UNL A   1      39.192  24.413  26.736  1.00  0.00     0.039 A 
ATOM     29  C   UNL A   1      40.057  25.341  26.151  1.00  0.00     0.014 A 
ATOM     30  C   UNL A   1      38.878  24.497  28.095  1.00  0.00     0.014 A 
ATOM     31  C   UNL A   1      40.534  26.410  26.912  1.00  0.00     0.010 A 
ATOM     32  C   UNL A   1      39.277  25.609  28.823  1.00  0.00     0.010 A 
ATOM     33  C   UNL A   1      40.109  26.577  28.239  1.00  0.00    -0.014 A 
BRANCH  33  34
ATOM     34  C   UNL A   1      40.511  27.753  29.050  1.00  0.00     0.031 A 
ATOM     35  C   UNL A   1      41.799  27.715  29.826  1.00  0.00     0.074 A 
ATOM     36  C   UNL A   1      39.673  28.802  29.169  1.00  0.00     0.049 A 
ATOM     37  N   UNL A   1      42.259  28.565  30.706  1.00  0.00    -0.248 NA
ATOM     38  C   UNL A   1      42.667  26.544  29.611  1.00  0.00     0.031 C 
ATOM     39  C   UNL A   1      38.374  28.931  28.504  1.00  0.00     0.029 A 
ATOM     40  N   UNL A   1      39.780  29.953  29.910  1.00  0.00    -0.354 N 
ATOM     41  C   UNL A   1      43.451  28.021  31.167  1.00  0.00     0.074 A 
ATOM     42  C   UNL A   1      43.620  26.746  30.508  1.00  0.00     0.031 C 
ATOM     43  C   UNL A   1      37.813  30.100  28.854  1.00  0.00     0.029 A 
ATOM     44  C   UNL A   1      38.689  30.783  29.802  1.00  0.00     0.049 A 
ATOM     45  H   UNL A   1      40.564  30.164  30.467  1.00  0.00     0.167 HD
ATOM     46  C   UNL A   1      44.337  28.549  32.045  1.00  0.00     0.037 A 
ATOM     47  C   UNL A   1      38.417  31.954  30.410  1.00  0.00     0.037 A 
ATOM     48  C   UNL A   1      44.179  29.837  32.666  1.00  0.00     0.049 A 
ATOM     49  C   UNL A   1      39.422  32.527  31.372  1.00  0.00     0.074 A 
ATOM     50  C   UNL A   1      45.048  30.494  33.517  1.00  0.00     0.029 A 
ATOM     51  N   UNL A   1      43.080  30.667  32.497  1.00  0.00    -0.354 N 
ATOM     52  N   UNL A   1      40.572  32.027  31.755  1.00  0.00    -0.248 NA
ATOM     53  C   UNL A   1      39.094  33.822  31.985  1.00  0.00     0.031 C 
ATOM     54  C   UNL A   1      44.459  31.705  33.894  1.00  0.00     0.029 A 
ATOM     55  C   UNL A   1      43.241  31.823  33.241  1.00  0.00     0.049 A 
ATOM     56  H   UNL A   1      42.300  30.464  31.932  1.00  0.00     0.167 HD
ATOM     57  C   UNL A   1      41.119  32.958  32.630  1.00  0.00     0.074 A 
ATOM     58  C   UNL A   1      40.176  34.055  32.717  1.00  0.00     0.031 C 
ATOM     59  C   UNL A   1      42.297  32.911  33.300  1.00  0.00     0.037 A 
BRANCH  46  60
ATOM     60  C   UNL A   1      45.558  27.738  32.377  1.00  0.00     0.058 A 
ATOM     61  C   UNL A   1      45.526  26.722  33.347  1.00  0.00     0.135 A 
ATOM     62  C   UNL A   1      46.768  27.959  31.701  1.00  0.00     0.135 A 
ATOM     63  F   UNL A   1      44.399  26.479  34.035  1.00  0.00    -0.206 F 
ATOM     64  C   UNL A   1      46.658  25.975  33.655  1.00  0.00     0.059 A 
ATOM     65  C   UNL A   1      47.906  27.205  31.973  1.00  0.00     0.059 A 
ATOM     66  F   UNL A   1      46.854  28.919  30.767  1.00  0.00    -0.206 F 
ATOM     67  C   UNL A   1      47.844  26.225  32.964  1.00  0.00     0.060 A 
BRANCH  67  68
ATOM     68  S   UNL A   1      49.303  25.245  33.373  1.00  0.00     0.124 S 
ATOM     69  O   UNL A   1      49.704  24.758  32.056  1.00  0.00    -0.237 OA
ATOM     70  O   UNL A   1      50.188  26.238  33.977  1.00  0.00    -0.237 OA
ATOM     71  O   UNL A   1      48.788  24.232  34.287  1.00  0.00    -0.744 OA
ENDBRANCH  67  68
ENDBRANCH  46  60
BRANCH  47  72
ATOM     72  C   UNL A   1      37.150  32.670  30.108  1.00  0.00     0.058 A 
ATOM     73  C   UNL A   1      37.093  33.634  29.090  1.00  0.00     0.135 A 
ATOM     74  C   UNL A   1      35.968  32.395  30.814  1.00  0.00     0.135 A 
ATOM     75  F   UNL A   1      38.198  33.936  28.391  1.00  0.00    -0.206 F 
ATOM     76  C   UNL A   1      35.915  34.309  28.791  1.00  0.00     0.059 A 
ATOM     77  C   UNL A   1      34.772  33.041  30.517  1.00  0.00     0.059 A 
ATOM     78  F   UNL A   1      35.965  31.469  31.785  1.00  0.00    -0.206 F 
ATOM     79  C   UNL A   1      34.757  34.004  29.508  1.00  0.00     0.060 A 
BRANCH  79  80
ATOM     80  S   UNL A   1      33.220  34.849  29.076  1.00  0.00     0.124 S 
ATOM     81  O   UNL A   1      33.721  36.099  28.518  1.00  0.00    -0.237 OA
ATOM     82  O   UNL A   1      32.617  33.920  28.126  1.00  0.00    -0.237 OA
ATOM     83  O   UNL A   1      32.528  34.959  30.357  1.00  0.00    -0.744 OA
ENDBRANCH  79  80
ENDBRANCH  47  72
BRANCH  59  84
ATOM     84  C   UNL A   1      42.659  34.090  34.155  1.00  0.00     0.058 A 
ATOM     85  C   UNL A   1      42.353  34.130  35.523  1.00  0.00     0.135 A 
ATOM     86  C   UNL A   1      43.397  35.156  33.613  1.00  0.00     0.135 A 
ATOM     87  F   UNL A   1      41.642  33.140  36.085  1.00  0.00    -0.206 F 
ATOM     88  C   UNL A   1      42.761  35.190  36.327  1.00  0.00     0.059 A 
ATOM     89  C   UNL A   1      43.836  36.213  34.403  1.00  0.00     0.059 A 
ATOM     90  F   UNL A   1      43.723  35.160  32.311  1.00  0.00    -0.206 F 
ATOM     91  C   UNL A   1      43.508  36.224  35.758  1.00  0.00     0.060 A 
BRANCH  91  92
ATOM     92  S   UNL A   1      44.086  37.560  36.825  1.00  0.00     0.124 S 
ATOM     93  O   UNL A   1      45.389  37.057  37.247  1.00  0.00    -0.237 OA
ATOM     94  O   UNL A   1      44.111  38.700  35.914  1.00  0.00    -0.237 OA
ATOM     95  O   UNL A   1      43.069  37.624  37.871  1.00  0.00    -0.744 OA
ENDBRANCH  91  92
ENDBRANCH  59  84
ENDBRANCH  33  34
ENDBRANCH  25  28
ENDBRANCH  23  24
ENDBRANCH   1  23
TORSDOF 15
ENDMDL
MODEL 3
REMARK VINA RESULT:     -11.2      0.745      1.718
REMARK SMILES C[C@@H]([NH2+][C@H]1CCOC2(CCOCC2)C1)C(=O)NCCCNC(=O)c1ccc(-c2c3nc(c(-c4c(F)cc(S(=O)(=O)[O-])cc4F)c4ccc([nH]4)c(-c4c(F)cc(S(=O)(=O)[O-])cc4F)c4nc(c(-c5c(F)cc(S(=O)(=O)[O-])cc5F)c5ccc2[nH]5)C=C4)C=C3)cc1
REMARK SMILES IDX 19 1 18 2 17 3 15 4 16 5 2 7 1 8 3 9 4 12 5 13 14 14 6 15
REMARK SMILES IDX 8 16 7 17 9 18 13 19 10 20 12 21 11 22 20 23 21 24 22 25
REMARK SMILES IDX 23 27 24 28 25 29 89 30 26 31 88 32 27 33 28 34 29 35 82 36
REMARK SMILES IDX 30 37 87 38 81 39 83 40 31 41 86 42 80 43 79 44 32 46 66 47
REMARK SMILES IDX 45 48 65 49 46 50 49 51 64 52 84 53 47 54 48 55 63 57 85 58
REMARK SMILES IDX 50 59 33 60 34 61 43 62 35 63 36 64 42 65 44 66 37 67 38 68
REMARK SMILES IDX 39 69 40 70 41 71 67 72 68 73 77 74 69 75 70 76 76 77 78 78
REMARK SMILES IDX 71 79 72 80 73 81 74 82 75 83 51 84 52 85 61 86 53 87 54 88
REMARK SMILES IDX 60 89 62 90 55 91 56 92 57 93 58 94 59 95
REMARK H PARENT 17 6 3 10 3 11 21 26 83 45 49 56
REMARK Flexibility Score: inf
ROOT
ATOM      1  C   UNL A   1      33.926  33.553  28.147  1.00  0.00     0.042 C 
ENDROOT
BRANCH   1   2
ATOM      2  C   UNL A   1      34.386  34.813  28.855  1.00  0.00     0.118 C 
BRANCH   2   3
ATOM      3  N   UNL A   1      33.295  35.502  29.523  1.00  0.00    -0.351 N 
ATOM      4  C   UNL A   1      33.139  35.820  30.837  1.00  0.00     0.277 C 
ATOM      5  O   UNL A   1      32.141  36.480  31.152  1.00  0.00    -0.268 OA
ATOM      6  H   UNL A   1      32.555  35.780  28.935  1.00  0.00     0.163 HD
BRANCH   4   7
ATOM      7  C   UNL A   1      34.163  35.398  31.911  1.00  0.00     0.269 C 
ATOM      8  C   UNL A   1      33.984  36.246  33.169  1.00  0.00     0.086 C 
BRANCH   7   9
ATOM      9  N   UNL A   1      34.110  33.950  32.230  1.00  0.00    -0.334 N 
ATOM     10  H   UNL A   1      33.515  33.490  31.540  1.00  0.00     0.347 HD
ATOM     11  H   UNL A   1      33.742  33.866  33.177  1.00  0.00     0.347 HD
BRANCH   9  12
ATOM     12  C   UNL A   1      35.425  33.296  32.218  1.00  0.00     0.188 C 
ATOM     13  C   UNL A   1      36.525  34.155  31.597  1.00  0.00     0.093 C 
ATOM     14  C   UNL A   1      35.832  32.989  33.661  1.00  0.00     0.100 C 
ATOM     15  C   UNL A   1      37.864  33.428  31.712  1.00  0.00     0.167 C 
ATOM     16  C   UNL A   1      37.176  32.249  33.720  1.00  0.00     0.078 C 
ATOM     17  O   UNL A   1      38.173  33.049  33.056  1.00  0.00    -0.374 OA
ATOM     18  C   UNL A   1      37.086  30.828  33.123  1.00  0.00     0.064 C 
ATOM     19  C   UNL A   1      37.594  32.122  35.199  1.00  0.00     0.064 C 
ATOM     20  C   UNL A   1      38.361  30.040  33.387  1.00  0.00     0.163 C 
ATOM     21  C   UNL A   1      38.830  31.248  35.359  1.00  0.00     0.163 C 
ATOM     22  O   UNL A   1      38.617  29.958  34.786  1.00  0.00    -0.381 OA
ENDBRANCH   9  12
ENDBRANCH   7   9
ENDBRANCH   4   7
ENDBRANCH   2   3
ENDBRANCH   1   2
BRANCH   1  23
ATOM     23  C   UNL A   1      34.315  32.278  28.882  1.00  0.00     0.118 C 
BRANCH  23  24
ATOM     24  N   UNL A   1      33.847  31.067  28.213  1.00  0.00    -0.352 N 
ATOM     25  C   UNL A   1      34.557  29.964  27.802  1.00  0.00     0.251 C 
ATOM     26  H   UNL A   1      32.882  31.036  28.028  1.00  0.00     0.163 HD
ATOM     27  O   UNL A   1      34.023  29.117  27.093  1.00  0.00    -0.269 OA
BRANCH  25  28
ATOM     28  C   UNL A   1      35.971  29.820  28.202  1.00  0.00     0.039 A 
ATOM     29  C   UNL A   1      36.276  29.382  29.492  1.00  0.00     0.014 A 
ATOM     30  C   UNL A   1      36.991  30.088  27.286  1.00  0.00     0.014 A 
ATOM     31  C   UNL A   1      37.605  29.122  29.833  1.00  0.00     0.010 A 
ATOM     32  C   UNL A   1      38.298  29.742  27.596  1.00  0.00     0.010 A 
ATOM     33  C   UNL A   1      38.619  29.255  28.872  1.00  0.00    -0.014 A 
BRANCH  33  34
ATOM     34  C   UNL A   1      40.028  28.894  29.164  1.00  0.00     0.031 A 
ATOM     35  C   UNL A   1      40.956  29.926  29.743  1.00  0.00     0.074 A 
ATOM     36  C   UNL A   1      40.494  27.679  28.811  1.00  0.00     0.049 A 
ATOM     37  N   UNL A   1      42.248  29.864  29.931  1.00  0.00    -0.248 NA
ATOM     38  C   UNL A   1      40.354  31.215  30.128  1.00  0.00     0.031 C 
ATOM     39  C   UNL A   1      39.701  26.611  28.196  1.00  0.00     0.029 A 
ATOM     40  N   UNL A   1      41.755  27.143  28.901  1.00  0.00    -0.354 N 
ATOM     41  C   UNL A   1      42.616  31.108  30.428  1.00  0.00     0.074 A 
ATOM     42  C   UNL A   1      41.421  31.921  30.467  1.00  0.00     0.031 C 
ATOM     43  C   UNL A   1      40.489  25.546  27.978  1.00  0.00     0.029 A 
ATOM     44  C   UNL A   1      41.851  25.868  28.395  1.00  0.00     0.049 A 
ATOM     45  H   UNL A   1      42.519  27.628  29.290  1.00  0.00     0.167 HD
ATOM     46  C   UNL A   1      43.838  31.526  30.836  1.00  0.00     0.037 A 
ATOM     47  C   UNL A   1      42.918  25.056  28.268  1.00  0.00     0.037 A 
ATOM     48  C   UNL A   1      45.012  30.696  30.831  1.00  0.00     0.049 A 
ATOM     49  C   UNL A   1      44.263  25.538  28.740  1.00  0.00     0.074 A 
ATOM     50  C   UNL A   1      46.283  31.001  31.285  1.00  0.00     0.029 A 
ATOM     51  N   UNL A   1      45.059  29.395  30.351  1.00  0.00    -0.354 N 
ATOM     52  N   UNL A   1      44.584  26.698  29.261  1.00  0.00    -0.248 NA
ATOM     53  C   UNL A   1      45.389  24.603  28.610  1.00  0.00     0.031 C 
ATOM     54  C   UNL A   1      47.107  29.897  31.046  1.00  0.00     0.029 A 
ATOM     55  C   UNL A   1      46.340  28.888  30.483  1.00  0.00     0.049 A 
ATOM     56  H   UNL A   1      44.294  28.905  29.972  1.00  0.00     0.167 HD
ATOM     57  C   UNL A   1      45.942  26.624  29.546  1.00  0.00     0.074 A 
ATOM     58  C   UNL A   1      46.382  25.302  29.145  1.00  0.00     0.031 C 
ATOM     59  C   UNL A   1      46.753  27.563  30.094  1.00  0.00     0.037 A 
BRANCH  46  60
ATOM     60  C   UNL A   1      43.961  32.941  31.331  1.00  0.00     0.058 A 
ATOM     61  C   UNL A   1      44.198  34.010  30.452  1.00  0.00     0.135 A 
ATOM     62  C   UNL A   1      43.814  33.235  32.696  1.00  0.00     0.135 A 
ATOM     63  F   UNL A   1      44.363  33.783  29.140  1.00  0.00    -0.206 F 
ATOM     64  C   UNL A   1      44.315  35.317  30.913  1.00  0.00     0.059 A 
ATOM     65  C   UNL A   1      43.900  34.538  33.176  1.00  0.00     0.059 A 
ATOM     66  F   UNL A   1      43.589  32.249  33.579  1.00  0.00    -0.206 F 
ATOM     67  C   UNL A   1      44.166  35.571  32.277  1.00  0.00     0.060 A 
BRANCH  67  68
ATOM     68  S   UNL A   1      44.318  37.273  32.859  1.00  0.00     0.124 S 
ATOM     69  O   UNL A   1      44.259  38.015  31.603  1.00  0.00    -0.237 OA
ATOM     70  O   UNL A   1      43.155  37.411  33.731  1.00  0.00    -0.237 OA
ATOM     71  O   UNL A   1      45.609  37.287  33.536  1.00  0.00    -0.744 OA
ENDBRANCH  67  68
ENDBRANCH  46  60
BRANCH  47  72
ATOM     72  C   UNL A   1      42.751  23.697  27.688  1.00  0.00     0.058 A 
ATOM     73  C   UNL A   1      42.860  23.487  26.306  1.00  0.00     0.135 A 
ATOM     74  C   UNL A   1      42.500  22.580  28.501  1.00  0.00     0.135 A 
ATOM     75  F   UNL A   1      43.093  24.523  25.487  1.00  0.00    -0.206 F 
ATOM     76  C   UNL A   1      42.713  22.222  25.747  1.00  0.00     0.059 A 
ATOM     77  C   UNL A   1      42.372  21.302  27.968  1.00  0.00     0.059 A 
ATOM     78  F   UNL A   1      42.406  22.725  29.832  1.00  0.00    -0.206 F 
ATOM     79  C   UNL A   1      42.471  21.134  26.587  1.00  0.00     0.060 A 
BRANCH  79  80
ATOM     80  S   UNL A   1      42.333  19.487  25.857  1.00  0.00     0.124 S 
ATOM     81  O   UNL A   1      43.316  19.560  24.783  1.00  0.00    -0.237 OA
ATOM     82  O   UNL A   1      42.678  18.623  26.982  1.00  0.00    -0.237 OA
ATOM     83  O   UNL A   1      40.937  19.425  25.434  1.00  0.00    -0.744 OA
ENDBRANCH  79  80
ENDBRANCH  47  72
BRANCH  59  84
ATOM     84  C   UNL A   1      48.188  27.192  30.331  1.00  0.00     0.058 A 
ATOM     85  C   UNL A   1      49.207  27.591  29.455  1.00  0.00     0.135 A 
ATOM     86  C   UNL A   1      48.554  26.498  31.497  1.00  0.00     0.135 A 
ATOM     87  F   UNL A   1      48.907  28.248  28.324  1.00  0.00    -0.206 F 
ATOM     88  C   UNL A   1      50.544  27.312  29.723  1.00  0.00     0.059 A 
ATOM     89  C   UNL A   1      49.885  26.229  31.796  1.00  0.00     0.059 A 
ATOM     90  F   UNL A   1      47.616  26.101  32.371  1.00  0.00    -0.206 F 
ATOM     91  C   UNL A   1      50.873  26.636  30.900  1.00  0.00     0.060 A 
BRANCH  91  92
ATOM     92  S   UNL A   1      52.615  26.337  31.266  1.00  0.00     0.124 S 
ATOM     93  O   UNL A   1      52.563  25.021  31.893  1.00  0.00    -0.237 OA
ATOM     94  O   UNL A   1      53.226  26.385  29.941  1.00  0.00    -0.237 OA
ATOM     95  O   UNL A   1      52.970  27.442  32.154  1.00  0.00    -0.744 OA
ENDBRANCH  91  92
ENDBRANCH  59  84
ENDBRANCH  33  34
ENDBRANCH  25  28
ENDBRANCH  23  24
ENDBRANCH   1  23
TORSDOF 15
ENDMDL
