MODEL 1
REMARK VINA RESULT:      -9.2      0.000      0.000
REMARK SMILES COCCCC(=O)Nc1nc2ccc(C(=O)NCCCNC(=O)c3ccc(-c4c5nc(c(-c6c(F)cc(S(=O)(=O)[O-])cc6F)c6ccc([nH]6)c(-c6c(F)cc(S(=O)(=O)[O-])cc6F)c6nc(c(-c7c(F)cc(S(=O)(=O)[O-])cc7F)c7ccc4[nH]7)C=C6)C=C5)cc3)cc2s1
REMARK SMILES IDX 18 1 17 2 15 3 16 4 14 6 9 7 10 8 92 9 11 10 91 11 12 12
REMARK SMILES IDX 90 13 13 14 8 15 6 16 7 17 5 19 4 20 3 21 2 22 1 23 19 24
REMARK SMILES IDX 20 25 21 26 22 27 23 29 24 30 25 31 89 32 26 33 88 34 27 35
REMARK SMILES IDX 28 36 29 37 82 38 30 39 87 40 81 41 83 42 31 43 86 44 80 45
REMARK SMILES IDX 79 46 32 48 66 49 45 50 65 51 46 52 49 53 64 54 84 55 47 56
REMARK SMILES IDX 48 57 63 59 85 60 50 61 33 62 34 63 43 64 35 65 36 66 42 67
REMARK SMILES IDX 44 68 37 69 38 70 39 71 40 72 41 73 67 74 68 75 77 76 69 77
REMARK SMILES IDX 70 78 76 79 78 80 71 81 72 82 73 83 74 84 75 85 51 86 52 87
REMARK SMILES IDX 61 88 53 89 54 90 60 91 62 92 55 93 56 94 57 95 58 96 59 97
REMARK H PARENT 17 5 8 18 21 28 83 47 49 58
REMARK Flexibility Score: inf
ROOT
ATOM      1  C   UNL A   1      34.851  32.952  30.931  1.00  0.00     0.118 C 
ENDROOT
BRANCH   1   2
ATOM      2  N   UNL A   1      34.586  34.201  31.620  1.00  0.00    -0.352 N 
ATOM      3  C   UNL A   1      35.357  34.920  32.495  1.00  0.00     0.251 C 
ATOM      4  O   UNL A   1      34.987  36.049  32.816  1.00  0.00    -0.269 OA
ATOM      5  H   UNL A   1      33.706  34.598  31.427  1.00  0.00     0.163 HD
BRANCH   3   6
ATOM      6  C   UNL A   1      36.633  34.400  33.051  1.00  0.00     0.041 A 
ATOM      7  C   UNL A   1      39.401  31.356  35.293  1.00  0.00     0.190 A 
ATOM      8  N   UNL A   1      39.920  32.185  34.424  1.00  0.00    -0.220 NA
ATOM      9  S   UNL A   1      37.906  31.842  35.967  1.00  0.00    -0.097 S 
ATOM     10  C   UNL A   1      38.925  33.048  33.979  1.00  0.00     0.084 A 
ATOM     11  C   UNL A   1      37.694  32.912  34.628  1.00  0.00     0.057 A 
ATOM     12  C   UNL A   1      39.023  33.962  32.910  1.00  0.00     0.031 A 
ATOM     13  C   UNL A   1      36.536  33.569  34.180  1.00  0.00     0.035 A 
ATOM     14  C   UNL A   1      37.869  34.606  32.435  1.00  0.00     0.016 A 
BRANCH   7  15
ATOM     15  N   UNL A   1      40.047  30.365  35.958  1.00  0.00    -0.302 N 
ATOM     16  C   UNL A   1      40.803  29.367  35.428  1.00  0.00     0.226 C 
ATOM     17  O   UNL A   1      41.286  28.551  36.224  1.00  0.00    -0.275 OA
ATOM     18  H   UNL A   1      39.957  30.368  36.938  1.00  0.00     0.172 HD
BRANCH  16  19
ATOM     19  C   UNL A   1      41.150  29.248  33.946  1.00  0.00     0.103 C 
BRANCH  19  20
ATOM     20  C   UNL A   1      42.322  28.361  33.518  1.00  0.00     0.038 C 
BRANCH  20  21
ATOM     21  C   UNL A   1      43.717  28.658  34.069  1.00  0.00     0.160 C 
BRANCH  21  22
ATOM     22  O   UNL A   1      44.454  27.530  34.522  1.00  0.00    -0.385 OA
ATOM     23  C   UNL A   1      44.311  26.346  33.757  1.00  0.00     0.194 C 
ENDBRANCH  21  22
ENDBRANCH  20  21
ENDBRANCH  19  20
ENDBRANCH  16  19
ENDBRANCH   7  15
ENDBRANCH   3   6
ENDBRANCH   1   2
BRANCH   1  24
ATOM     24  C   UNL A   1      35.881  33.132  29.819  1.00  0.00     0.042 C 
BRANCH  24  25
ATOM     25  C   UNL A   1      35.269  33.166  28.419  1.00  0.00     0.118 C 
BRANCH  25  26
ATOM     26  N   UNL A   1      34.337  32.063  28.201  1.00  0.00    -0.352 N 
ATOM     27  C   UNL A   1      34.580  30.728  28.012  1.00  0.00     0.251 C 
ATOM     28  H   UNL A   1      33.387  32.320  28.189  1.00  0.00     0.163 HD
ATOM     29  O   UNL A   1      33.674  30.002  27.590  1.00  0.00    -0.269 OA
BRANCH  27  30
ATOM     30  C   UNL A   1      35.912  30.156  28.295  1.00  0.00     0.039 A 
ATOM     31  C   UNL A   1      36.885  30.158  27.290  1.00  0.00     0.014 A 
ATOM     32  C   UNL A   1      36.198  29.598  29.543  1.00  0.00     0.014 A 
ATOM     33  C   UNL A   1      38.168  29.681  27.565  1.00  0.00     0.010 A 
ATOM     34  C   UNL A   1      37.495  29.186  29.838  1.00  0.00     0.010 A 
ATOM     35  C   UNL A   1      38.496  29.237  28.857  1.00  0.00    -0.014 A 
BRANCH  35  36
ATOM     36  C   UNL A   1      39.888  28.869  29.224  1.00  0.00     0.031 A 
ATOM     37  C   UNL A   1      40.791  29.871  29.886  1.00  0.00     0.074 A 
ATOM     38  C   UNL A   1      40.363  27.659  28.869  1.00  0.00     0.049 A 
ATOM     39  N   UNL A   1      42.063  29.773  30.173  1.00  0.00    -0.248 NA
ATOM     40  C   UNL A   1      40.188  31.163  30.253  1.00  0.00     0.031 C 
ATOM     41  C   UNL A   1      39.591  26.613  28.194  1.00  0.00     0.029 A 
ATOM     42  N   UNL A   1      41.612  27.108  29.010  1.00  0.00    -0.354 N 
ATOM     43  C   UNL A   1      42.417  30.989  30.747  1.00  0.00     0.074 A 
ATOM     44  C   UNL A   1      41.237  31.827  30.717  1.00  0.00     0.031 C 
ATOM     45  C   UNL A   1      40.376  25.544  27.996  1.00  0.00     0.029 A 
ATOM     46  C   UNL A   1      41.720  25.843  28.482  1.00  0.00     0.049 A 
ATOM     47  H   UNL A   1      42.361  27.574  29.447  1.00  0.00     0.167 HD
ATOM     48  C   UNL A   1      43.612  31.364  31.265  1.00  0.00     0.037 A 
ATOM     49  C   UNL A   1      42.783  25.023  28.381  1.00  0.00     0.037 A 
ATOM     50  C   UNL A   1      44.779  30.521  31.287  1.00  0.00     0.049 A 
ATOM     51  C   UNL A   1      44.113  25.480  28.911  1.00  0.00     0.074 A 
ATOM     52  C   UNL A   1      46.023  30.788  31.831  1.00  0.00     0.029 A 
ATOM     53  N   UNL A   1      44.852  29.251  30.731  1.00  0.00    -0.354 N 
ATOM     54  N   UNL A   1      44.417  26.611  29.504  1.00  0.00    -0.248 NA
ATOM     55  C   UNL A   1      45.245  24.558  28.756  1.00  0.00     0.031 C 
ATOM     56  C   UNL A   1      46.863  29.702  31.556  1.00  0.00     0.029 A 
ATOM     57  C   UNL A   1      46.128  28.735  30.888  1.00  0.00     0.049 A 
ATOM     58  H   UNL A   1      44.105  28.785  30.290  1.00  0.00     0.167 HD
ATOM     59  C   UNL A   1      45.770  26.527  29.811  1.00  0.00     0.074 A 
ATOM     60  C   UNL A   1      46.222  25.230  29.349  1.00  0.00     0.031 C 
ATOM     61  C   UNL A   1      46.565  27.442  30.420  1.00  0.00     0.037 A 
BRANCH  48  62
ATOM     62  C   UNL A   1      43.713  32.752  31.841  1.00  0.00     0.058 A 
ATOM     63  C   UNL A   1      44.065  33.856  31.048  1.00  0.00     0.135 A 
ATOM     64  C   UNL A   1      43.444  32.986  33.200  1.00  0.00     0.135 A 
ATOM     65  F   UNL A   1      44.343  33.692  29.745  1.00  0.00    -0.206 F 
ATOM     66  C   UNL A   1      44.191  35.132  31.588  1.00  0.00     0.059 A 
ATOM     67  C   UNL A   1      43.533  34.259  33.756  1.00  0.00     0.059 A 
ATOM     68  F   UNL A   1      43.099  31.969  34.006  1.00  0.00    -0.206 F 
ATOM     69  C   UNL A   1      43.928  35.322  32.946  1.00  0.00     0.060 A 
BRANCH  69  70
ATOM     70  S   UNL A   1      44.123  36.979  33.636  1.00  0.00     0.124 S 
ATOM     71  O   UNL A   1      45.256  36.788  34.536  1.00  0.00    -0.237 OA
ATOM     72  O   UNL A   1      44.388  37.784  32.448  1.00  0.00    -0.237 OA
ATOM     73  O   UNL A   1      42.841  37.230  34.287  1.00  0.00    -0.744 OA
ENDBRANCH  69  70
ENDBRANCH  48  62
BRANCH  49  74
ATOM     74  C   UNL A   1      42.623  23.678  27.764  1.00  0.00     0.058 A 
ATOM     75  C   UNL A   1      42.718  23.512  26.375  1.00  0.00     0.135 A 
ATOM     76  C   UNL A   1      42.411  22.532  28.547  1.00  0.00     0.135 A 
ATOM     77  F   UNL A   1      42.911  24.578  25.585  1.00  0.00    -0.206 F 
ATOM     78  C   UNL A   1      42.606  22.259  25.781  1.00  0.00     0.059 A 
ATOM     79  C   UNL A   1      42.322  21.265  27.979  1.00  0.00     0.059 A 
ATOM     80  F   UNL A   1      42.329  22.635  29.883  1.00  0.00    -0.206 F 
ATOM     81  C   UNL A   1      42.415  21.140  26.593  1.00  0.00     0.060 A 
BRANCH  81  82
ATOM     82  S   UNL A   1      42.343  19.511  25.816  1.00  0.00     0.124 S 
ATOM     83  O   UNL A   1      42.735  18.642  26.918  1.00  0.00    -0.237 OA
ATOM     84  O   UNL A   1      40.945  19.432  25.406  1.00  0.00    -0.237 OA
ATOM     85  O   UNL A   1      43.303  19.618  24.722  1.00  0.00    -0.744 OA
ENDBRANCH  81  82
ENDBRANCH  49  74
BRANCH  61  86
ATOM     86  C   UNL A   1      48.006  27.073  30.640  1.00  0.00     0.058 A 
ATOM     87  C   UNL A   1      48.997  27.385  29.697  1.00  0.00     0.135 A 
ATOM     88  C   UNL A   1      48.411  26.466  31.840  1.00  0.00     0.135 A 
ATOM     89  F   UNL A   1      48.662  27.954  28.527  1.00  0.00    -0.206 F 
ATOM     90  C   UNL A   1      50.339  27.104  29.932  1.00  0.00     0.059 A 
ATOM     91  C   UNL A   1      49.750  26.200  32.109  1.00  0.00     0.059 A 
ATOM     92  F   UNL A   1      47.504  26.150  32.779  1.00  0.00    -0.206 F 
ATOM     93  C   UNL A   1      50.706  26.519  31.146  1.00  0.00     0.060 A 
BRANCH  93  94
ATOM     94  S   UNL A   1      52.459  26.218  31.463  1.00  0.00     0.124 S 
ATOM     95  O   UNL A   1      53.021  26.311  30.121  1.00  0.00    -0.237 OA
ATOM     96  O   UNL A   1      52.801  27.307  32.372  1.00  0.00    -0.237 OA
ATOM     97  O   UNL A   1      52.473  24.885  32.059  1.00  0.00    -0.744 OA
ENDBRANCH  93  94
ENDBRANCH  61  86
ENDBRANCH  35  36
ENDBRANCH  27  30
ENDBRANCH  25  26
ENDBRANCH  24  25
ENDBRANCH   1  24
TORSDOF 18
ENDMDL
MODEL 2
REMARK VINA RESULT:      -9.2      0.793      2.017
REMARK SMILES COCCCC(=O)Nc1nc2ccc(C(=O)NCCCNC(=O)c3ccc(-c4c5nc(c(-c6c(F)cc(S(=O)(=O)[O-])cc6F)c6ccc([nH]6)c(-c6c(F)cc(S(=O)(=O)[O-])cc6F)c6nc(c(-c7c(F)cc(S(=O)(=O)[O-])cc7F)c7ccc4[nH]7)C=C6)C=C5)cc3)cc2s1
REMARK SMILES IDX 18 1 17 2 15 3 16 4 14 6 9 7 10 8 92 9 11 10 91 11 12 12
REMARK SMILES IDX 90 13 13 14 8 15 6 16 7 17 5 19 4 20 3 21 2 22 1 23 19 24
REMARK SMILES IDX 20 25 21 26 22 27 23 29 24 30 25 31 89 32 26 33 88 34 27 35
REMARK SMILES IDX 28 36 29 37 82 38 30 39 87 40 81 41 83 42 31 43 86 44 80 45
REMARK SMILES IDX 79 46 32 48 66 49 45 50 65 51 46 52 49 53 64 54 84 55 47 56
REMARK SMILES IDX 48 57 63 59 85 60 50 61 33 62 34 63 43 64 35 65 36 66 42 67
REMARK SMILES IDX 44 68 37 69 38 70 39 71 40 72 41 73 67 74 68 75 77 76 69 77
REMARK SMILES IDX 70 78 76 79 78 80 71 81 72 82 73 83 74 84 75 85 51 86 52 87
REMARK SMILES IDX 61 88 53 89 54 90 60 91 62 92 55 93 56 94 57 95 58 96 59 97
REMARK H PARENT 17 5 8 18 21 28 83 47 49 58
REMARK Flexibility Score: inf
ROOT
ATOM      1  C   UNL A   1      34.769  32.479  31.210  1.00  0.00     0.118 C 
ENDROOT
BRANCH   1   2
ATOM      2  N   UNL A   1      34.309  33.657  31.920  1.00  0.00    -0.352 N 
ATOM      3  C   UNL A   1      34.967  34.496  32.779  1.00  0.00     0.251 C 
ATOM      4  O   UNL A   1      34.413  35.540  33.124  1.00  0.00    -0.269 OA
ATOM      5  H   UNL A   1      33.367  33.893  31.758  1.00  0.00     0.163 HD
BRANCH   3   6
ATOM      6  C   UNL A   1      36.331  34.207  33.292  1.00  0.00     0.041 A 
ATOM      7  C   UNL A   1      39.617  31.783  35.589  1.00  0.00     0.190 A 
ATOM      8  N   UNL A   1      39.967  32.595  34.624  1.00  0.00    -0.220 NA
ATOM      9  S   UNL A   1      38.107  32.118  36.317  1.00  0.00    -0.097 S 
ATOM     10  C   UNL A   1      38.837  33.270  34.176  1.00  0.00     0.084 A 
ATOM     11  C   UNL A   1      37.674  33.026  34.912  1.00  0.00     0.057 A 
ATOM     12  C   UNL A   1      38.748  34.090  33.033  1.00  0.00     0.031 A 
ATOM     13  C   UNL A   1      36.413  33.475  34.488  1.00  0.00     0.035 A 
ATOM     14  C   UNL A   1      37.491  34.524  32.583  1.00  0.00     0.016 A 
BRANCH   7  15
ATOM     15  N   UNL A   1      40.431  30.953  36.290  1.00  0.00    -0.302 N 
ATOM     16  C   UNL A   1      41.309  30.040  35.793  1.00  0.00     0.226 C 
ATOM     17  O   UNL A   1      41.940  29.368  36.620  1.00  0.00    -0.275 OA
ATOM     18  H   UNL A   1      40.382  31.019  37.271  1.00  0.00     0.172 HD
BRANCH  16  19
ATOM     19  C   UNL A   1      41.611  29.859  34.308  1.00  0.00     0.103 C 
BRANCH  19  20
ATOM     20  C   UNL A   1      41.025  28.656  33.563  1.00  0.00     0.038 C 
BRANCH  20  21
ATOM     21  C   UNL A   1      39.653  28.791  32.901  1.00  0.00     0.160 C 
BRANCH  21  22
ATOM     22  O   UNL A   1      38.576  29.101  33.775  1.00  0.00    -0.385 OA
ATOM     23  C   UNL A   1      37.553  29.920  33.235  1.00  0.00     0.194 C 
ENDBRANCH  21  22
ENDBRANCH  20  21
ENDBRANCH  19  20
ENDBRANCH  16  19
ENDBRANCH   7  15
ENDBRANCH   3   6
ENDBRANCH   1   2
BRANCH   1  24
ATOM     24  C   UNL A   1      35.722  32.844  30.075  1.00  0.00     0.042 C 
BRANCH  24  25
ATOM     25  C   UNL A   1      35.038  32.956  28.714  1.00  0.00     0.118 C 
BRANCH  25  26
ATOM     26  N   UNL A   1      34.178  31.809  28.436  1.00  0.00    -0.352 N 
ATOM     27  C   UNL A   1      34.506  30.507  28.163  1.00  0.00     0.251 C 
ATOM     28  H   UNL A   1      33.212  32.002  28.447  1.00  0.00     0.163 HD
ATOM     29  O   UNL A   1      33.644  29.749  27.705  1.00  0.00    -0.269 OA
BRANCH  27  30
ATOM     30  C   UNL A   1      35.876  30.008  28.400  1.00  0.00     0.039 A 
ATOM     31  C   UNL A   1      36.829  30.122  27.383  1.00  0.00     0.014 A 
ATOM     32  C   UNL A   1      36.217  29.411  29.615  1.00  0.00     0.014 A 
ATOM     33  C   UNL A   1      38.145  29.715  27.618  1.00  0.00     0.010 A 
ATOM     34  C   UNL A   1      37.542  29.069  29.872  1.00  0.00     0.010 A 
ATOM     35  C   UNL A   1      38.521  29.231  28.881  1.00  0.00    -0.014 A 
BRANCH  35  36
ATOM     36  C   UNL A   1      39.939  28.936  29.211  1.00  0.00     0.031 A 
ATOM     37  C   UNL A   1      40.814  29.992  29.827  1.00  0.00     0.074 A 
ATOM     38  C   UNL A   1      40.461  27.743  28.864  1.00  0.00     0.049 A 
ATOM     39  N   UNL A   1      42.097  29.959  30.076  1.00  0.00    -0.248 NA
ATOM     40  C   UNL A   1      40.162  31.261  30.189  1.00  0.00     0.031 C 
ATOM     41  C   UNL A   1      39.719  26.649  28.232  1.00  0.00     0.029 A 
ATOM     42  N   UNL A   1      41.738  27.254  28.975  1.00  0.00    -0.354 N 
ATOM     43  C   UNL A   1      42.411  31.201  30.615  1.00  0.00     0.074 A 
ATOM     44  C   UNL A   1      41.192  31.982  30.608  1.00  0.00     0.031 C 
ATOM     45  C   UNL A   1      40.547  25.614  28.029  1.00  0.00     0.029 A 
ATOM     46  C   UNL A   1      41.889  25.985  28.467  1.00  0.00     0.049 A 
ATOM     47  H   UNL A   1      42.477  27.763  29.380  1.00  0.00     0.167 HD
ATOM     48  C   UNL A   1      43.601  31.642  31.089  1.00  0.00     0.037 A 
ATOM     49  C   UNL A   1      42.987  25.214  28.347  1.00  0.00     0.037 A 
ATOM     50  C   UNL A   1      44.808  30.855  31.090  1.00  0.00     0.049 A 
ATOM     51  C   UNL A   1      44.309  25.743  28.828  1.00  0.00     0.074 A 
ATOM     52  C   UNL A   1      46.054  31.190  31.590  1.00  0.00     0.029 A 
ATOM     53  N   UNL A   1      44.923  29.579  30.555  1.00  0.00    -0.354 N 
ATOM     54  N   UNL A   1      44.577  26.898  29.390  1.00  0.00    -0.248 NA
ATOM     55  C   UNL A   1      45.478  24.872  28.654  1.00  0.00     0.031 C 
ATOM     56  C   UNL A   1      46.935  30.140  31.308  1.00  0.00     0.029 A 
ATOM     57  C   UNL A   1      46.227  29.127  30.681  1.00  0.00     0.049 A 
ATOM     58  H   UNL A   1      44.186  29.070  30.146  1.00  0.00     0.167 HD
ATOM     59  C   UNL A   1      45.941  26.884  29.656  1.00  0.00     0.074 A 
ATOM     60  C   UNL A   1      46.440  25.600  29.204  1.00  0.00     0.031 C 
ATOM     61  C   UNL A   1      46.710  27.846  30.223  1.00  0.00     0.037 A 
BRANCH  48  62
ATOM     62  C   UNL A   1      43.655  33.044  31.637  1.00  0.00     0.058 A 
ATOM     63  C   UNL A   1      43.630  33.297  33.018  1.00  0.00     0.135 A 
ATOM     64  C   UNL A   1      43.745  34.149  30.773  1.00  0.00     0.135 A 
ATOM     65  F   UNL A   1      43.534  32.282  33.890  1.00  0.00    -0.206 F 
ATOM     66  C   UNL A   1      43.645  34.594  33.521  1.00  0.00     0.059 A 
ATOM     67  C   UNL A   1      43.794  35.454  31.256  1.00  0.00     0.059 A 
ATOM     68  F   UNL A   1      43.778  33.967  29.444  1.00  0.00    -0.206 F 
ATOM     69  C   UNL A   1      43.722  35.666  32.631  1.00  0.00     0.060 A 
BRANCH  69  70
ATOM     70  S   UNL A   1      43.715  37.343  33.302  1.00  0.00     0.124 S 
ATOM     71  O   UNL A   1      44.918  37.331  34.129  1.00  0.00    -0.237 OA
ATOM     72  O   UNL A   1      43.785  38.162  32.096  1.00  0.00    -0.237 OA
ATOM     73  O   UNL A   1      42.453  37.413  34.031  1.00  0.00    -0.744 OA
ENDBRANCH  69  70
ENDBRANCH  48  62
BRANCH  49  74
ATOM     74  C   UNL A   1      42.872  23.851  27.760  1.00  0.00     0.058 A 
ATOM     75  C   UNL A   1      42.658  22.734  28.580  1.00  0.00     0.135 A 
ATOM     76  C   UNL A   1      42.935  23.642  26.373  1.00  0.00     0.135 A 
ATOM     77  F   UNL A   1      42.599  22.883  29.912  1.00  0.00    -0.206 F 
ATOM     78  C   UNL A   1      42.514  21.457  28.050  1.00  0.00     0.059 A 
ATOM     79  C   UNL A   1      42.768  22.377  25.816  1.00  0.00     0.059 A 
ATOM     80  F   UNL A   1      43.123  24.680  25.543  1.00  0.00    -0.206 F 
ATOM     81  C   UNL A   1      42.563  21.290  26.665  1.00  0.00     0.060 A 
BRANCH  81  82
ATOM     82  S   UNL A   1      42.302  19.638  25.984  1.00  0.00     0.124 S 
ATOM     83  O   UNL A   1      43.214  19.640  24.847  1.00  0.00    -0.237 OA
ATOM     84  O   UNL A   1      42.681  18.784  27.105  1.00  0.00    -0.237 OA
ATOM     85  O   UNL A   1      40.880  19.631  25.654  1.00  0.00    -0.744 OA
ENDBRANCH  81  82
ENDBRANCH  49  74
BRANCH  61  86
ATOM     86  C   UNL A   1      48.173  27.549  30.405  1.00  0.00     0.058 A 
ATOM     87  C   UNL A   1      48.650  26.860  31.530  1.00  0.00     0.135 A 
ATOM     88  C   UNL A   1      49.099  27.892  29.406  1.00  0.00     0.135 A 
ATOM     89  F   UNL A   1      47.808  26.519  32.520  1.00  0.00    -0.206 F 
ATOM     90  C   UNL A   1      49.993  26.526  31.663  1.00  0.00     0.059 A 
ATOM     91  C   UNL A   1      50.442  27.545  29.505  1.00  0.00     0.059 A 
ATOM     92  F   UNL A   1      48.696  28.549  28.306  1.00  0.00    -0.206 F 
ATOM     93  C   UNL A   1      50.881  26.866  30.640  1.00  0.00     0.060 A 
BRANCH  93  94
ATOM     94  S   UNL A   1      52.610  26.370  30.798  1.00  0.00     0.124 S 
ATOM     95  O   UNL A   1      53.192  27.533  31.457  1.00  0.00    -0.237 OA
ATOM     96  O   UNL A   1      52.513  25.162  31.612  1.00  0.00    -0.237 OA
ATOM     97  O   UNL A   1      53.030  26.155  29.417  1.00  0.00    -0.744 OA
ENDBRANCH  93  94
ENDBRANCH  61  86
ENDBRANCH  35  36
ENDBRANCH  27  30
ENDBRANCH  25  26
ENDBRANCH  24  25
ENDBRANCH   1  24
TORSDOF 18
ENDMDL
MODEL 3
REMARK VINA RESULT:      -8.8      4.176      7.004
REMARK SMILES COCCCC(=O)Nc1nc2ccc(C(=O)NCCCNC(=O)c3ccc(-c4c5nc(c(-c6c(F)cc(S(=O)(=O)[O-])cc6F)c6ccc([nH]6)c(-c6c(F)cc(S(=O)(=O)[O-])cc6F)c6nc(c(-c7c(F)cc(S(=O)(=O)[O-])cc7F)c7ccc4[nH]7)C=C6)C=C5)cc3)cc2s1
REMARK SMILES IDX 18 1 17 2 15 3 16 4 14 6 9 7 10 8 92 9 11 10 91 11 12 12
REMARK SMILES IDX 90 13 13 14 8 15 6 16 7 17 5 19 4 20 3 21 2 22 1 23 19 24
REMARK SMILES IDX 20 25 21 26 22 27 23 29 24 30 25 31 89 32 26 33 88 34 27 35
REMARK SMILES IDX 28 36 29 37 82 38 30 39 87 40 81 41 83 42 31 43 86 44 80 45
REMARK SMILES IDX 79 46 32 48 66 49 45 50 65 51 46 52 49 53 64 54 84 55 47 56
REMARK SMILES IDX 48 57 63 59 85 60 50 61 33 62 34 63 43 64 35 65 36 66 42 67
REMARK SMILES IDX 44 68 37 69 38 70 39 71 40 72 41 73 67 74 68 75 77 76 69 77
REMARK SMILES IDX 70 78 76 79 78 80 71 81 72 82 73 83 74 84 75 85 51 86 52 87
REMARK SMILES IDX 61 88 53 89 54 90 60 91 62 92 55 93 56 94 57 95 58 96 59 97
REMARK H PARENT 17 5 8 18 21 28 83 47 49 58
REMARK Flexibility Score: inf
ROOT
ATOM      1  C   UNL A   1      32.474  29.680  26.466  1.00  0.00     0.118 C 
ENDROOT
BRANCH   1   2
ATOM      2  N   UNL A   1      32.372  29.645  25.019  1.00  0.00    -0.352 N 
ATOM      3  C   UNL A   1      31.878  28.682  24.182  1.00  0.00     0.251 C 
ATOM      4  O   UNL A   1      31.734  28.954  22.990  1.00  0.00    -0.269 OA
ATOM      5  H   UNL A   1      32.715  30.448  24.564  1.00  0.00     0.163 HD
BRANCH   3   6
ATOM      6  C   UNL A   1      31.486  27.330  24.659  1.00  0.00     0.041 A 
ATOM      7  C   UNL A   1      31.863  22.685  25.144  1.00  0.00     0.190 A 
ATOM      8  N   UNL A   1      31.202  23.378  26.036  1.00  0.00    -0.220 NA
ATOM      9  S   UNL A   1      32.011  23.420  23.607  1.00  0.00    -0.097 S 
ATOM     10  C   UNL A   1      31.142  24.703  25.618  1.00  0.00     0.084 A 
ATOM     11  C   UNL A   1      31.667  24.944  24.346  1.00  0.00     0.057 A 
ATOM     12  C   UNL A   1      30.685  25.801  26.375  1.00  0.00     0.031 A 
ATOM     13  C   UNL A   1      31.855  26.244  23.848  1.00  0.00     0.035 A 
ATOM     14  C   UNL A   1      30.891  27.107  25.902  1.00  0.00     0.016 A 
BRANCH   7  15
ATOM     15  N   UNL A   1      32.134  21.356  25.184  1.00  0.00    -0.302 N 
ATOM     16  C   UNL A   1      33.327  20.762  25.452  1.00  0.00     0.226 C 
ATOM     17  O   UNL A   1      33.354  19.524  25.414  1.00  0.00    -0.275 OA
ATOM     18  H   UNL A   1      31.380  20.752  24.998  1.00  0.00     0.172 HD
BRANCH  16  19
ATOM     19  C   UNL A   1      34.588  21.515  25.868  1.00  0.00     0.103 C 
BRANCH  19  20
ATOM     20  C   UNL A   1      35.953  21.027  25.375  1.00  0.00     0.038 C 
BRANCH  20  21
ATOM     21  C   UNL A   1      37.143  21.986  25.418  1.00  0.00     0.160 C 
BRANCH  21  22
ATOM     22  O   UNL A   1      38.425  21.375  25.464  1.00  0.00    -0.385 OA
ATOM     23  C   UNL A   1      39.390  22.017  26.279  1.00  0.00     0.194 C 
ENDBRANCH  21  22
ENDBRANCH  20  21
ENDBRANCH  19  20
ENDBRANCH  16  19
ENDBRANCH   7  15
ENDBRANCH   3   6
ENDBRANCH   1   2
BRANCH   1  24
ATOM     24  C   UNL A   1      33.631  28.821  26.969  1.00  0.00     0.042 C 
BRANCH  24  25
ATOM     25  C   UNL A   1      34.955  29.577  27.071  1.00  0.00     0.118 C 
BRANCH  25  26
ATOM     26  N   UNL A   1      35.010  30.428  28.256  1.00  0.00    -0.352 N 
ATOM     27  C   UNL A   1      35.976  30.531  29.223  1.00  0.00     0.251 C 
ATOM     28  H   UNL A   1      34.233  31.020  28.379  1.00  0.00     0.163 HD
ATOM     29  O   UNL A   1      35.716  31.122  30.277  1.00  0.00    -0.269 OA
BRANCH  27  30
ATOM     30  C   UNL A   1      37.312  29.934  29.022  1.00  0.00     0.039 A 
ATOM     31  C   UNL A   1      37.819  29.814  27.724  1.00  0.00     0.014 A 
ATOM     32  C   UNL A   1      38.058  29.475  30.109  1.00  0.00     0.014 A 
ATOM     33  C   UNL A   1      39.107  29.314  27.526  1.00  0.00     0.010 A 
ATOM     34  C   UNL A   1      39.367  29.040  29.918  1.00  0.00     0.010 A 
ATOM     35  C   UNL A   1      39.909  28.969  28.626  1.00  0.00    -0.014 A 
BRANCH  35  36
ATOM     36  C   UNL A   1      41.334  28.582  28.460  1.00  0.00     0.031 A 
ATOM     37  C   UNL A   1      42.418  29.620  28.521  1.00  0.00     0.074 A 
ATOM     38  C   UNL A   1      41.637  27.303  28.158  1.00  0.00     0.049 A 
ATOM     39  N   UNL A   1      43.698  29.492  28.285  1.00  0.00    -0.248 NA
ATOM     40  C   UNL A   1      42.003  30.988  28.871  1.00  0.00     0.031 C 
ATOM     41  C   UNL A   1      40.667  26.211  28.041  1.00  0.00     0.029 A 
ATOM     42  N   UNL A   1      42.840  26.707  27.877  1.00  0.00    -0.354 N 
ATOM     43  C   UNL A   1      44.243  30.761  28.450  1.00  0.00     0.074 A 
ATOM     44  C   UNL A   1      43.144  31.653  28.753  1.00  0.00     0.031 C 
ATOM     45  C   UNL A   1      41.314  25.078  27.731  1.00  0.00     0.029 A 
ATOM     46  C   UNL A   1      42.736  25.369  27.577  1.00  0.00     0.049 A 
ATOM     47  H   UNL A   1      43.697  27.191  27.890  1.00  0.00     0.167 HD
ATOM     48  C   UNL A   1      45.541  31.141  28.371  1.00  0.00     0.037 A 
ATOM     49  C   UNL A   1      43.675  24.480  27.200  1.00  0.00     0.037 A 
ATOM     50  C   UNL A   1      46.625  30.242  28.068  1.00  0.00     0.049 A 
ATOM     51  C   UNL A   1      45.101  24.935  27.064  1.00  0.00     0.074 A 
ATOM     52  C   UNL A   1      47.980  30.517  28.011  1.00  0.00     0.029 A 
ATOM     53  N   UNL A   1      46.478  28.898  27.757  1.00  0.00    -0.354 N 
ATOM     54  N   UNL A   1      45.608  26.126  27.281  1.00  0.00    -0.248 NA
ATOM     55  C   UNL A   1      46.082  23.933  26.628  1.00  0.00     0.031 C 
ATOM     56  C   UNL A   1      48.646  29.353  27.612  1.00  0.00     0.029 A 
ATOM     57  C   UNL A   1      47.713  28.337  27.473  1.00  0.00     0.049 A 
ATOM     58  H   UNL A   1      45.621  28.413  27.740  1.00  0.00     0.167 HD
ATOM     59  C   UNL A   1      46.970  26.011  27.027  1.00  0.00     0.074 A 
ATOM     60  C   UNL A   1      47.209  24.631  26.654  1.00  0.00     0.031 C 
ATOM     61  C   UNL A   1      47.935  26.961  27.099  1.00  0.00     0.037 A 
BRANCH  48  62
ATOM     62  C   UNL A   1      45.854  32.595  28.610  1.00  0.00     0.058 A 
ATOM     63  C   UNL A   1      45.865  33.529  27.562  1.00  0.00     0.135 A 
ATOM     64  C   UNL A   1      46.134  33.065  29.905  1.00  0.00     0.135 A 
ATOM     65  F   UNL A   1      45.615  33.136  26.303  1.00  0.00    -0.206 F 
ATOM     66  C   UNL A   1      46.187  34.864  27.779  1.00  0.00     0.059 A 
ATOM     67  C   UNL A   1      46.428  34.403  30.150  1.00  0.00     0.059 A 
ATOM     68  F   UNL A   1      46.133  32.218  30.946  1.00  0.00    -0.206 F 
ATOM     69  C   UNL A   1      46.473  35.291  29.077  1.00  0.00     0.060 A 
BRANCH  69  70
ATOM     70  S   UNL A   1      46.915  37.023  29.336  1.00  0.00     0.124 S 
ATOM     71  O   UNL A   1      47.799  36.926  30.495  1.00  0.00    -0.237 OA
ATOM     72  O   UNL A   1      47.561  37.372  28.076  1.00  0.00    -0.237 OA
ATOM     73  O   UNL A   1      45.630  37.669  29.580  1.00  0.00    -0.744 OA
ENDBRANCH  69  70
ENDBRANCH  48  62
BRANCH  49  74
ATOM     74  C   UNL A   1      43.292  23.066  26.940  1.00  0.00     0.058 A 
ATOM     75  C   UNL A   1      43.259  22.562  25.633  1.00  0.00     0.135 A 
ATOM     76  C   UNL A   1      42.989  22.183  27.989  1.00  0.00     0.135 A 
ATOM     77  F   UNL A   1      43.533  23.369  24.596  1.00  0.00    -0.206 F 
ATOM     78  C   UNL A   1      42.937  21.234  25.370  1.00  0.00     0.059 A 
ATOM     79  C   UNL A   1      42.689  20.845  27.755  1.00  0.00     0.059 A 
ATOM     80  F   UNL A   1      43.021  22.613  29.261  1.00  0.00    -0.206 F 
ATOM     81  C   UNL A   1      42.661  20.382  26.440  1.00  0.00     0.060 A 
BRANCH  81  82
ATOM     82  S   UNL A   1      42.314  18.643  26.092  1.00  0.00     0.124 S 
ATOM     83  O   UNL A   1      40.897  18.688  25.754  1.00  0.00    -0.237 OA
ATOM     84  O   UNL A   1      43.226  18.367  24.988  1.00  0.00    -0.237 OA
ATOM     85  O   UNL A   1      42.644  17.977  27.349  1.00  0.00    -0.744 OA
ENDBRANCH  81  82
ENDBRANCH  49  74
BRANCH  61  86
ATOM     86  C   UNL A   1      49.345  26.545  26.781  1.00  0.00     0.058 A 
ATOM     87  C   UNL A   1      49.889  26.712  25.499  1.00  0.00     0.135 A 
ATOM     88  C   UNL A   1      50.184  26.043  27.789  1.00  0.00     0.135 A 
ATOM     89  F   UNL A   1      49.127  27.177  24.496  1.00  0.00    -0.206 F 
ATOM     90  C   UNL A   1      51.214  26.390  25.224  1.00  0.00     0.059 A 
ATOM     91  C   UNL A   1      51.519  25.739  27.544  1.00  0.00     0.059 A 
ATOM     92  F   UNL A   1      49.715  25.868  29.036  1.00  0.00    -0.206 F 
ATOM     93  C   UNL A   1      52.024  25.912  26.257  1.00  0.00     0.060 A 
BRANCH  93  94
ATOM     94  S   UNL A   1      53.759  25.559  25.899  1.00  0.00     0.124 S 
ATOM     95  O   UNL A   1      54.123  26.691  25.055  1.00  0.00    -0.237 OA
ATOM     96  O   UNL A   1      54.353  25.543  27.232  1.00  0.00    -0.237 OA
ATOM     97  O   UNL A   1      53.711  24.264  25.227  1.00  0.00    -0.744 OA
ENDBRANCH  93  94
ENDBRANCH  61  86
ENDBRANCH  35  36
ENDBRANCH  27  30
ENDBRANCH  25  26
ENDBRANCH  24  25
ENDBRANCH   1  24
TORSDOF 18
ENDMDL
