MODEL 1
REMARK VINA RESULT:     -12.9      0.000      0.000
REMARK SMILES CC(/C=C1\SC(=S)N(CC(=O)NCC(=O)NCCCNC(=O)c2ccc(-c3c4nc(c(-c5c(F)cc(S(=O)(=O)[O-])cc5F)c5ccc([nH]5)c(-c5c(F)cc(S(=O)(=O)[O-])cc5F)c5nc(c(-c6c(F)cc(S(=O)(=O)[O-])cc6F)c6ccc3[nH]6)C=C5)C=C4)cc2)C1=O)=C\c1ccccc1
REMARK SMILES IDX 17 1 16 2 14 3 15 4 13 6 12 7 10 8 11 9 9 11 8 12 3 13 4 14
REMARK SMILES IDX 5 15 89 16 6 17 90 18 7 19 2 20 1 21 91 22 92 23 93 24 97 25
REMARK SMILES IDX 94 26 96 27 95 28 18 29 19 30 20 31 21 32 22 34 23 35 24 36
REMARK SMILES IDX 88 37 25 38 87 39 26 40 27 41 28 42 81 43 29 44 86 45 80 46
REMARK SMILES IDX 82 47 30 48 85 49 79 50 78 51 31 53 65 54 44 55 64 56 45 57
REMARK SMILES IDX 48 58 63 59 83 60 46 61 47 62 62 64 84 65 49 66 32 67 33 68
REMARK SMILES IDX 42 69 34 70 35 71 41 72 43 73 36 74 37 75 38 76 39 77 40 78
REMARK SMILES IDX 66 79 67 80 76 81 68 82 69 83 75 84 77 85 70 86 71 87 72 88
REMARK SMILES IDX 73 89 74 90 50 91 51 92 60 93 52 94 53 95 59 96 61 97 54 98
REMARK SMILES IDX 55 99 56 100 57 101 58 102
REMARK H PARENT 16 5 12 10 20 33 82 52 48 63
REMARK Flexibility Score: inf
ROOT
ATOM      1  C   UNL A   1      37.951  23.610  26.011  1.00  0.00     0.117 C 
ENDROOT
BRANCH   1   2
ATOM      2  N   UNL A   1      37.540  23.489  24.634  1.00  0.00    -0.355 N 
ATOM      3  C   UNL A   1      36.331  23.055  24.166  1.00  0.00     0.239 C 
ATOM      4  O   UNL A   1      36.024  23.329  23.003  1.00  0.00    -0.273 OA
ATOM      5  H   UNL A   1      38.204  23.749  23.955  1.00  0.00     0.163 HD
BRANCH   3   6
ATOM      6  C   UNL A   1      35.319  22.409  25.127  1.00  0.00     0.216 C 
BRANCH   6   7
ATOM      7  N   UNL A   1      35.077  20.999  24.860  1.00  0.00    -0.345 N 
ATOM      8  C   UNL A   1      33.969  20.218  24.947  1.00  0.00     0.240 C 
ATOM      9  O   UNL A   1      34.072  19.092  24.448  1.00  0.00    -0.273 OA
ATOM     10  H   UNL A   1      35.878  20.513  24.557  1.00  0.00     0.164 HD
BRANCH   8  11
ATOM     11  C   UNL A   1      32.597  20.711  25.447  1.00  0.00     0.227 C 
BRANCH  11  12
ATOM     12  N   UNL A   1      32.068  21.958  24.879  1.00  0.00    -0.283 N 
ATOM     13  C   UNL A   1      30.857  25.286  25.649  1.00  0.00     0.024 C 
ATOM     14  C   UNL A   1      31.184  24.154  25.007  1.00  0.00     0.080 C 
ATOM     15  S   UNL A   1      31.336  23.882  23.324  1.00  0.00    -0.054 SA
ATOM     16  C   UNL A   1      31.602  22.928  25.753  1.00  0.00     0.266 C 
ATOM     17  C   UNL A   1      31.864  22.214  23.541  1.00  0.00     0.148 C 
ATOM     18  O   UNL A   1      31.599  22.841  26.972  1.00  0.00    -0.268 OA
ATOM     19  S   UNL A   1      32.060  21.177  22.249  1.00  0.00    -0.052 S 
BRANCH  13  20
ATOM     20  C   UNL A   1      30.544  26.618  25.126  1.00  0.00    -0.049 C 
ATOM     21  C   UNL A   1      31.428  27.750  25.559  1.00  0.00     0.044 C 
ATOM     22  C   UNL A   1      29.566  26.735  24.200  1.00  0.00     0.011 C 
BRANCH  22  23
ATOM     23  C   UNL A   1      29.224  27.855  23.300  1.00  0.00    -0.025 A 
ATOM     24  C   UNL A   1      30.255  28.530  22.630  1.00  0.00     0.008 A 
ATOM     25  C   UNL A   1      27.935  28.400  23.253  1.00  0.00     0.008 A 
ATOM     26  C   UNL A   1      29.994  29.693  21.895  1.00  0.00     0.001 A 
ATOM     27  C   UNL A   1      27.671  29.555  22.511  1.00  0.00     0.001 A 
ATOM     28  C   UNL A   1      28.700  30.201  21.829  1.00  0.00     0.000 A 
ENDBRANCH  22  23
ENDBRANCH  13  20
ENDBRANCH  11  12
ENDBRANCH   8  11
ENDBRANCH   6   7
ENDBRANCH   3   6
ENDBRANCH   1   2
BRANCH   1  29
ATOM     29  C   UNL A   1      39.018  22.605  26.431  1.00  0.00     0.042 C 
BRANCH  29  30
ATOM     30  C   UNL A   1      40.281  23.294  26.931  1.00  0.00     0.118 C 
BRANCH  30  31
ATOM     31  N   UNL A   1      40.787  24.258  25.962  1.00  0.00    -0.352 N 
ATOM     32  C   UNL A   1      41.123  25.579  26.080  1.00  0.00     0.251 C 
ATOM     33  H   UNL A   1      40.908  23.890  25.056  1.00  0.00     0.163 HD
ATOM     34  O   UNL A   1      41.382  26.227  25.069  1.00  0.00    -0.269 OA
BRANCH  32  35
ATOM     35  C   UNL A   1      41.115  26.258  27.378  1.00  0.00     0.039 A 
ATOM     36  C   UNL A   1      42.176  27.130  27.647  1.00  0.00     0.014 A 
ATOM     37  C   UNL A   1      40.083  26.087  28.298  1.00  0.00     0.014 A 
ATOM     38  C   UNL A   1      42.141  27.917  28.785  1.00  0.00     0.010 A 
ATOM     39  C   UNL A   1      39.992  26.946  29.376  1.00  0.00     0.010 A 
ATOM     40  C   UNL A   1      41.012  27.877  29.611  1.00  0.00    -0.014 A 
BRANCH  40  41
ATOM     41  C   UNL A   1      40.855  28.839  30.713  1.00  0.00     0.031 A 
ATOM     42  C   UNL A   1      41.728  28.710  31.921  1.00  0.00     0.074 A 
ATOM     43  C   UNL A   1      39.868  29.749  30.624  1.00  0.00     0.049 A 
ATOM     44  N   UNL A   1      41.672  29.367  33.046  1.00  0.00    -0.248 NA
ATOM     45  C   UNL A   1      42.776  27.675  31.877  1.00  0.00     0.031 C 
ATOM     46  C   UNL A   1      38.940  29.887  29.494  1.00  0.00     0.029 A 
ATOM     47  N   UNL A   1      39.472  30.727  31.494  1.00  0.00    -0.354 N 
ATOM     48  C   UNL A   1      42.663  28.816  33.847  1.00  0.00     0.074 A 
ATOM     49  C   UNL A   1      43.263  27.730  33.107  1.00  0.00     0.031 C 
ATOM     50  C   UNL A   1      38.108  30.914  29.727  1.00  0.00     0.029 A 
ATOM     51  C   UNL A   1      38.412  31.475  31.035  1.00  0.00     0.049 A 
ATOM     52  H   UNL A   1      39.903  30.881  32.365  1.00  0.00     0.167 HD
ATOM     53  C   UNL A   1      43.048  29.210  35.082  1.00  0.00     0.037 A 
ATOM     54  C   UNL A   1      37.764  32.497  31.621  1.00  0.00     0.037 A 
ATOM     55  C   UNL A   1      42.443  30.319  35.771  1.00  0.00     0.049 A 
ATOM     56  C   UNL A   1      38.237  32.933  32.980  1.00  0.00     0.074 A 
ATOM     57  C   UNL A   1      42.755  30.839  37.012  1.00  0.00     0.029 A 
ATOM     58  N   UNL A   1      41.407  31.090  35.258  1.00  0.00    -0.354 N 
ATOM     59  N   UNL A   1      39.196  32.423  33.719  1.00  0.00    -0.248 NA
ATOM     60  C   UNL A   1      37.550  34.079  33.585  1.00  0.00     0.031 C 
ATOM     61  C   UNL A   1      41.890  31.910  37.260  1.00  0.00     0.029 A 
ATOM     62  C   UNL A   1      41.067  32.084  36.157  1.00  0.00     0.049 A 
ATOM     63  H   UNL A   1      40.977  30.947  34.384  1.00  0.00     0.167 HD
ATOM     64  C   UNL A   1      39.249  33.205  34.864  1.00  0.00     0.074 A 
ATOM     65  C   UNL A   1      38.233  34.229  34.711  1.00  0.00     0.031 C 
ATOM     66  C   UNL A   1      40.058  33.092  35.947  1.00  0.00     0.037 A 
BRANCH  53  67
ATOM     67  C   UNL A   1      44.168  28.454  35.737  1.00  0.00     0.058 A 
ATOM     68  C   UNL A   1      45.512  28.800  35.520  1.00  0.00     0.135 A 
ATOM     69  C   UNL A   1      43.902  27.376  36.597  1.00  0.00     0.135 A 
ATOM     70  F   UNL A   1      45.826  29.804  34.686  1.00  0.00    -0.206 F 
ATOM     71  C   UNL A   1      46.553  28.092  36.113  1.00  0.00     0.059 A 
ATOM     72  C   UNL A   1      44.927  26.671  37.224  1.00  0.00     0.059 A 
ATOM     73  F   UNL A   1      42.637  26.994  36.832  1.00  0.00    -0.206 F 
ATOM     74  C   UNL A   1      46.250  27.029  36.965  1.00  0.00     0.060 A 
BRANCH  74  75
ATOM     75  S   UNL A   1      47.612  26.131  37.737  1.00  0.00     0.124 S 
ATOM     76  O   UNL A   1      47.760  24.993  36.834  1.00  0.00    -0.237 OA
ATOM     77  O   UNL A   1      48.692  27.112  37.703  1.00  0.00    -0.237 OA
ATOM     78  O   UNL A   1      47.099  25.813  39.066  1.00  0.00    -0.744 OA
ENDBRANCH  74  75
ENDBRANCH  53  67
BRANCH  54  79
ATOM     79  C   UNL A   1      36.648  33.185  30.921  1.00  0.00     0.058 A 
ATOM     80  C   UNL A   1      36.899  34.066  29.859  1.00  0.00     0.135 A 
ATOM     81  C   UNL A   1      35.309  32.971  31.287  1.00  0.00     0.135 A 
ATOM     82  F   UNL A   1      38.161  34.297  29.465  1.00  0.00    -0.206 F 
ATOM     83  C   UNL A   1      35.870  34.738  29.209  1.00  0.00     0.059 A 
ATOM     84  C   UNL A   1      34.260  33.612  30.634  1.00  0.00     0.059 A 
ATOM     85  F   UNL A   1      35.010  32.117  32.278  1.00  0.00    -0.206 F 
ATOM     86  C   UNL A   1      34.552  34.509  29.607  1.00  0.00     0.060 A 
BRANCH  86  87
ATOM     87  S   UNL A   1      33.223  35.381  28.751  1.00  0.00     0.124 S 
ATOM     88  O   UNL A   1      33.975  36.313  27.917  1.00  0.00    -0.237 OA
ATOM     89  O   UNL A   1      32.545  34.298  28.047  1.00  0.00    -0.237 OA
ATOM     90  O   UNL A   1      32.462  35.985  29.840  1.00  0.00    -0.744 OA
ENDBRANCH  86  87
ENDBRANCH  54  79
BRANCH  66  91
ATOM     91  C   UNL A   1      39.898  34.130  37.017  1.00  0.00     0.058 A 
ATOM     92  C   UNL A   1      40.496  35.395  36.908  1.00  0.00     0.135 A 
ATOM     93  C   UNL A   1      39.099  33.867  38.139  1.00  0.00     0.135 A 
ATOM     94  F   UNL A   1      41.275  35.686  35.854  1.00  0.00    -0.206 F 
ATOM     95  C   UNL A   1      40.326  36.359  37.893  1.00  0.00     0.059 A 
ATOM     96  C   UNL A   1      38.893  34.826  39.122  1.00  0.00     0.059 A 
ATOM     97  F   UNL A   1      38.498  32.675  38.279  1.00  0.00    -0.206 F 
ATOM     98  C   UNL A   1      39.522  36.065  38.996  1.00  0.00     0.060 A 
BRANCH  98  99
ATOM     99  S   UNL A   1      39.281  37.337  40.251  1.00  0.00     0.124 S 
ATOM    100  O   UNL A   1      38.468  38.309  39.530  1.00  0.00    -0.237 OA
ATOM    101  O   UNL A   1      38.599  36.603  41.313  1.00  0.00    -0.237 OA
ATOM    102  O   UNL A   1      40.640  37.764  40.567  1.00  0.00    -0.744 OA
ENDBRANCH  98  99
ENDBRANCH  66  91
ENDBRANCH  40  41
ENDBRANCH  32  35
ENDBRANCH  30  31
ENDBRANCH  29  30
ENDBRANCH   1  29
TORSDOF 18
ENDMDL
MODEL 2
REMARK VINA RESULT:     -12.5      3.262      8.961
REMARK SMILES CC(/C=C1\SC(=S)N(CC(=O)NCC(=O)NCCCNC(=O)c2ccc(-c3c4nc(c(-c5c(F)cc(S(=O)(=O)[O-])cc5F)c5ccc([nH]5)c(-c5c(F)cc(S(=O)(=O)[O-])cc5F)c5nc(c(-c6c(F)cc(S(=O)(=O)[O-])cc6F)c6ccc3[nH]6)C=C5)C=C4)cc2)C1=O)=C\c1ccccc1
REMARK SMILES IDX 17 1 16 2 14 3 15 4 13 6 12 7 10 8 11 9 9 11 8 12 3 13 4 14
REMARK SMILES IDX 5 15 89 16 6 17 90 18 7 19 2 20 1 21 91 22 92 23 93 24 97 25
REMARK SMILES IDX 94 26 96 27 95 28 18 29 19 30 20 31 21 32 22 34 23 35 24 36
REMARK SMILES IDX 88 37 25 38 87 39 26 40 27 41 28 42 81 43 29 44 86 45 80 46
REMARK SMILES IDX 82 47 30 48 85 49 79 50 78 51 31 53 65 54 44 55 64 56 45 57
REMARK SMILES IDX 48 58 63 59 83 60 46 61 47 62 62 64 84 65 49 66 32 67 33 68
REMARK SMILES IDX 42 69 34 70 35 71 41 72 43 73 36 74 37 75 38 76 39 77 40 78
REMARK SMILES IDX 66 79 67 80 76 81 68 82 69 83 75 84 77 85 70 86 71 87 72 88
REMARK SMILES IDX 73 89 74 90 50 91 51 92 60 93 52 94 53 95 59 96 61 97 54 98
REMARK SMILES IDX 55 99 56 100 57 101 58 102
REMARK H PARENT 16 5 12 10 20 33 82 52 48 63
REMARK Flexibility Score: inf
ROOT
ATOM      1  C   UNL A   1      32.643  26.566  26.506  1.00  0.00     0.117 C 
ENDROOT
BRANCH   1   2
ATOM      2  N   UNL A   1      31.410  25.828  26.625  1.00  0.00    -0.355 N 
ATOM      3  C   UNL A   1      31.261  24.471  26.704  1.00  0.00     0.239 C 
ATOM      4  O   UNL A   1      30.196  24.026  27.137  1.00  0.00    -0.273 OA
ATOM      5  H   UNL A   1      30.583  26.361  26.653  1.00  0.00     0.163 HD
BRANCH   3   6
ATOM      6  C   UNL A   1      32.461  23.547  26.433  1.00  0.00     0.216 C 
BRANCH   6   7
ATOM      7  N   UNL A   1      32.089  22.161  26.196  1.00  0.00    -0.345 N 
ATOM      8  C   UNL A   1      32.132  21.367  25.094  1.00  0.00     0.240 C 
ATOM      9  O   UNL A   1      31.922  20.166  25.295  1.00  0.00    -0.273 OA
ATOM     10  H   UNL A   1      31.735  21.706  26.994  1.00  0.00     0.164 HD
BRANCH   8  11
ATOM     11  C   UNL A   1      32.590  21.841  23.701  1.00  0.00     0.227 C 
BRANCH  11  12
ATOM     12  N   UNL A   1      32.675  23.287  23.462  1.00  0.00    -0.283 N 
ATOM     13  C   UNL A   1      30.764  26.317  22.907  1.00  0.00     0.024 C 
ATOM     14  C   UNL A   1      31.767  25.435  23.031  1.00  0.00     0.080 C 
ATOM     15  S   UNL A   1      33.443  25.738  23.211  1.00  0.00    -0.054 SA
ATOM     16  C   UNL A   1      31.506  23.969  23.157  1.00  0.00     0.266 C 
ATOM     17  C   UNL A   1      33.833  24.027  23.382  1.00  0.00     0.148 C 
ATOM     18  O   UNL A   1      30.395  23.468  23.075  1.00  0.00    -0.268 OA
ATOM     19  S   UNL A   1      35.411  23.486  23.430  1.00  0.00    -0.052 S 
BRANCH  13  20
ATOM     20  C   UNL A   1      30.781  27.782  22.895  1.00  0.00    -0.049 C 
ATOM     21  C   UNL A   1      32.112  28.450  22.717  1.00  0.00     0.044 C 
ATOM     22  C   UNL A   1      29.601  28.441  22.923  1.00  0.00     0.011 C 
BRANCH  22  23
ATOM     23  C   UNL A   1      29.285  29.856  22.638  1.00  0.00    -0.025 A 
ATOM     24  C   UNL A   1      29.262  30.775  23.698  1.00  0.00     0.008 A 
ATOM     25  C   UNL A   1      28.805  30.271  21.391  1.00  0.00     0.008 A 
ATOM     26  C   UNL A   1      28.814  32.087  23.501  1.00  0.00     0.001 A 
ATOM     27  C   UNL A   1      28.367  31.583  21.190  1.00  0.00     0.001 A 
ATOM     28  C   UNL A   1      28.374  32.493  22.244  1.00  0.00     0.000 A 
ENDBRANCH  22  23
ENDBRANCH  13  20
ENDBRANCH  11  12
ENDBRANCH   8  11
ENDBRANCH   6   7
ENDBRANCH   3   6
ENDBRANCH   1   2
BRANCH   1  29
ATOM     29  C   UNL A   1      32.480  28.075  26.648  1.00  0.00     0.042 C 
BRANCH  29  30
ATOM     30  C   UNL A   1      33.695  28.829  26.123  1.00  0.00     0.118 C 
BRANCH  30  31
ATOM     31  N   UNL A   1      33.723  30.204  26.605  1.00  0.00    -0.352 N 
ATOM     32  C   UNL A   1      34.570  30.853  27.461  1.00  0.00     0.251 C 
ATOM     33  H   UNL A   1      32.999  30.769  26.249  1.00  0.00     0.163 HD
ATOM     34  O   UNL A   1      34.292  31.989  27.838  1.00  0.00    -0.269 OA
BRANCH  32  35
ATOM     35  C   UNL A   1      35.769  30.200  27.993  1.00  0.00     0.039 A 
ATOM     36  C   UNL A   1      36.973  30.435  27.320  1.00  0.00     0.014 A 
ATOM     37  C   UNL A   1      35.736  29.413  29.143  1.00  0.00     0.014 A 
ATOM     38  C   UNL A   1      38.160  29.977  27.866  1.00  0.00     0.010 A 
ATOM     39  C   UNL A   1      36.926  29.049  29.744  1.00  0.00     0.010 A 
ATOM     40  C   UNL A   1      38.141  29.347  29.115  1.00  0.00    -0.014 A 
BRANCH  40  41
ATOM     41  C   UNL A   1      39.397  29.027  29.813  1.00  0.00     0.031 A 
ATOM     42  C   UNL A   1      39.794  29.837  31.005  1.00  0.00     0.074 A 
ATOM     43  C   UNL A   1      40.182  28.064  29.295  1.00  0.00     0.049 A 
ATOM     44  N   UNL A   1      40.907  29.805  31.684  1.00  0.00    -0.248 NA
ATOM     45  C   UNL A   1      38.832  30.851  31.470  1.00  0.00     0.031 C 
ATOM     46  C   UNL A   1      39.877  27.275  28.094  1.00  0.00     0.029 A 
ATOM     47  N   UNL A   1      41.396  27.585  29.701  1.00  0.00    -0.354 N 
ATOM     48  C   UNL A   1      40.786  30.801  32.643  1.00  0.00     0.074 A 
ATOM     49  C   UNL A   1      39.521  31.463  32.421  1.00  0.00     0.031 C 
ATOM     50  C   UNL A   1      40.862  26.388  27.885  1.00  0.00     0.029 A 
ATOM     51  C   UNL A   1      41.884  26.575  28.904  1.00  0.00     0.049 A 
ATOM     52  H   UNL A   1      41.876  27.930  30.488  1.00  0.00     0.167 HD
ATOM     53  C   UNL A   1      41.650  31.108  33.637  1.00  0.00     0.037 A 
ATOM     54  C   UNL A   1      43.035  25.888  28.997  1.00  0.00     0.037 A 
ATOM     55  C   UNL A   1      42.886  30.400  33.841  1.00  0.00     0.049 A 
ATOM     56  C   UNL A   1      43.961  26.230  30.131  1.00  0.00     0.074 A 
ATOM     57  C   UNL A   1      43.839  30.591  34.824  1.00  0.00     0.029 A 
ATOM     58  N   UNL A   1      43.328  29.347  33.049  1.00  0.00    -0.354 N 
ATOM     59  N   UNL A   1      43.824  27.156  31.053  1.00  0.00    -0.248 NA
ATOM     60  C   UNL A   1      45.190  25.438  30.246  1.00  0.00     0.031 C 
ATOM     61  C   UNL A   1      44.869  29.669  34.610  1.00  0.00     0.029 A 
ATOM     62  C   UNL A   1      44.539  28.876  33.520  1.00  0.00     0.049 A 
ATOM     63  H   UNL A   1      42.849  28.991  32.266  1.00  0.00     0.167 HD
ATOM     64  C   UNL A   1      44.934  27.039  31.876  1.00  0.00     0.074 A 
ATOM     65  C   UNL A   1      45.725  25.943  31.348  1.00  0.00     0.031 C 
ATOM     66  C   UNL A   1      45.277  27.767  32.967  1.00  0.00     0.037 A 
BRANCH  53  67
ATOM     67  C   UNL A   1      41.276  32.227  34.564  1.00  0.00     0.058 A 
ATOM     68  C   UNL A   1      41.715  33.544  34.341  1.00  0.00     0.135 A 
ATOM     69  C   UNL A   1      40.465  31.992  35.686  1.00  0.00     0.135 A 
ATOM     70  F   UNL A   1      42.515  33.821  33.299  1.00  0.00    -0.206 F 
ATOM     71  C   UNL A   1      41.383  34.580  35.207  1.00  0.00     0.059 A 
ATOM     72  C   UNL A   1      40.098  33.020  36.552  1.00  0.00     0.059 A 
ATOM     73  F   UNL A   1      40.027  30.753  35.955  1.00  0.00    -0.206 F 
ATOM     74  C   UNL A   1      40.573  34.309  36.309  1.00  0.00     0.060 A 
BRANCH  74  75
ATOM     75  S   UNL A   1      40.140  35.669  37.414  1.00  0.00     0.124 S 
ATOM     76  O   UNL A   1      39.732  36.699  36.463  1.00  0.00    -0.237 OA
ATOM     77  O   UNL A   1      39.070  35.089  38.219  1.00  0.00    -0.237 OA
ATOM     78  O   UNL A   1      41.385  35.935  38.130  1.00  0.00    -0.744 OA
ENDBRANCH  74  75
ENDBRANCH  53  67
BRANCH  54  79
ATOM     79  C   UNL A   1      43.350  24.805  28.027  1.00  0.00     0.058 A 
ATOM     80  C   UNL A   1      42.939  23.485  28.265  1.00  0.00     0.135 A 
ATOM     81  C   UNL A   1      44.055  25.064  26.841  1.00  0.00     0.135 A 
ATOM     82  F   UNL A   1      42.255  23.187  29.380  1.00  0.00    -0.206 F 
ATOM     83  C   UNL A   1      43.246  22.455  27.383  1.00  0.00     0.059 A 
ATOM     84  C   UNL A   1      44.351  24.055  25.929  1.00  0.00     0.059 A 
ATOM     85  F   UNL A   1      44.447  26.315  26.550  1.00  0.00    -0.206 F 
ATOM     86  C   UNL A   1      43.957  22.748  26.218  1.00  0.00     0.060 A 
BRANCH  86  87
ATOM     87  S   UNL A   1      44.344  21.404  25.077  1.00  0.00     0.124 S 
ATOM     88  O   UNL A   1      45.702  21.059  25.480  1.00  0.00    -0.237 OA
ATOM     89  O   UNL A   1      43.314  20.421  25.396  1.00  0.00    -0.237 OA
ATOM     90  O   UNL A   1      44.217  22.032  23.765  1.00  0.00    -0.744 OA
ENDBRANCH  86  87
ENDBRANCH  54  79
BRANCH  66  91
ATOM     91  C   UNL A   1      46.535  27.365  33.677  1.00  0.00     0.058 A 
ATOM     92  C   UNL A   1      47.777  27.928  33.347  1.00  0.00     0.135 A 
ATOM     93  C   UNL A   1      46.483  26.438  34.730  1.00  0.00     0.135 A 
ATOM     94  F   UNL A   1      47.873  28.811  32.342  1.00  0.00    -0.206 F 
ATOM     95  C   UNL A   1      48.934  27.565  34.024  1.00  0.00     0.059 A 
ATOM     96  C   UNL A   1      47.624  26.083  35.438  1.00  0.00     0.059 A 
ATOM     97  F   UNL A   1      45.314  25.884  35.087  1.00  0.00    -0.206 F 
ATOM     98  C   UNL A   1      48.847  26.643  35.068  1.00  0.00     0.060 A 
BRANCH  98  99
ATOM     99  S   UNL A   1      50.351  26.206  35.962  1.00  0.00     0.124 S 
ATOM    100  O   UNL A   1      50.860  25.103  35.156  1.00  0.00    -0.237 OA
ATOM    101  O   UNL A   1      51.122  27.444  35.902  1.00  0.00    -0.237 OA
ATOM    102  O   UNL A   1      49.864  25.844  37.289  1.00  0.00    -0.744 OA
ENDBRANCH  98  99
ENDBRANCH  66  91
ENDBRANCH  40  41
ENDBRANCH  32  35
ENDBRANCH  30  31
ENDBRANCH  29  30
ENDBRANCH   1  29
TORSDOF 18
ENDMDL
MODEL 3
REMARK VINA RESULT:     -12.5      6.399     12.028
REMARK SMILES CC(/C=C1\SC(=S)N(CC(=O)NCC(=O)NCCCNC(=O)c2ccc(-c3c4nc(c(-c5c(F)cc(S(=O)(=O)[O-])cc5F)c5ccc([nH]5)c(-c5c(F)cc(S(=O)(=O)[O-])cc5F)c5nc(c(-c6c(F)cc(S(=O)(=O)[O-])cc6F)c6ccc3[nH]6)C=C5)C=C4)cc2)C1=O)=C\c1ccccc1
REMARK SMILES IDX 17 1 16 2 14 3 15 4 13 6 12 7 10 8 11 9 9 11 8 12 3 13 4 14
REMARK SMILES IDX 5 15 89 16 6 17 90 18 7 19 2 20 1 21 91 22 92 23 93 24 97 25
REMARK SMILES IDX 94 26 96 27 95 28 18 29 19 30 20 31 21 32 22 34 23 35 24 36
REMARK SMILES IDX 88 37 25 38 87 39 26 40 27 41 28 42 81 43 29 44 86 45 80 46
REMARK SMILES IDX 82 47 30 48 85 49 79 50 78 51 31 53 65 54 44 55 64 56 45 57
REMARK SMILES IDX 48 58 63 59 83 60 46 61 47 62 62 64 84 65 49 66 32 67 33 68
REMARK SMILES IDX 42 69 34 70 35 71 41 72 43 73 36 74 37 75 38 76 39 77 40 78
REMARK SMILES IDX 66 79 67 80 76 81 68 82 69 83 75 84 77 85 70 86 71 87 72 88
REMARK SMILES IDX 73 89 74 90 50 91 51 92 60 93 52 94 53 95 59 96 61 97 54 98
REMARK SMILES IDX 55 99 56 100 57 101 58 102
REMARK H PARENT 16 5 12 10 20 33 82 52 48 63
REMARK Flexibility Score: inf
ROOT
ATOM      1  C   UNL A   1      34.436  29.666  27.549  1.00  0.00     0.117 C 
ENDROOT
BRANCH   1   2
ATOM      2  N   UNL A   1      33.520  30.283  26.622  1.00  0.00    -0.355 N 
ATOM      3  C   UNL A   1      32.293  29.818  26.236  1.00  0.00     0.239 C 
ATOM      4  O   UNL A   1      31.508  30.612  25.714  1.00  0.00    -0.273 OA
ATOM      5  H   UNL A   1      33.811  31.135  26.222  1.00  0.00     0.163 HD
BRANCH   3   6
ATOM      6  C   UNL A   1      31.854  28.394  26.617  1.00  0.00     0.216 C 
BRANCH   6   7
ATOM      7  N   UNL A   1      30.988  27.766  25.631  1.00  0.00    -0.345 N 
ATOM      8  C   UNL A   1      31.237  27.086  24.481  1.00  0.00     0.240 C 
ATOM      9  O   UNL A   1      30.264  26.509  23.984  1.00  0.00    -0.273 OA
ATOM     10  H   UNL A   1      30.030  27.851  25.839  1.00  0.00     0.164 HD
BRANCH   8  11
ATOM     11  C   UNL A   1      32.644  26.857  23.896  1.00  0.00     0.227 C 
BRANCH  11  12
ATOM     12  N   UNL A   1      33.041  25.478  23.586  1.00  0.00    -0.283 N 
ATOM     13  C   UNL A   1      34.288  22.369  24.973  1.00  0.00     0.024 C 
ATOM     14  C   UNL A   1      33.884  23.328  24.126  1.00  0.00     0.080 C 
ATOM     15  S   UNL A   1      33.457  23.187  22.474  1.00  0.00    -0.054 SA
ATOM     16  C   UNL A   1      33.625  24.724  24.593  1.00  0.00     0.266 C 
ATOM     17  C   UNL A   1      33.011  24.888  22.343  1.00  0.00     0.148 C 
ATOM     18  O   UNL A   1      33.835  25.108  25.734  1.00  0.00    -0.268 OA
ATOM     19  S   UNL A   1      32.625  25.585  20.877  1.00  0.00    -0.052 S 
BRANCH  13  20
ATOM     20  C   UNL A   1      34.478  20.932  24.762  1.00  0.00    -0.049 C 
ATOM     21  C   UNL A   1      35.857  20.383  24.977  1.00  0.00     0.044 C 
ATOM     22  C   UNL A   1      33.392  20.169  24.505  1.00  0.00     0.011 C 
BRANCH  22  23
ATOM     23  C   UNL A   1      33.221  18.702  24.533  1.00  0.00    -0.025 A 
ATOM     24  C   UNL A   1      32.744  18.093  25.704  1.00  0.00     0.008 A 
ATOM     25  C   UNL A   1      33.712  17.879  23.513  1.00  0.00     0.008 A 
ATOM     26  C   UNL A   1      32.717  16.699  25.829  1.00  0.00     0.001 A 
ATOM     27  C   UNL A   1      33.677  16.487  23.632  1.00  0.00     0.001 A 
ATOM     28  C   UNL A   1      33.177  15.896  24.790  1.00  0.00     0.000 A 
ENDBRANCH  22  23
ENDBRANCH  13  20
ENDBRANCH  11  12
ENDBRANCH   8  11
ENDBRANCH   6   7
ENDBRANCH   3   6
ENDBRANCH   1   2
BRANCH   1  29
ATOM     29  C   UNL A   1      35.779  30.378  27.663  1.00  0.00     0.042 C 
BRANCH  29  30
ATOM     30  C   UNL A   1      35.757  31.466  28.728  1.00  0.00     0.118 C 
BRANCH  30  31
ATOM     31  N   UNL A   1      35.709  30.903  30.070  1.00  0.00    -0.352 N 
ATOM     32  C   UNL A   1      36.667  30.308  30.845  1.00  0.00     0.251 C 
ATOM     33  H   UNL A   1      34.823  30.961  30.499  1.00  0.00     0.163 HD
ATOM     34  O   UNL A   1      36.340  29.767  31.898  1.00  0.00    -0.269 OA
BRANCH  32  35
ATOM     35  C   UNL A   1      38.066  30.242  30.414  1.00  0.00     0.039 A 
ATOM     36  C   UNL A   1      39.013  29.884  31.381  1.00  0.00     0.014 A 
ATOM     37  C   UNL A   1      38.448  30.478  29.095  1.00  0.00     0.014 A 
ATOM     38  C   UNL A   1      40.323  29.650  30.999  1.00  0.00     0.010 A 
ATOM     39  C   UNL A   1      39.726  30.141  28.694  1.00  0.00     0.010 A 
ATOM     40  C   UNL A   1      40.661  29.708  29.642  1.00  0.00    -0.014 A 
BRANCH  40  41
ATOM     41  C   UNL A   1      41.990  29.274  29.181  1.00  0.00     0.031 A 
ATOM     42  C   UNL A   1      43.105  30.269  29.136  1.00  0.00     0.074 A 
ATOM     43  C   UNL A   1      42.126  28.010  28.738  1.00  0.00     0.049 A 
ATOM     44  N   UNL A   1      44.307  30.131  28.651  1.00  0.00    -0.248 NA
ATOM     45  C   UNL A   1      42.818  31.614  29.665  1.00  0.00     0.031 C 
ATOM     46  C   UNL A   1      41.056  27.005  28.700  1.00  0.00     0.029 A 
ATOM     47  N   UNL A   1      43.210  27.353  28.230  1.00  0.00    -0.354 N 
ATOM     48  C   UNL A   1      44.913  31.371  28.801  1.00  0.00     0.074 A 
ATOM     49  C   UNL A   1      43.929  32.267  29.362  1.00  0.00     0.031 C 
ATOM     50  C   UNL A   1      41.550  25.849  28.230  1.00  0.00     0.029 A 
ATOM     51  C   UNL A   1      42.952  26.045  27.891  1.00  0.00     0.049 A 
ATOM     52  H   UNL A   1      44.093  27.774  28.116  1.00  0.00     0.167 HD
ATOM     53  C   UNL A   1      46.190  31.712  28.517  1.00  0.00     0.037 A 
ATOM     54  C   UNL A   1      43.768  25.117  27.361  1.00  0.00     0.037 A 
ATOM     55  C   UNL A   1      47.148  30.777  27.988  1.00  0.00     0.049 A 
ATOM     56  C   UNL A   1      45.191  25.516  27.087  1.00  0.00     0.074 A 
ATOM     57  C   UNL A   1      48.480  30.983  27.681  1.00  0.00     0.029 A 
ATOM     58  N   UNL A   1      46.870  29.445  27.704  1.00  0.00    -0.354 N 
ATOM     59  N   UNL A   1      45.764  26.686  27.260  1.00  0.00    -0.248 NA
ATOM     60  C   UNL A   1      46.080  24.479  26.553  1.00  0.00     0.031 C 
ATOM     61  C   UNL A   1      49.000  29.782  27.189  1.00  0.00     0.029 A 
ATOM     62  C   UNL A   1      48.005  28.816  27.228  1.00  0.00     0.049 A 
ATOM     63  H   UNL A   1      45.993  29.014  27.824  1.00  0.00     0.167 HD
ATOM     64  C   UNL A   1      47.089  26.519  26.885  1.00  0.00     0.074 A 
ATOM     65  C   UNL A   1      47.233  25.130  26.489  1.00  0.00     0.031 C 
ATOM     66  C   UNL A   1      48.099  27.423  26.864  1.00  0.00     0.037 A 
BRANCH  53  67
ATOM     67  C   UNL A   1      46.611  33.127  28.789  1.00  0.00     0.058 A 
ATOM     68  C   UNL A   1      46.536  34.119  27.797  1.00  0.00     0.135 A 
ATOM     69  C   UNL A   1      47.087  33.506  30.055  1.00  0.00     0.135 A 
ATOM     70  F   UNL A   1      46.114  33.807  26.560  1.00  0.00    -0.206 F 
ATOM     71  C   UNL A   1      46.940  35.427  28.041  1.00  0.00     0.059 A 
ATOM     72  C   UNL A   1      47.470  34.817  30.329  1.00  0.00     0.059 A 
ATOM     73  F   UNL A   1      47.191  32.598  31.037  1.00  0.00    -0.206 F 
ATOM     74  C   UNL A   1      47.404  35.767  29.311  1.00  0.00     0.060 A 
BRANCH  74  75
ATOM     75  S   UNL A   1      47.909  37.473  29.614  1.00  0.00     0.124 S 
ATOM     76  O   UNL A   1      48.504  37.833  28.330  1.00  0.00    -0.237 OA
ATOM     77  O   UNL A   1      46.641  38.123  29.929  1.00  0.00    -0.237 OA
ATOM     78  O   UNL A   1      48.845  37.358  30.729  1.00  0.00    -0.744 OA
ENDBRANCH  74  75
ENDBRANCH  53  67
BRANCH  54  79
ATOM     79  C   UNL A   1      43.276  23.739  27.097  1.00  0.00     0.058 A 
ATOM     80  C   UNL A   1      43.250  22.777  28.117  1.00  0.00     0.135 A 
ATOM     81  C   UNL A   1      42.811  23.355  25.828  1.00  0.00     0.135 A 
ATOM     82  F   UNL A   1      43.675  23.096  29.349  1.00  0.00    -0.206 F 
ATOM     83  C   UNL A   1      42.817  21.476  27.884  1.00  0.00     0.059 A 
ATOM     84  C   UNL A   1      42.348  22.067  25.577  1.00  0.00     0.059 A 
ATOM     85  F   UNL A   1      42.787  24.245  24.823  1.00  0.00    -0.206 F 
ATOM     86  C   UNL A   1      42.372  21.128  26.607  1.00  0.00     0.060 A 
BRANCH  86  87
ATOM     87  S   UNL A   1      41.806  19.439  26.317  1.00  0.00     0.124 S 
ATOM     88  O   UNL A   1      42.234  18.772  27.542  1.00  0.00    -0.237 OA
ATOM     89  O   UNL A   1      40.366  19.618  26.158  1.00  0.00    -0.237 OA
ATOM     90  O   UNL A   1      42.519  19.049  25.105  1.00  0.00    -0.744 OA
ENDBRANCH  86  87
ENDBRANCH  54  79
BRANCH  66  91
ATOM     91  C   UNL A   1      49.446  26.919  26.443  1.00  0.00     0.058 A 
ATOM     92  C   UNL A   1      50.310  26.286  27.350  1.00  0.00     0.135 A 
ATOM     93  C   UNL A   1      49.853  27.030  25.104  1.00  0.00     0.135 A 
ATOM     94  F   UNL A   1      49.964  26.165  28.641  1.00  0.00    -0.206 F 
ATOM     95  C   UNL A   1      51.547  25.802  26.946  1.00  0.00     0.059 A 
ATOM     96  C   UNL A   1      51.074  26.528  24.674  1.00  0.00     0.059 A 
ATOM     97  F   UNL A   1      49.053  27.618  24.200  1.00  0.00    -0.206 F 
ATOM     98  C   UNL A   1      51.920  25.927  25.607  1.00  0.00     0.060 A 
BRANCH  98  99
ATOM     99  S   UNL A   1      53.515  25.263  25.089  1.00  0.00     0.124 S 
ATOM    100  O   UNL A   1      54.424  25.930  26.014  1.00  0.00    -0.237 OA
ATOM    101  O   UNL A   1      53.339  23.829  25.296  1.00  0.00    -0.237 OA
ATOM    102  O   UNL A   1      53.619  25.680  23.694  1.00  0.00    -0.744 OA
ENDBRANCH  98  99
ENDBRANCH  66  91
ENDBRANCH  40  41
ENDBRANCH  32  35
ENDBRANCH  30  31
ENDBRANCH  29  30
ENDBRANCH   1  29
TORSDOF 18
ENDMDL
