MODEL 1
REMARK VINA RESULT:     -13.8      0.000      0.000
REMARK SMILES COc1cc(OC)c(-c2cc(C(=O)NCCCNC(=O)c3ccc(-c4c5nc(c(-c6c(F)cc(S(=O)(=O)[O-])cc6F)c6ccc([nH]6)c(-c6c(F)cc(S(=O)(=O)[O-])cc6F)c6nc(c(-c7c(F)cc(S(=O)(=O)[O-])cc7F)c7ccc4[nH]7)C=C6)C=C5)cc3)c3c(-c4ccc(Cl)cc4)[nH]nc3n2)cc1OC
REMARK SMILES IDX 16 1 15 2 14 3 12 4 13 5 11 7 9 8 10 9 99 10 98 11 87 12
REMARK SMILES IDX 97 13 88 14 96 15 8 17 3 18 4 19 101 20 5 21 100 22 2 23
REMARK SMILES IDX 1 24 102 25 103 26 6 27 7 28 89 29 90 30 95 31 91 32 94 33
REMARK SMILES IDX 92 34 93 35 17 36 18 37 19 38 20 40 21 41 22 42 86 43 23 44
REMARK SMILES IDX 85 45 24 46 25 47 26 48 79 49 27 50 84 51 78 52 80 53 28 54
REMARK SMILES IDX 83 55 77 56 76 57 29 59 63 60 42 61 62 62 43 63 46 64 61 65
REMARK SMILES IDX 81 66 44 67 45 68 60 70 82 71 47 72 30 73 31 74 40 75 32 76
REMARK SMILES IDX 33 77 39 78 41 79 34 80 35 81 36 82 37 83 38 84 64 85 65 86
REMARK SMILES IDX 74 87 66 88 67 89 73 90 75 91 68 92 69 93 70 94 71 95 72 96
REMARK SMILES IDX 48 97 49 98 58 99 50 100 51 101 57 102 59 103 52 104 53 105
REMARK SMILES IDX 54 106 55 107 56 108
REMARK H PARENT 14 6 96 16 18 39 80 58 46 69
REMARK Flexibility Score: inf
ROOT
ATOM      1  C   UNL A   1      33.834  28.598  25.808  1.00  0.00     0.042 C 
ENDROOT
BRANCH   1   2
ATOM      2  C   UNL A   1      32.324  28.380  25.635  1.00  0.00     0.118 C 
BRANCH   2   3
ATOM      3  N   UNL A   1      31.858  27.135  26.225  1.00  0.00    -0.352 N 
ATOM      4  C   UNL A   1      32.252  25.820  26.148  1.00  0.00     0.252 C 
ATOM      5  O   UNL A   1      31.814  25.109  27.045  1.00  0.00    -0.269 OA
ATOM      6  H   UNL A   1      31.080  27.263  26.815  1.00  0.00     0.163 HD
BRANCH   4   7
ATOM      7  C   UNL A   1      33.180  25.279  25.127  1.00  0.00     0.055 A 
ATOM      8  C   UNL A   1      35.265  24.036  24.563  1.00  0.00     0.077 A 
ATOM      9  C   UNL A   1      34.449  24.785  25.442  1.00  0.00     0.043 A 
ATOM     10  N   UNL A   1      34.996  23.789  23.261  1.00  0.00    -0.226 NA
ATOM     11  C   UNL A   1      33.844  24.383  22.849  1.00  0.00     0.182 A 
ATOM     12  C   UNL A   1      32.962  25.107  23.744  1.00  0.00     0.059 A 
ATOM     13  N   UNL A   1      33.386  24.368  21.599  1.00  0.00    -0.154 NA
ATOM     14  C   UNL A   1      31.946  25.569  22.920  1.00  0.00     0.075 A 
ATOM     15  N   UNL A   1      32.265  25.098  21.667  1.00  0.00    -0.275 N 
ATOM     16  H   UNL A   1      31.708  25.285  20.876  1.00  0.00     0.190 HD
BRANCH   8  17
ATOM     17  C   UNL A   1      36.447  23.394  25.162  1.00  0.00     0.046 A 
ATOM     18  C   UNL A   1      38.938  22.485  26.167  1.00  0.00     0.164 A 
ATOM     19  C   UNL A   1      38.018  21.596  25.588  1.00  0.00     0.097 A 
ATOM     20  C   UNL A   1      38.637  23.842  26.241  1.00  0.00     0.161 A 
ATOM     21  C   UNL A   1      36.791  22.040  25.057  1.00  0.00     0.132 A 
ATOM     22  C   UNL A   1      37.387  24.262  25.773  1.00  0.00     0.064 A 
BRANCH  18  23
ATOM     23  O   UNL A   1      40.162  21.983  26.516  1.00  0.00    -0.493 OA
ATOM     24  C   UNL A   1      40.170  20.556  26.509  1.00  0.00     0.278 C 
ENDBRANCH  18  23
BRANCH  20  25
ATOM     25  O   UNL A   1      39.405  24.887  26.664  1.00  0.00    -0.493 OA
ATOM     26  C   UNL A   1      39.247  25.391  27.979  1.00  0.00     0.278 C 
ENDBRANCH  20  25
BRANCH  21  27
ATOM     27  O   UNL A   1      36.058  21.038  24.475  1.00  0.00    -0.496 OA
ATOM     28  C   UNL A   1      34.975  20.503  25.232  1.00  0.00     0.278 C 
ENDBRANCH  21  27
ENDBRANCH   8  17
BRANCH  14  29
ATOM     29  C   UNL A   1      30.763  26.404  23.097  1.00  0.00     0.000 A 
ATOM     30  C   UNL A   1      30.740  27.700  22.562  1.00  0.00     0.012 A 
ATOM     31  C   UNL A   1      29.631  25.919  23.767  1.00  0.00     0.012 A 
ATOM     32  C   UNL A   1      29.577  28.471  22.635  1.00  0.00     0.021 A 
ATOM     33  C   UNL A   1      28.464  26.687  23.828  1.00  0.00     0.021 A 
ATOM     34  C   UNL A   1      28.438  27.953  23.247  1.00  0.00     0.041 A 
ATOM     35  Cl  UNL A   1      26.986  28.874  23.252  1.00  0.00    -0.084 Cl
ENDBRANCH  14  29
ENDBRANCH   4   7
ENDBRANCH   2   3
ENDBRANCH   1   2
BRANCH   1  36
ATOM     36  C   UNL A   1      34.213  28.812  27.263  1.00  0.00     0.118 C 
BRANCH  36  37
ATOM     37  N   UNL A   1      33.977  30.196  27.688  1.00  0.00    -0.352 N 
ATOM     38  C   UNL A   1      34.823  31.068  28.351  1.00  0.00     0.251 C 
ATOM     39  H   UNL A   1      33.088  30.557  27.471  1.00  0.00     0.163 HD
ATOM     40  O   UNL A   1      34.386  32.063  28.897  1.00  0.00    -0.269 OA
BRANCH  38  41
ATOM     41  C   UNL A   1      36.259  30.750  28.387  1.00  0.00     0.039 A 
ATOM     42  C   UNL A   1      37.197  31.671  28.864  1.00  0.00     0.014 A 
ATOM     43  C   UNL A   1      36.642  29.472  28.001  1.00  0.00     0.014 A 
ATOM     44  C   UNL A   1      38.514  31.253  29.036  1.00  0.00     0.010 A 
ATOM     45  C   UNL A   1      37.875  29.009  28.363  1.00  0.00     0.010 A 
ATOM     46  C   UNL A   1      38.838  29.908  28.806  1.00  0.00    -0.014 A 
BRANCH  46  47
ATOM     47  C   UNL A   1      40.169  29.390  29.093  1.00  0.00     0.031 A 
ATOM     48  C   UNL A   1      40.483  29.207  30.536  1.00  0.00     0.074 A 
ATOM     49  C   UNL A   1      40.957  28.879  28.122  1.00  0.00     0.049 A 
ATOM     50  N   UNL A   1      41.335  29.867  31.248  1.00  0.00    -0.248 NA
ATOM     51  C   UNL A   1      39.651  28.280  31.322  1.00  0.00     0.031 C 
ATOM     52  C   UNL A   1      40.656  28.682  26.698  1.00  0.00     0.029 A 
ATOM     53  N   UNL A   1      42.174  28.293  28.244  1.00  0.00    -0.354 N 
ATOM     54  C   UNL A   1      41.319  29.281  32.512  1.00  0.00     0.074 A 
ATOM     55  C   UNL A   1      40.134  28.464  32.554  1.00  0.00     0.031 C 
ATOM     56  C   UNL A   1      41.531  27.801  26.168  1.00  0.00     0.029 A 
ATOM     57  C   UNL A   1      42.554  27.519  27.155  1.00  0.00     0.049 A 
ATOM     58  H   UNL A   1      42.743  28.410  29.039  1.00  0.00     0.167 HD
ATOM     59  C   UNL A   1      42.407  29.330  33.334  1.00  0.00     0.037 A 
ATOM     60  C   UNL A   1      43.607  26.668  27.105  1.00  0.00     0.037 A 
ATOM     61  C   UNL A   1      43.367  30.299  32.865  1.00  0.00     0.049 A 
ATOM     62  C   UNL A   1      44.545  27.096  28.185  1.00  0.00     0.074 A 
ATOM     63  C   UNL A   1      43.313  31.653  32.588  1.00  0.00     0.029 A 
ATOM     64  N   UNL A   1      44.487  29.834  32.213  1.00  0.00    -0.354 N 
ATOM     65  N   UNL A   1      45.169  28.248  28.184  1.00  0.00    -0.248 NA
ATOM     66  C   UNL A   1      44.394  26.479  29.495  1.00  0.00     0.031 C 
ATOM     67  C   UNL A   1      44.062  31.807  31.384  1.00  0.00     0.029 A 
ATOM     68  C   UNL A   1      44.603  30.562  31.054  1.00  0.00     0.049 A 
ATOM     69  H   UNL A   1      45.089  29.117  32.518  1.00  0.00     0.167 HD
ATOM     70  C   UNL A   1      45.110  28.693  29.498  1.00  0.00     0.074 A 
ATOM     71  C   UNL A   1      44.687  27.525  30.273  1.00  0.00     0.031 C 
ATOM     72  C   UNL A   1      45.116  30.025  29.810  1.00  0.00     0.037 A 
BRANCH  59  73
ATOM     73  C   UNL A   1      42.776  28.271  34.349  1.00  0.00     0.058 A 
ATOM     74  C   UNL A   1      42.930  28.638  35.703  1.00  0.00     0.135 A 
ATOM     75  C   UNL A   1      43.252  26.986  34.011  1.00  0.00     0.135 A 
ATOM     76  F   UNL A   1      42.515  29.837  36.140  1.00  0.00    -0.206 F 
ATOM     77  C   UNL A   1      43.581  27.823  36.630  1.00  0.00     0.059 A 
ATOM     78  C   UNL A   1      43.852  26.135  34.931  1.00  0.00     0.059 A 
ATOM     79  F   UNL A   1      43.251  26.529  32.753  1.00  0.00    -0.206 F 
ATOM     80  C   UNL A   1      44.056  26.579  36.226  1.00  0.00     0.060 A 
BRANCH  80  81
ATOM     81  S   UNL A   1      45.000  25.573  37.384  1.00  0.00     0.124 S 
ATOM     82  O   UNL A   1      44.443  26.002  38.661  1.00  0.00    -0.237 OA
ATOM     83  O   UNL A   1      44.658  24.220  36.959  1.00  0.00    -0.237 OA
ATOM     84  O   UNL A   1      46.381  25.974  37.128  1.00  0.00    -0.744 OA
ENDBRANCH  80  81
ENDBRANCH  59  73
BRANCH  60  85
ATOM     85  C   UNL A   1      43.650  25.335  26.441  1.00  0.00     0.058 A 
ATOM     86  C   UNL A   1      44.479  25.097  25.332  1.00  0.00     0.135 A 
ATOM     87  C   UNL A   1      43.071  24.189  27.032  1.00  0.00     0.135 A 
ATOM     88  F   UNL A   1      45.090  26.122  24.716  1.00  0.00    -0.206 F 
ATOM     89  C   UNL A   1      44.760  23.804  24.869  1.00  0.00     0.059 A 
ATOM     90  C   UNL A   1      43.321  22.894  26.578  1.00  0.00     0.059 A 
ATOM     91  F   UNL A   1      42.315  24.281  28.135  1.00  0.00    -0.206 F 
ATOM     92  C   UNL A   1      44.191  22.706  25.514  1.00  0.00     0.060 A 
BRANCH  92  93
ATOM     93  S   UNL A   1      44.699  21.032  25.050  1.00  0.00     0.124 S 
ATOM     94  O   UNL A   1      43.715  20.211  25.748  1.00  0.00    -0.237 OA
ATOM     95  O   UNL A   1      44.583  21.067  23.596  1.00  0.00    -0.237 OA
ATOM     96  O   UNL A   1      46.066  20.939  25.557  1.00  0.00    -0.744 OA
ENDBRANCH  92  93
ENDBRANCH  60  85
BRANCH  72  97
ATOM     97  C   UNL A   1      45.435  31.035  28.733  1.00  0.00     0.058 A 
ATOM     98  C   UNL A   1      44.482  31.626  27.885  1.00  0.00     0.135 A 
ATOM     99  C   UNL A   1      46.733  31.571  28.694  1.00  0.00     0.135 A 
ATOM    100  F   UNL A   1      43.195  31.259  27.931  1.00  0.00    -0.206 F 
ATOM    101  C   UNL A   1      44.808  32.669  27.014  1.00  0.00     0.059 A 
ATOM    102  C   UNL A   1      47.074  32.633  27.859  1.00  0.00     0.059 A 
ATOM    103  F   UNL A   1      47.679  31.100  29.523  1.00  0.00    -0.206 F 
ATOM    104  C   UNL A   1      46.108  33.171  27.013  1.00  0.00     0.060 A 
BRANCH 104 105
ATOM    105  S   UNL A   1      46.510  34.573  25.948  1.00  0.00     0.124 S 
ATOM    106  O   UNL A   1      45.523  34.442  24.882  1.00  0.00    -0.237 OA
ATOM    107  O   UNL A   1      46.330  35.713  26.842  1.00  0.00    -0.237 OA
ATOM    108  O   UNL A   1      47.893  34.317  25.552  1.00  0.00    -0.744 OA
ENDBRANCH 104 105
ENDBRANCH  72  97
ENDBRANCH  46  47
ENDBRANCH  38  41
ENDBRANCH  36  37
ENDBRANCH   1  36
TORSDOF 18
ENDMDL
MODEL 2
REMARK VINA RESULT:     -13.4      3.015      9.425
REMARK SMILES COc1cc(OC)c(-c2cc(C(=O)NCCCNC(=O)c3ccc(-c4c5nc(c(-c6c(F)cc(S(=O)(=O)[O-])cc6F)c6ccc([nH]6)c(-c6c(F)cc(S(=O)(=O)[O-])cc6F)c6nc(c(-c7c(F)cc(S(=O)(=O)[O-])cc7F)c7ccc4[nH]7)C=C6)C=C5)cc3)c3c(-c4ccc(Cl)cc4)[nH]nc3n2)cc1OC
REMARK SMILES IDX 16 1 15 2 14 3 12 4 13 5 11 7 9 8 10 9 99 10 98 11 87 12
REMARK SMILES IDX 97 13 88 14 96 15 8 17 3 18 4 19 101 20 5 21 100 22 2 23
REMARK SMILES IDX 1 24 102 25 103 26 6 27 7 28 89 29 90 30 95 31 91 32 94 33
REMARK SMILES IDX 92 34 93 35 17 36 18 37 19 38 20 40 21 41 22 42 86 43 23 44
REMARK SMILES IDX 85 45 24 46 25 47 26 48 79 49 27 50 84 51 78 52 80 53 28 54
REMARK SMILES IDX 83 55 77 56 76 57 29 59 63 60 42 61 62 62 43 63 46 64 61 65
REMARK SMILES IDX 81 66 44 67 45 68 60 70 82 71 47 72 30 73 31 74 40 75 32 76
REMARK SMILES IDX 33 77 39 78 41 79 34 80 35 81 36 82 37 83 38 84 64 85 65 86
REMARK SMILES IDX 74 87 66 88 67 89 73 90 75 91 68 92 69 93 70 94 71 95 72 96
REMARK SMILES IDX 48 97 49 98 58 99 50 100 51 101 57 102 59 103 52 104 53 105
REMARK SMILES IDX 54 106 55 107 56 108
REMARK H PARENT 14 6 96 16 18 39 80 58 46 69
REMARK Flexibility Score: inf
ROOT
ATOM      1  C   UNL A   1      36.973  22.664  24.261  1.00  0.00     0.042 C 
ENDROOT
BRANCH   1   2
ATOM      2  C   UNL A   1      36.322  23.811  23.476  1.00  0.00     0.118 C 
BRANCH   2   3
ATOM      3  N   UNL A   1      35.042  23.444  22.890  1.00  0.00    -0.352 N 
ATOM      4  C   UNL A   1      33.727  23.692  23.204  1.00  0.00     0.252 C 
ATOM      5  O   UNL A   1      32.941  23.488  22.287  1.00  0.00    -0.269 OA
ATOM      6  H   UNL A   1      35.140  22.891  22.081  1.00  0.00     0.163 HD
BRANCH   4   7
ATOM      7  C   UNL A   1      33.260  24.229  24.505  1.00  0.00     0.055 A 
ATOM      8  C   UNL A   1      32.639  26.179  25.927  1.00  0.00     0.077 A 
ATOM      9  C   UNL A   1      33.294  25.589  24.820  1.00  0.00     0.043 A 
ATOM     10  N   UNL A   1      31.988  25.507  26.903  1.00  0.00    -0.226 NA
ATOM     11  C   UNL A   1      32.058  24.158  26.738  1.00  0.00     0.182 A 
ATOM     12  C   UNL A   1      32.673  23.533  25.583  1.00  0.00     0.059 A 
ATOM     13  N   UNL A   1      31.572  23.261  27.593  1.00  0.00    -0.154 NA
ATOM     14  C   UNL A   1      32.558  22.172  25.832  1.00  0.00     0.075 A 
ATOM     15  N   UNL A   1      31.902  22.087  27.038  1.00  0.00    -0.275 N 
ATOM     16  H   UNL A   1      31.690  21.225  27.463  1.00  0.00     0.190 HD
BRANCH   8  17
ATOM     17  C   UNL A   1      32.583  27.650  25.941  1.00  0.00     0.046 A 
ATOM     18  C   UNL A   1      32.587  30.453  26.372  1.00  0.00     0.164 A 
ATOM     19  C   UNL A   1      31.590  29.836  25.598  1.00  0.00     0.097 A 
ATOM     20  C   UNL A   1      33.589  29.681  26.953  1.00  0.00     0.161 A 
ATOM     21  C   UNL A   1      31.559  28.441  25.404  1.00  0.00     0.132 A 
ATOM     22  C   UNL A   1      33.588  28.306  26.696  1.00  0.00     0.064 A 
BRANCH  18  23
ATOM     23  O   UNL A   1      32.446  31.789  26.628  1.00  0.00    -0.493 OA
ATOM     24  C   UNL A   1      31.139  32.256  26.295  1.00  0.00     0.278 C 
ENDBRANCH  18  23
BRANCH  20  25
ATOM     25  O   UNL A   1      34.587  30.044  27.810  1.00  0.00    -0.493 OA
ATOM     26  C   UNL A   1      35.711  29.198  27.980  1.00  0.00     0.278 C 
ENDBRANCH  20  25
BRANCH  21  27
ATOM     27  O   UNL A   1      30.475  28.019  24.678  1.00  0.00    -0.496 OA
ATOM     28  C   UNL A   1      30.667  27.822  23.280  1.00  0.00     0.278 C 
ENDBRANCH  21  27
ENDBRANCH   8  17
BRANCH  14  29
ATOM     29  C   UNL A   1      32.992  20.953  25.159  1.00  0.00     0.000 A 
ATOM     30  C   UNL A   1      34.312  20.507  25.310  1.00  0.00     0.012 A 
ATOM     31  C   UNL A   1      32.097  20.197  24.388  1.00  0.00     0.012 A 
ATOM     32  C   UNL A   1      34.712  19.288  24.757  1.00  0.00     0.021 A 
ATOM     33  C   UNL A   1      32.494  18.970  23.846  1.00  0.00     0.021 A 
ATOM     34  C   UNL A   1      33.796  18.514  24.047  1.00  0.00     0.041 A 
ATOM     35  Cl  UNL A   1      34.272  16.975  23.448  1.00  0.00    -0.084 Cl
ENDBRANCH  14  29
ENDBRANCH   4   7
ENDBRANCH   2   3
ENDBRANCH   1   2
BRANCH   1  36
ATOM     36  C   UNL A   1      37.553  23.137  25.583  1.00  0.00     0.118 C 
BRANCH  36  37
ATOM     37  N   UNL A   1      38.479  22.153  26.153  1.00  0.00    -0.352 N 
ATOM     38  C   UNL A   1      39.727  22.346  26.721  1.00  0.00     0.251 C 
ATOM     39  H   UNL A   1      38.169  21.219  26.127  1.00  0.00     0.163 HD
ATOM     40  O   UNL A   1      40.493  21.414  26.870  1.00  0.00    -0.269 OA
BRANCH  38  41
ATOM     41  C   UNL A   1      40.100  23.710  27.128  1.00  0.00     0.039 A 
ATOM     42  C   UNL A   1      39.308  24.812  26.793  1.00  0.00     0.014 A 
ATOM     43  C   UNL A   1      41.230  23.855  27.923  1.00  0.00     0.014 A 
ATOM     44  C   UNL A   1      39.617  26.050  27.351  1.00  0.00     0.010 A 
ATOM     45  C   UNL A   1      41.406  25.013  28.625  1.00  0.00     0.010 A 
ATOM     46  C   UNL A   1      40.657  26.135  28.288  1.00  0.00    -0.014 A 
BRANCH  46  47
ATOM     47  C   UNL A   1      40.938  27.376  28.996  1.00  0.00     0.031 A 
ATOM     48  C   UNL A   1      41.997  28.229  28.390  1.00  0.00     0.074 A 
ATOM     49  C   UNL A   1      40.130  27.833  29.978  1.00  0.00     0.049 A 
ATOM     50  N   UNL A   1      43.167  28.494  28.866  1.00  0.00    -0.248 NA
ATOM     51  C   UNL A   1      41.790  28.734  27.021  1.00  0.00     0.031 C 
ATOM     52  C   UNL A   1      38.863  27.273  30.464  1.00  0.00     0.029 A 
ATOM     53  N   UNL A   1      40.216  28.998  30.668  1.00  0.00    -0.354 N 
ATOM     54  C   UNL A   1      43.754  29.389  27.975  1.00  0.00     0.074 A 
ATOM     55  C   UNL A   1      42.958  29.334  26.777  1.00  0.00     0.031 C 
ATOM     56  C   UNL A   1      38.186  28.217  31.153  1.00  0.00     0.029 A 
ATOM     57  C   UNL A   1      39.045  29.373  31.314  1.00  0.00     0.049 A 
ATOM     58  H   UNL A   1      41.042  29.532  30.708  1.00  0.00     0.167 HD
ATOM     59  C   UNL A   1      44.708  30.276  28.381  1.00  0.00     0.037 A 
ATOM     60  C   UNL A   1      38.797  30.576  31.888  1.00  0.00     0.037 A 
ATOM     61  C   UNL A   1      45.213  29.933  29.688  1.00  0.00     0.049 A 
ATOM     62  C   UNL A   1      40.127  31.196  32.156  1.00  0.00     0.074 A 
ATOM     63  C   UNL A   1      45.804  28.804  30.227  1.00  0.00     0.029 A 
ATOM     64  N   UNL A   1      44.765  30.664  30.765  1.00  0.00    -0.354 N 
ATOM     65  N   UNL A   1      40.995  30.703  33.003  1.00  0.00    -0.248 NA
ATOM     66  C   UNL A   1      40.692  32.056  31.125  1.00  0.00     0.031 C 
ATOM     67  C   UNL A   1      45.210  28.664  31.516  1.00  0.00     0.029 A 
ATOM     68  C   UNL A   1      44.369  29.760  31.721  1.00  0.00     0.049 A 
ATOM     69  H   UNL A   1      44.734  31.645  30.837  1.00  0.00     0.167 HD
ATOM     70  C   UNL A   1      42.229  30.836  32.377  1.00  0.00     0.074 A 
ATOM     71  C   UNL A   1      41.986  31.745  31.256  1.00  0.00     0.031 C 
ATOM     72  C   UNL A   1      43.263  29.978  32.631  1.00  0.00     0.037 A 
BRANCH  59  73
ATOM     73  C   UNL A   1      44.935  31.643  27.775  1.00  0.00     0.058 A 
ATOM     74  C   UNL A   1      46.183  31.939  27.188  1.00  0.00     0.135 A 
ATOM     75  C   UNL A   1      44.089  32.753  27.991  1.00  0.00     0.135 A 
ATOM     76  F   UNL A   1      47.071  30.963  26.937  1.00  0.00    -0.206 F 
ATOM     77  C   UNL A   1      46.592  33.245  26.914  1.00  0.00     0.059 A 
ATOM     78  C   UNL A   1      44.453  34.056  27.673  1.00  0.00     0.059 A 
ATOM     79  F   UNL A   1      42.909  32.644  28.613  1.00  0.00    -0.206 F 
ATOM     80  C   UNL A   1      45.723  34.299  27.179  1.00  0.00     0.060 A 
BRANCH  80  81
ATOM     81  S   UNL A   1      46.287  35.992  26.939  1.00  0.00     0.124 S 
ATOM     82  O   UNL A   1      47.366  36.080  27.916  1.00  0.00    -0.237 OA
ATOM     83  O   UNL A   1      46.691  35.982  25.538  1.00  0.00    -0.237 OA
ATOM     84  O   UNL A   1      45.098  36.786  27.236  1.00  0.00    -0.744 OA
ENDBRANCH  80  81
ENDBRANCH  59  73
BRANCH  60  85
ATOM     85  C   UNL A   1      37.512  31.329  31.864  1.00  0.00     0.058 A 
ATOM     86  C   UNL A   1      36.867  31.712  33.052  1.00  0.00     0.135 A 
ATOM     87  C   UNL A   1      37.013  31.916  30.679  1.00  0.00     0.135 A 
ATOM     88  F   UNL A   1      37.282  31.222  34.231  1.00  0.00    -0.206 F 
ATOM     89  C   UNL A   1      35.829  32.654  33.073  1.00  0.00     0.059 A 
ATOM     90  C   UNL A   1      35.971  32.842  30.671  1.00  0.00     0.059 A 
ATOM     91  F   UNL A   1      37.589  31.681  29.491  1.00  0.00    -0.206 F 
ATOM     92  C   UNL A   1      35.402  33.230  31.876  1.00  0.00     0.060 A 
BRANCH  92  93
ATOM     93  S   UNL A   1      34.204  34.585  31.911  1.00  0.00     0.124 S 
ATOM     94  O   UNL A   1      34.983  35.665  32.506  1.00  0.00    -0.237 OA
ATOM     95  O   UNL A   1      33.874  34.741  30.499  1.00  0.00    -0.237 OA
ATOM     96  O   UNL A   1      33.122  34.061  32.742  1.00  0.00    -0.744 OA
ENDBRANCH  92  93
ENDBRANCH  60  85
BRANCH  72  97
ATOM     97  C   UNL A   1      43.157  29.013  33.789  1.00  0.00     0.058 A 
ATOM     98  C   UNL A   1      43.391  29.351  35.134  1.00  0.00     0.135 A 
ATOM     99  C   UNL A   1      42.603  27.746  33.544  1.00  0.00     0.135 A 
ATOM    100  F   UNL A   1      43.812  30.576  35.474  1.00  0.00    -0.206 F 
ATOM    101  C   UNL A   1      43.124  28.464  36.180  1.00  0.00     0.059 A 
ATOM    102  C   UNL A   1      42.297  26.857  34.572  1.00  0.00     0.059 A 
ATOM    103  F   UNL A   1      42.292  27.380  32.289  1.00  0.00    -0.206 F 
ATOM    104  C   UNL A   1      42.572  27.218  35.888  1.00  0.00     0.060 A 
BRANCH 104 105
ATOM    105  S   UNL A   1      42.151  26.102  37.245  1.00  0.00     0.124 S 
ATOM    106  O   UNL A   1      43.146  26.455  38.252  1.00  0.00    -0.237 OA
ATOM    107  O   UNL A   1      40.775  26.481  37.553  1.00  0.00    -0.237 OA
ATOM    108  O   UNL A   1      42.304  24.774  36.655  1.00  0.00    -0.744 OA
ENDBRANCH 104 105
ENDBRANCH  72  97
ENDBRANCH  46  47
ENDBRANCH  38  41
ENDBRANCH  36  37
ENDBRANCH   1  36
TORSDOF 18
ENDMDL
MODEL 3
REMARK VINA RESULT:     -13.0      3.291      9.476
REMARK SMILES COc1cc(OC)c(-c2cc(C(=O)NCCCNC(=O)c3ccc(-c4c5nc(c(-c6c(F)cc(S(=O)(=O)[O-])cc6F)c6ccc([nH]6)c(-c6c(F)cc(S(=O)(=O)[O-])cc6F)c6nc(c(-c7c(F)cc(S(=O)(=O)[O-])cc7F)c7ccc4[nH]7)C=C6)C=C5)cc3)c3c(-c4ccc(Cl)cc4)[nH]nc3n2)cc1OC
REMARK SMILES IDX 16 1 15 2 14 3 12 4 13 5 11 7 9 8 10 9 99 10 98 11 87 12
REMARK SMILES IDX 97 13 88 14 96 15 8 17 3 18 4 19 101 20 5 21 100 22 2 23
REMARK SMILES IDX 1 24 102 25 103 26 6 27 7 28 89 29 90 30 95 31 91 32 94 33
REMARK SMILES IDX 92 34 93 35 17 36 18 37 19 38 20 40 21 41 22 42 86 43 23 44
REMARK SMILES IDX 85 45 24 46 25 47 26 48 79 49 27 50 84 51 78 52 80 53 28 54
REMARK SMILES IDX 83 55 77 56 76 57 29 59 63 60 42 61 62 62 43 63 46 64 61 65
REMARK SMILES IDX 81 66 44 67 45 68 60 70 82 71 47 72 30 73 31 74 40 75 32 76
REMARK SMILES IDX 33 77 39 78 41 79 34 80 35 81 36 82 37 83 38 84 64 85 65 86
REMARK SMILES IDX 74 87 66 88 67 89 73 90 75 91 68 92 69 93 70 94 71 95 72 96
REMARK SMILES IDX 48 97 49 98 58 99 50 100 51 101 57 102 59 103 52 104 53 105
REMARK SMILES IDX 54 106 55 107 56 108
REMARK H PARENT 14 6 96 16 18 39 80 58 46 69
REMARK Flexibility Score: inf
ROOT
ATOM      1  C   UNL A   1      36.672  22.340  24.495  1.00  0.00     0.042 C 
ENDROOT
BRANCH   1   2
ATOM      2  C   UNL A   1      36.466  20.893  24.963  1.00  0.00     0.118 C 
BRANCH   2   3
ATOM      3  N   UNL A   1      35.431  20.765  25.978  1.00  0.00    -0.352 N 
ATOM      4  C   UNL A   1      34.069  20.949  26.000  1.00  0.00     0.252 C 
ATOM      5  O   UNL A   1      33.505  20.427  26.954  1.00  0.00    -0.269 OA
ATOM      6  H   UNL A   1      35.789  20.483  26.851  1.00  0.00     0.163 HD
BRANCH   4   7
ATOM      7  C   UNL A   1      33.298  21.651  24.945  1.00  0.00     0.055 A 
ATOM      8  C   UNL A   1      32.560  23.779  23.880  1.00  0.00     0.077 A 
ATOM      9  C   UNL A   1      33.062  23.027  24.969  1.00  0.00     0.043 A 
ATOM     10  N   UNL A   1      32.126  23.267  22.706  1.00  0.00    -0.226 NA
ATOM     11  C   UNL A   1      32.181  21.908  22.683  1.00  0.00     0.182 A 
ATOM     12  C   UNL A   1      32.744  21.120  23.761  1.00  0.00     0.059 A 
ATOM     13  N   UNL A   1      31.744  21.147  21.682  1.00  0.00    -0.154 NA
ATOM     14  C   UNL A   1      32.571  19.806  23.349  1.00  0.00     0.075 A 
ATOM     15  N   UNL A   1      31.970  19.899  22.115  1.00  0.00    -0.275 N 
ATOM     16  H   UNL A   1      31.723  19.105  21.587  1.00  0.00     0.190 HD
BRANCH   8  17
ATOM     17  C   UNL A   1      32.622  25.244  24.019  1.00  0.00     0.046 A 
ATOM     18  C   UNL A   1      32.358  28.034  24.451  1.00  0.00     0.164 A 
ATOM     19  C   UNL A   1      32.941  27.530  23.276  1.00  0.00     0.097 A 
ATOM     20  C   UNL A   1      31.887  27.154  25.421  1.00  0.00     0.161 A 
ATOM     21  C   UNL A   1      33.048  26.146  23.036  1.00  0.00     0.132 A 
ATOM     22  C   UNL A   1      32.061  25.783  25.204  1.00  0.00     0.064 A 
BRANCH  18  23
ATOM     23  O   UNL A   1      32.161  29.386  24.525  1.00  0.00    -0.493 OA
ATOM     24  C   UNL A   1      30.824  29.745  24.181  1.00  0.00     0.278 C 
ENDBRANCH  18  23
BRANCH  20  25
ATOM     25  O   UNL A   1      31.207  27.409  26.578  1.00  0.00    -0.493 OA
ATOM     26  C   UNL A   1      31.826  28.160  27.608  1.00  0.00     0.278 C 
ENDBRANCH  20  25
BRANCH  21  27
ATOM     27  O   UNL A   1      33.582  25.850  21.808  1.00  0.00    -0.496 OA
ATOM     28  C   UNL A   1      32.691  25.844  20.697  1.00  0.00     0.278 C 
ENDBRANCH  21  27
ENDBRANCH   8  17
BRANCH  14  29
ATOM     29  C   UNL A   1      32.830  18.492  23.927  1.00  0.00     0.000 A 
ATOM     30  C   UNL A   1      32.186  18.114  25.113  1.00  0.00     0.012 A 
ATOM     31  C   UNL A   1      33.692  17.584  23.296  1.00  0.00     0.012 A 
ATOM     32  C   UNL A   1      32.345  16.823  25.621  1.00  0.00     0.021 A 
ATOM     33  C   UNL A   1      33.841  16.286  23.798  1.00  0.00     0.021 A 
ATOM     34  C   UNL A   1      33.153  15.908  24.949  1.00  0.00     0.041 A 
ATOM     35  Cl  UNL A   1      33.271  14.295  25.533  1.00  0.00    -0.084 Cl
ENDBRANCH  14  29
ENDBRANCH   4   7
ENDBRANCH   2   3
ENDBRANCH   1   2
BRANCH   1  36
ATOM     36  C   UNL A   1      37.753  23.047  25.295  1.00  0.00     0.118 C 
BRANCH  36  37
ATOM     37  N   UNL A   1      38.547  22.102  26.088  1.00  0.00    -0.352 N 
ATOM     38  C   UNL A   1      39.665  22.335  26.871  1.00  0.00     0.251 C 
ATOM     39  H   UNL A   1      38.239  21.168  26.061  1.00  0.00     0.163 HD
ATOM     40  O   UNL A   1      40.382  21.416  27.218  1.00  0.00    -0.269 OA
BRANCH  38  41
ATOM     41  C   UNL A   1      39.967  23.722  27.257  1.00  0.00     0.039 A 
ATOM     42  C   UNL A   1      38.969  24.700  27.296  1.00  0.00     0.014 A 
ATOM     43  C   UNL A   1      41.266  24.007  27.656  1.00  0.00     0.014 A 
ATOM     44  C   UNL A   1      39.277  25.946  27.834  1.00  0.00     0.010 A 
ATOM     45  C   UNL A   1      41.508  25.149  28.367  1.00  0.00     0.010 A 
ATOM     46  C   UNL A   1      40.547  26.153  28.392  1.00  0.00    -0.014 A 
BRANCH  46  47
ATOM     47  C   UNL A   1      40.879  27.393  29.081  1.00  0.00     0.031 A 
ATOM     48  C   UNL A   1      41.933  28.219  28.432  1.00  0.00     0.074 A 
ATOM     49  C   UNL A   1      40.115  27.872  30.087  1.00  0.00     0.049 A 
ATOM     50  N   UNL A   1      43.125  28.462  28.866  1.00  0.00    -0.248 NA
ATOM     51  C   UNL A   1      41.690  28.720  27.068  1.00  0.00     0.031 C 
ATOM     52  C   UNL A   1      38.854  27.343  30.620  1.00  0.00     0.029 A 
ATOM     53  N   UNL A   1      40.250  29.039  30.765  1.00  0.00    -0.354 N 
ATOM     54  C   UNL A   1      43.700  29.339  27.948  1.00  0.00     0.074 A 
ATOM     55  C   UNL A   1      42.861  29.293  26.779  1.00  0.00     0.031 C 
ATOM     56  C   UNL A   1      38.222  28.305  31.326  1.00  0.00     0.029 A 
ATOM     57  C   UNL A   1      39.110  29.444  31.449  1.00  0.00     0.049 A 
ATOM     58  H   UNL A   1      41.087  29.557  30.773  1.00  0.00     0.167 HD
ATOM     59  C   UNL A   1      44.685  30.209  28.315  1.00  0.00     0.037 A 
ATOM     60  C   UNL A   1      38.906  30.655  32.022  1.00  0.00     0.037 A 
ATOM     61  C   UNL A   1      45.228  29.863  29.607  1.00  0.00     0.049 A 
ATOM     62  C   UNL A   1      40.258  31.249  32.240  1.00  0.00     0.074 A 
ATOM     63  C   UNL A   1      45.813  28.725  30.132  1.00  0.00     0.029 A 
ATOM     64  N   UNL A   1      44.833  30.610  30.693  1.00  0.00    -0.354 N 
ATOM     65  N   UNL A   1      41.145  30.743  33.060  1.00  0.00    -0.248 NA
ATOM     66  C   UNL A   1      40.805  32.090  31.184  1.00  0.00     0.031 C 
ATOM     67  C   UNL A   1      45.261  28.606  31.442  1.00  0.00     0.029 A 
ATOM     68  C   UNL A   1      44.452  29.720  31.669  1.00  0.00     0.049 A 
ATOM     69  H   UNL A   1      44.825  31.592  30.759  1.00  0.00     0.167 HD
ATOM     70  C   UNL A   1      42.358  30.846  32.391  1.00  0.00     0.074 A 
ATOM     71  C   UNL A   1      42.095  31.752  31.272  1.00  0.00     0.031 C 
ATOM     72  C   UNL A   1      43.383  29.967  32.615  1.00  0.00     0.037 A 
BRANCH  59  73
ATOM     73  C   UNL A   1      44.919  31.567  27.692  1.00  0.00     0.058 A 
ATOM     74  C   UNL A   1      46.108  31.798  26.968  1.00  0.00     0.135 A 
ATOM     75  C   UNL A   1      44.167  32.720  28.006  1.00  0.00     0.135 A 
ATOM     76  F   UNL A   1      46.905  30.777  26.615  1.00  0.00    -0.206 F 
ATOM     77  C   UNL A   1      46.556  33.082  26.654  1.00  0.00     0.059 A 
ATOM     78  C   UNL A   1      44.566  34.004  27.653  1.00  0.00     0.059 A 
ATOM     79  F   UNL A   1      43.061  32.671  28.758  1.00  0.00    -0.206 F 
ATOM     80  C   UNL A   1      45.784  34.180  27.020  1.00  0.00     0.060 A 
BRANCH  80  81
ATOM     81  S   UNL A   1      46.412  35.842  26.723  1.00  0.00     0.124 S 
ATOM     82  O   UNL A   1      47.063  36.136  27.995  1.00  0.00    -0.237 OA
ATOM     83  O   UNL A   1      47.298  35.632  25.584  1.00  0.00    -0.237 OA
ATOM     84  O   UNL A   1      45.204  36.610  26.438  1.00  0.00    -0.744 OA
ENDBRANCH  80  81
ENDBRANCH  59  73
BRANCH  60  85
ATOM     85  C   UNL A   1      37.638  31.435  32.038  1.00  0.00     0.058 A 
ATOM     86  C   UNL A   1      37.013  31.790  33.245  1.00  0.00     0.135 A 
ATOM     87  C   UNL A   1      37.139  32.071  30.878  1.00  0.00     0.135 A 
ATOM     88  F   UNL A   1      37.430  31.253  34.402  1.00  0.00    -0.206 F 
ATOM     89  C   UNL A   1      35.996  32.753  33.308  1.00  0.00     0.059 A 
ATOM     90  C   UNL A   1      36.117  33.018  30.913  1.00  0.00     0.059 A 
ATOM     91  F   UNL A   1      37.698  31.864  29.677  1.00  0.00    -0.206 F 
ATOM     92  C   UNL A   1      35.569  33.377  32.136  1.00  0.00     0.060 A 
BRANCH  92  93
ATOM     93  S   UNL A   1      34.400  34.755  32.230  1.00  0.00     0.124 S 
ATOM     94  O   UNL A   1      33.274  34.153  32.936  1.00  0.00    -0.237 OA
ATOM     95  O   UNL A   1      35.159  35.753  32.975  1.00  0.00    -0.237 OA
ATOM     96  O   UNL A   1      34.154  35.088  30.828  1.00  0.00    -0.744 OA
ENDBRANCH  92  93
ENDBRANCH  60  85
BRANCH  72  97
ATOM     97  C   UNL A   1      43.296  29.013  33.782  1.00  0.00     0.058 A 
ATOM     98  C   UNL A   1      42.599  27.791  33.765  1.00  0.00     0.135 A 
ATOM     99  C   UNL A   1      44.117  29.254  34.896  1.00  0.00     0.135 A 
ATOM    100  F   UNL A   1      41.880  27.423  32.697  1.00  0.00    -0.206 F 
ATOM    101  C   UNL A   1      42.682  26.874  34.815  1.00  0.00     0.059 A 
ATOM    102  C   UNL A   1      44.243  28.341  35.940  1.00  0.00     0.059 A 
ATOM    103  F   UNL A   1      44.863  30.370  34.950  1.00  0.00    -0.206 F 
ATOM    104  C   UNL A   1      43.513  27.156  35.898  1.00  0.00     0.060 A 
BRANCH 104 105
ATOM    105  S   UNL A   1      43.684  25.934  37.218  1.00  0.00     0.124 S 
ATOM    106  O   UNL A   1      45.057  25.474  37.034  1.00  0.00    -0.237 OA
ATOM    107  O   UNL A   1      43.438  26.728  38.419  1.00  0.00    -0.237 OA
ATOM    108  O   UNL A   1      42.650  24.951  36.910  1.00  0.00    -0.744 OA
ENDBRANCH 104 105
ENDBRANCH  72  97
ENDBRANCH  46  47
ENDBRANCH  38  41
ENDBRANCH  36  37
ENDBRANCH   1  36
TORSDOF 18
ENDMDL
