MODEL 1
REMARK VINA RESULT:     -13.9      0.000      0.000
REMARK SMILES O=C(NCCCNC(=O)[C@H]1CCCN(c2cc(-c3ccccn3)nc(-c3ccccc3F)n2)C1)c1ccc(-c2c3nc(c(-c4c(F)cc(S(=O)(=O)[O-])cc4F)c4ccc([nH]4)c(-c4c(F)cc(S(=O)(=O)[O-])cc4F)c4nc(c(-c5c(F)cc(S(=O)(=O)[O-])cc5F)c5ccc2[nH]5)C=C4)C=C3)cc1
REMARK SMILES IDX 4 1 3 2 1 3 2 4 35 6 36 7 100 8 37 9 99 10 38 11 39 12 40 13
REMARK SMILES IDX 93 14 41 15 98 16 92 17 94 18 42 19 97 20 91 21 90 22 43 24
REMARK SMILES IDX 77 25 56 26 76 27 57 28 60 29 75 30 95 31 58 32 59 33 74 35
REMARK SMILES IDX 96 36 61 37 44 38 45 39 54 40 46 41 47 42 53 43 55 44 48 45
REMARK SMILES IDX 49 46 50 47 51 48 52 49 78 50 79 51 88 52 80 53 81 54 87 55
REMARK SMILES IDX 89 56 82 57 83 58 84 59 85 60 86 61 62 62 63 63 72 64 64 65
REMARK SMILES IDX 65 66 71 67 73 68 66 69 67 70 68 71 69 72 70 73 5 74 6 75
REMARK SMILES IDX 7 76 8 77 9 79 10 80 11 81 34 82 12 83 14 84 13 85 15 86
REMARK SMILES IDX 16 87 33 88 17 89 25 90 24 91 18 92 19 93 23 94 20 95 22 96
REMARK SMILES IDX 21 97 26 98 27 99 31 100 28 101 30 102 32 103 29 104
REMARK H PARENT 3 5 94 23 60 34 7 78
REMARK Flexibility Score: inf
ROOT
ATOM      1  C   UNL A   1      39.076  23.543  26.845  1.00  0.00     0.118 C 
ENDROOT
BRANCH   1   2
ATOM      2  N   UNL A   1      40.298  23.882  26.122  1.00  0.00    -0.352 N 
ATOM      3  O   UNL A   1      41.951  25.185  25.333  1.00  0.00    -0.269 OA
ATOM      4  C   UNL A   1      41.106  24.987  26.206  1.00  0.00     0.251 C 
ATOM      5  H   UNL A   1      40.589  23.207  25.466  1.00  0.00     0.163 HD
BRANCH   4   6
ATOM      6  C   UNL A   1      40.959  25.941  27.325  1.00  0.00     0.039 A 
ATOM      7  C   UNL A   1      41.748  27.089  27.388  1.00  0.00     0.014 A 
ATOM      8  C   UNL A   1      39.992  25.704  28.306  1.00  0.00     0.014 A 
ATOM      9  C   UNL A   1      41.690  27.911  28.507  1.00  0.00     0.010 A 
ATOM     10  C   UNL A   1      39.861  26.590  29.380  1.00  0.00     0.010 A 
ATOM     11  C   UNL A   1      40.731  27.684  29.505  1.00  0.00    -0.014 A 
BRANCH  11  12
ATOM     12  C   UNL A   1      40.615  28.641  30.635  1.00  0.00     0.031 A 
ATOM     13  C   UNL A   1      41.555  28.574  31.805  1.00  0.00     0.074 A 
ATOM     14  C   UNL A   1      39.661  29.592  30.581  1.00  0.00     0.049 A 
ATOM     15  N   UNL A   1      41.581  29.318  32.880  1.00  0.00    -0.248 NA
ATOM     16  C   UNL A   1      42.599  27.537  31.769  1.00  0.00     0.031 C 
ATOM     17  C   UNL A   1      38.697  29.753  29.488  1.00  0.00     0.029 A 
ATOM     18  N   UNL A   1      39.352  30.607  31.448  1.00  0.00    -0.354 N 
ATOM     19  C   UNL A   1      42.627  28.833  33.656  1.00  0.00     0.074 A 
ATOM     20  C   UNL A   1      43.196  27.711  32.941  1.00  0.00     0.031 C 
ATOM     21  C   UNL A   1      37.939  30.832  29.726  1.00  0.00     0.029 A 
ATOM     22  C   UNL A   1      38.307  31.394  31.021  1.00  0.00     0.049 A 
ATOM     23  H   UNL A   1      39.831  30.760  32.293  1.00  0.00     0.167 HD
ATOM     24  C   UNL A   1      43.075  29.292  34.850  1.00  0.00     0.037 A 
ATOM     25  C   UNL A   1      37.695  32.438  31.611  1.00  0.00     0.037 A 
ATOM     26  C   UNL A   1      42.505  30.419  35.544  1.00  0.00     0.049 A 
ATOM     27  C   UNL A   1      38.179  32.896  32.955  1.00  0.00     0.074 A 
ATOM     28  C   UNL A   1      42.898  30.973  36.749  1.00  0.00     0.029 A 
ATOM     29  N   UNL A   1      41.420  31.162  35.099  1.00  0.00    -0.354 N 
ATOM     30  N   UNL A   1      39.174  32.430  33.672  1.00  0.00    -0.248 NA
ATOM     31  C   UNL A   1      37.458  34.014  33.577  1.00  0.00     0.031 C 
ATOM     32  C   UNL A   1      42.021  32.018  37.057  1.00  0.00     0.029 A 
ATOM     33  C   UNL A   1      41.116  32.154  36.017  1.00  0.00     0.049 A 
ATOM     34  H   UNL A   1      40.937  31.006  34.255  1.00  0.00     0.167 HD
ATOM     35  C   UNL A   1      39.210  33.208  34.822  1.00  0.00     0.074 A 
ATOM     36  C   UNL A   1      38.144  34.182  34.700  1.00  0.00     0.031 C 
ATOM     37  C   UNL A   1      40.053  33.120  35.881  1.00  0.00     0.037 A 
BRANCH  24  38
ATOM     38  C   UNL A   1      44.229  28.572  35.494  1.00  0.00     0.058 A 
ATOM     39  C   UNL A   1      45.553  28.919  35.174  1.00  0.00     0.135 A 
ATOM     40  C   UNL A   1      44.033  27.502  36.382  1.00  0.00     0.135 A 
ATOM     41  F   UNL A   1      45.802  29.936  34.334  1.00  0.00    -0.206 F 
ATOM     42  C   UNL A   1      46.637  28.224  35.702  1.00  0.00     0.059 A 
ATOM     43  C   UNL A   1      45.103  26.810  36.943  1.00  0.00     0.059 A 
ATOM     44  F   UNL A   1      42.789  27.141  36.738  1.00  0.00    -0.206 F 
ATOM     45  C   UNL A   1      46.402  27.171  36.587  1.00  0.00     0.060 A 
BRANCH  45  46
ATOM     46  S   UNL A   1      47.821  26.312  37.300  1.00  0.00     0.124 S 
ATOM     47  O   UNL A   1      47.646  26.568  38.724  1.00  0.00    -0.237 OA
ATOM     48  O   UNL A   1      47.596  24.936  36.865  1.00  0.00    -0.237 OA
ATOM     49  O   UNL A   1      48.965  26.974  36.676  1.00  0.00    -0.744 OA
ENDBRANCH  45  46
ENDBRANCH  24  38
BRANCH  25  50
ATOM     50  C   UNL A   1      36.566  33.107  30.915  1.00  0.00     0.058 A 
ATOM     51  C   UNL A   1      36.791  33.962  29.824  1.00  0.00     0.135 A 
ATOM     52  C   UNL A   1      35.250  32.968  31.379  1.00  0.00     0.135 A 
ATOM     53  F   UNL A   1      38.034  34.138  29.351  1.00  0.00    -0.206 F 
ATOM     54  C   UNL A   1      35.757  34.687  29.244  1.00  0.00     0.059 A 
ATOM     55  C   UNL A   1      34.194  33.664  30.796  1.00  0.00     0.059 A 
ATOM     56  F   UNL A   1      34.986  32.156  32.413  1.00  0.00    -0.206 F 
ATOM     57  C   UNL A   1      34.463  34.538  29.742  1.00  0.00     0.060 A 
BRANCH  57  58
ATOM     58  S   UNL A   1      33.143  35.518  28.999  1.00  0.00     0.124 S 
ATOM     59  O   UNL A   1      32.385  35.928  30.178  1.00  0.00    -0.237 OA
ATOM     60  O   UNL A   1      33.889  36.574  28.325  1.00  0.00    -0.237 OA
ATOM     61  O   UNL A   1      32.470  34.568  28.120  1.00  0.00    -0.744 OA
ENDBRANCH  57  58
ENDBRANCH  25  50
BRANCH  37  62
ATOM     62  C   UNL A   1      39.881  34.118  36.992  1.00  0.00     0.058 A 
ATOM     63  C   UNL A   1      39.134  33.785  38.134  1.00  0.00     0.135 A 
ATOM     64  C   UNL A   1      40.372  35.429  36.887  1.00  0.00     0.135 A 
ATOM     65  F   UNL A   1      38.640  32.545  38.281  1.00  0.00    -0.206 F 
ATOM     66  C   UNL A   1      38.857  34.725  39.119  1.00  0.00     0.059 A 
ATOM     67  C   UNL A   1      40.130  36.378  37.875  1.00  0.00     0.059 A 
ATOM     68  F   UNL A   1      41.104  35.792  35.822  1.00  0.00    -0.206 F 
ATOM     69  C   UNL A   1      39.353  36.021  38.978  1.00  0.00     0.060 A 
BRANCH  69  70
ATOM     70  S   UNL A   1      38.972  37.230  40.263  1.00  0.00     0.124 S 
ATOM     71  O   UNL A   1      38.145  36.447  41.174  1.00  0.00    -0.237 OA
ATOM     72  O   UNL A   1      40.299  37.585  40.756  1.00  0.00    -0.237 OA
ATOM     73  O   UNL A   1      38.276  38.289  39.537  1.00  0.00    -0.744 OA
ENDBRANCH  69  70
ENDBRANCH  37  62
ENDBRANCH  11  12
ENDBRANCH   4   6
ENDBRANCH   1   2
BRANCH   1  74
ATOM     74  C   UNL A   1      38.011  22.945  25.936  1.00  0.00     0.042 C 
BRANCH  74  75
ATOM     75  C   UNL A   1      36.770  23.816  25.821  1.00  0.00     0.117 C 
BRANCH  75  76
ATOM     76  N   UNL A   1      35.551  23.031  25.837  1.00  0.00    -0.356 N 
ATOM     77  C   UNL A   1      34.339  23.133  25.245  1.00  0.00     0.224 C 
ATOM     78  H   UNL A   1      35.623  22.236  26.413  1.00  0.00     0.163 HD
ATOM     79  O   UNL A   1      33.544  22.239  25.565  1.00  0.00    -0.275 OA
BRANCH  77  80
ATOM     80  C   UNL A   1      33.905  24.265  24.299  1.00  0.00     0.098 C 
ATOM     81  C   UNL A   1      33.684  23.866  22.833  1.00  0.00     0.017 C 
ATOM     82  C   UNL A   1      32.622  24.851  24.932  1.00  0.00     0.131 C 
ATOM     83  C   UNL A   1      32.857  24.854  22.018  1.00  0.00     0.022 C 
ATOM     84  N   UNL A   1      31.847  25.689  24.024  1.00  0.00    -0.356 N 
ATOM     85  C   UNL A   1      31.543  25.167  22.707  1.00  0.00     0.118 C 
BRANCH  84  86
ATOM     86  C   UNL A   1      31.734  27.044  24.265  1.00  0.00     0.133 A 
ATOM     87  C   UNL A   1      30.812  27.774  23.544  1.00  0.00     0.077 A 
ATOM     88  N   UNL A   1      32.493  27.619  25.211  1.00  0.00    -0.211 NA
ATOM     89  C   UNL A   1      30.677  29.114  23.839  1.00  0.00     0.095 A 
ATOM     90  C   UNL A   1      32.315  28.939  25.421  1.00  0.00     0.165 A 
ATOM     91  N   UNL A   1      31.430  29.717  24.776  1.00  0.00    -0.226 NA
BRANCH  89  92
ATOM     92  C   UNL A   1      29.667  29.932  23.157  1.00  0.00     0.089 A 
ATOM     93  C   UNL A   1      28.981  30.945  23.829  1.00  0.00     0.030 A 
ATOM     94  N   UNL A   1      29.398  29.616  21.864  1.00  0.00    -0.255 NA
ATOM     95  C   UNL A   1      27.995  31.660  23.156  1.00  0.00     0.004 A 
ATOM     96  C   UNL A   1      28.445  30.334  21.231  1.00  0.00     0.112 A 
ATOM     97  C   UNL A   1      27.721  31.351  21.830  1.00  0.00     0.020 A 
ENDBRANCH  89  92
BRANCH  90  98
ATOM     98  C   UNL A   1      33.206  29.603  26.366  1.00  0.00     0.055 A 
ATOM     99  C   UNL A   1      34.446  29.037  26.714  1.00  0.00     0.015 A 
ATOM    100  C   UNL A   1      32.875  30.841  26.926  1.00  0.00     0.134 A 
ATOM    101  C   UNL A   1      35.326  29.703  27.574  1.00  0.00     0.001 A 
ATOM    102  C   UNL A   1      33.743  31.507  27.793  1.00  0.00     0.040 A 
ATOM    103  F   UNL A   1      31.694  31.419  26.653  1.00  0.00    -0.206 F 
ATOM    104  C   UNL A   1      34.974  30.940  28.113  1.00  0.00     0.003 A 
ENDBRANCH  90  98
ENDBRANCH  84  86
ENDBRANCH  77  80
ENDBRANCH  75  76
ENDBRANCH  74  75
ENDBRANCH   1  74
TORSDOF 16
ENDMDL
MODEL 2
REMARK VINA RESULT:     -13.8      0.892      3.013
REMARK SMILES O=C(NCCCNC(=O)[C@H]1CCCN(c2cc(-c3ccccn3)nc(-c3ccccc3F)n2)C1)c1ccc(-c2c3nc(c(-c4c(F)cc(S(=O)(=O)[O-])cc4F)c4ccc([nH]4)c(-c4c(F)cc(S(=O)(=O)[O-])cc4F)c4nc(c(-c5c(F)cc(S(=O)(=O)[O-])cc5F)c5ccc2[nH]5)C=C4)C=C3)cc1
REMARK SMILES IDX 4 1 3 2 1 3 2 4 35 6 36 7 100 8 37 9 99 10 38 11 39 12 40 13
REMARK SMILES IDX 93 14 41 15 98 16 92 17 94 18 42 19 97 20 91 21 90 22 43 24
REMARK SMILES IDX 77 25 56 26 76 27 57 28 60 29 75 30 95 31 58 32 59 33 74 35
REMARK SMILES IDX 96 36 61 37 44 38 45 39 54 40 46 41 47 42 53 43 55 44 48 45
REMARK SMILES IDX 49 46 50 47 51 48 52 49 78 50 79 51 88 52 80 53 81 54 87 55
REMARK SMILES IDX 89 56 82 57 83 58 84 59 85 60 86 61 62 62 63 63 72 64 64 65
REMARK SMILES IDX 65 66 71 67 73 68 66 69 67 70 68 71 69 72 70 73 5 74 6 75
REMARK SMILES IDX 7 76 8 77 9 79 10 80 11 81 34 82 12 83 14 84 13 85 15 86
REMARK SMILES IDX 16 87 33 88 17 89 25 90 24 91 18 92 19 93 23 94 20 95 22 96
REMARK SMILES IDX 21 97 26 98 27 99 31 100 28 101 30 102 32 103 29 104
REMARK H PARENT 3 5 94 23 60 34 7 78
REMARK Flexibility Score: inf
ROOT
ATOM      1  C   UNL A   1      39.851  23.369  26.949  1.00  0.00     0.118 C 
ENDROOT
BRANCH   1   2
ATOM      2  N   UNL A   1      40.885  23.946  26.096  1.00  0.00    -0.352 N 
ATOM      3  O   UNL A   1      42.131  25.556  25.143  1.00  0.00    -0.269 OA
ATOM      4  C   UNL A   1      41.450  25.196  26.104  1.00  0.00     0.251 C 
ATOM      5  H   UNL A   1      41.233  23.340  25.403  1.00  0.00     0.163 HD
BRANCH   4   6
ATOM      6  C   UNL A   1      41.237  26.110  27.245  1.00  0.00     0.039 A 
ATOM      7  C   UNL A   1      41.910  27.330  27.314  1.00  0.00     0.014 A 
ATOM      8  C   UNL A   1      40.321  25.761  28.243  1.00  0.00     0.014 A 
ATOM      9  C   UNL A   1      41.798  28.121  28.450  1.00  0.00     0.010 A 
ATOM     10  C   UNL A   1      40.130  26.610  29.337  1.00  0.00     0.010 A 
ATOM     11  C   UNL A   1      40.889  27.782  29.464  1.00  0.00    -0.014 A 
BRANCH  11  12
ATOM     12  C   UNL A   1      40.707  28.702  30.616  1.00  0.00     0.031 A 
ATOM     13  C   UNL A   1      41.600  28.621  31.821  1.00  0.00     0.074 A 
ATOM     14  C   UNL A   1      39.735  29.634  30.550  1.00  0.00     0.049 A 
ATOM     15  N   UNL A   1      41.566  29.333  32.918  1.00  0.00    -0.248 NA
ATOM     16  C   UNL A   1      42.667  27.608  31.798  1.00  0.00     0.031 C 
ATOM     17  C   UNL A   1      38.812  29.808  29.424  1.00  0.00     0.029 A 
ATOM     18  N   UNL A   1      39.368  30.617  31.433  1.00  0.00    -0.354 N 
ATOM     19  C   UNL A   1      42.590  28.847  33.721  1.00  0.00     0.074 A 
ATOM     20  C   UNL A   1      43.213  27.759  32.998  1.00  0.00     0.031 C 
ATOM     21  C   UNL A   1      38.021  30.863  29.662  1.00  0.00     0.029 A 
ATOM     22  C   UNL A   1      38.325  31.394  30.986  1.00  0.00     0.049 A 
ATOM     23  H   UNL A   1      39.809  30.754  32.301  1.00  0.00     0.167 HD
ATOM     24  C   UNL A   1      42.979  29.280  34.945  1.00  0.00     0.037 A 
ATOM     25  C   UNL A   1      37.666  32.406  31.581  1.00  0.00     0.037 A 
ATOM     26  C   UNL A   1      42.357  30.373  35.648  1.00  0.00     0.049 A 
ATOM     27  C   UNL A   1      38.084  32.834  32.957  1.00  0.00     0.074 A 
ATOM     28  C   UNL A   1      42.687  30.899  36.884  1.00  0.00     0.029 A 
ATOM     29  N   UNL A   1      41.274  31.106  35.180  1.00  0.00    -0.354 N 
ATOM     30  N   UNL A   1      39.060  32.368  33.699  1.00  0.00    -0.248 NA
ATOM     31  C   UNL A   1      37.314  33.918  33.580  1.00  0.00     0.031 C 
ATOM     32  C   UNL A   1      41.776  31.915  37.186  1.00  0.00     0.029 A 
ATOM     33  C   UNL A   1      40.911  32.064  36.114  1.00  0.00     0.049 A 
ATOM     34  H   UNL A   1      40.829  30.965  34.313  1.00  0.00     0.167 HD
ATOM     35  C   UNL A   1      39.032  33.112  34.873  1.00  0.00     0.074 A 
ATOM     36  C   UNL A   1      37.950  34.066  34.735  1.00  0.00     0.031 C 
ATOM     37  C   UNL A   1      39.833  33.010  35.962  1.00  0.00     0.037 A 
BRANCH  24  38
ATOM     38  C   UNL A   1      44.122  28.565  35.616  1.00  0.00     0.058 A 
ATOM     39  C   UNL A   1      43.882  27.453  36.439  1.00  0.00     0.135 A 
ATOM     40  C   UNL A   1      45.448  29.012  35.495  1.00  0.00     0.135 A 
ATOM     41  F   UNL A   1      42.634  26.979  36.590  1.00  0.00    -0.206 F 
ATOM     42  C   UNL A   1      44.911  26.817  37.126  1.00  0.00     0.059 A 
ATOM     43  C   UNL A   1      46.498  28.374  36.152  1.00  0.00     0.059 A 
ATOM     44  F   UNL A   1      45.738  30.059  34.706  1.00  0.00    -0.206 F 
ATOM     45  C   UNL A   1      46.217  27.284  36.975  1.00  0.00     0.060 A 
BRANCH  45  46
ATOM     46  S   UNL A   1      47.548  26.417  37.835  1.00  0.00     0.124 S 
ATOM     47  O   UNL A   1      47.053  26.389  39.206  1.00  0.00    -0.237 OA
ATOM     48  O   UNL A   1      47.577  25.134  37.139  1.00  0.00    -0.237 OA
ATOM     49  O   UNL A   1      48.711  27.270  37.602  1.00  0.00    -0.744 OA
ENDBRANCH  45  46
ENDBRANCH  24  38
BRANCH  25  50
ATOM     50  C   UNL A   1      36.551  33.071  30.859  1.00  0.00     0.058 A 
ATOM     51  C   UNL A   1      36.801  33.984  29.821  1.00  0.00     0.135 A 
ATOM     52  C   UNL A   1      35.219  32.870  31.247  1.00  0.00     0.135 A 
ATOM     53  F   UNL A   1      38.060  34.221  29.421  1.00  0.00    -0.206 F 
ATOM     54  C   UNL A   1      35.774  34.703  29.222  1.00  0.00     0.059 A 
ATOM     55  C   UNL A   1      34.171  33.559  30.643  1.00  0.00     0.059 A 
ATOM     56  F   UNL A   1      34.930  32.002  32.228  1.00  0.00    -0.206 F 
ATOM     57  C   UNL A   1      34.463  34.490  29.645  1.00  0.00     0.060 A 
BRANCH  57  58
ATOM     58  S   UNL A   1      33.149  35.462  28.880  1.00  0.00     0.124 S 
ATOM     59  O   UNL A   1      32.441  34.442  28.112  1.00  0.00    -0.237 OA
ATOM     60  O   UNL A   1      32.441  35.988  30.042  1.00  0.00    -0.237 OA
ATOM     61  O   UNL A   1      33.875  36.451  28.090  1.00  0.00    -0.744 OA
ENDBRANCH  57  58
ENDBRANCH  25  50
BRANCH  37  62
ATOM     62  C   UNL A   1      39.594  33.971  37.094  1.00  0.00     0.058 A 
ATOM     63  C   UNL A   1      40.208  35.233  37.093  1.00  0.00     0.135 A 
ATOM     64  C   UNL A   1      38.837  33.608  38.219  1.00  0.00     0.135 A 
ATOM     65  F   UNL A   1      40.945  35.627  36.041  1.00  0.00    -0.206 F 
ATOM     66  C   UNL A   1      40.104  36.092  38.180  1.00  0.00     0.059 A 
ATOM     67  C   UNL A   1      38.698  34.464  39.307  1.00  0.00     0.059 A 
ATOM     68  F   UNL A   1      38.218  32.418  38.261  1.00  0.00    -0.206 F 
ATOM     69  C   UNL A   1      39.353  35.696  39.286  1.00  0.00     0.060 A 
BRANCH  69  70
ATOM     70  S   UNL A   1      39.239  36.821  40.694  1.00  0.00     0.124 S 
ATOM     71  O   UNL A   1      38.434  36.046  41.631  1.00  0.00    -0.237 OA
ATOM     72  O   UNL A   1      40.641  37.000  41.058  1.00  0.00    -0.237 OA
ATOM     73  O   UNL A   1      38.587  38.001  40.134  1.00  0.00    -0.744 OA
ENDBRANCH  69  70
ENDBRANCH  37  62
ENDBRANCH  11  12
ENDBRANCH   4   6
ENDBRANCH   1   2
BRANCH   1  74
ATOM     74  C   UNL A   1      38.725  22.732  26.144  1.00  0.00     0.042 C 
BRANCH  74  75
ATOM     75  C   UNL A   1      37.457  23.571  26.131  1.00  0.00     0.117 C 
BRANCH  75  76
ATOM     76  N   UNL A   1      36.277  22.777  26.419  1.00  0.00    -0.356 N 
ATOM     77  C   UNL A   1      35.002  22.759  25.968  1.00  0.00     0.224 C 
ATOM     78  H   UNL A   1      36.445  22.089  27.103  1.00  0.00     0.163 HD
ATOM     79  O   UNL A   1      34.283  21.916  26.521  1.00  0.00    -0.275 OA
BRANCH  77  80
ATOM     80  C   UNL A   1      34.421  23.712  24.910  1.00  0.00     0.098 C 
ATOM     81  C   UNL A   1      34.178  23.104  23.522  1.00  0.00     0.017 C 
ATOM     82  C   UNL A   1      33.114  24.257  25.533  1.00  0.00     0.131 C 
ATOM     83  C   UNL A   1      33.225  23.897  22.633  1.00  0.00     0.022 C 
ATOM     84  N   UNL A   1      32.224  24.894  24.569  1.00  0.00    -0.356 N 
ATOM     85  C   UNL A   1      31.917  24.177  23.348  1.00  0.00     0.118 C 
BRANCH  84  86
ATOM     86  C   UNL A   1      31.990  26.253  24.642  1.00  0.00     0.133 A 
ATOM     87  C   UNL A   1      32.749  27.014  25.506  1.00  0.00     0.077 A 
ATOM     88  N   UNL A   1      31.058  26.812  23.856  1.00  0.00    -0.211 NA
ATOM     89  C   UNL A   1      32.537  28.376  25.524  1.00  0.00     0.095 A 
ATOM     90  C   UNL A   1      30.897  28.147  23.950  1.00  0.00     0.165 A 
ATOM     91  N   UNL A   1      31.604  28.961  24.751  1.00  0.00    -0.226 NA
BRANCH  89  92
ATOM     92  C   UNL A   1      33.357  29.251  26.369  1.00  0.00     0.089 A 
ATOM     93  C   UNL A   1      34.574  28.815  26.899  1.00  0.00     0.030 A 
ATOM     94  N   UNL A   1      32.845  30.476  26.654  1.00  0.00    -0.255 NA
ATOM     95  C   UNL A   1      35.291  29.663  27.738  1.00  0.00     0.004 A 
ATOM     96  C   UNL A   1      33.569  31.282  27.462  1.00  0.00     0.112 A 
ATOM     97  C   UNL A   1      34.781  30.922  28.025  1.00  0.00     0.020 A 
ENDBRANCH  89  92
BRANCH  90  98
ATOM     98  C   UNL A   1      29.815  28.757  23.185  1.00  0.00     0.055 A 
ATOM     99  C   UNL A   1      28.469  28.473  23.479  1.00  0.00     0.015 A 
ATOM    100  C   UNL A   1      30.079  29.673  22.161  1.00  0.00     0.134 A 
ATOM    101  C   UNL A   1      27.431  29.105  22.784  1.00  0.00     0.001 A 
ATOM    102  C   UNL A   1      29.050  30.298  21.456  1.00  0.00     0.040 A 
ATOM    103  F   UNL A   1      31.344  29.964  21.816  1.00  0.00    -0.206 F 
ATOM    104  C   UNL A   1      27.722  30.018  21.772  1.00  0.00     0.003 A 
ENDBRANCH  90  98
ENDBRANCH  84  86
ENDBRANCH  77  80
ENDBRANCH  75  76
ENDBRANCH  74  75
ENDBRANCH   1  74
TORSDOF 16
ENDMDL
MODEL 3
REMARK VINA RESULT:     -13.6      1.010      8.358
REMARK SMILES O=C(NCCCNC(=O)[C@H]1CCCN(c2cc(-c3ccccn3)nc(-c3ccccc3F)n2)C1)c1ccc(-c2c3nc(c(-c4c(F)cc(S(=O)(=O)[O-])cc4F)c4ccc([nH]4)c(-c4c(F)cc(S(=O)(=O)[O-])cc4F)c4nc(c(-c5c(F)cc(S(=O)(=O)[O-])cc5F)c5ccc2[nH]5)C=C4)C=C3)cc1
REMARK SMILES IDX 4 1 3 2 1 3 2 4 35 6 36 7 100 8 37 9 99 10 38 11 39 12 40 13
REMARK SMILES IDX 93 14 41 15 98 16 92 17 94 18 42 19 97 20 91 21 90 22 43 24
REMARK SMILES IDX 77 25 56 26 76 27 57 28 60 29 75 30 95 31 58 32 59 33 74 35
REMARK SMILES IDX 96 36 61 37 44 38 45 39 54 40 46 41 47 42 53 43 55 44 48 45
REMARK SMILES IDX 49 46 50 47 51 48 52 49 78 50 79 51 88 52 80 53 81 54 87 55
REMARK SMILES IDX 89 56 82 57 83 58 84 59 85 60 86 61 62 62 63 63 72 64 64 65
REMARK SMILES IDX 65 66 71 67 73 68 66 69 67 70 68 71 69 72 70 73 5 74 6 75
REMARK SMILES IDX 7 76 8 77 9 79 10 80 11 81 34 82 12 83 14 84 13 85 15 86
REMARK SMILES IDX 16 87 33 88 17 89 25 90 24 91 18 92 19 93 23 94 20 95 22 96
REMARK SMILES IDX 21 97 26 98 27 99 31 100 28 101 30 102 32 103 29 104
REMARK H PARENT 3 5 94 23 60 34 7 78
REMARK Flexibility Score: inf
ROOT
ATOM      1  C   UNL A   1      40.143  23.432  27.127  1.00  0.00     0.118 C 
ENDROOT
BRANCH   1   2
ATOM      2  N   UNL A   1      40.967  24.133  26.146  1.00  0.00    -0.352 N 
ATOM      3  O   UNL A   1      41.842  25.885  25.042  1.00  0.00    -0.269 OA
ATOM      4  C   UNL A   1      41.350  25.449  26.083  1.00  0.00     0.251 C 
ATOM      5  H   UNL A   1      41.301  23.570  25.411  1.00  0.00     0.163 HD
BRANCH   4   6
ATOM      6  C   UNL A   1      41.164  26.342  27.245  1.00  0.00     0.039 A 
ATOM      7  C   UNL A   1      41.959  27.478  27.402  1.00  0.00     0.014 A 
ATOM      8  C   UNL A   1      40.155  26.063  28.172  1.00  0.00     0.014 A 
ATOM      9  C   UNL A   1      41.861  28.238  28.561  1.00  0.00     0.010 A 
ATOM     10  C   UNL A   1      39.987  26.891  29.286  1.00  0.00     0.010 A 
ATOM     11  C   UNL A   1      40.859  27.968  29.505  1.00  0.00    -0.014 A 
BRANCH  11  12
ATOM     12  C   UNL A   1      40.705  28.863  30.680  1.00  0.00     0.031 A 
ATOM     13  C   UNL A   1      39.640  29.922  30.712  1.00  0.00     0.074 A 
ATOM     14  C   UNL A   1      41.527  28.693  31.735  1.00  0.00     0.049 A 
ATOM     15  N   UNL A   1      39.381  30.798  31.648  1.00  0.00    -0.248 NA
ATOM     16  C   UNL A   1      38.752  30.016  29.542  1.00  0.00     0.031 C 
ATOM     17  C   UNL A   1      42.594  27.690  31.814  1.00  0.00     0.029 A 
ATOM     18  N   UNL A   1      41.590  29.338  32.942  1.00  0.00    -0.354 N 
ATOM     19  C   UNL A   1      38.315  31.557  31.177  1.00  0.00     0.074 A 
ATOM     20  C   UNL A   1      37.992  31.057  29.858  1.00  0.00     0.031 C 
ATOM     21  C   UNL A   1      43.170  27.755  33.022  1.00  0.00     0.029 A 
ATOM     22  C   UNL A   1      42.570  28.851  33.775  1.00  0.00     0.049 A 
ATOM     23  H   UNL A   1      40.991  30.079  33.189  1.00  0.00     0.167 HD
ATOM     24  C   UNL A   1      37.663  32.570  31.798  1.00  0.00     0.037 A 
ATOM     25  C   UNL A   1      42.962  29.252  34.999  1.00  0.00     0.037 A 
ATOM     26  C   UNL A   1      37.990  33.049  33.117  1.00  0.00     0.049 A 
ATOM     27  C   UNL A   1      42.255  30.408  35.644  1.00  0.00     0.074 A 
ATOM     28  C   UNL A   1      37.378  34.058  33.840  1.00  0.00     0.029 A 
ATOM     29  N   UNL A   1      39.017  32.558  33.911  1.00  0.00    -0.354 N 
ATOM     30  N   UNL A   1      41.245  31.110  35.188  1.00  0.00    -0.248 NA
ATOM     31  C   UNL A   1      42.740  30.833  36.963  1.00  0.00     0.031 C 
ATOM     32  C   UNL A   1      38.066  34.210  35.048  1.00  0.00     0.029 A 
ATOM     33  C   UNL A   1      39.071  33.258  35.105  1.00  0.00     0.049 A 
ATOM     34  H   UNL A   1      39.621  31.820  33.661  1.00  0.00     0.167 HD
ATOM     35  C   UNL A   1      40.962  32.050  36.171  1.00  0.00     0.074 A 
ATOM     36  C   UNL A   1      41.900  31.819  37.250  1.00  0.00     0.031 C 
ATOM     37  C   UNL A   1      40.010  33.015  36.173  1.00  0.00     0.037 A 
BRANCH  24  38
ATOM     38  C   UNL A   1      36.539  33.243  31.057  1.00  0.00     0.058 A 
ATOM     39  C   UNL A   1      36.810  34.105  29.982  1.00  0.00     0.135 A 
ATOM     40  C   UNL A   1      35.198  33.086  31.444  1.00  0.00     0.135 A 
ATOM     41  F   UNL A   1      38.073  34.292  29.565  1.00  0.00    -0.206 F 
ATOM     42  C   UNL A   1      35.795  34.795  29.324  1.00  0.00     0.059 A 
ATOM     43  C   UNL A   1      34.163  33.745  30.783  1.00  0.00     0.059 A 
ATOM     44  F   UNL A   1      34.879  32.259  32.453  1.00  0.00    -0.206 F 
ATOM     45  C   UNL A   1      34.474  34.606  29.732  1.00  0.00     0.060 A 
BRANCH  45  46
ATOM     46  S   UNL A   1      33.165  35.470  28.837  1.00  0.00     0.124 S 
ATOM     47  O   UNL A   1      33.925  36.422  28.035  1.00  0.00    -0.237 OA
ATOM     48  O   UNL A   1      32.527  34.382  28.102  1.00  0.00    -0.237 OA
ATOM     49  O   UNL A   1      32.353  36.051  29.904  1.00  0.00    -0.744 OA
ENDBRANCH  45  46
ENDBRANCH  24  38
BRANCH  25  50
ATOM     50  C   UNL A   1      44.075  28.538  35.676  1.00  0.00     0.058 A 
ATOM     51  C   UNL A   1      43.822  27.505  36.593  1.00  0.00     0.135 A 
ATOM     52  C   UNL A   1      45.406  28.930  35.481  1.00  0.00     0.135 A 
ATOM     53  F   UNL A   1      42.563  27.102  36.825  1.00  0.00    -0.206 F 
ATOM     54  C   UNL A   1      44.847  26.914  37.322  1.00  0.00     0.059 A 
ATOM     55  C   UNL A   1      46.452  28.334  36.180  1.00  0.00     0.059 A 
ATOM     56  F   UNL A   1      45.697  29.907  34.608  1.00  0.00    -0.206 F 
ATOM     57  C   UNL A   1      46.158  27.341  37.115  1.00  0.00     0.060 A 
BRANCH  57  58
ATOM     58  S   UNL A   1      47.468  26.586  38.101  1.00  0.00     0.124 S 
ATOM     59  O   UNL A   1      47.383  25.191  37.679  1.00  0.00    -0.237 OA
ATOM     60  O   UNL A   1      48.648  27.316  37.650  1.00  0.00    -0.237 OA
ATOM     61  O   UNL A   1      47.054  26.852  39.474  1.00  0.00    -0.744 OA
ENDBRANCH  57  58
ENDBRANCH  25  50
BRANCH  37  62
ATOM     62  C   UNL A   1      39.908  33.889  37.393  1.00  0.00     0.058 A 
ATOM     63  C   UNL A   1      38.986  33.585  38.407  1.00  0.00     0.135 A 
ATOM     64  C   UNL A   1      40.651  35.074  37.513  1.00  0.00     0.135 A 
ATOM     65  F   UNL A   1      38.250  32.464  38.338  1.00  0.00    -0.206 F 
ATOM     66  C   UNL A   1      38.785  34.438  39.485  1.00  0.00     0.059 A 
ATOM     67  C   UNL A   1      40.484  35.930  38.597  1.00  0.00     0.059 A 
ATOM     68  F   UNL A   1      41.555  35.402  36.577  1.00  0.00    -0.206 F 
ATOM     69  C   UNL A   1      39.533  35.612  39.568  1.00  0.00     0.060 A 
BRANCH  69  70
ATOM     70  S   UNL A   1      39.248  36.714  40.969  1.00  0.00     0.124 S 
ATOM     71  O   UNL A   1      38.573  35.829  41.913  1.00  0.00    -0.237 OA
ATOM     72  O   UNL A   1      40.605  37.112  41.330  1.00  0.00    -0.237 OA
ATOM     73  O   UNL A   1      38.419  37.776  40.404  1.00  0.00    -0.744 OA
ENDBRANCH  69  70
ENDBRANCH  37  62
ENDBRANCH  11  12
ENDBRANCH   4   6
ENDBRANCH   1   2
BRANCH   1  74
ATOM     74  C   UNL A   1      39.036  22.615  26.474  1.00  0.00     0.042 C 
BRANCH  74  75
ATOM     75  C   UNL A   1      37.825  23.451  26.095  1.00  0.00     0.117 C 
BRANCH  75  76
ATOM     76  N   UNL A   1      36.580  22.804  26.465  1.00  0.00    -0.356 N 
ATOM     77  C   UNL A   1      35.290  22.917  26.073  1.00  0.00     0.224 C 
ATOM     78  H   UNL A   1      36.703  22.123  27.164  1.00  0.00     0.163 HD
ATOM     79  O   UNL A   1      34.510  22.178  26.688  1.00  0.00    -0.275 OA
BRANCH  77  80
ATOM     80  C   UNL A   1      34.767  23.898  25.011  1.00  0.00     0.098 C 
ATOM     81  C   UNL A   1      34.670  23.349  23.581  1.00  0.00     0.017 C 
ATOM     82  C   UNL A   1      33.390  24.368  25.537  1.00  0.00     0.131 C 
ATOM     83  C   UNL A   1      33.768  24.148  22.646  1.00  0.00     0.022 C 
ATOM     84  N   UNL A   1      32.564  25.018  24.527  1.00  0.00    -0.356 N 
ATOM     85  C   UNL A   1      32.393  24.349  23.253  1.00  0.00     0.118 C 
BRANCH  84  86
ATOM     86  C   UNL A   1      32.271  26.362  24.638  1.00  0.00     0.133 A 
ATOM     87  C   UNL A   1      32.994  27.130  25.527  1.00  0.00     0.077 A 
ATOM     88  N   UNL A   1      31.319  26.904  23.864  1.00  0.00    -0.211 NA
ATOM     89  C   UNL A   1      32.724  28.480  25.583  1.00  0.00     0.095 A 
ATOM     90  C   UNL A   1      31.101  28.228  23.996  1.00  0.00     0.165 A 
ATOM     91  N   UNL A   1      31.769  29.048  24.824  1.00  0.00    -0.226 NA
BRANCH  89  92
ATOM     92  C   UNL A   1      33.503  29.365  26.458  1.00  0.00     0.089 A 
ATOM     93  C   UNL A   1      34.759  28.987  26.938  1.00  0.00     0.030 A 
ATOM     94  N   UNL A   1      32.916  30.535  26.819  1.00  0.00    -0.255 NA
ATOM     95  C   UNL A   1      35.437  29.837  27.807  1.00  0.00     0.004 A 
ATOM     96  C   UNL A   1      33.602  31.345  27.653  1.00  0.00     0.112 A 
ATOM     97  C   UNL A   1      34.849  31.041  28.172  1.00  0.00     0.020 A 
ENDBRANCH  89  92
BRANCH  90  98
ATOM     98  C   UNL A   1      29.996  28.813  23.244  1.00  0.00     0.055 A 
ATOM     99  C   UNL A   1      30.189  29.948  22.435  1.00  0.00     0.015 A 
ATOM    100  C   UNL A   1      28.719  28.242  23.271  1.00  0.00     0.134 A 
ATOM    101  C   UNL A   1      29.143  30.471  21.667  1.00  0.00     0.001 A 
ATOM    102  C   UNL A   1      27.668  28.765  22.517  1.00  0.00     0.040 A 
ATOM    103  F   UNL A   1      28.466  27.174  24.045  1.00  0.00    -0.206 F 
ATOM    104  C   UNL A   1      27.882  29.879  21.708  1.00  0.00     0.003 A 
ENDBRANCH  90  98
ENDBRANCH  84  86
ENDBRANCH  77  80
ENDBRANCH  75  76
ENDBRANCH  74  75
ENDBRANCH   1  74
TORSDOF 16
ENDMDL
