MODEL 1
REMARK VINA RESULT:     -14.5      0.000      0.000
REMARK SMILES Cc1ccc(C(F)(F)F)cc1-c1ccc(/C=C/C(=O)NCCCNC(=O)c2ccc(-c3c4nc(c(-c5c(F)cc(S(=O)(=O)[O-])cc5F)c5ccc([nH]5)c(-c5c(F)cc(S(=O)(=O)[O-])cc5F)c5nc(c(-c6c(F)cc(S(=O)(=O)[O-])cc6F)c6ccc3[nH]6)C=C5)C=C4)cc2)s1
REMARK SMILES IDX 22 1 21 2 20 3 18 4 19 5 17 7 16 8 15 9 12 10 13 11 93 12
REMARK SMILES IDX 14 13 11 14 1 15 2 16 3 17 4 18 10 19 5 20 6 21 7 22 8 23
REMARK SMILES IDX 9 24 23 25 24 26 25 27 26 29 27 30 28 31 92 32 29 33 91 34
REMARK SMILES IDX 30 35 31 36 32 37 85 38 33 39 90 40 84 41 86 42 34 43 89 44
REMARK SMILES IDX 83 45 82 46 35 48 69 49 48 50 68 51 49 52 52 53 67 54 87 55
REMARK SMILES IDX 50 56 51 57 66 59 88 60 53 61 36 62 37 63 46 64 38 65 39 66
REMARK SMILES IDX 45 67 47 68 40 69 41 70 42 71 43 72 44 73 70 74 71 75 80 76
REMARK SMILES IDX 72 77 73 78 79 79 81 80 74 81 75 82 76 83 77 84 78 85 54 86
REMARK SMILES IDX 55 87 64 88 56 89 57 90 63 91 65 92 58 93 59 94 60 95 61 96
REMARK SMILES IDX 62 97
REMARK H PARENT 20 6 24 28 86 47 52 58
REMARK Flexibility Score: inf
ROOT
ATOM      1  C   UNL A   1      33.073  30.351  26.661  1.00  0.00     0.042 C 
ENDROOT
BRANCH   1   2
ATOM      2  C   UNL A   1      32.475  29.353  25.669  1.00  0.00     0.118 C 
BRANCH   2   3
ATOM      3  N   UNL A   1      33.103  29.440  24.354  1.00  0.00    -0.352 N 
ATOM      4  C   UNL A   1      33.769  28.498  23.629  1.00  0.00     0.244 C 
ATOM      5  O   UNL A   1      34.089  28.726  22.464  1.00  0.00    -0.270 OA
ATOM      6  H   UNL A   1      33.032  30.321  23.920  1.00  0.00     0.163 HD
BRANCH   4   7
ATOM      7  C   UNL A   1      34.057  27.159  24.197  1.00  0.00     0.072 C 
ATOM      8  C   UNL A   1      33.183  26.146  24.146  1.00  0.00     0.024 C 
BRANCH   8   9
ATOM      9  C   UNL A   1      33.407  24.850  24.688  1.00  0.00     0.028 A 
ATOM     10  C   UNL A   1      34.021  22.480  25.109  1.00  0.00     0.035 A 
ATOM     11  C   UNL A   1      33.749  23.161  26.276  1.00  0.00     0.021 A 
ATOM     12  S   UNL A   1      33.810  23.480  23.735  1.00  0.00    -0.136 S 
ATOM     13  C   UNL A   1      33.402  24.518  26.033  1.00  0.00     0.020 A 
BRANCH  10  14
ATOM     14  C   UNL A   1      34.447  21.089  24.947  1.00  0.00    -0.005 A 
ATOM     15  C   UNL A   1      36.898  21.665  25.418  1.00  0.00     0.045 C 
ATOM     16  C   UNL A   1      35.795  20.698  25.075  1.00  0.00    -0.042 A 
ATOM     17  C   UNL A   1      36.142  19.359  24.831  1.00  0.00     0.005 A 
ATOM     18  C   UNL A   1      35.172  18.415  24.494  1.00  0.00     0.013 A 
ATOM     19  C   UNL A   1      33.478  20.126  24.608  1.00  0.00     0.023 A 
ATOM     20  C   UNL A   1      33.826  18.787  24.384  1.00  0.00     0.056 A 
BRANCH  20  21
ATOM     21  C   UNL A   1      32.785  17.760  24.016  1.00  0.00     0.416 C 
ATOM     22  F   UNL A   1      32.000  17.416  25.076  1.00  0.00    -0.166 F 
ATOM     23  F   UNL A   1      31.930  18.209  23.054  1.00  0.00    -0.166 F 
ATOM     24  F   UNL A   1      33.301  16.594  23.542  1.00  0.00    -0.166 F 
ENDBRANCH  20  21
ENDBRANCH  10  14
ENDBRANCH   8   9
ENDBRANCH   4   7
ENDBRANCH   2   3
ENDBRANCH   1   2
BRANCH   1  25
ATOM     25  C   UNL A   1      34.468  29.980  27.146  1.00  0.00     0.118 C 
BRANCH  25  26
ATOM     26  N   UNL A   1      35.202  31.141  27.643  1.00  0.00    -0.352 N 
ATOM     27  C   UNL A   1      36.443  31.157  28.252  1.00  0.00     0.251 C 
ATOM     28  H   UNL A   1      34.761  32.014  27.533  1.00  0.00     0.163 HD
ATOM     29  O   UNL A   1      36.926  32.157  28.755  1.00  0.00    -0.269 OA
BRANCH  27  30
ATOM     30  C   UNL A   1      37.209  29.902  28.174  1.00  0.00     0.039 A 
ATOM     31  C   UNL A   1      37.272  29.134  29.341  1.00  0.00     0.014 A 
ATOM     32  C   UNL A   1      38.116  29.733  27.130  1.00  0.00     0.014 A 
ATOM     33  C   UNL A   1      38.375  28.318  29.554  1.00  0.00     0.010 A 
ATOM     34  C   UNL A   1      39.245  28.974  27.375  1.00  0.00     0.010 A 
ATOM     35  C   UNL A   1      39.401  28.323  28.611  1.00  0.00    -0.014 A 
BRANCH  35  36
ATOM     36  C   UNL A   1      40.716  27.748  28.865  1.00  0.00     0.031 A 
ATOM     37  C   UNL A   1      40.957  26.320  28.565  1.00  0.00     0.074 A 
ATOM     38  C   UNL A   1      41.724  28.530  29.310  1.00  0.00     0.049 A 
ATOM     39  N   UNL A   1      41.996  25.656  28.941  1.00  0.00    -0.248 NA
ATOM     40  C   UNL A   1      39.964  25.494  27.887  1.00  0.00     0.031 C 
ATOM     41  C   UNL A   1      43.152  28.229  29.283  1.00  0.00     0.029 A 
ATOM     42  N   UNL A   1      41.624  29.680  30.100  1.00  0.00    -0.354 N 
ATOM     43  C   UNL A   1      41.951  24.422  28.332  1.00  0.00     0.074 A 
ATOM     44  C   UNL A   1      40.614  24.330  27.807  1.00  0.00     0.031 C 
ATOM     45  C   UNL A   1      43.775  28.987  30.197  1.00  0.00     0.029 A 
ATOM     46  C   UNL A   1      42.747  29.681  30.952  1.00  0.00     0.049 A 
ATOM     47  H   UNL A   1      40.908  30.356  30.068  1.00  0.00     0.167 HD
ATOM     48  C   UNL A   1      43.105  23.700  28.235  1.00  0.00     0.037 A 
ATOM     49  C   UNL A   1      42.610  29.608  32.309  1.00  0.00     0.037 A 
ATOM     50  C   UNL A   1      44.104  24.219  29.179  1.00  0.00     0.049 A 
ATOM     51  C   UNL A   1      43.257  28.392  32.930  1.00  0.00     0.074 A 
ATOM     52  C   UNL A   1      45.235  25.006  29.042  1.00  0.00     0.029 A 
ATOM     53  N   UNL A   1      43.826  24.173  30.546  1.00  0.00    -0.354 N 
ATOM     54  N   UNL A   1      43.612  27.328  32.262  1.00  0.00    -0.248 NA
ATOM     55  C   UNL A   1      43.553  28.275  34.356  1.00  0.00     0.031 C 
ATOM     56  C   UNL A   1      45.572  25.517  30.326  1.00  0.00     0.029 A 
ATOM     57  C   UNL A   1      44.674  25.009  31.249  1.00  0.00     0.049 A 
ATOM     58  H   UNL A   1      43.122  23.620  30.954  1.00  0.00     0.167 HD
ATOM     59  C   UNL A   1      44.137  26.395  33.120  1.00  0.00     0.074 A 
ATOM     60  C   UNL A   1      44.107  27.051  34.416  1.00  0.00     0.031 C 
ATOM     61  C   UNL A   1      44.544  25.161  32.696  1.00  0.00     0.037 A 
BRANCH  48  62
ATOM     62  C   UNL A   1      43.417  22.705  27.116  1.00  0.00     0.058 A 
ATOM     63  C   UNL A   1      42.753  21.454  27.065  1.00  0.00     0.135 A 
ATOM     64  C   UNL A   1      44.439  22.839  26.150  1.00  0.00     0.135 A 
ATOM     65  F   UNL A   1      41.734  21.173  27.888  1.00  0.00    -0.206 F 
ATOM     66  C   UNL A   1      43.118  20.421  26.188  1.00  0.00     0.059 A 
ATOM     67  C   UNL A   1      44.818  21.828  25.263  1.00  0.00     0.059 A 
ATOM     68  F   UNL A   1      45.156  23.953  26.000  1.00  0.00    -0.206 F 
ATOM     69  C   UNL A   1      44.169  20.609  25.302  1.00  0.00     0.060 A 
BRANCH  69  70
ATOM     70  S   UNL A   1      44.692  19.270  24.216  1.00  0.00     0.124 S 
ATOM     71  O   UNL A   1      46.098  19.118  24.577  1.00  0.00    -0.237 OA
ATOM     72  O   UNL A   1      43.809  18.181  24.620  1.00  0.00    -0.237 OA
ATOM     73  O   UNL A   1      44.449  19.800  22.877  1.00  0.00    -0.744 OA
ENDBRANCH  69  70
ENDBRANCH  48  62
BRANCH  49  74
ATOM     74  C   UNL A   1      41.409  30.324  32.818  1.00  0.00     0.058 A 
ATOM     75  C   UNL A   1      40.275  29.545  33.122  1.00  0.00     0.135 A 
ATOM     76  C   UNL A   1      41.502  31.590  33.412  1.00  0.00     0.135 A 
ATOM     77  F   UNL A   1      40.126  28.331  32.567  1.00  0.00    -0.206 F 
ATOM     78  C   UNL A   1      39.367  29.926  34.103  1.00  0.00     0.059 A 
ATOM     79  C   UNL A   1      40.596  31.996  34.396  1.00  0.00     0.059 A 
ATOM     80  F   UNL A   1      42.556  32.379  33.156  1.00  0.00    -0.206 F 
ATOM     81  C   UNL A   1      39.578  31.123  34.784  1.00  0.00     0.060 A 
BRANCH  81  82
ATOM     82  S   UNL A   1      38.629  31.401  36.299  1.00  0.00     0.124 S 
ATOM     83  O   UNL A   1      38.233  30.047  36.663  1.00  0.00    -0.237 OA
ATOM     84  O   UNL A   1      39.632  32.018  37.169  1.00  0.00    -0.237 OA
ATOM     85  O   UNL A   1      37.552  32.282  35.864  1.00  0.00    -0.744 OA
ENDBRANCH  81  82
ENDBRANCH  49  74
BRANCH  61  86
ATOM     86  C   UNL A   1      44.935  24.003  33.592  1.00  0.00     0.058 A 
ATOM     87  C   UNL A   1      44.057  22.981  33.996  1.00  0.00     0.135 A 
ATOM     88  C   UNL A   1      46.288  23.818  33.971  1.00  0.00     0.135 A 
ATOM     89  F   UNL A   1      42.776  22.965  33.603  1.00  0.00    -0.206 F 
ATOM     90  C   UNL A   1      44.470  21.900  34.781  1.00  0.00     0.059 A 
ATOM     91  C   UNL A   1      46.732  22.718  34.703  1.00  0.00     0.059 A 
ATOM     92  F   UNL A   1      47.237  24.703  33.627  1.00  0.00    -0.206 F 
ATOM     93  C   UNL A   1      45.810  21.775  35.129  1.00  0.00     0.060 A 
BRANCH  93  94
ATOM     94  S   UNL A   1      46.368  20.347  36.078  1.00  0.00     0.124 S 
ATOM     95  O   UNL A   1      45.690  20.561  37.353  1.00  0.00    -0.237 OA
ATOM     96  O   UNL A   1      45.882  19.219  35.289  1.00  0.00    -0.237 OA
ATOM     97  O   UNL A   1      47.818  20.509  36.095  1.00  0.00    -0.744 OA
ENDBRANCH  93  94
ENDBRANCH  61  86
ENDBRANCH  35  36
ENDBRANCH  27  30
ENDBRANCH  25  26
ENDBRANCH   1  25
TORSDOF 16
ENDMDL
MODEL 2
REMARK VINA RESULT:     -14.1      5.604     11.953
REMARK SMILES Cc1ccc(C(F)(F)F)cc1-c1ccc(/C=C/C(=O)NCCCNC(=O)c2ccc(-c3c4nc(c(-c5c(F)cc(S(=O)(=O)[O-])cc5F)c5ccc([nH]5)c(-c5c(F)cc(S(=O)(=O)[O-])cc5F)c5nc(c(-c6c(F)cc(S(=O)(=O)[O-])cc6F)c6ccc3[nH]6)C=C5)C=C4)cc2)s1
REMARK SMILES IDX 22 1 21 2 20 3 18 4 19 5 17 7 16 8 15 9 12 10 13 11 93 12
REMARK SMILES IDX 14 13 11 14 1 15 2 16 3 17 4 18 10 19 5 20 6 21 7 22 8 23
REMARK SMILES IDX 9 24 23 25 24 26 25 27 26 29 27 30 28 31 92 32 29 33 91 34
REMARK SMILES IDX 30 35 31 36 32 37 85 38 33 39 90 40 84 41 86 42 34 43 89 44
REMARK SMILES IDX 83 45 82 46 35 48 69 49 48 50 68 51 49 52 52 53 67 54 87 55
REMARK SMILES IDX 50 56 51 57 66 59 88 60 53 61 36 62 37 63 46 64 38 65 39 66
REMARK SMILES IDX 45 67 47 68 40 69 41 70 42 71 43 72 44 73 70 74 71 75 80 76
REMARK SMILES IDX 72 77 73 78 79 79 81 80 74 81 75 82 76 83 77 84 78 85 54 86
REMARK SMILES IDX 55 87 64 88 56 89 57 90 63 91 65 92 58 93 59 94 60 95 61 96
REMARK SMILES IDX 62 97
REMARK H PARENT 20 6 24 28 86 47 52 58
REMARK Flexibility Score: inf
ROOT
ATOM      1  C   UNL A   1      37.649  22.098  25.327  1.00  0.00     0.042 C 
ENDROOT
BRANCH   1   2
ATOM      2  C   UNL A   1      36.134  22.030  25.132  1.00  0.00     0.118 C 
BRANCH   2   3
ATOM      3  N   UNL A   1      35.417  21.969  26.403  1.00  0.00    -0.352 N 
ATOM      4  C   UNL A   1      34.543  22.849  26.967  1.00  0.00     0.244 C 
ATOM      5  O   UNL A   1      33.920  22.538  27.979  1.00  0.00    -0.270 OA
ATOM      6  H   UNL A   1      35.593  21.161  26.938  1.00  0.00     0.163 HD
BRANCH   4   7
ATOM      7  C   UNL A   1      34.267  24.163  26.337  1.00  0.00     0.072 C 
ATOM      8  C   UNL A   1      33.085  24.469  25.788  1.00  0.00     0.024 C 
BRANCH   8   9
ATOM      9  C   UNL A   1      32.776  25.708  25.161  1.00  0.00     0.028 A 
ATOM     10  C   UNL A   1      31.909  27.951  24.536  1.00  0.00     0.035 A 
ATOM     11  C   UNL A   1      33.000  27.586  23.777  1.00  0.00     0.021 A 
ATOM     12  S   UNL A   1      31.475  26.720  25.644  1.00  0.00    -0.136 S 
ATOM     13  C   UNL A   1      33.497  26.305  24.138  1.00  0.00     0.020 A 
BRANCH  10  14
ATOM     14  C   UNL A   1      31.147  29.200  24.491  1.00  0.00    -0.005 A 
ATOM     15  C   UNL A   1      32.559  30.262  26.345  1.00  0.00     0.045 C 
ATOM     16  C   UNL A   1      31.433  30.284  25.344  1.00  0.00    -0.042 A 
ATOM     17  C   UNL A   1      30.613  31.423  25.299  1.00  0.00     0.005 A 
ATOM     18  C   UNL A   1      29.543  31.503  24.406  1.00  0.00     0.013 A 
ATOM     19  C   UNL A   1      30.066  29.295  23.594  1.00  0.00     0.023 A 
ATOM     20  C   UNL A   1      29.261  30.441  23.539  1.00  0.00     0.056 A 
BRANCH  20  21
ATOM     21  C   UNL A   1      28.101  30.535  22.580  1.00  0.00     0.416 C 
ATOM     22  F   UNL A   1      28.488  30.378  21.282  1.00  0.00    -0.166 F 
ATOM     23  F   UNL A   1      27.162  29.572  22.803  1.00  0.00    -0.166 F 
ATOM     24  F   UNL A   1      27.437  31.721  22.629  1.00  0.00    -0.166 F 
ENDBRANCH  20  21
ENDBRANCH  10  14
ENDBRANCH   8   9
ENDBRANCH   4   7
ENDBRANCH   2   3
ENDBRANCH   1   2
BRANCH   1  25
ATOM     25  C   UNL A   1      38.112  23.281  26.167  1.00  0.00     0.118 C 
BRANCH  25  26
ATOM     26  N   UNL A   1      39.362  22.999  26.867  1.00  0.00    -0.352 N 
ATOM     27  C   UNL A   1      40.193  23.900  27.506  1.00  0.00     0.251 C 
ATOM     28  H   UNL A   1      39.647  22.057  26.887  1.00  0.00     0.163 HD
ATOM     29  O   UNL A   1      41.286  23.598  27.955  1.00  0.00    -0.269 OA
BRANCH  27  30
ATOM     30  C   UNL A   1      39.638  25.250  27.707  1.00  0.00     0.039 A 
ATOM     31  C   UNL A   1      40.135  26.260  26.878  1.00  0.00     0.014 A 
ATOM     32  C   UNL A   1      38.978  25.533  28.900  1.00  0.00     0.014 A 
ATOM     33  C   UNL A   1      40.147  27.569  27.342  1.00  0.00     0.010 A 
ATOM     34  C   UNL A   1      39.052  26.824  29.386  1.00  0.00     0.010 A 
ATOM     35  C   UNL A   1      39.695  27.823  28.635  1.00  0.00    -0.014 A 
BRANCH  35  36
ATOM     36  C   UNL A   1      39.931  29.085  29.326  1.00  0.00     0.031 A 
ATOM     37  C   UNL A   1      38.945  30.180  29.200  1.00  0.00     0.074 A 
ATOM     38  C   UNL A   1      41.010  29.228  30.125  1.00  0.00     0.049 A 
ATOM     39  N   UNL A   1      39.145  31.395  29.581  1.00  0.00    -0.248 NA
ATOM     40  C   UNL A   1      37.666  29.995  28.522  1.00  0.00     0.031 C 
ATOM     41  C   UNL A   1      41.222  30.250  31.146  1.00  0.00     0.029 A 
ATOM     42  N   UNL A   1      42.251  28.593  30.003  1.00  0.00    -0.354 N 
ATOM     43  C   UNL A   1      37.953  32.075  29.466  1.00  0.00     0.074 A 
ATOM     44  C   UNL A   1      37.118  31.202  28.682  1.00  0.00     0.031 C 
ATOM     45  C   UNL A   1      42.537  30.360  31.386  1.00  0.00     0.029 A 
ATOM     46  C   UNL A   1      43.223  29.528  30.414  1.00  0.00     0.049 A 
ATOM     47  H   UNL A   1      42.413  27.673  29.691  1.00  0.00     0.167 HD
ATOM     48  C   UNL A   1      37.790  33.231  30.171  1.00  0.00     0.037 A 
ATOM     49  C   UNL A   1      44.180  29.984  29.553  1.00  0.00     0.037 A 
ATOM     50  C   UNL A   1      39.096  33.742  30.608  1.00  0.00     0.049 A 
ATOM     51  C   UNL A   1      44.136  31.476  29.315  1.00  0.00     0.074 A 
ATOM     52  C   UNL A   1      39.768  33.746  31.819  1.00  0.00     0.029 A 
ATOM     53  N   UNL A   1      40.036  34.102  29.641  1.00  0.00    -0.354 N 
ATOM     54  N   UNL A   1      43.111  32.233  29.597  1.00  0.00    -0.248 NA
ATOM     55  C   UNL A   1      45.243  32.233  28.737  1.00  0.00     0.031 C 
ATOM     56  C   UNL A   1      41.142  34.009  31.557  1.00  0.00     0.029 A 
ATOM     57  C   UNL A   1      41.298  34.206  30.196  1.00  0.00     0.049 A 
ATOM     58  H   UNL A   1      39.829  34.260  28.692  1.00  0.00     0.167 HD
ATOM     59  C   UNL A   1      43.378  33.529  29.232  1.00  0.00     0.074 A 
ATOM     60  C   UNL A   1      44.739  33.480  28.728  1.00  0.00     0.031 C 
ATOM     61  C   UNL A   1      42.456  34.530  29.366  1.00  0.00     0.037 A 
BRANCH  48  62
ATOM     62  C   UNL A   1      36.448  33.755  30.686  1.00  0.00     0.058 A 
ATOM     63  C   UNL A   1      35.482  34.258  29.781  1.00  0.00     0.135 A 
ATOM     64  C   UNL A   1      36.091  33.925  32.042  1.00  0.00     0.135 A 
ATOM     65  F   UNL A   1      35.645  34.148  28.455  1.00  0.00    -0.206 F 
ATOM     66  C   UNL A   1      34.315  34.925  30.187  1.00  0.00     0.059 A 
ATOM     67  C   UNL A   1      34.933  34.580  32.472  1.00  0.00     0.059 A 
ATOM     68  F   UNL A   1      36.840  33.482  33.052  1.00  0.00    -0.206 F 
ATOM     69  C   UNL A   1      34.059  35.100  31.539  1.00  0.00     0.060 A 
BRANCH  69  70
ATOM     70  S   UNL A   1      32.600  36.010  32.075  1.00  0.00     0.124 S 
ATOM     71  O   UNL A   1      33.150  36.888  33.103  1.00  0.00    -0.237 OA
ATOM     72  O   UNL A   1      32.171  36.662  30.843  1.00  0.00    -0.237 OA
ATOM     73  O   UNL A   1      31.705  34.965  32.567  1.00  0.00    -0.744 OA
ENDBRANCH  69  70
ENDBRANCH  48  62
BRANCH  49  74
ATOM     74  C   UNL A   1      44.640  28.951  28.586  1.00  0.00     0.058 A 
ATOM     75  C   UNL A   1      44.079  28.982  27.293  1.00  0.00     0.135 A 
ATOM     76  C   UNL A   1      45.865  28.288  28.744  1.00  0.00     0.135 A 
ATOM     77  F   UNL A   1      42.899  29.588  27.089  1.00  0.00    -0.206 F 
ATOM     78  C   UNL A   1      44.781  28.533  26.181  1.00  0.00     0.059 A 
ATOM     79  C   UNL A   1      46.584  27.823  27.639  1.00  0.00     0.059 A 
ATOM     80  F   UNL A   1      46.445  28.221  29.951  1.00  0.00    -0.206 F 
ATOM     81  C   UNL A   1      46.063  28.020  26.358  1.00  0.00     0.060 A 
BRANCH  81  82
ATOM     82  S   UNL A   1      47.094  27.815  24.885  1.00  0.00     0.124 S 
ATOM     83  O   UNL A   1      46.788  26.447  24.488  1.00  0.00    -0.237 OA
ATOM     84  O   UNL A   1      46.565  28.859  24.005  1.00  0.00    -0.237 OA
ATOM     85  O   UNL A   1      48.444  28.044  25.385  1.00  0.00    -0.744 OA
ENDBRANCH  81  82
ENDBRANCH  49  74
BRANCH  61  86
ATOM     86  C   UNL A   1      42.584  35.930  28.801  1.00  0.00     0.058 A 
ATOM     87  C   UNL A   1      41.907  36.389  27.656  1.00  0.00     0.135 A 
ATOM     88  C   UNL A   1      43.316  36.920  29.504  1.00  0.00     0.135 A 
ATOM     89  F   UNL A   1      41.080  35.591  26.967  1.00  0.00    -0.206 F 
ATOM     90  C   UNL A   1      42.010  37.706  27.198  1.00  0.00     0.059 A 
ATOM     91  C   UNL A   1      43.384  38.251  29.097  1.00  0.00     0.059 A 
ATOM     92  F   UNL A   1      43.985  36.626  30.629  1.00  0.00    -0.206 F 
ATOM     93  C   UNL A   1      42.750  38.631  27.924  1.00  0.00     0.060 A 
BRANCH  93  94
ATOM     94  S   UNL A   1      42.829  40.350  27.384  1.00  0.00     0.124 S 
ATOM     95  O   UNL A   1      43.860  40.283  26.353  1.00  0.00    -0.237 OA
ATOM     96  O   UNL A   1      41.475  40.605  26.903  1.00  0.00    -0.237 OA
ATOM     97  O   UNL A   1      43.197  41.062  28.604  1.00  0.00    -0.744 OA
ENDBRANCH  93  94
ENDBRANCH  61  86
ENDBRANCH  35  36
ENDBRANCH  27  30
ENDBRANCH  25  26
ENDBRANCH   1  25
TORSDOF 16
ENDMDL
MODEL 3
REMARK VINA RESULT:     -13.3      1.681      2.377
REMARK SMILES Cc1ccc(C(F)(F)F)cc1-c1ccc(/C=C/C(=O)NCCCNC(=O)c2ccc(-c3c4nc(c(-c5c(F)cc(S(=O)(=O)[O-])cc5F)c5ccc([nH]5)c(-c5c(F)cc(S(=O)(=O)[O-])cc5F)c5nc(c(-c6c(F)cc(S(=O)(=O)[O-])cc6F)c6ccc3[nH]6)C=C5)C=C4)cc2)s1
REMARK SMILES IDX 22 1 21 2 20 3 18 4 19 5 17 7 16 8 15 9 12 10 13 11 93 12
REMARK SMILES IDX 14 13 11 14 1 15 2 16 3 17 4 18 10 19 5 20 6 21 7 22 8 23
REMARK SMILES IDX 9 24 23 25 24 26 25 27 26 29 27 30 28 31 92 32 29 33 91 34
REMARK SMILES IDX 30 35 31 36 32 37 85 38 33 39 90 40 84 41 86 42 34 43 89 44
REMARK SMILES IDX 83 45 82 46 35 48 69 49 48 50 68 51 49 52 52 53 67 54 87 55
REMARK SMILES IDX 50 56 51 57 66 59 88 60 53 61 36 62 37 63 46 64 38 65 39 66
REMARK SMILES IDX 45 67 47 68 40 69 41 70 42 71 43 72 44 73 70 74 71 75 80 76
REMARK SMILES IDX 72 77 73 78 79 79 81 80 74 81 75 82 76 83 77 84 78 85 54 86
REMARK SMILES IDX 55 87 64 88 56 89 57 90 63 91 65 92 58 93 59 94 60 95 61 96
REMARK SMILES IDX 62 97
REMARK H PARENT 20 6 24 28 86 47 52 58
REMARK Flexibility Score: inf
ROOT
ATOM      1  C   UNL A   1      33.649  30.096  26.264  1.00  0.00     0.042 C 
ENDROOT
BRANCH   1   2
ATOM      2  C   UNL A   1      32.143  30.264  26.457  1.00  0.00     0.118 C 
BRANCH   2   3
ATOM      3  N   UNL A   1      31.431  30.364  25.186  1.00  0.00    -0.352 N 
ATOM      4  C   UNL A   1      30.872  29.396  24.408  1.00  0.00     0.244 C 
ATOM      5  O   UNL A   1      30.174  29.703  23.444  1.00  0.00    -0.270 OA
ATOM      6  H   UNL A   1      31.341  31.280  24.835  1.00  0.00     0.163 HD
BRANCH   4   7
ATOM      7  C   UNL A   1      31.027  27.960  24.745  1.00  0.00     0.072 C 
ATOM      8  C   UNL A   1      32.214  27.404  25.020  1.00  0.00     0.024 C 
BRANCH   8   9
ATOM      9  C   UNL A   1      32.416  26.031  25.334  1.00  0.00     0.028 A 
ATOM     10  C   UNL A   1      33.186  23.675  25.486  1.00  0.00     0.035 A 
ATOM     11  C   UNL A   1      32.390  24.030  26.552  1.00  0.00     0.021 A 
ATOM     12  S   UNL A   1      33.358  24.965  24.373  1.00  0.00    -0.136 S 
ATOM     13  C   UNL A   1      31.953  25.380  26.467  1.00  0.00     0.020 A 
BRANCH  10  14
ATOM     14  C   UNL A   1      33.854  22.396  25.236  1.00  0.00    -0.005 A 
ATOM     15  C   UNL A   1      31.630  21.145  25.022  1.00  0.00     0.045 C 
ATOM     16  C   UNL A   1      33.135  21.202  25.031  1.00  0.00    -0.042 A 
ATOM     17  C   UNL A   1      33.842  19.999  24.872  1.00  0.00     0.005 A 
ATOM     18  C   UNL A   1      35.238  19.978  24.887  1.00  0.00     0.013 A 
ATOM     19  C   UNL A   1      35.262  22.361  25.246  1.00  0.00     0.023 A 
ATOM     20  C   UNL A   1      35.964  21.161  25.068  1.00  0.00     0.056 A 
BRANCH  20  21
ATOM     21  C   UNL A   1      37.471  21.128  25.085  1.00  0.00     0.416 C 
ATOM     22  F   UNL A   1      37.965  19.880  24.847  1.00  0.00    -0.166 F 
ATOM     23  F   UNL A   1      38.021  21.930  24.129  1.00  0.00    -0.166 F 
ATOM     24  F   UNL A   1      38.020  21.525  26.265  1.00  0.00    -0.166 F 
ENDBRANCH  20  21
ENDBRANCH  10  14
ENDBRANCH   8   9
ENDBRANCH   4   7
ENDBRANCH   2   3
ENDBRANCH   1   2
BRANCH   1  25
ATOM     25  C   UNL A   1      34.425  29.937  27.565  1.00  0.00     0.118 C 
BRANCH  25  26
ATOM     26  N   UNL A   1      35.213  31.126  27.882  1.00  0.00    -0.352 N 
ATOM     27  C   UNL A   1      36.513  31.177  28.349  1.00  0.00     0.251 C 
ATOM     28  H   UNL A   1      34.765  31.993  27.748  1.00  0.00     0.163 HD
ATOM     29  O   UNL A   1      37.051  32.209  28.712  1.00  0.00    -0.269 OA
BRANCH  27  30
ATOM     30  C   UNL A   1      37.262  29.910  28.292  1.00  0.00     0.039 A 
ATOM     31  C   UNL A   1      37.342  29.177  29.480  1.00  0.00     0.014 A 
ATOM     32  C   UNL A   1      38.144  29.699  27.235  1.00  0.00     0.014 A 
ATOM     33  C   UNL A   1      38.440  28.354  29.694  1.00  0.00     0.010 A 
ATOM     34  C   UNL A   1      39.268  28.933  27.477  1.00  0.00     0.010 A 
ATOM     35  C   UNL A   1      39.444  28.318  28.729  1.00  0.00    -0.014 A 
BRANCH  35  36
ATOM     36  C   UNL A   1      40.758  27.734  28.971  1.00  0.00     0.031 A 
ATOM     37  C   UNL A   1      40.993  26.310  28.650  1.00  0.00     0.074 A 
ATOM     38  C   UNL A   1      41.769  28.506  29.424  1.00  0.00     0.049 A 
ATOM     39  N   UNL A   1      42.030  25.636  29.014  1.00  0.00    -0.248 NA
ATOM     40  C   UNL A   1      39.994  25.497  27.963  1.00  0.00     0.031 C 
ATOM     41  C   UNL A   1      43.196  28.200  29.389  1.00  0.00     0.029 A 
ATOM     42  N   UNL A   1      41.676  29.645  30.232  1.00  0.00    -0.354 N 
ATOM     43  C   UNL A   1      41.979  24.412  28.387  1.00  0.00     0.074 A 
ATOM     44  C   UNL A   1      40.640  24.332  27.865  1.00  0.00     0.031 C 
ATOM     45  C   UNL A   1      43.824  28.942  30.314  1.00  0.00     0.029 A 
ATOM     46  C   UNL A   1      42.801  29.629  31.081  1.00  0.00     0.049 A 
ATOM     47  H   UNL A   1      40.963  30.324  30.211  1.00  0.00     0.167 HD
ATOM     48  C   UNL A   1      43.129  23.686  28.277  1.00  0.00     0.037 A 
ATOM     49  C   UNL A   1      42.668  29.537  32.437  1.00  0.00     0.037 A 
ATOM     50  C   UNL A   1      44.132  24.188  29.226  1.00  0.00     0.049 A 
ATOM     51  C   UNL A   1      43.311  28.310  33.039  1.00  0.00     0.074 A 
ATOM     52  C   UNL A   1      45.266  24.972  29.097  1.00  0.00     0.029 A 
ATOM     53  N   UNL A   1      43.858  24.123  30.593  1.00  0.00    -0.354 N 
ATOM     54  N   UNL A   1      43.660  27.255  32.354  1.00  0.00    -0.248 NA
ATOM     55  C   UNL A   1      43.610  28.172  34.462  1.00  0.00     0.031 C 
ATOM     56  C   UNL A   1      45.609  25.464  30.387  1.00  0.00     0.029 A 
ATOM     57  C   UNL A   1      44.711  24.946  31.305  1.00  0.00     0.049 A 
ATOM     58  H   UNL A   1      43.153  23.568  30.995  1.00  0.00     0.167 HD
ATOM     59  C   UNL A   1      44.184  26.307  33.198  1.00  0.00     0.074 A 
ATOM     60  C   UNL A   1      44.160  26.945  34.503  1.00  0.00     0.031 C 
ATOM     61  C   UNL A   1      44.585  25.078  32.755  1.00  0.00     0.037 A 
BRANCH  48  62
ATOM     62  C   UNL A   1      43.435  22.706  27.144  1.00  0.00     0.058 A 
ATOM     63  C   UNL A   1      42.815  21.433  27.112  1.00  0.00     0.135 A 
ATOM     64  C   UNL A   1      44.414  22.880  26.140  1.00  0.00     0.135 A 
ATOM     65  F   UNL A   1      41.838  21.112  27.972  1.00  0.00    -0.206 F 
ATOM     66  C   UNL A   1      43.184  20.415  26.217  1.00  0.00     0.059 A 
ATOM     67  C   UNL A   1      44.795  21.885  25.236  1.00  0.00     0.059 A 
ATOM     68  F   UNL A   1      45.084  24.019  25.968  1.00  0.00    -0.206 F 
ATOM     69  C   UNL A   1      44.193  20.644  25.294  1.00  0.00     0.060 A 
BRANCH  69  70
ATOM     70  S   UNL A   1      44.722  19.328  24.184  1.00  0.00     0.124 S 
ATOM     71  O   UNL A   1      44.499  19.929  22.872  1.00  0.00    -0.237 OA
ATOM     72  O   UNL A   1      46.117  19.140  24.569  1.00  0.00    -0.237 OA
ATOM     73  O   UNL A   1      43.832  18.219  24.518  1.00  0.00    -0.744 OA
ENDBRANCH  69  70
ENDBRANCH  48  62
BRANCH  49  74
ATOM     74  C   UNL A   1      41.470  30.251  32.959  1.00  0.00     0.058 A 
ATOM     75  C   UNL A   1      41.585  31.640  33.163  1.00  0.00     0.135 A 
ATOM     76  C   UNL A   1      40.180  29.722  32.819  1.00  0.00     0.135 A 
ATOM     77  F   UNL A   1      42.797  32.197  33.321  1.00  0.00    -0.206 F 
ATOM     78  C   UNL A   1      40.489  32.488  33.058  1.00  0.00     0.059 A 
ATOM     79  C   UNL A   1      39.063  30.557  32.718  1.00  0.00     0.059 A 
ATOM     80  F   UNL A   1      40.007  28.406  32.628  1.00  0.00    -0.206 F 
ATOM     81  C   UNL A   1      39.243  31.941  32.764  1.00  0.00     0.060 A 
BRANCH  81  82
ATOM     82  S   UNL A   1      37.932  33.076  32.247  1.00  0.00     0.124 S 
ATOM     83  O   UNL A   1      37.825  33.961  33.400  1.00  0.00    -0.237 OA
ATOM     84  O   UNL A   1      38.514  33.676  31.046  1.00  0.00    -0.237 OA
ATOM     85  O   UNL A   1      36.795  32.193  32.017  1.00  0.00    -0.744 OA
ENDBRANCH  81  82
ENDBRANCH  49  74
BRANCH  61  86
ATOM     86  C   UNL A   1      44.974  23.905  33.634  1.00  0.00     0.058 A 
ATOM     87  C   UNL A   1      44.074  22.927  34.095  1.00  0.00     0.135 A 
ATOM     88  C   UNL A   1      46.337  23.658  33.933  1.00  0.00     0.135 A 
ATOM     89  F   UNL A   1      42.772  22.971  33.779  1.00  0.00    -0.206 F 
ATOM     90  C   UNL A   1      44.482  21.830  34.861  1.00  0.00     0.059 A 
ATOM     91  C   UNL A   1      46.771  22.540  34.643  1.00  0.00     0.059 A 
ATOM     92  F   UNL A   1      47.304  24.495  33.527  1.00  0.00    -0.206 F 
ATOM     93  C   UNL A   1      45.832  21.643  35.129  1.00  0.00     0.060 A 
BRANCH  93  94
ATOM     94  S   UNL A   1      46.378  20.193  36.052  1.00  0.00     0.124 S 
ATOM     95  O   UNL A   1      47.820  20.408  36.105  1.00  0.00    -0.237 OA
ATOM     96  O   UNL A   1      45.674  20.330  37.323  1.00  0.00    -0.237 OA
ATOM     97  O   UNL A   1      45.932  19.083  35.216  1.00  0.00    -0.744 OA
ENDBRANCH  93  94
ENDBRANCH  61  86
ENDBRANCH  35  36
ENDBRANCH  27  30
ENDBRANCH  25  26
ENDBRANCH   1  25
TORSDOF 16
ENDMDL
