MODEL 1
REMARK VINA RESULT:     -10.7      0.000      0.000
REMARK SMILES CCOc1cc2c(cc1C(=O)NCCCNC(=O)c1ccc(-c3c4nc(c(-c5c(F)cc(S(=O)(=O)[O-])cc5F)c5ccc([nH]5)c(-c5c(F)cc(S(=O)(=O)[O-])cc5F)c5nc(c(-c6c(F)cc(S(=O)(=O)[O-])cc6F)c6ccc3[nH]6)C=C5)C=C4)cc1)CCC2
REMARK SMILES IDX 14 1 13 2 12 3 10 4 11 5 9 7 4 8 5 9 6 10 8 11 7 12 87 13
REMARK SMILES IDX 85 14 86 15 3 16 2 17 1 18 15 19 16 20 17 21 18 23 19 24
REMARK SMILES IDX 20 25 84 26 21 27 83 28 22 29 23 30 24 31 77 32 25 33 82 34
REMARK SMILES IDX 76 35 78 36 26 37 81 38 75 39 74 40 27 42 61 43 40 44 60 45
REMARK SMILES IDX 41 46 44 47 59 48 79 49 42 50 43 51 58 53 80 54 45 55 28 56
REMARK SMILES IDX 29 57 38 58 30 59 31 60 37 61 39 62 32 63 33 64 34 65 35 66
REMARK SMILES IDX 36 67 62 68 63 69 72 70 64 71 65 72 71 73 73 74 66 75 67 76
REMARK SMILES IDX 68 77 69 78 70 79 46 80 47 81 56 82 48 83 49 84 55 85 57 86
REMARK SMILES IDX 50 87 51 88 52 89 53 90 54 91
REMARK H PARENT 12 6 16 22 78 41 44 52
REMARK Flexibility Score: inf
ROOT
ATOM      1  C   UNL A   1      38.074  22.666  26.171  1.00  0.00     0.042 C 
ENDROOT
BRANCH   1   2
ATOM      2  C   UNL A   1      39.118  21.744  25.544  1.00  0.00     0.118 C 
BRANCH   2   3
ATOM      3  N   UNL A   1      39.697  20.855  26.522  1.00  0.00    -0.352 N 
ATOM      4  C   UNL A   1      40.841  20.786  27.260  1.00  0.00     0.255 C 
ATOM      5  O   UNL A   1      40.832  19.821  28.042  1.00  0.00    -0.269 OA
ATOM      6  H   UNL A   1      39.104  20.091  26.708  1.00  0.00     0.163 HD
BRANCH   4   7
ATOM      7  C   UNL A   1      42.059  21.675  27.257  1.00  0.00     0.082 A 
ATOM      8  C   UNL A   1      43.115  21.819  26.327  1.00  0.00     0.132 A 
ATOM      9  C   UNL A   1      44.112  22.804  26.512  1.00  0.00     0.051 A 
ATOM     10  C   UNL A   1      44.098  23.604  27.634  1.00  0.00    -0.041 A 
ATOM     11  C   UNL A   1      42.097  22.517  28.406  1.00  0.00     0.021 A 
ATOM     12  C   UNL A   1      43.094  23.464  28.576  1.00  0.00    -0.044 A 
ATOM     13  C   UNL A   1      45.069  24.665  28.038  1.00  0.00     0.036 C 
ATOM     14  C   UNL A   1      43.274  24.429  29.704  1.00  0.00     0.036 C 
ATOM     15  C   UNL A   1      44.234  25.444  29.064  1.00  0.00     0.010 C 
BRANCH   8  16
ATOM     16  O   UNL A   1      43.187  21.150  25.139  1.00  0.00    -0.493 OA
BRANCH  16  17
ATOM     17  C   UNL A   1      44.148  20.083  25.119  1.00  0.00     0.226 C 
ATOM     18  C   UNL A   1      43.601  18.783  25.685  1.00  0.00     0.049 C 
ENDBRANCH  16  17
ENDBRANCH   8  16
ENDBRANCH   4   7
ENDBRANCH   2   3
ENDBRANCH   1   2
BRANCH   1  19
ATOM     19  C   UNL A   1      38.607  24.072  26.436  1.00  0.00     0.118 C 
BRANCH  19  20
ATOM     20  N   UNL A   1      39.983  24.224  25.963  1.00  0.00    -0.352 N 
ATOM     21  C   UNL A   1      40.927  25.186  26.204  1.00  0.00     0.251 C 
ATOM     22  H   UNL A   1      40.284  23.503  25.365  1.00  0.00     0.163 HD
ATOM     23  O   UNL A   1      41.895  25.264  25.445  1.00  0.00    -0.269 OA
BRANCH  21  24
ATOM     24  C   UNL A   1      40.815  26.117  27.347  1.00  0.00     0.039 A 
ATOM     25  C   UNL A   1      41.608  27.269  27.361  1.00  0.00     0.014 A 
ATOM     26  C   UNL A   1      39.998  25.830  28.442  1.00  0.00     0.014 A 
ATOM     27  C   UNL A   1      41.542  28.149  28.444  1.00  0.00     0.010 A 
ATOM     28  C   UNL A   1      39.856  26.757  29.471  1.00  0.00     0.010 A 
ATOM     29  C   UNL A   1      40.639  27.920  29.493  1.00  0.00    -0.014 A 
BRANCH  29  30
ATOM     30  C   UNL A   1      40.507  28.876  30.622  1.00  0.00     0.031 A 
ATOM     31  C   UNL A   1      41.387  28.744  31.838  1.00  0.00     0.074 A 
ATOM     32  C   UNL A   1      39.553  29.827  30.574  1.00  0.00     0.049 A 
ATOM     33  N   UNL A   1      41.375  29.441  32.947  1.00  0.00    -0.248 NA
ATOM     34  C   UNL A   1      42.391  27.667  31.825  1.00  0.00     0.031 C 
ATOM     35  C   UNL A   1      38.596  30.012  29.479  1.00  0.00     0.029 A 
ATOM     36  N   UNL A   1      39.224  30.815  31.468  1.00  0.00    -0.354 N 
ATOM     37  C   UNL A   1      42.348  28.876  33.763  1.00  0.00     0.074 A 
ATOM     38  C   UNL A   1      42.893  27.743  33.049  1.00  0.00     0.031 C 
ATOM     39  C   UNL A   1      37.813  31.068  29.750  1.00  0.00     0.029 A 
ATOM     40  C   UNL A   1      38.184  31.612  31.051  1.00  0.00     0.049 A 
ATOM     41  H   UNL A   1      39.689  30.940  32.326  1.00  0.00     0.167 HD
ATOM     42  C   UNL A   1      42.771  29.282  34.985  1.00  0.00     0.037 A 
ATOM     43  C   UNL A   1      37.596  32.663  31.653  1.00  0.00     0.037 A 
ATOM     44  C   UNL A   1      42.254  30.437  35.670  1.00  0.00     0.049 A 
ATOM     45  C   UNL A   1      38.107  33.115  32.992  1.00  0.00     0.074 A 
ATOM     46  C   UNL A   1      42.656  30.973  36.882  1.00  0.00     0.029 A 
ATOM     47  N   UNL A   1      41.226  31.242  35.200  1.00  0.00    -0.354 N 
ATOM     48  N   UNL A   1      39.070  32.603  33.722  1.00  0.00    -0.248 NA
ATOM     49  C   UNL A   1      37.462  34.293  33.585  1.00  0.00     0.031 C 
ATOM     50  C   UNL A   1      41.848  32.082  37.159  1.00  0.00     0.029 A 
ATOM     51  C   UNL A   1      40.972  32.262  36.101  1.00  0.00     0.049 A 
ATOM     52  H   UNL A   1      40.746  31.107  34.350  1.00  0.00     0.167 HD
ATOM     53  C   UNL A   1      39.158  33.408  34.852  1.00  0.00     0.074 A 
ATOM     54  C   UNL A   1      38.167  34.455  34.696  1.00  0.00     0.031 C 
ATOM     55  C   UNL A   1      39.980  33.293  35.925  1.00  0.00     0.037 A 
BRANCH  42  56
ATOM     56  C   UNL A   1      43.862  28.487  35.648  1.00  0.00     0.058 A 
ATOM     57  C   UNL A   1      45.219  28.760  35.412  1.00  0.00     0.135 A 
ATOM     58  C   UNL A   1      43.553  27.468  36.565  1.00  0.00     0.135 A 
ATOM     59  F   UNL A   1      45.574  29.710  34.532  1.00  0.00    -0.206 F 
ATOM     60  C   UNL A   1      46.229  28.038  36.041  1.00  0.00     0.059 A 
ATOM     61  C   UNL A   1      44.546  26.752  37.227  1.00  0.00     0.059 A 
ATOM     62  F   UNL A   1      42.272  27.163  36.828  1.00  0.00    -0.206 F 
ATOM     63  C   UNL A   1      45.883  27.037  36.949  1.00  0.00     0.060 A 
BRANCH  63  64
ATOM     64  S   UNL A   1      47.204  26.124  37.774  1.00  0.00     0.124 S 
ATOM     65  O   UNL A   1      47.962  25.616  36.633  1.00  0.00    -0.237 OA
ATOM     66  O   UNL A   1      47.863  27.170  38.555  1.00  0.00    -0.237 OA
ATOM     67  O   UNL A   1      46.492  25.121  38.552  1.00  0.00    -0.744 OA
ENDBRANCH  63  64
ENDBRANCH  42  56
BRANCH  43  68
ATOM     68  C   UNL A   1      36.476  33.378  30.981  1.00  0.00     0.058 A 
ATOM     69  C   UNL A   1      35.161  33.264  31.456  1.00  0.00     0.135 A 
ATOM     70  C   UNL A   1      36.697  34.186  29.856  1.00  0.00     0.135 A 
ATOM     71  F   UNL A   1      34.899  32.500  32.528  1.00  0.00    -0.206 F 
ATOM     72  C   UNL A   1      34.101  33.904  30.826  1.00  0.00     0.059 A 
ATOM     73  C   UNL A   1      35.656  34.858  29.224  1.00  0.00     0.059 A 
ATOM     74  F   UNL A   1      37.940  34.347  29.376  1.00  0.00    -0.206 F 
ATOM     75  C   UNL A   1      34.358  34.699  29.708  1.00  0.00     0.060 A 
BRANCH  75  76
ATOM     76  S   UNL A   1      32.980  35.555  28.914  1.00  0.00     0.124 S 
ATOM     77  O   UNL A   1      33.670  36.624  28.202  1.00  0.00    -0.237 OA
ATOM     78  O   UNL A   1      32.401  34.503  28.084  1.00  0.00    -0.237 OA
ATOM     79  O   UNL A   1      32.154  35.976  30.042  1.00  0.00    -0.744 OA
ENDBRANCH  75  76
ENDBRANCH  43  68
BRANCH  55  80
ATOM     80  C   UNL A   1      39.853  34.339  36.995  1.00  0.00     0.058 A 
ATOM     81  C   UNL A   1      40.525  35.568  36.904  1.00  0.00     0.135 A 
ATOM     82  C   UNL A   1      39.038  34.117  38.116  1.00  0.00     0.135 A 
ATOM     83  F   UNL A   1      41.321  35.828  35.854  1.00  0.00    -0.206 F 
ATOM     84  C   UNL A   1      40.425  36.525  37.908  1.00  0.00     0.059 A 
ATOM     85  C   UNL A   1      38.902  35.071  39.118  1.00  0.00     0.059 A 
ATOM     86  F   UNL A   1      38.363  32.963  38.244  1.00  0.00    -0.206 F 
ATOM     87  C   UNL A   1      39.614  36.265  39.014  1.00  0.00     0.060 A 
BRANCH  87  88
ATOM     88  S   UNL A   1      39.493  37.513  40.312  1.00  0.00     0.124 S 
ATOM     89  O   UNL A   1      40.891  37.892  40.486  1.00  0.00    -0.237 OA
ATOM     90  O   UNL A   1      38.634  38.522  39.699  1.00  0.00    -0.237 OA
ATOM     91  O   UNL A   1      38.896  36.785  41.427  1.00  0.00    -0.744 OA
ENDBRANCH  87  88
ENDBRANCH  55  80
ENDBRANCH  29  30
ENDBRANCH  21  24
ENDBRANCH  19  20
ENDBRANCH   1  19
TORSDOF 15
ENDMDL
MODEL 2
REMARK VINA RESULT:     -10.6      6.152     13.545
REMARK SMILES CCOc1cc2c(cc1C(=O)NCCCNC(=O)c1ccc(-c3c4nc(c(-c5c(F)cc(S(=O)(=O)[O-])cc5F)c5ccc([nH]5)c(-c5c(F)cc(S(=O)(=O)[O-])cc5F)c5nc(c(-c6c(F)cc(S(=O)(=O)[O-])cc6F)c6ccc3[nH]6)C=C5)C=C4)cc1)CCC2
REMARK SMILES IDX 14 1 13 2 12 3 10 4 11 5 9 7 4 8 5 9 6 10 8 11 7 12 87 13
REMARK SMILES IDX 85 14 86 15 3 16 2 17 1 18 15 19 16 20 17 21 18 23 19 24
REMARK SMILES IDX 20 25 84 26 21 27 83 28 22 29 23 30 24 31 77 32 25 33 82 34
REMARK SMILES IDX 76 35 78 36 26 37 81 38 75 39 74 40 27 42 61 43 40 44 60 45
REMARK SMILES IDX 41 46 44 47 59 48 79 49 42 50 43 51 58 53 80 54 45 55 28 56
REMARK SMILES IDX 29 57 38 58 30 59 31 60 37 61 39 62 32 63 33 64 34 65 35 66
REMARK SMILES IDX 36 67 62 68 63 69 72 70 64 71 65 72 71 73 73 74 66 75 67 76
REMARK SMILES IDX 68 77 69 78 70 79 46 80 47 81 56 82 48 83 49 84 55 85 57 86
REMARK SMILES IDX 50 87 51 88 52 89 53 90 54 91
REMARK H PARENT 12 6 16 22 78 41 44 52
REMARK Flexibility Score: inf
ROOT
ATOM      1  C   UNL A   1      34.004  30.527  27.188  1.00  0.00     0.042 C 
ENDROOT
BRANCH   1   2
ATOM      2  C   UNL A   1      33.339  31.633  28.005  1.00  0.00     0.118 C 
BRANCH   2   3
ATOM      3  N   UNL A   1      33.801  32.940  27.604  1.00  0.00    -0.352 N 
ATOM      4  C   UNL A   1      34.700  33.864  28.047  1.00  0.00     0.255 C 
ATOM      5  O   UNL A   1      34.782  34.837  27.280  1.00  0.00    -0.269 OA
ATOM      6  H   UNL A   1      33.343  33.247  26.788  1.00  0.00     0.163 HD
BRANCH   4   7
ATOM      7  C   UNL A   1      35.566  33.868  29.281  1.00  0.00     0.082 A 
ATOM      8  C   UNL A   1      35.246  33.994  30.653  1.00  0.00     0.132 A 
ATOM      9  C   UNL A   1      36.247  33.876  31.644  1.00  0.00     0.051 A 
ATOM     10  C   UNL A   1      37.564  33.690  31.280  1.00  0.00    -0.041 A 
ATOM     11  C   UNL A   1      36.942  33.690  28.958  1.00  0.00     0.021 A 
ATOM     12  C   UNL A   1      37.911  33.595  29.944  1.00  0.00    -0.044 A 
ATOM     13  C   UNL A   1      38.769  33.584  32.157  1.00  0.00     0.036 C 
ATOM     14  C   UNL A   1      39.384  33.394  29.782  1.00  0.00     0.036 C 
ATOM     15  C   UNL A   1      39.768  32.926  31.193  1.00  0.00     0.010 C 
BRANCH   8  16
ATOM     16  O   UNL A   1      33.972  34.089  31.138  1.00  0.00    -0.493 OA
BRANCH  16  17
ATOM     17  C   UNL A   1      33.373  35.385  30.974  1.00  0.00     0.226 C 
ATOM     18  C   UNL A   1      33.396  36.212  32.248  1.00  0.00     0.049 C 
ENDBRANCH  16  17
ENDBRANCH   8  16
ENDBRANCH   4   7
ENDBRANCH   2   3
ENDBRANCH   1   2
BRANCH   1  19
ATOM     19  C   UNL A   1      35.136  29.832  27.943  1.00  0.00     0.118 C 
BRANCH  19  20
ATOM     20  N   UNL A   1      35.275  30.352  29.303  1.00  0.00    -0.352 N 
ATOM     21  C   UNL A   1      36.300  30.273  30.206  1.00  0.00     0.251 C 
ATOM     22  H   UNL A   1      34.490  30.850  29.625  1.00  0.00     0.163 HD
ATOM     23  O   UNL A   1      36.060  30.513  31.392  1.00  0.00    -0.269 OA
BRANCH  21  24
ATOM     24  C   UNL A   1      37.675  29.917  29.795  1.00  0.00     0.039 A 
ATOM     25  C   UNL A   1      38.579  29.477  30.767  1.00  0.00     0.014 A 
ATOM     26  C   UNL A   1      38.108  30.089  28.479  1.00  0.00     0.014 A 
ATOM     27  C   UNL A   1      39.893  29.164  30.408  1.00  0.00     0.010 A 
ATOM     28  C   UNL A   1      39.385  29.680  28.103  1.00  0.00     0.010 A 
ATOM     29  C   UNL A   1      40.298  29.228  29.065  1.00  0.00    -0.014 A 
BRANCH  29  30
ATOM     30  C   UNL A   1      41.671  28.838  28.653  1.00  0.00     0.031 A 
ATOM     31  C   UNL A   1      42.769  29.868  28.594  1.00  0.00     0.074 A 
ATOM     32  C   UNL A   1      41.911  27.566  28.276  1.00  0.00     0.049 A 
ATOM     33  N   UNL A   1      44.009  29.731  28.197  1.00  0.00    -0.248 NA
ATOM     34  C   UNL A   1      42.423  31.240  29.001  1.00  0.00     0.031 C 
ATOM     35  C   UNL A   1      40.912  26.494  28.227  1.00  0.00     0.029 A 
ATOM     36  N   UNL A   1      43.067  26.957  27.857  1.00  0.00    -0.354 N 
ATOM     37  C   UNL A   1      44.580  30.996  28.287  1.00  0.00     0.074 A 
ATOM     38  C   UNL A   1      43.538  31.900  28.720  1.00  0.00     0.031 C 
ATOM     39  C   UNL A   1      41.505  25.356  27.836  1.00  0.00     0.029 A 
ATOM     40  C   UNL A   1      42.914  25.621  27.570  1.00  0.00     0.049 A 
ATOM     41  H   UNL A   1      43.924  27.433  27.770  1.00  0.00     0.167 HD
ATOM     42  C   UNL A   1      45.863  31.366  28.059  1.00  0.00     0.037 A 
ATOM     43  C   UNL A   1      43.810  24.713  27.140  1.00  0.00     0.037 A 
ATOM     44  C   UNL A   1      46.905  30.452  27.670  1.00  0.00     0.049 A 
ATOM     45  C   UNL A   1      45.235  25.142  26.928  1.00  0.00     0.074 A 
ATOM     46  C   UNL A   1      48.251  30.711  27.475  1.00  0.00     0.029 A 
ATOM     47  N   UNL A   1      46.719  29.099  27.425  1.00  0.00    -0.354 N 
ATOM     48  N   UNL A   1      45.769  26.332  27.076  1.00  0.00    -0.248 NA
ATOM     49  C   UNL A   1      46.183  24.104  26.501  1.00  0.00     0.031 C 
ATOM     50  C   UNL A   1      48.872  29.520  27.080  1.00  0.00     0.029 A 
ATOM     51  C   UNL A   1      47.922  28.512  27.069  1.00  0.00     0.049 A 
ATOM     52  H   UNL A   1      45.858  28.625  27.493  1.00  0.00     0.167 HD
ATOM     53  C   UNL A   1      47.118  26.181  26.779  1.00  0.00     0.074 A 
ATOM     54  C   UNL A   1      47.323  24.780  26.467  1.00  0.00     0.031 C 
ATOM     55  C   UNL A   1      48.102  27.116  26.762  1.00  0.00     0.037 A 
BRANCH  42  56
ATOM     56  C   UNL A   1      46.219  32.816  28.247  1.00  0.00     0.058 A 
ATOM     57  C   UNL A   1      46.094  33.745  27.202  1.00  0.00     0.135 A 
ATOM     58  C   UNL A   1      46.648  33.294  29.496  1.00  0.00     0.135 A 
ATOM     59  F   UNL A   1      45.706  33.342  25.981  1.00  0.00    -0.206 F 
ATOM     60  C   UNL A   1      46.404  35.090  27.381  1.00  0.00     0.059 A 
ATOM     61  C   UNL A   1      46.936  34.639  29.706  1.00  0.00     0.059 A 
ATOM     62  F   UNL A   1      46.787  32.450  30.531  1.00  0.00    -0.206 F 
ATOM     63  C   UNL A   1      46.822  35.528  28.637  1.00  0.00     0.060 A 
BRANCH  63  64
ATOM     64  S   UNL A   1      47.198  37.280  28.860  1.00  0.00     0.124 S 
ATOM     65  O   UNL A   1      47.187  37.758  27.479  1.00  0.00    -0.237 OA
ATOM     66  O   UNL A   1      46.086  37.733  29.694  1.00  0.00    -0.237 OA
ATOM     67  O   UNL A   1      48.500  37.270  29.510  1.00  0.00    -0.744 OA
ENDBRANCH  63  64
ENDBRANCH  42  56
BRANCH  43  68
ATOM     68  C   UNL A   1      43.393  23.304  26.908  1.00  0.00     0.058 A 
ATOM     69  C   UNL A   1      43.185  22.428  27.984  1.00  0.00     0.135 A 
ATOM     70  C   UNL A   1      43.193  22.805  25.612  1.00  0.00     0.135 A 
ATOM     71  F   UNL A   1      43.365  22.858  29.242  1.00  0.00    -0.206 F 
ATOM     72  C   UNL A   1      42.819  21.102  27.785  1.00  0.00     0.059 A 
ATOM     73  C   UNL A   1      42.802  21.489  25.388  1.00  0.00     0.059 A 
ATOM     74  F   UNL A   1      43.357  23.608  24.549  1.00  0.00    -0.206 F 
ATOM     75  C   UNL A   1      42.631  20.641  26.481  1.00  0.00     0.060 A 
BRANCH  75  76
ATOM     76  S   UNL A   1      42.124  18.926  26.231  1.00  0.00     0.124 S 
ATOM     77  O   UNL A   1      42.284  18.375  27.572  1.00  0.00    -0.237 OA
ATOM     78  O   UNL A   1      40.750  19.076  25.760  1.00  0.00    -0.237 OA
ATOM     79  O   UNL A   1      43.070  18.440  25.231  1.00  0.00    -0.744 OA
ENDBRANCH  75  76
ENDBRANCH  43  68
BRANCH  55  80
ATOM     80  C   UNL A   1      49.485  26.642  26.417  1.00  0.00     0.058 A 
ATOM     81  C   UNL A   1      49.991  26.738  25.112  1.00  0.00     0.135 A 
ATOM     82  C   UNL A   1      50.319  26.100  27.407  1.00  0.00     0.135 A 
ATOM     83  F   UNL A   1      49.230  27.245  24.127  1.00  0.00    -0.206 F 
ATOM     84  C   UNL A   1      51.263  26.276  24.791  1.00  0.00     0.059 A 
ATOM     85  C   UNL A   1      51.605  25.656  27.115  1.00  0.00     0.059 A 
ATOM     86  F   UNL A   1      49.888  25.998  28.675  1.00  0.00    -0.206 F 
ATOM     87  C   UNL A   1      52.060  25.732  25.799  1.00  0.00     0.060 A 
BRANCH  87  88
ATOM     88  S   UNL A   1      53.709  25.134  25.372  1.00  0.00     0.124 S 
ATOM     89  O   UNL A   1      53.923  25.767  24.075  1.00  0.00    -0.237 OA
ATOM     90  O   UNL A   1      54.523  25.645  26.470  1.00  0.00    -0.237 OA
ATOM     91  O   UNL A   1      53.545  23.684  25.343  1.00  0.00    -0.744 OA
ENDBRANCH  87  88
ENDBRANCH  55  80
ENDBRANCH  29  30
ENDBRANCH  21  24
ENDBRANCH  19  20
ENDBRANCH   1  19
TORSDOF 15
ENDMDL
MODEL 3
REMARK VINA RESULT:     -10.4      2.707      4.873
REMARK SMILES CCOc1cc2c(cc1C(=O)NCCCNC(=O)c1ccc(-c3c4nc(c(-c5c(F)cc(S(=O)(=O)[O-])cc5F)c5ccc([nH]5)c(-c5c(F)cc(S(=O)(=O)[O-])cc5F)c5nc(c(-c6c(F)cc(S(=O)(=O)[O-])cc6F)c6ccc3[nH]6)C=C5)C=C4)cc1)CCC2
REMARK SMILES IDX 14 1 13 2 12 3 10 4 11 5 9 7 4 8 5 9 6 10 8 11 7 12 87 13
REMARK SMILES IDX 85 14 86 15 3 16 2 17 1 18 15 19 16 20 17 21 18 23 19 24
REMARK SMILES IDX 20 25 84 26 21 27 83 28 22 29 23 30 24 31 77 32 25 33 82 34
REMARK SMILES IDX 76 35 78 36 26 37 81 38 75 39 74 40 27 42 61 43 40 44 60 45
REMARK SMILES IDX 41 46 44 47 59 48 79 49 42 50 43 51 58 53 80 54 45 55 28 56
REMARK SMILES IDX 29 57 38 58 30 59 31 60 37 61 39 62 32 63 33 64 34 65 35 66
REMARK SMILES IDX 36 67 62 68 63 69 72 70 64 71 65 72 71 73 73 74 66 75 67 76
REMARK SMILES IDX 68 77 69 78 70 79 46 80 47 81 56 82 48 83 49 84 55 85 57 86
REMARK SMILES IDX 50 87 51 88 52 89 53 90 54 91
REMARK H PARENT 12 6 16 22 78 41 44 52
REMARK Flexibility Score: inf
ROOT
ATOM      1  C   UNL A   1      37.963  22.751  25.910  1.00  0.00     0.042 C 
ENDROOT
BRANCH   1   2
ATOM      2  C   UNL A   1      36.546  23.039  25.418  1.00  0.00     0.118 C 
BRANCH   2   3
ATOM      3  N   UNL A   1      35.558  22.691  26.411  1.00  0.00    -0.352 N 
ATOM      4  C   UNL A   1      34.444  21.909  26.484  1.00  0.00     0.255 C 
ATOM      5  O   UNL A   1      33.966  21.889  27.630  1.00  0.00    -0.269 OA
ATOM      6  H   UNL A   1      35.739  23.139  27.269  1.00  0.00     0.163 HD
BRANCH   4   7
ATOM      7  C   UNL A   1      33.745  21.105  25.417  1.00  0.00     0.082 A 
ATOM      8  C   UNL A   1      32.801  21.475  24.431  1.00  0.00     0.132 A 
ATOM      9  C   UNL A   1      32.353  20.537  23.471  1.00  0.00     0.051 A 
ATOM     10  C   UNL A   1      32.792  19.232  23.519  1.00  0.00    -0.041 A 
ATOM     11  C   UNL A   1      34.156  19.741  25.432  1.00  0.00     0.021 A 
ATOM     12  C   UNL A   1      33.691  18.835  24.493  1.00  0.00    -0.044 A 
ATOM     13  C   UNL A   1      32.415  18.086  22.637  1.00  0.00     0.036 C 
ATOM     14  C   UNL A   1      34.029  17.385  24.357  1.00  0.00     0.036 C 
ATOM     15  C   UNL A   1      33.574  17.117  22.915  1.00  0.00     0.010 C 
BRANCH   8  16
ATOM     16  O   UNL A   1      32.363  22.752  24.227  1.00  0.00    -0.493 OA
BRANCH  16  17
ATOM     17  C   UNL A   1      32.825  23.347  23.004  1.00  0.00     0.226 C 
ATOM     18  C   UNL A   1      33.775  24.509  23.233  1.00  0.00     0.049 C 
ENDBRANCH  16  17
ENDBRANCH   8  16
ENDBRANCH   4   7
ENDBRANCH   2   3
ENDBRANCH   1   2
BRANCH   1  19
ATOM     19  C   UNL A   1      38.657  23.989  26.474  1.00  0.00     0.118 C 
BRANCH  19  20
ATOM     20  N   UNL A   1      40.079  24.012  26.133  1.00  0.00    -0.352 N 
ATOM     21  C   UNL A   1      41.070  24.911  26.423  1.00  0.00     0.251 C 
ATOM     22  H   UNL A   1      40.377  23.240  25.600  1.00  0.00     0.163 HD
ATOM     23  O   UNL A   1      42.109  24.876  25.761  1.00  0.00    -0.269 OA
BRANCH  21  24
ATOM     24  C   UNL A   1      40.924  25.907  27.507  1.00  0.00     0.039 A 
ATOM     25  C   UNL A   1      39.918  25.725  28.461  1.00  0.00     0.014 A 
ATOM     26  C   UNL A   1      41.714  27.057  27.549  1.00  0.00     0.014 A 
ATOM     27  C   UNL A   1      39.741  26.667  29.477  1.00  0.00     0.010 A 
ATOM     28  C   UNL A   1      41.606  27.941  28.619  1.00  0.00     0.010 A 
ATOM     29  C   UNL A   1      40.607  27.767  29.587  1.00  0.00    -0.014 A 
BRANCH  29  30
ATOM     30  C   UNL A   1      40.477  28.745  30.697  1.00  0.00     0.031 A 
ATOM     31  C   UNL A   1      41.349  28.629  31.920  1.00  0.00     0.074 A 
ATOM     32  C   UNL A   1      39.530  29.702  30.626  1.00  0.00     0.049 A 
ATOM     33  N   UNL A   1      41.337  29.347  33.015  1.00  0.00    -0.248 NA
ATOM     34  C   UNL A   1      42.345  27.544  31.932  1.00  0.00     0.031 C 
ATOM     35  C   UNL A   1      38.581  29.874  29.522  1.00  0.00     0.029 A 
ATOM     36  N   UNL A   1      39.205  30.709  31.499  1.00  0.00    -0.354 N 
ATOM     37  C   UNL A   1      42.301  28.789  33.847  1.00  0.00     0.074 A 
ATOM     38  C   UNL A   1      42.841  27.639  33.157  1.00  0.00     0.031 C 
ATOM     39  C   UNL A   1      37.805  30.940  29.770  1.00  0.00     0.029 A 
ATOM     40  C   UNL A   1      38.173  31.506  31.062  1.00  0.00     0.049 A 
ATOM     41  H   UNL A   1      39.666  30.846  32.357  1.00  0.00     0.167 HD
ATOM     42  C   UNL A   1      42.721  29.215  35.063  1.00  0.00     0.037 A 
ATOM     43  C   UNL A   1      37.589  32.573  31.641  1.00  0.00     0.037 A 
ATOM     44  C   UNL A   1      42.209  30.387  35.724  1.00  0.00     0.049 A 
ATOM     45  C   UNL A   1      38.098  33.046  32.974  1.00  0.00     0.074 A 
ATOM     46  C   UNL A   1      42.609  30.942  36.927  1.00  0.00     0.029 A 
ATOM     47  N   UNL A   1      41.190  31.190  35.233  1.00  0.00    -0.354 N 
ATOM     48  N   UNL A   1      39.053  32.540  33.719  1.00  0.00    -0.248 NA
ATOM     49  C   UNL A   1      37.458  34.239  33.542  1.00  0.00     0.031 C 
ATOM     50  C   UNL A   1      41.808  32.062  37.179  1.00  0.00     0.029 A 
ATOM     51  C   UNL A   1      40.939  32.229  36.114  1.00  0.00     0.049 A 
ATOM     52  H   UNL A   1      40.714  31.043  34.383  1.00  0.00     0.167 HD
ATOM     53  C   UNL A   1      39.141  33.365  34.834  1.00  0.00     0.074 A 
ATOM     54  C   UNL A   1      38.159  34.416  34.653  1.00  0.00     0.031 C 
ATOM     55  C   UNL A   1      39.956  33.264  35.913  1.00  0.00     0.037 A 
BRANCH  42  56
ATOM     56  C   UNL A   1      43.803  28.424  35.747  1.00  0.00     0.058 A 
ATOM     57  C   UNL A   1      45.163  28.692  35.524  1.00  0.00     0.135 A 
ATOM     58  C   UNL A   1      43.480  27.416  36.671  1.00  0.00     0.135 A 
ATOM     59  F   UNL A   1      45.531  29.633  34.639  1.00  0.00    -0.206 F 
ATOM     60  C   UNL A   1      46.163  27.974  36.172  1.00  0.00     0.059 A 
ATOM     61  C   UNL A   1      44.464  26.704  37.352  1.00  0.00     0.059 A 
ATOM     62  F   UNL A   1      42.196  27.116  36.922  1.00  0.00    -0.206 F 
ATOM     63  C   UNL A   1      45.805  26.984  37.086  1.00  0.00     0.060 A 
BRANCH  63  64
ATOM     64  S   UNL A   1      47.114  26.076  37.935  1.00  0.00     0.124 S 
ATOM     65  O   UNL A   1      46.779  26.325  39.336  1.00  0.00    -0.237 OA
ATOM     66  O   UNL A   1      46.897  24.708  37.468  1.00  0.00    -0.237 OA
ATOM     67  O   UNL A   1      48.335  26.710  37.459  1.00  0.00    -0.744 OA
ENDBRANCH  63  64
ENDBRANCH  42  56
BRANCH  43  68
ATOM     68  C   UNL A   1      36.479  33.283  30.950  1.00  0.00     0.058 A 
ATOM     69  C   UNL A   1      36.728  34.092  29.831  1.00  0.00     0.135 A 
ATOM     70  C   UNL A   1      35.153  33.167  31.390  1.00  0.00     0.135 A 
ATOM     71  F   UNL A   1      37.981  34.236  29.373  1.00  0.00    -0.206 F 
ATOM     72  C   UNL A   1      35.706  34.782  29.189  1.00  0.00     0.059 A 
ATOM     73  C   UNL A   1      34.109  33.827  30.748  1.00  0.00     0.059 A 
ATOM     74  F   UNL A   1      34.857  32.388  32.442  1.00  0.00    -0.206 F 
ATOM     75  C   UNL A   1      34.399  34.645  29.657  1.00  0.00     0.060 A 
BRANCH  75  76
ATOM     76  S   UNL A   1      33.072  35.518  28.797  1.00  0.00     0.124 S 
ATOM     77  O   UNL A   1      32.474  34.443  28.013  1.00  0.00    -0.237 OA
ATOM     78  O   UNL A   1      32.269  36.025  29.905  1.00  0.00    -0.237 OA
ATOM     79  O   UNL A   1      33.784  36.538  28.033  1.00  0.00    -0.744 OA
ENDBRANCH  75  76
ENDBRANCH  43  68
BRANCH  55  80
ATOM     80  C   UNL A   1      39.832  34.331  36.963  1.00  0.00     0.058 A 
ATOM     81  C   UNL A   1      38.993  34.174  38.076  1.00  0.00     0.135 A 
ATOM     82  C   UNL A   1      40.574  35.519  36.862  1.00  0.00     0.135 A 
ATOM     83  F   UNL A   1      38.258  33.058  38.217  1.00  0.00    -0.206 F 
ATOM     84  C   UNL A   1      38.861  35.174  39.033  1.00  0.00     0.059 A 
ATOM     85  C   UNL A   1      40.479  36.521  37.821  1.00  0.00     0.059 A 
ATOM     86  F   UNL A   1      41.402  35.713  35.823  1.00  0.00    -0.206 F 
ATOM     87  C   UNL A   1      39.605  36.347  38.893  1.00  0.00     0.060 A 
BRANCH  87  88
ATOM     88  S   UNL A   1      39.427  37.639  40.141  1.00  0.00     0.124 S 
ATOM     89  O   UNL A   1      39.208  36.852  41.349  1.00  0.00    -0.237 OA
ATOM     90  O   UNL A   1      40.708  38.334  40.059  1.00  0.00    -0.237 OA
ATOM     91  O   UNL A   1      38.275  38.404  39.672  1.00  0.00    -0.744 OA
ENDBRANCH  87  88
ENDBRANCH  55  80
ENDBRANCH  29  30
ENDBRANCH  21  24
ENDBRANCH  19  20
ENDBRANCH   1  19
TORSDOF 15
ENDMDL
