MODEL 1
REMARK VINA RESULT:     -12.0      0.000      0.000
REMARK SMILES CC(C)Nc1cc2ccccc2cc1C(=O)NCCCNC(=O)c1ccc(-c2c3nc(c(-c4c(F)cc(S(=O)(=O)[O-])cc4F)c4ccc([nH]4)c(-c4c(F)cc(S(=O)(=O)[O-])cc4F)c4nc(c(-c5c(F)cc(S(=O)(=O)[O-])cc5F)c5ccc2[nH]5)C=C4)C=C3)cc1
REMARK SMILES IDX 19 1 18 2 17 3 15 4 16 5 14 7 5 8 6 9 7 10 13 11 8 12 12 13
REMARK SMILES IDX 9 14 11 15 10 16 4 17 2 19 1 20 3 21 20 22 21 23 22 24 23 26
REMARK SMILES IDX 24 27 25 28 89 29 26 30 88 31 27 32 28 33 29 34 82 35 30 36
REMARK SMILES IDX 87 37 81 38 83 39 31 40 86 41 80 42 79 43 32 45 66 46 45 47
REMARK SMILES IDX 65 48 46 49 49 50 64 51 84 52 47 53 48 54 63 56 85 57 50 58
REMARK SMILES IDX 33 59 34 60 43 61 35 62 36 63 42 64 44 65 37 66 38 67 39 68
REMARK SMILES IDX 40 69 41 70 67 71 68 72 77 73 69 74 70 75 76 76 78 77 71 78
REMARK SMILES IDX 72 79 73 80 74 81 75 82 51 83 52 84 61 85 53 86 54 87 60 88
REMARK SMILES IDX 62 89 55 90 56 91 57 92 58 93 59 94
REMARK H PARENT 17 6 4 18 21 25 83 44 49 55
REMARK Flexibility Score: inf
ROOT
ATOM      1  C   UNL A   1      33.016  28.535  25.689  1.00  0.00     0.042 C 
ENDROOT
BRANCH   1   2
ATOM      2  C   UNL A   1      33.397  27.204  25.057  1.00  0.00     0.118 C 
BRANCH   2   3
ATOM      3  N   UNL A   1      33.683  27.274  23.635  1.00  0.00    -0.352 N 
ATOM      4  C   UNL A   1      33.623  26.265  22.705  1.00  0.00     0.253 C 
ATOM      5  O   UNL A   1      33.788  26.535  21.514  1.00  0.00    -0.269 OA
ATOM      6  H   UNL A   1      33.955  28.156  23.293  1.00  0.00     0.163 HD
BRANCH   4   7
ATOM      7  C   UNL A   1      33.498  24.850  23.115  1.00  0.00     0.063 A 
ATOM      8  C   UNL A   1      32.291  24.140  23.220  1.00  0.00     0.048 A 
ATOM      9  C   UNL A   1      32.353  22.830  23.731  1.00  0.00     0.035 A 
ATOM     10  C   UNL A   1      33.567  22.222  24.106  1.00  0.00    -0.016 A 
ATOM     11  C   UNL A   1      34.722  24.243  23.459  1.00  0.00     0.024 A 
ATOM     12  C   UNL A   1      33.612  20.915  24.621  1.00  0.00     0.009 A 
ATOM     13  C   UNL A   1      34.771  22.936  23.952  1.00  0.00    -0.017 A 
ATOM     14  C   UNL A   1      34.828  20.326  24.973  1.00  0.00     0.001 A 
ATOM     15  C   UNL A   1      35.989  22.331  24.304  1.00  0.00     0.009 A 
ATOM     16  C   UNL A   1      36.016  21.032  24.812  1.00  0.00     0.001 A 
BRANCH   8  17
ATOM     17  N   UNL A   1      31.050  24.599  22.787  1.00  0.00    -0.382 N 
ATOM     18  H   UNL A   1      30.795  24.492  21.842  1.00  0.00     0.160 HD
BRANCH  17  19
ATOM     19  C   UNL A   1      30.116  25.237  23.716  1.00  0.00     0.073 C 
ATOM     20  C   UNL A   1      30.620  24.991  25.141  1.00  0.00     0.030 C 
ATOM     21  C   UNL A   1      30.051  26.740  23.465  1.00  0.00     0.030 C 
ENDBRANCH  17  19
ENDBRANCH   8  17
ENDBRANCH   4   7
ENDBRANCH   2   3
ENDBRANCH   1   2
BRANCH   1  22
ATOM     22  C   UNL A   1      33.277  28.654  27.188  1.00  0.00     0.118 C 
BRANCH  22  23
ATOM     23  N   UNL A   1      33.402  30.019  27.685  1.00  0.00    -0.352 N 
ATOM     24  C   UNL A   1      34.434  30.723  28.257  1.00  0.00     0.251 C 
ATOM     25  H   UNL A   1      32.576  30.545  27.592  1.00  0.00     0.163 HD
ATOM     26  O   UNL A   1      34.217  31.864  28.665  1.00  0.00    -0.269 OA
BRANCH  24  27
ATOM     27  C   UNL A   1      35.778  30.130  28.444  1.00  0.00     0.039 A 
ATOM     28  C   UNL A   1      36.667  30.122  27.362  1.00  0.00     0.014 A 
ATOM     29  C   UNL A   1      36.176  29.567  29.652  1.00  0.00     0.014 A 
ATOM     30  C   UNL A   1      37.977  29.661  27.530  1.00  0.00     0.010 A 
ATOM     31  C   UNL A   1      37.509  29.223  29.854  1.00  0.00     0.010 A 
ATOM     32  C   UNL A   1      38.432  29.274  28.799  1.00  0.00    -0.014 A 
BRANCH  32  33
ATOM     33  C   UNL A   1      39.853  28.924  29.075  1.00  0.00     0.031 A 
ATOM     34  C   UNL A   1      40.794  29.978  29.597  1.00  0.00     0.074 A 
ATOM     35  C   UNL A   1      40.332  27.712  28.729  1.00  0.00     0.049 A 
ATOM     36  N   UNL A   1      42.102  29.980  29.630  1.00  0.00    -0.248 NA
ATOM     37  C   UNL A   1      40.181  31.221  30.096  1.00  0.00     0.031 C 
ATOM     38  C   UNL A   1      39.546  26.610  28.167  1.00  0.00     0.029 A 
ATOM     39  N   UNL A   1      41.609  27.211  28.776  1.00  0.00    -0.354 N 
ATOM     40  C   UNL A   1      42.467  31.245  30.076  1.00  0.00     0.074 A 
ATOM     41  C   UNL A   1      41.243  31.989  30.287  1.00  0.00     0.031 C 
ATOM     42  C   UNL A   1      40.351  25.560  27.944  1.00  0.00     0.029 A 
ATOM     43  C   UNL A   1      41.717  25.928  28.292  1.00  0.00     0.049 A 
ATOM     44  H   UNL A   1      42.376  27.722  29.121  1.00  0.00     0.167 HD
ATOM     45  C   UNL A   1      43.710  31.740  30.296  1.00  0.00     0.037 A 
ATOM     46  C   UNL A   1      42.799  25.142  28.127  1.00  0.00     0.037 A 
ATOM     47  C   UNL A   1      44.917  30.967  30.173  1.00  0.00     0.049 A 
ATOM     48  C   UNL A   1      44.156  25.674  28.487  1.00  0.00     0.074 A 
ATOM     49  C   UNL A   1      46.220  31.354  30.439  1.00  0.00     0.029 A 
ATOM     50  N   UNL A   1      44.966  29.638  29.782  1.00  0.00    -0.354 N 
ATOM     51  N   UNL A   1      44.485  26.874  28.899  1.00  0.00    -0.248 NA
ATOM     52  C   UNL A   1      45.289  24.747  28.359  1.00  0.00     0.031 C 
ATOM     53  C   UNL A   1      47.058  30.255  30.206  1.00  0.00     0.029 A 
ATOM     54  C   UNL A   1      46.273  29.182  29.816  1.00  0.00     0.049 A 
ATOM     55  H   UNL A   1      44.186  29.097  29.520  1.00  0.00     0.167 HD
ATOM     56  C   UNL A   1      45.860  26.844  29.095  1.00  0.00     0.074 A 
ATOM     57  C   UNL A   1      46.300  25.503  28.767  1.00  0.00     0.031 C 
ATOM     58  C   UNL A   1      46.685  27.837  29.504  1.00  0.00     0.037 A 
BRANCH  45  59
ATOM     59  C   UNL A   1      43.818  33.185  30.695  1.00  0.00     0.058 A 
ATOM     60  C   UNL A   1      43.822  34.216  29.742  1.00  0.00     0.135 A 
ATOM     61  C   UNL A   1      43.916  33.544  32.050  1.00  0.00     0.135 A 
ATOM     62  F   UNL A   1      43.747  33.926  28.434  1.00  0.00    -0.206 F 
ATOM     63  C   UNL A   1      43.965  35.549  30.114  1.00  0.00     0.059 A 
ATOM     64  C   UNL A   1      44.033  34.874  32.446  1.00  0.00     0.059 A 
ATOM     65  F   UNL A   1      43.914  32.598  33.002  1.00  0.00    -0.206 F 
ATOM     66  C   UNL A   1      44.079  35.867  31.469  1.00  0.00     0.060 A 
BRANCH  66  67
ATOM     67  S   UNL A   1      44.285  37.597  31.943  1.00  0.00     0.124 S 
ATOM     68  O   UNL A   1      43.880  38.282  30.719  1.00  0.00    -0.237 OA
ATOM     69  O   UNL A   1      43.370  37.729  33.072  1.00  0.00    -0.237 OA
ATOM     70  O   UNL A   1      45.703  37.687  32.275  1.00  0.00    -0.744 OA
ENDBRANCH  66  67
ENDBRANCH  45  59
BRANCH  46  71
ATOM     71  C   UNL A   1      42.632  23.755  27.622  1.00  0.00     0.058 A 
ATOM     72  C   UNL A   1      42.626  23.498  26.244  1.00  0.00     0.135 A 
ATOM     73  C   UNL A   1      42.510  22.665  28.495  1.00  0.00     0.135 A 
ATOM     74  F   UNL A   1      42.736  24.512  25.372  1.00  0.00    -0.206 F 
ATOM     75  C   UNL A   1      42.496  22.207  25.745  1.00  0.00     0.059 A 
ATOM     76  C   UNL A   1      42.398  21.361  28.020  1.00  0.00     0.059 A 
ATOM     77  F   UNL A   1      42.530  22.860  29.822  1.00  0.00    -0.206 F 
ATOM     78  C   UNL A   1      42.384  21.143  26.642  1.00  0.00     0.060 A 
BRANCH  78  79
ATOM     79  S   UNL A   1      42.284  19.462  25.989  1.00  0.00     0.124 S 
ATOM     80  O   UNL A   1      40.864  19.354  25.675  1.00  0.00    -0.237 OA
ATOM     81  O   UNL A   1      43.188  19.518  24.844  1.00  0.00    -0.237 OA
ATOM     82  O   UNL A   1      42.750  18.645  27.106  1.00  0.00    -0.744 OA
ENDBRANCH  78  79
ENDBRANCH  46  71
BRANCH  58  83
ATOM     83  C   UNL A   1      48.137  27.501  29.657  1.00  0.00     0.058 A 
ATOM     84  C   UNL A   1      49.044  27.664  28.600  1.00  0.00     0.135 A 
ATOM     85  C   UNL A   1      48.634  27.050  30.890  1.00  0.00     0.135 A 
ATOM     86  F   UNL A   1      48.613  28.087  27.401  1.00  0.00    -0.206 F 
ATOM     87  C   UNL A   1      50.396  27.378  28.754  1.00  0.00     0.059 A 
ATOM     88  C   UNL A   1      49.985  26.772  31.073  1.00  0.00     0.059 A 
ATOM     89  F   UNL A   1      47.804  26.883  31.933  1.00  0.00    -0.206 F 
ATOM     90  C   UNL A   1      50.856  26.930  29.994  1.00  0.00     0.060 A 
BRANCH  90  91
ATOM     91  S   UNL A   1      52.618  26.593  30.200  1.00  0.00     0.124 S 
ATOM     92  O   UNL A   1      52.597  25.518  31.186  1.00  0.00    -0.237 OA
ATOM     93  O   UNL A   1      53.028  26.210  28.852  1.00  0.00    -0.237 OA
ATOM     94  O   UNL A   1      53.152  27.869  30.669  1.00  0.00    -0.744 OA
ENDBRANCH  90  91
ENDBRANCH  58  83
ENDBRANCH  32  33
ENDBRANCH  24  27
ENDBRANCH  22  23
ENDBRANCH   1  22
TORSDOF 15
ENDMDL
MODEL 2
REMARK VINA RESULT:     -11.9      5.169     10.537
REMARK SMILES CC(C)Nc1cc2ccccc2cc1C(=O)NCCCNC(=O)c1ccc(-c2c3nc(c(-c4c(F)cc(S(=O)(=O)[O-])cc4F)c4ccc([nH]4)c(-c4c(F)cc(S(=O)(=O)[O-])cc4F)c4nc(c(-c5c(F)cc(S(=O)(=O)[O-])cc5F)c5ccc2[nH]5)C=C4)C=C3)cc1
REMARK SMILES IDX 19 1 18 2 17 3 15 4 16 5 14 7 5 8 6 9 7 10 13 11 8 12 12 13
REMARK SMILES IDX 9 14 11 15 10 16 4 17 2 19 1 20 3 21 20 22 21 23 22 24 23 26
REMARK SMILES IDX 24 27 25 28 89 29 26 30 88 31 27 32 28 33 29 34 82 35 30 36
REMARK SMILES IDX 87 37 81 38 83 39 31 40 86 41 80 42 79 43 32 45 66 46 45 47
REMARK SMILES IDX 65 48 46 49 49 50 64 51 84 52 47 53 48 54 63 56 85 57 50 58
REMARK SMILES IDX 33 59 34 60 43 61 35 62 36 63 42 64 44 65 37 66 38 67 39 68
REMARK SMILES IDX 40 69 41 70 67 71 68 72 77 73 69 74 70 75 76 76 78 77 71 78
REMARK SMILES IDX 72 79 73 80 74 81 75 82 51 83 52 84 61 85 53 86 54 87 60 88
REMARK SMILES IDX 62 89 55 90 56 91 57 92 58 93 59 94
REMARK H PARENT 17 6 4 18 21 25 83 44 49 55
REMARK Flexibility Score: inf
ROOT
ATOM      1  C   UNL A   1      37.370  23.381  25.019  1.00  0.00     0.042 C 
ENDROOT
BRANCH   1   2
ATOM      2  C   UNL A   1      35.898  23.765  24.959  1.00  0.00     0.118 C 
BRANCH   2   3
ATOM      3  N   UNL A   1      35.176  23.577  26.205  1.00  0.00    -0.352 N 
ATOM      4  C   UNL A   1      34.301  22.574  26.537  1.00  0.00     0.253 C 
ATOM      5  O   UNL A   1      33.868  22.510  27.689  1.00  0.00    -0.269 OA
ATOM      6  H   UNL A   1      35.334  24.256  26.900  1.00  0.00     0.163 HD
BRANCH   4   7
ATOM      7  C   UNL A   1      33.765  21.652  25.512  1.00  0.00     0.063 A 
ATOM      8  C   UNL A   1      32.657  21.911  24.689  1.00  0.00     0.048 A 
ATOM      9  C   UNL A   1      32.221  20.873  23.844  1.00  0.00     0.035 A 
ATOM     10  C   UNL A   1      32.868  19.622  23.789  1.00  0.00    -0.016 A 
ATOM     11  C   UNL A   1      34.438  20.416  25.446  1.00  0.00     0.024 A 
ATOM     12  C   UNL A   1      32.417  18.593  22.946  1.00  0.00     0.009 A 
ATOM     13  C   UNL A   1      34.003  19.398  24.592  1.00  0.00    -0.017 A 
ATOM     14  C   UNL A   1      33.081  17.365  22.896  1.00  0.00     0.001 A 
ATOM     15  C   UNL A   1      34.667  18.161  24.529  1.00  0.00     0.009 A 
ATOM     16  C   UNL A   1      34.207  17.151  23.684  1.00  0.00     0.001 A 
BRANCH   8  17
ATOM     17  N   UNL A   1      32.004  23.136  24.584  1.00  0.00    -0.382 N 
ATOM     18  H   UNL A   1      31.737  23.616  25.402  1.00  0.00     0.160 HD
BRANCH  17  19
ATOM     19  C   UNL A   1      31.710  23.724  23.276  1.00  0.00     0.073 C 
ATOM     20  C   UNL A   1      30.475  24.616  23.422  1.00  0.00     0.030 C 
ATOM     21  C   UNL A   1      32.881  24.572  22.793  1.00  0.00     0.030 C 
ENDBRANCH  17  19
ENDBRANCH   8  17
ENDBRANCH   4   7
ENDBRANCH   2   3
ENDBRANCH   1   2
BRANCH   1  22
ATOM     22  C   UNL A   1      38.155  23.953  26.197  1.00  0.00     0.118 C 
BRANCH  22  23
ATOM     23  N   UNL A   1      39.598  23.763  26.125  1.00  0.00    -0.352 N 
ATOM     24  C   UNL A   1      40.667  24.446  26.655  1.00  0.00     0.251 C 
ATOM     25  H   UNL A   1      39.863  22.985  25.584  1.00  0.00     0.163 HD
ATOM     26  O   UNL A   1      41.805  24.094  26.347  1.00  0.00    -0.269 OA
BRANCH  24  27
ATOM     27  C   UNL A   1      40.485  25.621  27.538  1.00  0.00     0.039 A 
ATOM     28  C   UNL A   1      39.572  25.532  28.597  1.00  0.00     0.014 A 
ATOM     29  C   UNL A   1      41.177  26.810  27.339  1.00  0.00     0.014 A 
ATOM     30  C   UNL A   1      39.449  26.585  29.510  1.00  0.00     0.010 A 
ATOM     31  C   UNL A   1      41.147  27.805  28.311  1.00  0.00     0.010 A 
ATOM     32  C   UNL A   1      40.289  27.703  29.416  1.00  0.00    -0.014 A 
BRANCH  32  33
ATOM     33  C   UNL A   1      40.315  28.782  30.443  1.00  0.00     0.031 A 
ATOM     34  C   UNL A   1      41.263  28.680  31.610  1.00  0.00     0.074 A 
ATOM     35  C   UNL A   1      39.402  29.774  30.408  1.00  0.00     0.049 A 
ATOM     36  N   UNL A   1      41.254  29.330  32.745  1.00  0.00    -0.248 NA
ATOM     37  C   UNL A   1      42.328  27.667  31.507  1.00  0.00     0.031 C 
ATOM     38  C   UNL A   1      38.392  29.969  29.364  1.00  0.00     0.029 A 
ATOM     39  N   UNL A   1      39.159  30.794  31.294  1.00  0.00    -0.354 N 
ATOM     40  C   UNL A   1      42.257  28.754  33.518  1.00  0.00     0.074 A 
ATOM     41  C   UNL A   1      42.843  27.692  32.727  1.00  0.00     0.031 C 
ATOM     42  C   UNL A   1      37.657  31.053  29.657  1.00  0.00     0.029 A 
ATOM     43  C   UNL A   1      38.102  31.597  30.934  1.00  0.00     0.049 A 
ATOM     44  H   UNL A   1      39.690  30.936  32.110  1.00  0.00     0.167 HD
ATOM     45  C   UNL A   1      42.657  29.085  34.770  1.00  0.00     0.037 A 
ATOM     46  C   UNL A   1      37.539  32.642  31.571  1.00  0.00     0.037 A 
ATOM     47  C   UNL A   1      42.134  30.201  35.513  1.00  0.00     0.049 A 
ATOM     48  C   UNL A   1      38.076  33.064  32.909  1.00  0.00     0.074 A 
ATOM     49  C   UNL A   1      42.518  30.663  36.760  1.00  0.00     0.029 A 
ATOM     50  N   UNL A   1      41.137  31.051  35.061  1.00  0.00    -0.354 N 
ATOM     51  N   UNL A   1      39.017  32.503  33.629  1.00  0.00    -0.248 NA
ATOM     52  C   UNL A   1      37.475  34.256  33.521  1.00  0.00     0.031 C 
ATOM     53  C   UNL A   1      41.750  31.795  37.063  1.00  0.00     0.029 A 
ATOM     54  C   UNL A   1      40.903  32.046  35.995  1.00  0.00     0.049 A 
ATOM     55  H   UNL A   1      40.663  30.961  34.202  1.00  0.00     0.167 HD
ATOM     56  C   UNL A   1      39.134  33.284  34.773  1.00  0.00     0.074 A 
ATOM     57  C   UNL A   1      38.173  34.361  34.643  1.00  0.00     0.031 C 
ATOM     58  C   UNL A   1      39.957  33.120  35.836  1.00  0.00     0.037 A 
BRANCH  45  59
ATOM     59  C   UNL A   1      43.714  28.228  35.406  1.00  0.00     0.058 A 
ATOM     60  C   UNL A   1      45.082  28.466  35.199  1.00  0.00     0.135 A 
ATOM     61  C   UNL A   1      43.355  27.154  36.238  1.00  0.00     0.135 A 
ATOM     62  F   UNL A   1      45.479  29.469  34.400  1.00  0.00    -0.206 F 
ATOM     63  C   UNL A   1      46.056  27.644  35.757  1.00  0.00     0.059 A 
ATOM     64  C   UNL A   1      44.313  26.335  36.828  1.00  0.00     0.059 A 
ATOM     65  F   UNL A   1      42.061  26.884  36.473  1.00  0.00    -0.206 F 
ATOM     66  C   UNL A   1      45.661  26.575  36.563  1.00  0.00     0.060 A 
BRANCH  66  67
ATOM     67  S   UNL A   1      46.929  25.499  37.266  1.00  0.00     0.124 S 
ATOM     68  O   UNL A   1      46.459  24.184  36.843  1.00  0.00    -0.237 OA
ATOM     69  O   UNL A   1      48.146  25.974  36.614  1.00  0.00    -0.237 OA
ATOM     70  O   UNL A   1      46.843  25.769  38.697  1.00  0.00    -0.744 OA
ENDBRANCH  66  67
ENDBRANCH  45  59
BRANCH  46  71
ATOM     71  C   UNL A   1      36.420  33.380  30.931  1.00  0.00     0.058 A 
ATOM     72  C   UNL A   1      36.655  34.199  29.818  1.00  0.00     0.135 A 
ATOM     73  C   UNL A   1      35.101  33.258  31.392  1.00  0.00     0.135 A 
ATOM     74  F   UNL A   1      37.903  34.348  29.347  1.00  0.00    -0.206 F 
ATOM     75  C   UNL A   1      35.622  34.881  29.185  1.00  0.00     0.059 A 
ATOM     76  C   UNL A   1      34.048  33.916  30.763  1.00  0.00     0.059 A 
ATOM     77  F   UNL A   1      34.826  32.470  32.442  1.00  0.00    -0.206 F 
ATOM     78  C   UNL A   1      34.320  34.731  29.664  1.00  0.00     0.060 A 
BRANCH  78  79
ATOM     79  S   UNL A   1      32.973  35.566  28.798  1.00  0.00     0.124 S 
ATOM     80  O   UNL A   1      32.401  34.472  28.021  1.00  0.00    -0.237 OA
ATOM     81  O   UNL A   1      32.154  36.062  29.900  1.00  0.00    -0.237 OA
ATOM     82  O   UNL A   1      33.663  36.597  28.028  1.00  0.00    -0.744 OA
ENDBRANCH  78  79
ENDBRANCH  46  71
BRANCH  58  83
ATOM     83  C   UNL A   1      39.882  34.149  36.923  1.00  0.00     0.058 A 
ATOM     84  C   UNL A   1      40.559  35.373  36.823  1.00  0.00     0.135 A 
ATOM     85  C   UNL A   1      39.088  33.924  38.059  1.00  0.00     0.135 A 
ATOM     86  F   UNL A   1      41.336  35.629  35.758  1.00  0.00    -0.206 F 
ATOM     87  C   UNL A   1      40.464  36.337  37.820  1.00  0.00     0.059 A 
ATOM     88  C   UNL A   1      38.965  34.881  39.061  1.00  0.00     0.059 A 
ATOM     89  F   UNL A   1      38.416  32.769  38.196  1.00  0.00    -0.206 F 
ATOM     90  C   UNL A   1      39.667  36.081  38.937  1.00  0.00     0.060 A 
BRANCH  90  91
ATOM     91  S   UNL A   1      39.519  37.350  40.213  1.00  0.00     0.124 S 
ATOM     92  O   UNL A   1      38.892  36.602  41.297  1.00  0.00    -0.237 OA
ATOM     93  O   UNL A   1      40.908  37.743  40.433  1.00  0.00    -0.237 OA
ATOM     94  O   UNL A   1      38.681  38.366  39.581  1.00  0.00    -0.744 OA
ENDBRANCH  90  91
ENDBRANCH  58  83
ENDBRANCH  32  33
ENDBRANCH  24  27
ENDBRANCH  22  23
ENDBRANCH   1  22
TORSDOF 15
ENDMDL
MODEL 3
REMARK VINA RESULT:     -11.9      5.157     10.704
REMARK SMILES CC(C)Nc1cc2ccccc2cc1C(=O)NCCCNC(=O)c1ccc(-c2c3nc(c(-c4c(F)cc(S(=O)(=O)[O-])cc4F)c4ccc([nH]4)c(-c4c(F)cc(S(=O)(=O)[O-])cc4F)c4nc(c(-c5c(F)cc(S(=O)(=O)[O-])cc5F)c5ccc2[nH]5)C=C4)C=C3)cc1
REMARK SMILES IDX 19 1 18 2 17 3 15 4 16 5 14 7 5 8 6 9 7 10 13 11 8 12 12 13
REMARK SMILES IDX 9 14 11 15 10 16 4 17 2 19 1 20 3 21 20 22 21 23 22 24 23 26
REMARK SMILES IDX 24 27 25 28 89 29 26 30 88 31 27 32 28 33 29 34 82 35 30 36
REMARK SMILES IDX 87 37 81 38 83 39 31 40 86 41 80 42 79 43 32 45 66 46 45 47
REMARK SMILES IDX 65 48 46 49 49 50 64 51 84 52 47 53 48 54 63 56 85 57 50 58
REMARK SMILES IDX 33 59 34 60 43 61 35 62 36 63 42 64 44 65 37 66 38 67 39 68
REMARK SMILES IDX 40 69 41 70 67 71 68 72 77 73 69 74 70 75 76 76 78 77 71 78
REMARK SMILES IDX 72 79 73 80 74 81 75 82 51 83 52 84 61 85 53 86 54 87 60 88
REMARK SMILES IDX 62 89 55 90 56 91 57 92 58 93 59 94
REMARK H PARENT 17 6 4 18 21 25 83 44 49 55
REMARK Flexibility Score: inf
ROOT
ATOM      1  C   UNL A   1      37.436  23.250  25.229  1.00  0.00     0.042 C 
ENDROOT
BRANCH   1   2
ATOM      2  C   UNL A   1      36.637  21.994  25.544  1.00  0.00     0.118 C 
BRANCH   2   3
ATOM      3  N   UNL A   1      35.642  22.161  26.588  1.00  0.00    -0.352 N 
ATOM      4  C   UNL A   1      34.443  22.826  26.521  1.00  0.00     0.253 C 
ATOM      5  O   UNL A   1      33.667  22.765  27.476  1.00  0.00    -0.269 OA
ATOM      6  H   UNL A   1      35.853  21.744  27.455  1.00  0.00     0.163 HD
BRANCH   4   7
ATOM      7  C   UNL A   1      34.123  23.718  25.386  1.00  0.00     0.063 A 
ATOM      8  C   UNL A   1      33.868  23.298  24.070  1.00  0.00     0.048 A 
ATOM      9  C   UNL A   1      33.688  24.296  23.094  1.00  0.00     0.035 A 
ATOM     10  C   UNL A   1      33.732  25.670  23.402  1.00  0.00    -0.016 A 
ATOM     11  C   UNL A   1      34.141  25.089  25.712  1.00  0.00     0.024 A 
ATOM     12  C   UNL A   1      33.558  26.655  22.415  1.00  0.00     0.009 A 
ATOM     13  C   UNL A   1      33.947  26.070  24.735  1.00  0.00    -0.017 A 
ATOM     14  C   UNL A   1      33.591  28.011  22.745  1.00  0.00     0.001 A 
ATOM     15  C   UNL A   1      33.972  27.438  25.056  1.00  0.00     0.009 A 
ATOM     16  C   UNL A   1      33.794  28.403  24.064  1.00  0.00     0.001 A 
BRANCH   8  17
ATOM     17  N   UNL A   1      33.702  21.974  23.669  1.00  0.00    -0.382 N 
ATOM     18  H   UNL A   1      34.475  21.468  23.331  1.00  0.00     0.160 HD
BRANCH  17  19
ATOM     19  C   UNL A   1      32.393  21.323  23.745  1.00  0.00     0.073 C 
ATOM     20  C   UNL A   1      31.912  21.054  22.317  1.00  0.00     0.030 C 
ATOM     21  C   UNL A   1      32.494  19.998  24.494  1.00  0.00     0.030 C 
ENDBRANCH  17  19
ENDBRANCH   8  17
ENDBRANCH   4   7
ENDBRANCH   2   3
ENDBRANCH   1   2
BRANCH   1  22
ATOM     22  C   UNL A   1      38.285  23.799  26.374  1.00  0.00     0.118 C 
BRANCH  22  23
ATOM     23  N   UNL A   1      39.725  23.730  26.159  1.00  0.00    -0.352 N 
ATOM     24  C   UNL A   1      40.778  24.510  26.575  1.00  0.00     0.251 C 
ATOM     25  H   UNL A   1      40.001  22.969  25.600  1.00  0.00     0.163 HD
ATOM     26  O   UNL A   1      41.907  24.251  26.157  1.00  0.00    -0.269 OA
BRANCH  24  27
ATOM     27  C   UNL A   1      40.584  25.678  27.464  1.00  0.00     0.039 A 
ATOM     28  C   UNL A   1      39.653  25.585  28.506  1.00  0.00     0.014 A 
ATOM     29  C   UNL A   1      41.284  26.867  27.286  1.00  0.00     0.014 A 
ATOM     30  C   UNL A   1      39.516  26.631  29.424  1.00  0.00     0.010 A 
ATOM     31  C   UNL A   1      41.239  27.855  28.264  1.00  0.00     0.010 A 
ATOM     32  C   UNL A   1      40.361  27.748  29.353  1.00  0.00    -0.014 A 
BRANCH  32  33
ATOM     33  C   UNL A   1      40.373  28.819  30.388  1.00  0.00     0.031 A 
ATOM     34  C   UNL A   1      41.314  28.715  31.560  1.00  0.00     0.074 A 
ATOM     35  C   UNL A   1      39.453  29.804  30.355  1.00  0.00     0.049 A 
ATOM     36  N   UNL A   1      41.293  29.357  32.700  1.00  0.00    -0.248 NA
ATOM     37  C   UNL A   1      42.388  27.712  31.456  1.00  0.00     0.031 C 
ATOM     38  C   UNL A   1      38.447  30.000  29.306  1.00  0.00     0.029 A 
ATOM     39  N   UNL A   1      39.195  30.815  31.247  1.00  0.00    -0.354 N 
ATOM     40  C   UNL A   1      42.295  28.783  33.475  1.00  0.00     0.074 A 
ATOM     41  C   UNL A   1      42.894  27.731  32.680  1.00  0.00     0.031 C 
ATOM     42  C   UNL A   1      37.702  31.075  29.603  1.00  0.00     0.029 A 
ATOM     43  C   UNL A   1      38.135  31.613  30.887  1.00  0.00     0.049 A 
ATOM     44  H   UNL A   1      39.720  30.955  32.068  1.00  0.00     0.167 HD
ATOM     45  C   UNL A   1      42.685  29.107  34.732  1.00  0.00     0.037 A 
ATOM     46  C   UNL A   1      37.560  32.648  31.528  1.00  0.00     0.037 A 
ATOM     47  C   UNL A   1      42.149  30.213  35.480  1.00  0.00     0.049 A 
ATOM     48  C   UNL A   1      38.085  33.064  32.873  1.00  0.00     0.074 A 
ATOM     49  C   UNL A   1      42.522  30.669  36.734  1.00  0.00     0.029 A 
ATOM     50  N   UNL A   1      41.148  31.059  35.028  1.00  0.00    -0.354 N 
ATOM     51  N   UNL A   1      39.026  32.505  33.595  1.00  0.00    -0.248 NA
ATOM     52  C   UNL A   1      37.471  34.247  33.490  1.00  0.00     0.031 C 
ATOM     53  C   UNL A   1      41.743  31.792  37.040  1.00  0.00     0.029 A 
ATOM     54  C   UNL A   1      40.901  32.045  35.969  1.00  0.00     0.049 A 
ATOM     55  H   UNL A   1      40.681  30.972  34.166  1.00  0.00     0.167 HD
ATOM     56  C   UNL A   1      39.129  33.278  34.745  1.00  0.00     0.074 A 
ATOM     57  C   UNL A   1      38.161  34.349  34.617  1.00  0.00     0.031 C 
ATOM     58  C   UNL A   1      39.947  33.113  35.812  1.00  0.00     0.037 A 
BRANCH  45  59
ATOM     59  C   UNL A   1      43.745  28.254  35.369  1.00  0.00     0.058 A 
ATOM     60  C   UNL A   1      45.110  28.555  35.243  1.00  0.00     0.135 A 
ATOM     61  C   UNL A   1      43.391  27.119  36.118  1.00  0.00     0.135 A 
ATOM     62  F   UNL A   1      45.504  29.618  34.524  1.00  0.00    -0.206 F 
ATOM     63  C   UNL A   1      46.090  27.737  35.799  1.00  0.00     0.059 A 
ATOM     64  C   UNL A   1      44.353  26.302  36.705  1.00  0.00     0.059 A 
ATOM     65  F   UNL A   1      42.100  26.787  36.272  1.00  0.00    -0.206 F 
ATOM     66  C   UNL A   1      45.700  26.608  36.521  1.00  0.00     0.060 A 
BRANCH  66  67
ATOM     67  S   UNL A   1      46.977  25.540  37.222  1.00  0.00     0.124 S 
ATOM     68  O   UNL A   1      47.067  26.053  38.585  1.00  0.00    -0.237 OA
ATOM     69  O   UNL A   1      46.390  24.210  37.085  1.00  0.00    -0.237 OA
ATOM     70  O   UNL A   1      48.135  25.800  36.373  1.00  0.00    -0.744 OA
ENDBRANCH  66  67
ENDBRANCH  45  59
BRANCH  46  71
ATOM     71  C   UNL A   1      36.439  33.382  30.887  1.00  0.00     0.058 A 
ATOM     72  C   UNL A   1      35.139  33.283  31.403  1.00  0.00     0.135 A 
ATOM     73  C   UNL A   1      36.645  34.215  29.778  1.00  0.00     0.135 A 
ATOM     74  F   UNL A   1      34.896  32.494  32.460  1.00  0.00    -0.206 F 
ATOM     75  C   UNL A   1      34.077  33.979  30.837  1.00  0.00     0.059 A 
ATOM     76  C   UNL A   1      35.601  34.936  29.206  1.00  0.00     0.059 A 
ATOM     77  F   UNL A   1      37.876  34.356  29.262  1.00  0.00    -0.206 F 
ATOM     78  C   UNL A   1      34.318  34.805  29.738  1.00  0.00     0.060 A 
BRANCH  78  79
ATOM     79  S   UNL A   1      32.948  35.758  29.049  1.00  0.00     0.124 S 
ATOM     80  O   UNL A   1      32.318  34.776  28.174  1.00  0.00    -0.237 OA
ATOM     81  O   UNL A   1      32.192  36.126  30.244  1.00  0.00    -0.237 OA
ATOM     82  O   UNL A   1      33.619  36.867  28.378  1.00  0.00    -0.744 OA
ENDBRANCH  78  79
ENDBRANCH  46  71
BRANCH  58  83
ATOM     83  C   UNL A   1      39.857  34.133  36.907  1.00  0.00     0.058 A 
ATOM     84  C   UNL A   1      40.454  35.395  36.783  1.00  0.00     0.135 A 
ATOM     85  C   UNL A   1      39.128  33.857  38.074  1.00  0.00     0.135 A 
ATOM     86  F   UNL A   1      41.166  35.701  35.687  1.00  0.00    -0.206 F 
ATOM     87  C   UNL A   1      40.344  36.350  37.788  1.00  0.00     0.059 A 
ATOM     88  C   UNL A   1      38.992  34.802  39.086  1.00  0.00     0.059 A 
ATOM     89  F   UNL A   1      38.534  32.664  38.235  1.00  0.00    -0.206 F 
ATOM     90  C   UNL A   1      39.613  36.043  38.937  1.00  0.00     0.060 A 
BRANCH  90  91
ATOM     91  S   UNL A   1      39.444  37.298  40.224  1.00  0.00     0.124 S 
ATOM     92  O   UNL A   1      40.832  37.487  40.631  1.00  0.00    -0.237 OA
ATOM     93  O   UNL A   1      38.836  38.413  39.503  1.00  0.00    -0.237 OA
ATOM     94  O   UNL A   1      38.580  36.654  41.210  1.00  0.00    -0.744 OA
ENDBRANCH  90  91
ENDBRANCH  58  83
ENDBRANCH  32  33
ENDBRANCH  24  27
ENDBRANCH  22  23
ENDBRANCH   1  22
TORSDOF 15
ENDMDL
