MODEL 1
REMARK VINA RESULT:     -12.9      0.000      0.000
REMARK SMILES C[C@H]1CC[C@@H]([N@@H+](CC(=O)NCCCNC(=O)c2ccc(-c3c4nc(c(-c5c(F)cc(S(=O)(=O)[O-])cc5F)c5ccc([nH]5)c(-c5c(F)cc(S(=O)(=O)[O-])cc5F)c5nc(c(-c6c(F)cc(S(=O)(=O)[O-])cc6F)c6ccc3[nH]6)C=C5)C=C4)cc2)C(C)(C)C)C[C@@H]1C
REMARK SMILES IDX 12 1 11 2 10 3 8 4 9 5 7 7 6 8 5 10 1 11 2 12 3 13 88 14
REMARK SMILES IDX 4 15 87 16 89 17 83 18 84 19 85 20 86 21 13 22 14 23 15 24
REMARK SMILES IDX 16 26 17 27 18 28 82 29 19 30 81 31 20 32 21 33 22 34 75 35
REMARK SMILES IDX 23 36 80 37 74 38 76 39 24 40 79 41 73 42 72 43 25 45 59 46
REMARK SMILES IDX 38 47 58 48 39 49 42 50 57 51 77 52 40 53 41 54 56 56 78 57
REMARK SMILES IDX 43 58 26 59 27 60 36 61 28 62 29 63 35 64 37 65 30 66 31 67
REMARK SMILES IDX 32 68 33 69 34 70 60 71 61 72 70 73 62 74 63 75 69 76 71 77
REMARK SMILES IDX 64 78 65 79 66 80 67 81 68 82 44 83 45 84 54 85 46 86 47 87
REMARK SMILES IDX 53 88 55 89 48 90 49 91 50 92 51 93 52 94
REMARK H PARENT 10 6 6 9 14 25 76 44 42 55
REMARK Flexibility Score: inf
ROOT
ATOM      1  C   UNL A   1      31.866  28.546  26.690  1.00  0.00     0.042 C 
ENDROOT
BRANCH   1   2
ATOM      2  C   UNL A   1      30.961  26.730  26.119  1.00  0.00     0.118 C 
BRANCH   2   3
ATOM      3  N   UNL A   1      31.081  25.217  26.890  1.00  0.00    -0.351 N 
ATOM      4  C   UNL A   1      31.783  24.025  26.693  1.00  0.00     0.275 C 
ATOM      5  O   UNL A   1      31.334  23.020  27.262  1.00  0.00    -0.269 OA
ATOM      6  H   UNL A   1      30.502  25.169  27.685  1.00  0.00     0.163 HD
BRANCH   4   7
ATOM      7  C   UNL A   1      33.071  23.891  25.800  1.00  0.00     0.364 C 
BRANCH   7   8
ATOM      8  N   UNL A   1      32.840  23.522  24.372  1.00  0.00    -0.321 N 
ATOM      9  H   UNL A   1      31.830  23.607  24.261  1.00  0.00     0.349 HD
BRANCH   8  10
ATOM     10  C   UNL A   1      33.249  22.157  24.125  1.00  0.00     0.185 C 
ATOM     11  C   UNL A   1      34.836  17.095  24.781  1.00  0.00     0.008 C 
ATOM     12  C   UNL A   1      34.630  18.586  24.440  1.00  0.00    -0.011 C 
ATOM     13  C   UNL A   1      32.760  18.922  24.103  1.00  0.00     0.010 C 
ATOM     14  C   UNL A   1      35.822  20.159  24.922  1.00  0.00    -0.006 C 
ATOM     15  C   UNL A   1      32.175  20.680  23.654  1.00  0.00     0.065 C 
ATOM     16  C   UNL A   1      35.166  21.926  24.388  1.00  0.00     0.068 C 
ATOM     17  C   UNL A   1      37.393  20.464  24.974  1.00  0.00     0.008 C 
ENDBRANCH   8  10
BRANCH   8  18
ATOM     18  C   UNL A   1      32.757  24.485  23.294  1.00  0.00     0.090 C 
ATOM     19  C   UNL A   1      33.310  23.887  21.996  1.00  0.00     0.078 C 
ATOM     20  C   UNL A   1      31.272  24.854  23.098  1.00  0.00     0.078 C 
ATOM     21  C   UNL A   1      33.514  25.788  23.622  1.00  0.00     0.078 C 
ENDBRANCH   8  18
ENDBRANCH   7   8
ENDBRANCH   4   7
ENDBRANCH   2   3
ENDBRANCH   1   2
BRANCH   1  22
ATOM     22  C   UNL A   1      33.650  29.023  26.893  1.00  0.00     0.118 C 
BRANCH  22  23
ATOM     23  N   UNL A   1      34.082  30.014  28.009  1.00  0.00    -0.352 N 
ATOM     24  C   UNL A   1      35.121  30.537  28.687  1.00  0.00     0.251 C 
ATOM     25  H   UNL A   1      33.264  30.430  28.363  1.00  0.00     0.163 HD
ATOM     26  O   UNL A   1      34.945  31.484  29.453  1.00  0.00    -0.269 OA
BRANCH  24  27
ATOM     27  C   UNL A   1      36.327  29.788  28.691  1.00  0.00     0.039 A 
ATOM     28  C   UNL A   1      37.113  29.917  27.539  1.00  0.00     0.014 A 
ATOM     29  C   UNL A   1      36.763  29.356  29.930  1.00  0.00     0.014 A 
ATOM     30  C   UNL A   1      38.450  29.665  27.665  1.00  0.00     0.010 A 
ATOM     31  C   UNL A   1      38.107  29.220  30.077  1.00  0.00     0.010 A 
ATOM     32  C   UNL A   1      38.928  29.352  28.941  1.00  0.00    -0.014 A 
BRANCH  32  33
ATOM     33  C   UNL A   1      40.312  28.971  29.114  1.00  0.00     0.031 A 
ATOM     34  C   UNL A   1      41.218  30.049  29.591  1.00  0.00     0.074 A 
ATOM     35  C   UNL A   1      40.685  27.740  28.748  1.00  0.00     0.049 A 
ATOM     36  N   UNL A   1      42.512  30.041  29.672  1.00  0.00    -0.248 NA
ATOM     37  C   UNL A   1      40.588  31.336  29.960  1.00  0.00     0.031 C 
ATOM     38  C   UNL A   1      39.796  26.688  28.241  1.00  0.00     0.029 A 
ATOM     39  N   UNL A   1      41.920  27.176  28.737  1.00  0.00    -0.354 N 
ATOM     40  C   UNL A   1      42.848  31.321  30.082  1.00  0.00     0.074 A 
ATOM     41  C   UNL A   1      41.643  32.109  30.132  1.00  0.00     0.031 C 
ATOM     42  C   UNL A   1      40.527  25.591  27.985  1.00  0.00     0.029 A 
ATOM     43  C   UNL A   1      41.926  25.887  28.274  1.00  0.00     0.049 A 
ATOM     44  H   UNL A   1      42.733  27.649  29.032  1.00  0.00     0.167 HD
ATOM     45  C   UNL A   1      44.069  31.765  30.431  1.00  0.00     0.037 A 
ATOM     46  C   UNL A   1      42.972  25.064  28.109  1.00  0.00     0.037 A 
ATOM     47  C   UNL A   1      45.222  30.919  30.391  1.00  0.00     0.049 A 
ATOM     48  C   UNL A   1      44.328  25.591  28.499  1.00  0.00     0.074 A 
ATOM     49  C   UNL A   1      46.519  31.212  30.755  1.00  0.00     0.029 A 
ATOM     50  N   UNL A   1      45.206  29.597  29.954  1.00  0.00    -0.354 N 
ATOM     51  N   UNL A   1      44.649  26.784  28.951  1.00  0.00    -0.248 NA
ATOM     52  C   UNL A   1      45.457  24.668  28.370  1.00  0.00     0.031 C 
ATOM     53  C   UNL A   1      47.298  30.084  30.482  1.00  0.00     0.029 A 
ATOM     54  C   UNL A   1      46.476  29.066  30.017  1.00  0.00     0.049 A 
ATOM     55  H   UNL A   1      44.404  29.115  29.647  1.00  0.00     0.167 HD
ATOM     56  C   UNL A   1      46.014  26.744  29.198  1.00  0.00     0.074 A 
ATOM     57  C   UNL A   1      46.450  25.403  28.850  1.00  0.00     0.031 C 
ATOM     58  C   UNL A   1      46.840  27.713  29.668  1.00  0.00     0.037 A 
BRANCH  45  59
ATOM     59  C   UNL A   1      44.181  33.192  30.868  1.00  0.00     0.058 A 
ATOM     60  C   UNL A   1      44.424  34.232  29.953  1.00  0.00     0.135 A 
ATOM     61  C   UNL A   1      44.068  33.525  32.225  1.00  0.00     0.135 A 
ATOM     62  F   UNL A   1      44.587  33.964  28.647  1.00  0.00    -0.206 F 
ATOM     63  C   UNL A   1      44.568  35.549  30.372  1.00  0.00     0.059 A 
ATOM     64  C   UNL A   1      44.171  34.839  32.663  1.00  0.00     0.059 A 
ATOM     65  F   UNL A   1      43.869  32.565  33.142  1.00  0.00    -0.206 F 
ATOM     66  C   UNL A   1      44.431  35.843  31.729  1.00  0.00     0.060 A 
BRANCH  66  67
ATOM     67  S   UNL A   1      44.578  37.562  32.250  1.00  0.00     0.124 S 
ATOM     68  O   UNL A   1      44.044  37.504  33.607  1.00  0.00    -0.237 OA
ATOM     69  O   UNL A   1      46.014  37.794  32.142  1.00  0.00    -0.237 OA
ATOM     70  O   UNL A   1      43.754  38.282  31.283  1.00  0.00    -0.744 OA
ENDBRANCH  66  67
ENDBRANCH  45  59
BRANCH  46  71
ATOM     71  C   UNL A   1      42.766  23.685  27.605  1.00  0.00     0.058 A 
ATOM     72  C   UNL A   1      42.936  23.385  26.246  1.00  0.00     0.135 A 
ATOM     73  C   UNL A   1      42.426  22.634  28.470  1.00  0.00     0.135 A 
ATOM     74  F   UNL A   1      43.277  24.354  25.382  1.00  0.00    -0.206 F 
ATOM     75  C   UNL A   1      42.742  22.100  25.754  1.00  0.00     0.059 A 
ATOM     76  C   UNL A   1      42.253  21.333  28.007  1.00  0.00     0.059 A 
ATOM     77  F   UNL A   1      42.285  22.861  29.785  1.00  0.00    -0.206 F 
ATOM     78  C   UNL A   1      42.399  21.080  26.644  1.00  0.00     0.060 A 
BRANCH  78  79
ATOM     79  S   UNL A   1      42.168  19.412  25.995  1.00  0.00     0.124 S 
ATOM     80  O   UNL A   1      42.605  18.595  27.120  1.00  0.00    -0.237 OA
ATOM     81  O   UNL A   1      40.737  19.393  25.708  1.00  0.00    -0.237 OA
ATOM     82  O   UNL A   1      43.036  19.385  24.820  1.00  0.00    -0.744 OA
ENDBRANCH  78  79
ENDBRANCH  46  71
BRANCH  58  83
ATOM     83  C   UNL A   1      48.278  27.339  29.875  1.00  0.00     0.058 A 
ATOM     84  C   UNL A   1      49.241  27.539  28.877  1.00  0.00     0.135 A 
ATOM     85  C   UNL A   1      48.702  26.861  31.125  1.00  0.00     0.135 A 
ATOM     86  F   UNL A   1      48.880  27.991  27.666  1.00  0.00    -0.206 F 
ATOM     87  C   UNL A   1      50.580  27.253  29.105  1.00  0.00     0.059 A 
ATOM     88  C   UNL A   1      50.041  26.607  31.387  1.00  0.00     0.059 A 
ATOM     89  F   UNL A   1      47.816  26.671  32.116  1.00  0.00    -0.206 F 
ATOM     90  C   UNL A   1      50.971  26.797  30.366  1.00  0.00     0.060 A 
BRANCH  90  91
ATOM     91  S   UNL A   1      52.721  26.481  30.661  1.00  0.00     0.124 S 
ATOM     92  O   UNL A   1      53.166  27.767  31.186  1.00  0.00    -0.237 OA
ATOM     93  O   UNL A   1      52.678  25.382  31.622  1.00  0.00    -0.237 OA
ATOM     94  O   UNL A   1      53.232  26.131  29.339  1.00  0.00    -0.744 OA
ENDBRANCH  90  91
ENDBRANCH  58  83
ENDBRANCH  32  33
ENDBRANCH  24  27
ENDBRANCH  22  23
ENDBRANCH   1  22
TORSDOF 16
ENDMDL
MODEL 2
REMARK VINA RESULT:     -12.9      1.213      1.968
REMARK SMILES C[C@H]1CC[C@@H]([N@@H+](CC(=O)NCCCNC(=O)c2ccc(-c3c4nc(c(-c5c(F)cc(S(=O)(=O)[O-])cc5F)c5ccc([nH]5)c(-c5c(F)cc(S(=O)(=O)[O-])cc5F)c5nc(c(-c6c(F)cc(S(=O)(=O)[O-])cc6F)c6ccc3[nH]6)C=C5)C=C4)cc2)C(C)(C)C)C[C@@H]1C
REMARK SMILES IDX 12 1 11 2 10 3 8 4 9 5 7 7 6 8 5 10 1 11 2 12 3 13 88 14
REMARK SMILES IDX 4 15 87 16 89 17 83 18 84 19 85 20 86 21 13 22 14 23 15 24
REMARK SMILES IDX 16 26 17 27 18 28 82 29 19 30 81 31 20 32 21 33 22 34 75 35
REMARK SMILES IDX 23 36 80 37 74 38 76 39 24 40 79 41 73 42 72 43 25 45 59 46
REMARK SMILES IDX 38 47 58 48 39 49 42 50 57 51 77 52 40 53 41 54 56 56 78 57
REMARK SMILES IDX 43 58 26 59 27 60 36 61 28 62 29 63 35 64 37 65 30 66 31 67
REMARK SMILES IDX 32 68 33 69 34 70 60 71 61 72 70 73 62 74 63 75 69 76 71 77
REMARK SMILES IDX 64 78 65 79 66 80 67 81 68 82 44 83 45 84 54 85 46 86 47 87
REMARK SMILES IDX 53 88 55 89 48 90 49 91 50 92 51 93 52 94
REMARK H PARENT 10 6 6 9 14 25 76 44 42 55
REMARK Flexibility Score: inf
ROOT
ATOM      1  C   UNL A   1      32.124  29.590  25.624  1.00  0.00     0.042 C 
ENDROOT
BRANCH   1   2
ATOM      2  C   UNL A   1      31.675  29.189  23.604  1.00  0.00     0.118 C 
BRANCH   2   3
ATOM      3  N   UNL A   1      32.540  28.202  22.519  1.00  0.00    -0.351 N 
ATOM      4  C   UNL A   1      32.693  26.833  22.285  1.00  0.00     0.275 C 
ATOM      5  O   UNL A   1      33.690  26.493  21.634  1.00  0.00    -0.269 OA
ATOM      6  H   UNL A   1      33.074  28.739  21.889  1.00  0.00     0.163 HD
BRANCH   4   7
ATOM      7  C   UNL A   1      31.700  25.728  22.803  1.00  0.00     0.364 C 
BRANCH   7   8
ATOM      8  N   UNL A   1      32.014  25.144  24.141  1.00  0.00    -0.321 N 
ATOM      9  H   UNL A   1      32.459  25.912  24.642  1.00  0.00     0.349 HD
BRANCH   8  10
ATOM     10  C   UNL A   1      32.939  24.040  24.011  1.00  0.00     0.185 C 
ATOM     11  C   UNL A   1      36.133  19.891  25.085  1.00  0.00     0.008 C 
ATOM     12  C   UNL A   1      35.459  21.217  24.676  1.00  0.00    -0.011 C 
ATOM     13  C   UNL A   1      33.701  20.858  23.966  1.00  0.00     0.010 C 
ATOM     14  C   UNL A   1      35.864  23.090  25.350  1.00  0.00    -0.006 C 
ATOM     15  C   UNL A   1      32.604  22.299  23.370  1.00  0.00     0.065 C 
ATOM     16  C   UNL A   1      34.715  24.518  24.656  1.00  0.00     0.068 C 
ATOM     17  C   UNL A   1      37.168  23.949  25.707  1.00  0.00     0.008 C 
ENDBRANCH   8  10
BRANCH   8  18
ATOM     18  C   UNL A   1      31.149  25.264  25.296  1.00  0.00     0.090 C 
ATOM     19  C   UNL A   1      31.841  26.066  26.403  1.00  0.00     0.078 C 
ATOM     20  C   UNL A   1      29.865  25.997  24.856  1.00  0.00     0.078 C 
ATOM     21  C   UNL A   1      30.726  23.887  25.847  1.00  0.00     0.078 C 
ENDBRANCH   8  18
ENDBRANCH   7   8
ENDBRANCH   4   7
ENDBRANCH   2   3
ENDBRANCH   1   2
BRANCH   1  22
ATOM     22  C   UNL A   1      33.655  29.281  26.631  1.00  0.00     0.118 C 
BRANCH  22  23
ATOM     23  N   UNL A   1      34.026  30.217  27.814  1.00  0.00    -0.352 N 
ATOM     24  C   UNL A   1      35.024  30.694  28.581  1.00  0.00     0.251 C 
ATOM     25  H   UNL A   1      33.191  30.630  28.132  1.00  0.00     0.163 HD
ATOM     26  O   UNL A   1      34.810  31.610  29.374  1.00  0.00    -0.269 OA
BRANCH  24  27
ATOM     27  C   UNL A   1      36.217  29.927  28.630  1.00  0.00     0.039 A 
ATOM     28  C   UNL A   1      37.020  29.999  27.485  1.00  0.00     0.014 A 
ATOM     29  C   UNL A   1      36.630  29.537  29.891  1.00  0.00     0.014 A 
ATOM     30  C   UNL A   1      38.351  29.730  27.639  1.00  0.00     0.010 A 
ATOM     31  C   UNL A   1      37.969  29.385  30.062  1.00  0.00     0.010 A 
ATOM     32  C   UNL A   1      38.807  29.460  28.933  1.00  0.00    -0.014 A 
BRANCH  32  33
ATOM     33  C   UNL A   1      40.183  29.064  29.139  1.00  0.00     0.031 A 
ATOM     34  C   UNL A   1      41.086  30.130  29.649  1.00  0.00     0.074 A 
ATOM     35  C   UNL A   1      40.553  27.833  28.774  1.00  0.00     0.049 A 
ATOM     36  N   UNL A   1      42.377  30.109  29.764  1.00  0.00    -0.248 NA
ATOM     37  C   UNL A   1      40.458  31.420  30.012  1.00  0.00     0.031 C 
ATOM     38  C   UNL A   1      39.669  26.793  28.234  1.00  0.00     0.029 A 
ATOM     39  N   UNL A   1      41.784  27.257  28.791  1.00  0.00    -0.354 N 
ATOM     40  C   UNL A   1      42.714  31.381  30.194  1.00  0.00     0.074 A 
ATOM     41  C   UNL A   1      41.516  32.181  30.218  1.00  0.00     0.031 C 
ATOM     42  C   UNL A   1      40.396  25.691  27.989  1.00  0.00     0.029 A 
ATOM     43  C   UNL A   1      41.789  25.971  28.317  1.00  0.00     0.049 A 
ATOM     44  H   UNL A   1      42.592  27.719  29.111  1.00  0.00     0.167 HD
ATOM     45  C   UNL A   1      43.929  31.811  30.579  1.00  0.00     0.037 A 
ATOM     46  C   UNL A   1      42.832  25.139  28.174  1.00  0.00     0.037 A 
ATOM     47  C   UNL A   1      45.075  30.954  30.563  1.00  0.00     0.049 A 
ATOM     48  C   UNL A   1      44.181  25.651  28.604  1.00  0.00     0.074 A 
ATOM     49  C   UNL A   1      46.364  31.232  30.964  1.00  0.00     0.029 A 
ATOM     50  N   UNL A   1      45.058  29.636  30.115  1.00  0.00    -0.354 N 
ATOM     51  N   UNL A   1      44.501  26.837  29.074  1.00  0.00    -0.248 NA
ATOM     52  C   UNL A   1      45.304  24.718  28.497  1.00  0.00     0.031 C 
ATOM     53  C   UNL A   1      47.140  30.099  30.702  1.00  0.00     0.029 A 
ATOM     54  C   UNL A   1      46.321  29.092  30.207  1.00  0.00     0.049 A 
ATOM     55  H   UNL A   1      44.260  29.164  29.782  1.00  0.00     0.167 HD
ATOM     56  C   UNL A   1      45.859  26.781  29.357  1.00  0.00     0.074 A 
ATOM     57  C   UNL A   1      46.292  25.439  29.010  1.00  0.00     0.031 C 
ATOM     58  C   UNL A   1      46.682  27.738  29.857  1.00  0.00     0.037 A 
BRANCH  45  59
ATOM     59  C   UNL A   1      44.043  33.233  31.030  1.00  0.00     0.058 A 
ATOM     60  C   UNL A   1      44.386  34.269  30.143  1.00  0.00     0.135 A 
ATOM     61  C   UNL A   1      43.831  33.565  32.376  1.00  0.00     0.135 A 
ATOM     62  F   UNL A   1      44.645  34.000  28.853  1.00  0.00    -0.206 F 
ATOM     63  C   UNL A   1      44.530  35.580  30.579  1.00  0.00     0.059 A 
ATOM     64  C   UNL A   1      43.933  34.875  32.827  1.00  0.00     0.059 A 
ATOM     65  F   UNL A   1      43.535  32.608  33.269  1.00  0.00    -0.206 F 
ATOM     66  C   UNL A   1      44.292  35.874  31.922  1.00  0.00     0.060 A 
BRANCH  66  67
ATOM     67  S   UNL A   1      44.442  37.588  32.461  1.00  0.00     0.124 S 
ATOM     68  O   UNL A   1      43.636  37.583  33.677  1.00  0.00    -0.237 OA
ATOM     69  O   UNL A   1      45.881  37.724  32.655  1.00  0.00    -0.237 OA
ATOM     70  O   UNL A   1      43.887  38.346  31.343  1.00  0.00    -0.744 OA
ENDBRANCH  66  67
ENDBRANCH  45  59
BRANCH  46  71
ATOM     71  C   UNL A   1      42.626  23.767  27.653  1.00  0.00     0.058 A 
ATOM     72  C   UNL A   1      42.460  22.684  28.528  1.00  0.00     0.135 A 
ATOM     73  C   UNL A   1      42.560  23.511  26.275  1.00  0.00     0.135 A 
ATOM     74  F   UNL A   1      42.499  22.881  29.854  1.00  0.00    -0.206 F 
ATOM     75  C   UNL A   1      42.271  21.390  28.057  1.00  0.00     0.059 A 
ATOM     76  C   UNL A   1      42.345  22.229  25.779  1.00  0.00     0.059 A 
ATOM     77  F   UNL A   1      42.679  24.517  25.395  1.00  0.00    -0.206 F 
ATOM     78  C   UNL A   1      42.216  21.173  26.679  1.00  0.00     0.060 A 
BRANCH  78  79
ATOM     79  S   UNL A   1      41.951  19.490  26.082  1.00  0.00     0.124 S 
ATOM     80  O   UNL A   1      40.515  19.489  25.833  1.00  0.00    -0.237 OA
ATOM     81  O   UNL A   1      42.806  19.450  24.899  1.00  0.00    -0.237 OA
ATOM     82  O   UNL A   1      42.400  18.663  27.199  1.00  0.00    -0.744 OA
ENDBRANCH  78  79
ENDBRANCH  46  71
BRANCH  58  83
ATOM     83  C   UNL A   1      48.109  27.349  30.100  1.00  0.00     0.058 A 
ATOM     84  C   UNL A   1      49.117  27.627  29.166  1.00  0.00     0.135 A 
ATOM     85  C   UNL A   1      48.478  26.773  31.326  1.00  0.00     0.135 A 
ATOM     86  F   UNL A   1      48.809  28.173  27.978  1.00  0.00    -0.206 F 
ATOM     87  C   UNL A   1      50.445  27.324  29.431  1.00  0.00     0.059 A 
ATOM     88  C   UNL A   1      49.805  26.499  31.627  1.00  0.00     0.059 A 
ATOM     89  F   UNL A   1      47.549  26.506  32.257  1.00  0.00    -0.206 F 
ATOM     90  C   UNL A   1      50.780  26.769  30.668  1.00  0.00     0.060 A 
BRANCH  90  91
ATOM     91  S   UNL A   1      52.515  26.430  31.016  1.00  0.00     0.124 S 
ATOM     92  O   UNL A   1      52.927  27.662  31.680  1.00  0.00    -0.237 OA
ATOM     93  O   UNL A   1      52.433  25.247  31.869  1.00  0.00    -0.237 OA
ATOM     94  O   UNL A   1      53.091  26.205  29.695  1.00  0.00    -0.744 OA
ENDBRANCH  90  91
ENDBRANCH  58  83
ENDBRANCH  32  33
ENDBRANCH  24  27
ENDBRANCH  22  23
ENDBRANCH   1  22
TORSDOF 16
ENDMDL
MODEL 3
REMARK VINA RESULT:     -12.7      2.218      3.076
REMARK SMILES C[C@H]1CC[C@@H]([N@@H+](CC(=O)NCCCNC(=O)c2ccc(-c3c4nc(c(-c5c(F)cc(S(=O)(=O)[O-])cc5F)c5ccc([nH]5)c(-c5c(F)cc(S(=O)(=O)[O-])cc5F)c5nc(c(-c6c(F)cc(S(=O)(=O)[O-])cc6F)c6ccc3[nH]6)C=C5)C=C4)cc2)C(C)(C)C)C[C@@H]1C
REMARK SMILES IDX 12 1 11 2 10 3 8 4 9 5 7 7 6 8 5 10 1 11 2 12 3 13 88 14
REMARK SMILES IDX 4 15 87 16 89 17 83 18 84 19 85 20 86 21 13 22 14 23 15 24
REMARK SMILES IDX 16 26 17 27 18 28 82 29 19 30 81 31 20 32 21 33 22 34 75 35
REMARK SMILES IDX 23 36 80 37 74 38 76 39 24 40 79 41 73 42 72 43 25 45 59 46
REMARK SMILES IDX 38 47 58 48 39 49 42 50 57 51 77 52 40 53 41 54 56 56 78 57
REMARK SMILES IDX 43 58 26 59 27 60 36 61 28 62 29 63 35 64 37 65 30 66 31 67
REMARK SMILES IDX 32 68 33 69 34 70 60 71 61 72 70 73 62 74 63 75 69 76 71 77
REMARK SMILES IDX 64 78 65 79 66 80 67 81 68 82 44 83 45 84 54 85 46 86 47 87
REMARK SMILES IDX 53 88 55 89 48 90 49 91 50 92 51 93 52 94
REMARK H PARENT 10 6 6 9 14 25 76 44 42 55
REMARK Flexibility Score: inf
ROOT
ATOM      1  C   UNL A   1      34.437  29.181  26.696  1.00  0.00     0.042 C 
ENDROOT
BRANCH   1   2
ATOM      2  C   UNL A   1      33.240  29.232  24.961  1.00  0.00     0.118 C 
BRANCH   2   3
ATOM      3  N   UNL A   1      33.608  28.604  23.421  1.00  0.00    -0.351 N 
ATOM      4  C   UNL A   1      33.279  27.468  22.678  1.00  0.00     0.275 C 
ATOM      5  O   UNL A   1      34.031  27.191  21.732  1.00  0.00    -0.269 OA
ATOM      6  H   UNL A   1      34.212  29.201  22.923  1.00  0.00     0.163 HD
BRANCH   4   7
ATOM      7  C   UNL A   1      32.046  26.538  22.977  1.00  0.00     0.364 C 
BRANCH   7   8
ATOM      8  N   UNL A   1      32.115  25.749  24.243  1.00  0.00    -0.321 N 
ATOM      9  H   UNL A   1      32.539  26.396  24.908  1.00  0.00     0.349 HD
BRANCH   8  10
ATOM     10  C   UNL A   1      32.964  24.590  24.076  1.00  0.00     0.185 C 
ATOM     11  C   UNL A   1      35.733  20.107  24.975  1.00  0.00     0.008 C 
ATOM     12  C   UNL A   1      35.198  21.518  24.650  1.00  0.00    -0.011 C 
ATOM     13  C   UNL A   1      33.489  21.376  23.766  1.00  0.00     0.010 C 
ATOM     14  C   UNL A   1      35.679  23.277  25.545  1.00  0.00    -0.006 C 
ATOM     15  C   UNL A   1      32.560  22.953  23.234  1.00  0.00     0.065 C 
ATOM     16  C   UNL A   1      34.706  24.855  24.909  1.00  0.00     0.068 C 
ATOM     17  C   UNL A   1      37.006  23.987  26.093  1.00  0.00     0.008 C 
ENDBRANCH   8  10
BRANCH   8  18
ATOM     18  C   UNL A   1      31.102  25.793  25.276  1.00  0.00     0.090 C 
ATOM     19  C   UNL A   1      31.604  26.588  26.486  1.00  0.00     0.078 C 
ATOM     20  C   UNL A   1      29.853  26.482  24.689  1.00  0.00     0.078 C 
ATOM     21  C   UNL A   1      30.678  24.381  25.729  1.00  0.00     0.078 C 
ENDBRANCH   8  18
ENDBRANCH   7   8
ENDBRANCH   4   7
ENDBRANCH   2   3
ENDBRANCH   1   2
BRANCH   1  22
ATOM     22  C   UNL A   1      35.195  30.540  27.710  1.00  0.00     0.118 C 
BRANCH  22  23
ATOM     23  N   UNL A   1      35.480  30.334  29.223  1.00  0.00    -0.352 N 
ATOM     24  C   UNL A   1      36.409  30.016  30.144  1.00  0.00     0.251 C 
ATOM     25  H   UNL A   1      34.638  30.505  29.705  1.00  0.00     0.163 HD
ATOM     26  O   UNL A   1      36.157  30.138  31.342  1.00  0.00    -0.269 OA
BRANCH  24  27
ATOM     27  C   UNL A   1      37.543  29.295  29.688  1.00  0.00     0.039 A 
ATOM     28  C   UNL A   1      37.971  29.613  28.393  1.00  0.00     0.014 A 
ATOM     29  C   UNL A   1      38.303  28.685  30.670  1.00  0.00     0.014 A 
ATOM     30  C   UNL A   1      39.281  29.365  28.091  1.00  0.00     0.010 A 
ATOM     31  C   UNL A   1      39.627  28.548  30.404  1.00  0.00     0.010 A 
ATOM     32  C   UNL A   1      40.093  28.867  29.114  1.00  0.00    -0.014 A 
BRANCH  32  33
ATOM     33  C   UNL A   1      41.458  28.486  28.823  1.00  0.00     0.031 A 
ATOM     34  C   UNL A   1      42.453  29.589  28.865  1.00  0.00     0.074 A 
ATOM     35  C   UNL A   1      41.702  27.225  28.451  1.00  0.00     0.049 A 
ATOM     36  N   UNL A   1      43.694  29.574  28.489  1.00  0.00    -0.248 NA
ATOM     37  C   UNL A   1      41.968  30.909  29.325  1.00  0.00     0.031 C 
ATOM     38  C   UNL A   1      40.711  26.145  28.372  1.00  0.00     0.029 A 
ATOM     39  N   UNL A   1      42.866  26.648  28.055  1.00  0.00    -0.354 N 
ATOM     40  C   UNL A   1      44.129  30.878  28.652  1.00  0.00     0.074 A 
ATOM     41  C   UNL A   1      43.003  31.682  29.055  1.00  0.00     0.031 C 
ATOM     42  C   UNL A   1      41.327  25.022  27.967  1.00  0.00     0.029 A 
ATOM     43  C   UNL A   1      42.733  25.326  27.725  1.00  0.00     0.049 A 
ATOM     44  H   UNL A   1      43.722  27.134  28.009  1.00  0.00     0.167 HD
ATOM     45  C   UNL A   1      45.387  31.336  28.516  1.00  0.00     0.037 A 
ATOM     46  C   UNL A   1      43.671  24.480  27.272  1.00  0.00     0.037 A 
ATOM     47  C   UNL A   1      46.469  30.476  28.144  1.00  0.00     0.049 A 
ATOM     48  C   UNL A   1      45.068  25.022  27.120  1.00  0.00     0.074 A 
ATOM     49  C   UNL A   1      47.806  30.784  28.008  1.00  0.00     0.029 A 
ATOM     50  N   UNL A   1      46.325  29.124  27.849  1.00  0.00    -0.354 N 
ATOM     51  N   UNL A   1      45.505  26.244  27.334  1.00  0.00    -0.248 NA
ATOM     52  C   UNL A   1      46.097  24.079  26.681  1.00  0.00     0.031 C 
ATOM     53  C   UNL A   1      48.461  29.629  27.572  1.00  0.00     0.029 A 
ATOM     54  C   UNL A   1      47.547  28.585  27.507  1.00  0.00     0.049 A 
ATOM     55  H   UNL A   1      45.476  28.627  27.881  1.00  0.00     0.167 HD
ATOM     56  C   UNL A   1      46.871  26.209  27.091  1.00  0.00     0.074 A 
ATOM     57  C   UNL A   1      47.183  24.840  26.723  1.00  0.00     0.031 C 
ATOM     58  C   UNL A   1      47.792  27.204  27.164  1.00  0.00     0.037 A 
BRANCH  45  59
ATOM     59  C   UNL A   1      45.618  32.793  28.769  1.00  0.00     0.058 A 
ATOM     60  C   UNL A   1      45.545  33.747  27.738  1.00  0.00     0.135 A 
ATOM     61  C   UNL A   1      45.943  33.242  30.057  1.00  0.00     0.135 A 
ATOM     62  F   UNL A   1      45.285  33.366  26.477  1.00  0.00    -0.206 F 
ATOM     63  C   UNL A   1      45.803  35.092  27.974  1.00  0.00     0.059 A 
ATOM     64  C   UNL A   1      46.167  34.587  30.324  1.00  0.00     0.059 A 
ATOM     65  F   UNL A   1      46.057  32.367  31.069  1.00  0.00    -0.206 F 
ATOM     66  C   UNL A   1      46.104  35.503  29.273  1.00  0.00     0.060 A 
BRANCH  66  67
ATOM     67  S   UNL A   1      46.392  37.257  29.570  1.00  0.00     0.124 S 
ATOM     68  O   UNL A   1      45.356  37.867  28.744  1.00  0.00    -0.237 OA
ATOM     69  O   UNL A   1      46.198  37.361  31.011  1.00  0.00    -0.237 OA
ATOM     70  O   UNL A   1      47.763  37.459  29.107  1.00  0.00    -0.744 OA
ENDBRANCH  66  67
ENDBRANCH  45  59
BRANCH  46  71
ATOM     71  C   UNL A   1      43.327  23.067  26.985  1.00  0.00     0.058 A 
ATOM     72  C   UNL A   1      43.309  22.586  25.668  1.00  0.00     0.135 A 
ATOM     73  C   UNL A   1      43.040  22.160  28.017  1.00  0.00     0.135 A 
ATOM     74  F   UNL A   1      43.593  23.411  24.649  1.00  0.00    -0.206 F 
ATOM     75  C   UNL A   1      42.984  21.266  25.379  1.00  0.00     0.059 A 
ATOM     76  C   UNL A   1      42.737  20.827  27.755  1.00  0.00     0.059 A 
ATOM     77  F   UNL A   1      43.076  22.561  29.297  1.00  0.00    -0.206 F 
ATOM     78  C   UNL A   1      42.698  20.394  26.431  1.00  0.00     0.060 A 
BRANCH  78  79
ATOM     79  S   UNL A   1      42.295  18.678  26.043  1.00  0.00     0.124 S 
ATOM     80  O   UNL A   1      40.878  18.776  25.714  1.00  0.00    -0.237 OA
ATOM     81  O   UNL A   1      43.194  18.401  24.927  1.00  0.00    -0.237 OA
ATOM     82  O   UNL A   1      42.609  17.971  27.282  1.00  0.00    -0.744 OA
ENDBRANCH  78  79
ENDBRANCH  46  71
BRANCH  58  83
ATOM     83  C   UNL A   1      49.217  26.832  26.886  1.00  0.00     0.058 A 
ATOM     84  C   UNL A   1      50.103  26.493  27.917  1.00  0.00     0.135 A 
ATOM     85  C   UNL A   1      49.667  26.729  25.560  1.00  0.00     0.135 A 
ATOM     86  F   UNL A   1      49.718  26.581  29.200  1.00  0.00    -0.206 F 
ATOM     87  C   UNL A   1      51.401  26.084  27.643  1.00  0.00     0.059 A 
ATOM     88  C   UNL A   1      50.947  26.284  25.262  1.00  0.00     0.059 A 
ATOM     89  F   UNL A   1      48.847  27.027  24.540  1.00  0.00    -0.206 F 
ATOM     90  C   UNL A   1      51.810  25.974  26.312  1.00  0.00     0.060 A 
BRANCH  90  91
ATOM     91  S   UNL A   1      53.481  25.391  25.973  1.00  0.00     0.124 S 
ATOM     92  O   UNL A   1      53.932  26.359  24.978  1.00  0.00    -0.237 OA
ATOM     93  O   UNL A   1      54.115  25.487  27.285  1.00  0.00    -0.237 OA
ATOM     94  O   UNL A   1      53.276  24.033  25.480  1.00  0.00    -0.744 OA
ENDBRANCH  90  91
ENDBRANCH  58  83
ENDBRANCH  32  33
ENDBRANCH  24  27
ENDBRANCH  22  23
ENDBRANCH   1  22
TORSDOF 16
ENDMDL
