MODEL 1
REMARK VINA RESULT:     -13.0      0.000      0.000
REMARK SMILES O=C(Cn1c(=O)[nH]c2ccccc2c1=O)NC[C@H]1CC[C@@H](C(=O)N2CCC(C(=O)NCCCNC(=O)c3ccc(-c4c5nc(c(-c6c(F)cc(S(=O)(=O)[O-])cc6F)c6ccc([nH]6)c(-c6c(F)cc(S(=O)(=O)[O-])cc6F)c6nc(c(-c7c(F)cc(S(=O)(=O)[O-])cc7F)c7ccc4[nH]7)C=C6)C=C5)cc3)CC2)CC1
REMARK SMILES IDX 31 1 30 2 28 3 29 4 27 6 22 7 23 8 24 9 25 10 104 11 26 12
REMARK SMILES IDX 103 13 21 14 18 15 19 16 106 17 20 18 105 19 17 20 16 21
REMARK SMILES IDX 1 22 2 23 3 25 4 26 5 27 14 28 6 29 7 30 13 31 15 32 8 33
REMARK SMILES IDX 12 35 9 36 11 37 10 38 32 39 33 40 34 41 35 42 36 44 37 45
REMARK SMILES IDX 38 46 102 47 39 48 101 49 40 50 41 51 42 52 95 53 43 54
REMARK SMILES IDX 100 55 94 56 96 57 44 58 99 59 93 60 92 61 45 63 79 64 58 65
REMARK SMILES IDX 78 66 59 67 62 68 77 69 97 70 60 71 61 72 76 74 98 75 63 76
REMARK SMILES IDX 46 77 47 78 56 79 48 80 49 81 55 82 57 83 50 84 51 85 52 86
REMARK SMILES IDX 53 87 54 88 80 89 81 90 90 91 82 92 83 93 89 94 91 95 84 96
REMARK SMILES IDX 85 97 86 98 87 99 88 100 64 101 65 102 74 103 66 104 67 105
REMARK SMILES IDX 73 106 75 107 68 108 69 109 70 110 71 111 72 112
REMARK H PARENT 30 5 16 24 7 34 34 43 96 62 62 73
REMARK Flexibility Score: inf
ROOT
ATOM      1  C   UNL A   1      35.637  29.702  27.964  1.00  0.00     0.117 C 
ENDROOT
BRANCH   1   2
ATOM      2  N   UNL A   1      34.341  30.352  27.800  1.00  0.00    -0.356 N 
ATOM      3  C   UNL A   1      33.178  29.898  27.253  1.00  0.00     0.223 C 
ATOM      4  O   UNL A   1      32.210  30.659  27.226  1.00  0.00    -0.275 OA
ATOM      5  H   UNL A   1      34.299  31.275  28.141  1.00  0.00     0.163 HD
BRANCH   3   6
ATOM      6  C   UNL A   1      33.072  28.483  26.707  1.00  0.00     0.082 C 
ATOM      7  C   UNL A   1      30.510  26.665  23.955  1.00  0.00     0.225 C 
ATOM      8  O   UNL A   1      29.365  26.997  24.285  1.00  0.00    -0.275 OA
ATOM      9  N   UNL A   1      31.565  26.909  24.810  1.00  0.00    -0.342 N 
ATOM     10  C   UNL A   1      31.373  26.662  26.229  1.00  0.00     0.120 C 
ATOM     11  C   UNL A   1      32.892  27.319  24.411  1.00  0.00     0.120 C 
ATOM     12  C   UNL A   1      31.711  27.877  27.062  1.00  0.00     0.035 C 
ATOM     13  C   UNL A   1      33.473  28.463  25.228  1.00  0.00     0.035 C 
BRANCH   7  14
ATOM     14  C   UNL A   1      30.683  25.731  22.734  1.00  0.00     0.078 C 
ATOM     15  C   UNL A   1      33.331  24.268  22.539  1.00  0.00     0.008 C 
ATOM     16  C   UNL A   1      32.272  23.962  23.611  1.00  0.00     0.006 C 
ATOM     17  C   UNL A   1      33.092  25.562  21.745  1.00  0.00     0.006 C 
ATOM     18  C   UNL A   1      30.849  24.279  23.188  1.00  0.00     0.014 C 
ATOM     19  C   UNL A   1      31.651  26.057  21.603  1.00  0.00     0.014 C 
BRANCH  15  20
ATOM     20  C   UNL A   1      34.710  24.233  23.236  1.00  0.00     0.119 C 
BRANCH  20  21
ATOM     21  N   UNL A   1      34.964  23.128  24.139  1.00  0.00    -0.354 N 
ATOM     22  O   UNL A   1      36.041  24.374  25.744  1.00  0.00    -0.273 OA
ATOM     23  C   UNL A   1      35.378  23.383  25.436  1.00  0.00     0.240 C 
ATOM     24  H   UNL A   1      34.843  22.201  23.833  1.00  0.00     0.163 HD
BRANCH  23  25
ATOM     25  C   UNL A   1      35.084  22.299  26.473  1.00  0.00     0.230 C 
BRANCH  25  26
ATOM     26  N   UNL A   1      34.407  21.094  25.998  1.00  0.00    -0.250 N 
ATOM     27  C   UNL A   1      33.021  21.126  26.003  1.00  0.00     0.329 A 
ATOM     28  C   UNL A   1      35.127  20.192  25.216  1.00  0.00     0.264 A 
ATOM     29  O   UNL A   1      32.354  22.041  26.482  1.00  0.00    -0.248 OA
ATOM     30  N   UNL A   1      32.373  20.086  25.396  1.00  0.00    -0.307 N 
ATOM     31  C   UNL A   1      34.410  18.991  24.763  1.00  0.00     0.064 A 
ATOM     32  O   UNL A   1      36.299  20.334  24.880  1.00  0.00    -0.268 OA
ATOM     33  C   UNL A   1      33.024  19.001  24.817  1.00  0.00     0.055 A 
ATOM     34  H   UNL A   1      31.389  20.107  25.366  1.00  0.00     0.171 HD
ATOM     35  C   UNL A   1      35.094  17.881  24.260  1.00  0.00     0.016 A 
ATOM     36  C   UNL A   1      32.296  17.930  24.301  1.00  0.00     0.027 A 
ATOM     37  C   UNL A   1      34.372  16.789  23.782  1.00  0.00     0.001 A 
ATOM     38  C   UNL A   1      32.975  16.823  23.784  1.00  0.00     0.002 A 
ENDBRANCH  25  26
ENDBRANCH  23  25
ENDBRANCH  20  21
ENDBRANCH  15  20
ENDBRANCH   7  14
ENDBRANCH   3   6
ENDBRANCH   1   2
BRANCH   1  39
ATOM     39  C   UNL A   1      36.186  29.846  29.372  1.00  0.00     0.042 C 
BRANCH  39  40
ATOM     40  C   UNL A   1      36.177  31.276  29.879  1.00  0.00     0.118 C 
BRANCH  40  41
ATOM     41  N   UNL A   1      36.256  31.361  31.332  1.00  0.00    -0.352 N 
ATOM     42  C   UNL A   1      37.306  31.068  32.171  1.00  0.00     0.251 C 
ATOM     43  H   UNL A   1      35.438  31.676  31.779  1.00  0.00     0.163 HD
ATOM     44  O   UNL A   1      37.126  31.031  33.385  1.00  0.00    -0.269 OA
BRANCH  42  45
ATOM     45  C   UNL A   1      38.638  30.770  31.603  1.00  0.00     0.039 A 
ATOM     46  C   UNL A   1      39.156  31.557  30.575  1.00  0.00     0.014 A 
ATOM     47  C   UNL A   1      39.366  29.676  32.080  1.00  0.00     0.014 A 
ATOM     48  C   UNL A   1      40.280  31.129  29.884  1.00  0.00     0.010 A 
ATOM     49  C   UNL A   1      40.572  29.323  31.464  1.00  0.00     0.010 A 
ATOM     50  C   UNL A   1      41.014  30.016  30.326  1.00  0.00    -0.014 A 
BRANCH  50  51
ATOM     51  C   UNL A   1      42.245  29.635  29.584  1.00  0.00     0.031 A 
ATOM     52  C   UNL A   1      43.440  30.551  29.532  1.00  0.00     0.074 A 
ATOM     53  C   UNL A   1      42.307  28.407  29.030  1.00  0.00     0.049 A 
ATOM     54  N   UNL A   1      44.612  30.338  28.986  1.00  0.00    -0.248 NA
ATOM     55  C   UNL A   1      43.310  31.874  30.162  1.00  0.00     0.031 C 
ATOM     56  C   UNL A   1      41.209  27.435  29.018  1.00  0.00     0.029 A 
ATOM     57  N   UNL A   1      43.338  27.744  28.416  1.00  0.00    -0.354 N 
ATOM     58  C   UNL A   1      45.348  31.499  29.190  1.00  0.00     0.074 A 
ATOM     59  C   UNL A   1      44.483  32.428  29.882  1.00  0.00     0.031 C 
ATOM     60  C   UNL A   1      41.652  26.275  28.514  1.00  0.00     0.029 A 
ATOM     61  C   UNL A   1      43.037  26.441  28.091  1.00  0.00     0.049 A 
ATOM     62  H   UNL A   1      44.210  28.160  28.225  1.00  0.00     0.167 HD
ATOM     63  C   UNL A   1      46.631  31.760  28.842  1.00  0.00     0.037 A 
ATOM     64  C   UNL A   1      43.786  25.483  27.513  1.00  0.00     0.037 A 
ATOM     65  C   UNL A   1      47.495  30.816  28.179  1.00  0.00     0.049 A 
ATOM     66  C   UNL A   1      45.198  25.805  27.122  1.00  0.00     0.074 A 
ATOM     67  C   UNL A   1      48.813  30.982  27.794  1.00  0.00     0.029 A 
ATOM     68  N   UNL A   1      47.132  29.527  27.815  1.00  0.00    -0.354 N 
ATOM     69  N   UNL A   1      45.870  26.915  27.314  1.00  0.00    -0.248 NA
ATOM     70  C   UNL A   1      45.949  24.756  26.422  1.00  0.00     0.031 C 
ATOM     71  C   UNL A   1      49.237  29.809  27.164  1.00  0.00     0.029 A 
ATOM     72  C   UNL A   1      48.197  28.894  27.196  1.00  0.00     0.049 A 
ATOM     73  H   UNL A   1      46.248  29.124  27.973  1.00  0.00     0.167 HD
ATOM     74  C   UNL A   1      47.128  26.695  26.768  1.00  0.00     0.074 A 
ATOM     75  C   UNL A   1      47.129  25.340  26.253  1.00  0.00     0.031 C 
ATOM     76  C   UNL A   1      48.183  27.542  26.695  1.00  0.00     0.037 A 
BRANCH  63  77
ATOM     77  C   UNL A   1      47.189  33.120  29.166  1.00  0.00     0.058 A 
ATOM     78  C   UNL A   1      47.862  33.371  30.371  1.00  0.00     0.135 A 
ATOM     79  C   UNL A   1      47.114  34.164  28.229  1.00  0.00     0.135 A 
ATOM     80  F   UNL A   1      47.953  32.414  31.307  1.00  0.00    -0.206 F 
ATOM     81  C   UNL A   1      48.429  34.614  30.643  1.00  0.00     0.059 A 
ATOM     82  C   UNL A   1      47.694  35.406  28.470  1.00  0.00     0.059 A 
ATOM     83  F   UNL A   1      46.481  33.977  27.059  1.00  0.00    -0.206 F 
ATOM     84  C   UNL A   1      48.342  35.624  29.684  1.00  0.00     0.060 A 
BRANCH  84  85
ATOM     85  S   UNL A   1      49.107  37.221  30.042  1.00  0.00     0.124 S 
ATOM     86  O   UNL A   1      50.027  37.365  28.919  1.00  0.00    -0.237 OA
ATOM     87  O   UNL A   1      47.960  38.123  30.041  1.00  0.00    -0.237 OA
ATOM     88  O   UNL A   1      49.735  37.014  31.344  1.00  0.00    -0.744 OA
ENDBRANCH  84  85
ENDBRANCH  63  77
BRANCH  64  89
ATOM     89  C   UNL A   1      43.206  24.135  27.283  1.00  0.00     0.058 A 
ATOM     90  C   UNL A   1      42.755  23.751  26.012  1.00  0.00     0.135 A 
ATOM     91  C   UNL A   1      43.138  23.186  28.316  1.00  0.00     0.135 A 
ATOM     92  F   UNL A   1      42.797  24.623  24.994  1.00  0.00    -0.206 F 
ATOM     93  C   UNL A   1      42.256  22.474  25.771  1.00  0.00     0.059 A 
ATOM     94  C   UNL A   1      42.668  21.896  28.094  1.00  0.00     0.059 A 
ATOM     95  F   UNL A   1      43.574  23.499  29.545  1.00  0.00    -0.206 F 
ATOM     96  C   UNL A   1      42.223  21.552  26.818  1.00  0.00     0.060 A 
BRANCH  96  97
ATOM     97  S   UNL A   1      41.635  19.878  26.481  1.00  0.00     0.124 S 
ATOM     98  O   UNL A   1      40.195  20.089  26.380  1.00  0.00    -0.237 OA
ATOM     99  O   UNL A   1      42.323  19.557  25.235  1.00  0.00    -0.237 OA
ATOM    100  O   UNL A   1      42.082  19.124  27.648  1.00  0.00    -0.744 OA
ENDBRANCH  96  97
ENDBRANCH  64  89
BRANCH  76 101
ATOM    101  C   UNL A   1      49.438  27.030  26.050  1.00  0.00     0.058 A 
ATOM    102  C   UNL A   1      49.691  27.228  24.685  1.00  0.00     0.135 A 
ATOM    103  C   UNL A   1      50.434  26.414  26.824  1.00  0.00     0.135 A 
ATOM    104  F   UNL A   1      48.765  27.803  23.902  1.00  0.00    -0.206 F 
ATOM    105  C   UNL A   1      50.891  26.829  24.107  1.00  0.00     0.059 A 
ATOM    106  C   UNL A   1      51.650  26.028  26.271  1.00  0.00     0.059 A 
ATOM    107  F   UNL A   1      50.241  26.209  28.136  1.00  0.00    -0.206 F 
ATOM    108  C   UNL A   1      51.868  26.237  24.910  1.00  0.00     0.060 A 
BRANCH 108 109
ATOM    109  S   UNL A   1      53.445  25.785  24.157  1.00  0.00     0.124 S 
ATOM    110  O   UNL A   1      53.627  24.423  24.648  1.00  0.00    -0.237 OA
ATOM    111  O   UNL A   1      53.158  25.912  22.731  1.00  0.00    -0.237 OA
ATOM    112  O   UNL A   1      54.375  26.775  24.693  1.00  0.00    -0.744 OA
ENDBRANCH 108 109
ENDBRANCH  76 101
ENDBRANCH  50  51
ENDBRANCH  42  45
ENDBRANCH  40  41
ENDBRANCH  39  40
ENDBRANCH   1  39
TORSDOF 18
ENDMDL
MODEL 2
REMARK VINA RESULT:     -12.9      4.945     11.345
REMARK SMILES O=C(Cn1c(=O)[nH]c2ccccc2c1=O)NC[C@H]1CC[C@@H](C(=O)N2CCC(C(=O)NCCCNC(=O)c3ccc(-c4c5nc(c(-c6c(F)cc(S(=O)(=O)[O-])cc6F)c6ccc([nH]6)c(-c6c(F)cc(S(=O)(=O)[O-])cc6F)c6nc(c(-c7c(F)cc(S(=O)(=O)[O-])cc7F)c7ccc4[nH]7)C=C6)C=C5)cc3)CC2)CC1
REMARK SMILES IDX 31 1 30 2 28 3 29 4 27 6 22 7 23 8 24 9 25 10 104 11 26 12
REMARK SMILES IDX 103 13 21 14 18 15 19 16 106 17 20 18 105 19 17 20 16 21
REMARK SMILES IDX 1 22 2 23 3 25 4 26 5 27 14 28 6 29 7 30 13 31 15 32 8 33
REMARK SMILES IDX 12 35 9 36 11 37 10 38 32 39 33 40 34 41 35 42 36 44 37 45
REMARK SMILES IDX 38 46 102 47 39 48 101 49 40 50 41 51 42 52 95 53 43 54
REMARK SMILES IDX 100 55 94 56 96 57 44 58 99 59 93 60 92 61 45 63 79 64 58 65
REMARK SMILES IDX 78 66 59 67 62 68 77 69 97 70 60 71 61 72 76 74 98 75 63 76
REMARK SMILES IDX 46 77 47 78 56 79 48 80 49 81 55 82 57 83 50 84 51 85 52 86
REMARK SMILES IDX 53 87 54 88 80 89 81 90 90 91 82 92 83 93 89 94 91 95 84 96
REMARK SMILES IDX 85 97 86 98 87 99 88 100 64 101 65 102 74 103 66 104 67 105
REMARK SMILES IDX 73 106 75 107 68 108 69 109 70 110 71 111 72 112
REMARK H PARENT 30 5 16 24 7 34 34 43 96 62 62 73
REMARK Flexibility Score: inf
ROOT
ATOM      1  C   UNL A   1      33.352  34.158  28.613  1.00  0.00     0.117 C 
ENDROOT
BRANCH   1   2
ATOM      2  N   UNL A   1      33.260  35.300  29.517  1.00  0.00    -0.356 N 
ATOM      3  C   UNL A   1      33.674  35.453  30.806  1.00  0.00     0.223 C 
ATOM      4  O   UNL A   1      33.467  36.534  31.361  1.00  0.00    -0.275 OA
ATOM      5  H   UNL A   1      32.825  36.095  29.130  1.00  0.00     0.163 HD
BRANCH   3   6
ATOM      6  C   UNL A   1      34.389  34.328  31.536  1.00  0.00     0.082 C 
ATOM      7  C   UNL A   1      37.647  34.227  34.146  1.00  0.00     0.225 C 
ATOM      8  O   UNL A   1      38.530  34.912  33.615  1.00  0.00    -0.275 OA
ATOM      9  N   UNL A   1      36.531  33.868  33.419  1.00  0.00    -0.342 N 
ATOM     10  C   UNL A   1      36.713  33.449  32.040  1.00  0.00     0.120 C 
ATOM     11  C   UNL A   1      35.182  33.793  33.932  1.00  0.00     0.120 C 
ATOM     12  C   UNL A   1      35.851  34.248  31.090  1.00  0.00     0.035 C 
ATOM     13  C   UNL A   1      34.130  34.437  33.043  1.00  0.00     0.035 C 
BRANCH   7  14
ATOM     14  C   UNL A   1      37.955  33.555  35.505  1.00  0.00     0.078 C 
ATOM     15  C   UNL A   1      39.996  31.313  35.450  1.00  0.00     0.008 C 
ATOM     16  C   UNL A   1      40.353  32.790  35.212  1.00  0.00     0.006 C 
ATOM     17  C   UNL A   1      38.491  31.001  35.430  1.00  0.00     0.006 C 
ATOM     18  C   UNL A   1      39.419  33.773  35.892  1.00  0.00     0.014 C 
ATOM     19  C   UNL A   1      37.524  32.125  35.810  1.00  0.00     0.014 C 
BRANCH  15  20
ATOM     20  C   UNL A   1      40.799  30.477  34.428  1.00  0.00     0.119 C 
BRANCH  20  21
ATOM     21  N   UNL A   1      42.201  30.252  34.718  1.00  0.00    -0.354 N 
ATOM     22  O   UNL A   1      41.917  29.843  36.963  1.00  0.00    -0.273 OA
ATOM     23  C   UNL A   1      42.570  29.690  35.930  1.00  0.00     0.240 C 
ATOM     24  H   UNL A   1      42.888  30.496  34.058  1.00  0.00     0.163 HD
BRANCH  23  25
ATOM     25  C   UNL A   1      43.915  28.966  35.966  1.00  0.00     0.230 C 
BRANCH  25  26
ATOM     26  N   UNL A   1      43.927  27.567  35.541  1.00  0.00    -0.250 N 
ATOM     27  C   UNL A   1      43.441  26.644  36.453  1.00  0.00     0.329 A 
ATOM     28  C   UNL A   1      44.018  27.289  34.178  1.00  0.00     0.264 A 
ATOM     29  O   UNL A   1      43.122  26.918  37.609  1.00  0.00    -0.248 OA
ATOM     30  N   UNL A   1      43.273  25.361  36.010  1.00  0.00    -0.307 N 
ATOM     31  C   UNL A   1      44.031  25.869  33.793  1.00  0.00     0.064 A 
ATOM     32  O   UNL A   1      44.081  28.135  33.291  1.00  0.00    -0.268 OA
ATOM     33  C   UNL A   1      43.595  24.938  34.724  1.00  0.00     0.055 A 
ATOM     34  H   UNL A   1      42.903  24.698  36.637  1.00  0.00     0.171 HD
ATOM     35  C   UNL A   1      44.437  25.465  32.518  1.00  0.00     0.016 A 
ATOM     36  C   UNL A   1      43.488  23.594  34.371  1.00  0.00     0.027 A 
ATOM     37  C   UNL A   1      44.372  24.115  32.174  1.00  0.00     0.001 A 
ATOM     38  C   UNL A   1      43.880  23.185  33.093  1.00  0.00     0.002 A 
ENDBRANCH  25  26
ENDBRANCH  23  25
ENDBRANCH  20  21
ENDBRANCH  15  20
ENDBRANCH   7  14
ENDBRANCH   3   6
ENDBRANCH   1   2
BRANCH   1  39
ATOM     39  C   UNL A   1      34.683  34.098  27.886  1.00  0.00     0.042 C 
BRANCH  39  40
ATOM     40  C   UNL A   1      35.379  32.756  28.011  1.00  0.00     0.118 C 
BRANCH  40  41
ATOM     41  N   UNL A   1      34.459  31.630  27.899  1.00  0.00    -0.352 N 
ATOM     42  C   UNL A   1      34.725  30.282  27.848  1.00  0.00     0.251 C 
ATOM     43  H   UNL A   1      33.506  31.870  27.854  1.00  0.00     0.163 HD
ATOM     44  O   UNL A   1      33.828  29.491  27.572  1.00  0.00    -0.269 OA
BRANCH  42  45
ATOM     45  C   UNL A   1      36.100  29.795  28.097  1.00  0.00     0.039 A 
ATOM     46  C   UNL A   1      36.476  29.374  29.372  1.00  0.00     0.014 A 
ATOM     47  C   UNL A   1      37.032  29.788  27.055  1.00  0.00     0.014 A 
ATOM     48  C   UNL A   1      37.816  29.158  29.655  1.00  0.00     0.010 A 
ATOM     49  C   UNL A   1      38.362  29.439  27.317  1.00  0.00     0.010 A 
ATOM     50  C   UNL A   1      38.777  29.172  28.631  1.00  0.00    -0.014 A 
BRANCH  50  51
ATOM     51  C   UNL A   1      40.192  28.874  28.978  1.00  0.00     0.031 A 
ATOM     52  C   UNL A   1      40.823  27.553  28.623  1.00  0.00     0.074 A 
ATOM     53  C   UNL A   1      40.934  29.850  29.542  1.00  0.00     0.049 A 
ATOM     54  N   UNL A   1      42.062  27.165  28.796  1.00  0.00    -0.248 NA
ATOM     55  C   UNL A   1      39.961  26.534  28.004  1.00  0.00     0.031 C 
ATOM     56  C   UNL A   1      40.428  31.170  29.931  1.00  0.00     0.029 A 
ATOM     57  N   UNL A   1      42.270  29.911  29.842  1.00  0.00    -0.354 N 
ATOM     58  C   UNL A   1      42.124  25.858  28.325  1.00  0.00     0.074 A 
ATOM     59  C   UNL A   1      40.791  25.506  27.888  1.00  0.00     0.031 C 
ATOM     60  C   UNL A   1      41.453  31.937  30.327  1.00  0.00     0.029 A 
ATOM     61  C   UNL A   1      42.675  31.143  30.300  1.00  0.00     0.049 A 
ATOM     62  H   UNL A   1      42.882  29.145  29.739  1.00  0.00     0.167 HD
ATOM     63  C   UNL A   1      43.198  25.035  28.253  1.00  0.00     0.037 A 
ATOM     64  C   UNL A   1      43.892  31.589  30.665  1.00  0.00     0.037 A 
ATOM     65  C   UNL A   1      44.528  25.407  28.663  1.00  0.00     0.049 A 
ATOM     66  C   UNL A   1      45.060  30.651  30.593  1.00  0.00     0.074 A 
ATOM     67  C   UNL A   1      45.684  24.647  28.621  1.00  0.00     0.029 A 
ATOM     68  N   UNL A   1      44.883  26.645  29.178  1.00  0.00    -0.354 N 
ATOM     69  N   UNL A   1      45.092  29.415  30.156  1.00  0.00    -0.248 NA
ATOM     70  C   UNL A   1      46.350  31.156  31.077  1.00  0.00     0.031 C 
ATOM     71  C   UNL A   1      46.730  25.411  29.144  1.00  0.00     0.029 A 
ATOM     72  C   UNL A   1      46.237  26.664  29.471  1.00  0.00     0.049 A 
ATOM     73  H   UNL A   1      44.265  27.398  29.315  1.00  0.00     0.167 HD
ATOM     74  C   UNL A   1      46.409  28.996  30.302  1.00  0.00     0.074 A 
ATOM     75  C   UNL A   1      47.145  30.118  30.853  1.00  0.00     0.031 C 
ATOM     76  C   UNL A   1      46.956  27.791  30.013  1.00  0.00     0.037 A 
BRANCH  63  77
ATOM     77  C   UNL A   1      42.988  23.645  27.715  1.00  0.00     0.058 A 
ATOM     78  C   UNL A   1      42.563  22.593  28.540  1.00  0.00     0.135 A 
ATOM     79  C   UNL A   1      43.145  23.379  26.345  1.00  0.00     0.135 A 
ATOM     80  F   UNL A   1      42.410  22.787  29.859  1.00  0.00    -0.206 F 
ATOM     81  C   UNL A   1      42.313  21.322  28.029  1.00  0.00     0.059 A 
ATOM     82  C   UNL A   1      42.878  22.123  25.808  1.00  0.00     0.059 A 
ATOM     83  F   UNL A   1      43.550  24.350  25.510  1.00  0.00    -0.206 F 
ATOM     84  C   UNL A   1      42.470  21.098  26.659  1.00  0.00     0.060 A 
BRANCH  84  85
ATOM     85  S   UNL A   1      42.116  19.450  26.009  1.00  0.00     0.124 S 
ATOM     86  O   UNL A   1      42.934  19.430  24.801  1.00  0.00    -0.237 OA
ATOM     87  O   UNL A   1      42.566  18.584  27.093  1.00  0.00    -0.237 OA
ATOM     88  O   UNL A   1      40.673  19.474  25.788  1.00  0.00    -0.744 OA
ENDBRANCH  84  85
ENDBRANCH  63  77
BRANCH  64  89
ATOM     89  C   UNL A   1      44.054  32.994  31.121  1.00  0.00     0.058 A 
ATOM     90  C   UNL A   1      44.282  34.029  30.203  1.00  0.00     0.135 A 
ATOM     91  C   UNL A   1      43.932  33.338  32.478  1.00  0.00     0.135 A 
ATOM     92  F   UNL A   1      44.409  33.750  28.896  1.00  0.00    -0.206 F 
ATOM     93  C   UNL A   1      44.385  35.355  30.611  1.00  0.00     0.059 A 
ATOM     94  C   UNL A   1      44.006  34.658  32.907  1.00  0.00     0.059 A 
ATOM     95  F   UNL A   1      43.696  32.386  33.393  1.00  0.00    -0.206 F 
ATOM     96  C   UNL A   1      44.239  35.660  31.965  1.00  0.00     0.060 A 
BRANCH  96  97
ATOM     97  S   UNL A   1      44.310  37.390  32.477  1.00  0.00     0.124 S 
ATOM     98  O   UNL A   1      43.280  37.433  33.509  1.00  0.00    -0.237 OA
ATOM     99  O   UNL A   1      45.687  37.515  32.944  1.00  0.00    -0.237 OA
ATOM    100  O   UNL A   1      44.004  38.117  31.249  1.00  0.00    -0.744 OA
ENDBRANCH  96  97
ENDBRANCH  64  89
BRANCH  76 101
ATOM    101  C   UNL A   1      48.425  27.618  30.266  1.00  0.00     0.058 A 
ATOM    102  C   UNL A   1      49.379  27.964  29.298  1.00  0.00     0.135 A 
ATOM    103  C   UNL A   1      48.883  27.184  31.520  1.00  0.00     0.135 A 
ATOM    104  F   UNL A   1      48.989  28.374  28.081  1.00  0.00    -0.206 F 
ATOM    105  C   UNL A   1      50.742  27.883  29.564  1.00  0.00     0.059 A 
ATOM    106  C   UNL A   1      50.241  27.117  31.815  1.00  0.00     0.059 A 
ATOM    107  F   UNL A   1      48.009  26.847  32.481  1.00  0.00    -0.206 F 
ATOM    108  C   UNL A   1      51.162  27.466  30.828  1.00  0.00     0.060 A 
BRANCH 108 109
ATOM    109  S   UNL A   1      52.933  27.429  31.178  1.00  0.00     0.124 S 
ATOM    110  O   UNL A   1      53.358  28.733  30.680  1.00  0.00    -0.237 OA
ATOM    111  O   UNL A   1      52.961  27.264  32.628  1.00  0.00    -0.237 OA
ATOM    112  O   UNL A   1      53.408  26.280  30.413  1.00  0.00    -0.744 OA
ENDBRANCH 108 109
ENDBRANCH  76 101
ENDBRANCH  50  51
ENDBRANCH  42  45
ENDBRANCH  40  41
ENDBRANCH  39  40
ENDBRANCH   1  39
TORSDOF 18
ENDMDL
MODEL 3
REMARK VINA RESULT:     -12.8      5.325     10.557
REMARK SMILES O=C(Cn1c(=O)[nH]c2ccccc2c1=O)NC[C@H]1CC[C@@H](C(=O)N2CCC(C(=O)NCCCNC(=O)c3ccc(-c4c5nc(c(-c6c(F)cc(S(=O)(=O)[O-])cc6F)c6ccc([nH]6)c(-c6c(F)cc(S(=O)(=O)[O-])cc6F)c6nc(c(-c7c(F)cc(S(=O)(=O)[O-])cc7F)c7ccc4[nH]7)C=C6)C=C5)cc3)CC2)CC1
REMARK SMILES IDX 31 1 30 2 28 3 29 4 27 6 22 7 23 8 24 9 25 10 104 11 26 12
REMARK SMILES IDX 103 13 21 14 18 15 19 16 106 17 20 18 105 19 17 20 16 21
REMARK SMILES IDX 1 22 2 23 3 25 4 26 5 27 14 28 6 29 7 30 13 31 15 32 8 33
REMARK SMILES IDX 12 35 9 36 11 37 10 38 32 39 33 40 34 41 35 42 36 44 37 45
REMARK SMILES IDX 38 46 102 47 39 48 101 49 40 50 41 51 42 52 95 53 43 54
REMARK SMILES IDX 100 55 94 56 96 57 44 58 99 59 93 60 92 61 45 63 79 64 58 65
REMARK SMILES IDX 78 66 59 67 62 68 77 69 97 70 60 71 61 72 76 74 98 75 63 76
REMARK SMILES IDX 46 77 47 78 56 79 48 80 49 81 55 82 57 83 50 84 51 85 52 86
REMARK SMILES IDX 53 87 54 88 80 89 81 90 90 91 82 92 83 93 89 94 91 95 84 96
REMARK SMILES IDX 85 97 86 98 87 99 88 100 64 101 65 102 74 103 66 104 67 105
REMARK SMILES IDX 73 106 75 107 68 108 69 109 70 110 71 111 72 112
REMARK H PARENT 30 5 16 24 7 34 34 43 96 62 62 73
REMARK Flexibility Score: inf
ROOT
ATOM      1  C   UNL A   1      32.864  30.132  26.530  1.00  0.00     0.117 C 
ENDROOT
BRANCH   1   2
ATOM      2  N   UNL A   1      31.822  29.615  25.647  1.00  0.00    -0.356 N 
ATOM      3  C   UNL A   1      31.798  28.512  24.847  1.00  0.00     0.223 C 
ATOM      4  O   UNL A   1      30.783  28.297  24.181  1.00  0.00    -0.275 OA
ATOM      5  H   UNL A   1      30.999  30.154  25.626  1.00  0.00     0.163 HD
BRANCH   3   6
ATOM      6  C   UNL A   1      32.982  27.561  24.790  1.00  0.00     0.082 C 
ATOM      7  C   UNL A   1      33.304  23.404  24.559  1.00  0.00     0.225 C 
ATOM      8  O   UNL A   1      32.539  22.955  25.422  1.00  0.00    -0.275 OA
ATOM      9  N   UNL A   1      33.604  24.750  24.547  1.00  0.00    -0.342 N 
ATOM     10  C   UNL A   1      33.854  25.412  25.815  1.00  0.00     0.120 C 
ATOM     11  C   UNL A   1      33.773  25.563  23.363  1.00  0.00     0.120 C 
ATOM     12  C   UNL A   1      32.971  26.625  26.002  1.00  0.00     0.035 C 
ATOM     13  C   UNL A   1      33.057  26.903  23.409  1.00  0.00     0.035 C 
BRANCH   7  14
ATOM     14  C   UNL A   1      34.123  22.404  23.709  1.00  0.00     0.078 C 
ATOM     15  C   UNL A   1      36.877  21.702  24.763  1.00  0.00     0.008 C 
ATOM     16  C   UNL A   1      35.571  21.259  25.445  1.00  0.00     0.006 C 
ATOM     17  C   UNL A   1      36.707  22.771  23.672  1.00  0.00     0.006 C 
ATOM     18  C   UNL A   1      34.392  21.122  24.499  1.00  0.00     0.014 C 
ATOM     19  C   UNL A   1      35.365  22.834  22.938  1.00  0.00     0.014 C 
BRANCH  15  20
ATOM     20  C   UNL A   1      37.854  22.131  25.881  1.00  0.00     0.119 C 
BRANCH  20  21
ATOM     21  N   UNL A   1      39.223  21.666  25.774  1.00  0.00    -0.354 N 
ATOM     22  O   UNL A   1      40.196  23.610  26.522  1.00  0.00    -0.273 OA
ATOM     23  C   UNL A   1      40.243  22.389  26.370  1.00  0.00     0.240 C 
ATOM     24  H   UNL A   1      39.427  20.840  25.280  1.00  0.00     0.163 HD
BRANCH  23  25
ATOM     25  C   UNL A   1      41.513  21.615  26.724  1.00  0.00     0.230 C 
BRANCH  25  26
ATOM     26  N   UNL A   1      42.691  22.403  27.080  1.00  0.00    -0.250 N 
ATOM     27  C   UNL A   1      43.494  22.817  26.029  1.00  0.00     0.329 A 
ATOM     28  C   UNL A   1      42.723  23.023  28.328  1.00  0.00     0.264 A 
ATOM     29  O   UNL A   1      43.337  22.466  24.861  1.00  0.00    -0.248 OA
ATOM     30  N   UNL A   1      44.494  23.703  26.322  1.00  0.00    -0.307 N 
ATOM     31  C   UNL A   1      43.929  23.801  28.650  1.00  0.00     0.064 A 
ATOM     32  O   UNL A   1      41.824  22.968  29.162  1.00  0.00    -0.268 OA
ATOM     33  C   UNL A   1      44.762  24.171  27.604  1.00  0.00     0.055 A 
ATOM     34  H   UNL A   1      45.057  24.028  25.582  1.00  0.00     0.171 HD
ATOM     35  C   UNL A   1      44.216  24.190  29.960  1.00  0.00     0.016 A 
ATOM     36  C   UNL A   1      45.858  24.998  27.843  1.00  0.00     0.027 A 
ATOM     37  C   UNL A   1      45.336  24.983  30.211  1.00  0.00     0.001 A 
ATOM     38  C   UNL A   1      46.143  25.402  29.150  1.00  0.00     0.002 A 
ENDBRANCH  25  26
ENDBRANCH  23  25
ENDBRANCH  20  21
ENDBRANCH  15  20
ENDBRANCH   7  14
ENDBRANCH   3   6
ENDBRANCH   1   2
BRANCH   1  39
ATOM     39  C   UNL A   1      32.435  31.391  27.260  1.00  0.00     0.042 C 
BRANCH  39  40
ATOM     40  C   UNL A   1      33.587  32.325  27.580  1.00  0.00     0.118 C 
BRANCH  40  41
ATOM     41  N   UNL A   1      33.142  33.637  28.034  1.00  0.00    -0.352 N 
ATOM     42  C   UNL A   1      33.501  34.345  29.156  1.00  0.00     0.251 C 
ATOM     43  H   UNL A   1      32.487  34.083  27.449  1.00  0.00     0.163 HD
ATOM     44  O   UNL A   1      32.883  35.361  29.463  1.00  0.00    -0.269 OA
BRANCH  42  45
ATOM     45  C   UNL A   1      34.613  33.862  30.004  1.00  0.00     0.039 A 
ATOM     46  C   UNL A   1      35.879  34.436  29.897  1.00  0.00     0.014 A 
ATOM     47  C   UNL A   1      34.398  32.805  30.892  1.00  0.00     0.014 A 
ATOM     48  C   UNL A   1      36.964  33.822  30.504  1.00  0.00     0.010 A 
ATOM     49  C   UNL A   1      35.476  32.270  31.608  1.00  0.00     0.010 A 
ATOM     50  C   UNL A   1      36.778  32.740  31.381  1.00  0.00    -0.014 A 
BRANCH  50  51
ATOM     51  C   UNL A   1      37.969  32.156  32.053  1.00  0.00     0.031 A 
ATOM     52  C   UNL A   1      38.981  31.347  31.286  1.00  0.00     0.074 A 
ATOM     53  C   UNL A   1      38.176  32.442  33.356  1.00  0.00     0.049 A 
ATOM     54  N   UNL A   1      40.106  30.827  31.710  1.00  0.00    -0.248 NA
ATOM     55  C   UNL A   1      38.699  31.077  29.866  1.00  0.00     0.031 C 
ATOM     56  C   UNL A   1      37.262  33.217  34.200  1.00  0.00     0.029 A 
ATOM     57  N   UNL A   1      39.231  32.163  34.185  1.00  0.00    -0.354 N 
ATOM     58  C   UNL A   1      40.654  30.158  30.622  1.00  0.00     0.074 A 
ATOM     59  C   UNL A   1      39.725  30.308  29.524  1.00  0.00     0.031 C 
ATOM     60  C   UNL A   1      37.836  33.430  35.392  1.00  0.00     0.029 A 
ATOM     61  C   UNL A   1      39.120  32.741  35.428  1.00  0.00     0.049 A 
ATOM     62  H   UNL A   1      39.996  31.603  33.917  1.00  0.00     0.167 HD
ATOM     63  C   UNL A   1      41.831  29.490  30.544  1.00  0.00     0.037 A 
ATOM     64  C   UNL A   1      39.953  32.718  36.486  1.00  0.00     0.037 A 
ATOM     65  C   UNL A   1      42.765  29.372  31.635  1.00  0.00     0.049 A 
ATOM     66  C   UNL A   1      41.241  31.957  36.379  1.00  0.00     0.074 A 
ATOM     67  C   UNL A   1      43.988  28.725  31.653  1.00  0.00     0.029 A 
ATOM     68  N   UNL A   1      42.586  29.922  32.896  1.00  0.00    -0.354 N 
ATOM     69  N   UNL A   1      41.733  31.321  35.343  1.00  0.00    -0.248 NA
ATOM     70  C   UNL A   1      42.077  31.893  37.583  1.00  0.00     0.031 C 
ATOM     71  C   UNL A   1      44.532  28.851  32.934  1.00  0.00     0.029 A 
ATOM     72  C   UNL A   1      43.669  29.616  33.704  1.00  0.00     0.049 A 
ATOM     73  H   UNL A   1      41.804  30.451  33.176  1.00  0.00     0.167 HD
ATOM     74  C   UNL A   1      42.944  30.789  35.767  1.00  0.00     0.074 A 
ATOM     75  C   UNL A   1      43.117  31.192  37.149  1.00  0.00     0.031 C 
ATOM     76  C   UNL A   1      43.828  30.031  35.076  1.00  0.00     0.037 A 
BRANCH  63  77
ATOM     77  C   UNL A   1      42.185  28.830  29.239  1.00  0.00     0.058 A 
ATOM     78  C   UNL A   1      41.841  27.496  28.973  1.00  0.00     0.135 A 
ATOM     79  C   UNL A   1      42.810  29.561  28.215  1.00  0.00     0.135 A 
ATOM     80  F   UNL A   1      41.254  26.747  29.920  1.00  0.00    -0.206 F 
ATOM     81  C   UNL A   1      42.117  26.904  27.743  1.00  0.00     0.059 A 
ATOM     82  C   UNL A   1      43.074  28.997  26.970  1.00  0.00     0.059 A 
ATOM     83  F   UNL A   1      43.161  30.841  28.416  1.00  0.00    -0.206 F 
ATOM     84  C   UNL A   1      42.731  27.665  26.746  1.00  0.00     0.060 A 
BRANCH  84  85
ATOM     85  S   UNL A   1      43.057  26.890  25.147  1.00  0.00     0.124 S 
ATOM     86  O   UNL A   1      42.655  27.944  24.222  1.00  0.00    -0.237 OA
ATOM     87  O   UNL A   1      44.489  26.621  25.217  1.00  0.00    -0.237 OA
ATOM     88  O   UNL A   1      42.200  25.708  25.160  1.00  0.00    -0.744 OA
ENDBRANCH  84  85
ENDBRANCH  63  77
BRANCH  64  89
ATOM     89  C   UNL A   1      39.586  33.449  37.727  1.00  0.00     0.058 A 
ATOM     90  C   UNL A   1      38.683  32.899  38.648  1.00  0.00     0.135 A 
ATOM     91  C   UNL A   1      40.168  34.688  38.041  1.00  0.00     0.135 A 
ATOM     92  F   UNL A   1      38.098  31.719  38.391  1.00  0.00    -0.206 F 
ATOM     93  C   UNL A   1      38.369  33.550  39.837  1.00  0.00     0.059 A 
ATOM     94  C   UNL A   1      39.890  35.345  39.235  1.00  0.00     0.059 A 
ATOM     95  F   UNL A   1      41.051  35.248  37.200  1.00  0.00    -0.206 F 
ATOM     96  C   UNL A   1      38.983  34.770  40.124  1.00  0.00     0.060 A 
BRANCH  96  97
ATOM     97  S   UNL A   1      38.619  35.575  41.699  1.00  0.00     0.124 S 
ATOM     98  O   UNL A   1      37.236  35.169  41.923  1.00  0.00    -0.237 OA
ATOM     99  O   UNL A   1      39.612  34.977  42.586  1.00  0.00    -0.237 OA
ATOM    100  O   UNL A   1      38.823  36.990  41.407  1.00  0.00    -0.744 OA
ENDBRANCH  96  97
ENDBRANCH  64  89
BRANCH  76 101
ATOM    101  C   UNL A   1      45.075  29.596  35.789  1.00  0.00     0.058 A 
ATOM    102  C   UNL A   1      45.141  28.367  36.463  1.00  0.00     0.135 A 
ATOM    103  C   UNL A   1      46.240  30.377  35.724  1.00  0.00     0.135 A 
ATOM    104  F   UNL A   1      44.050  27.591  36.560  1.00  0.00    -0.206 F 
ATOM    105  C   UNL A   1      46.321  27.927  37.051  1.00  0.00     0.059 A 
ATOM    106  C   UNL A   1      47.437  29.945  36.286  1.00  0.00     0.059 A 
ATOM    107  F   UNL A   1      46.229  31.557  35.085  1.00  0.00    -0.206 F 
ATOM    108  C   UNL A   1      47.466  28.720  36.951  1.00  0.00     0.060 A 
BRANCH 108 109
ATOM    109  S   UNL A   1      49.006  28.103  37.663  1.00  0.00     0.124 S 
ATOM    110  O   UNL A   1      48.920  28.604  39.030  1.00  0.00    -0.237 OA
ATOM    111  O   UNL A   1      48.866  26.659  37.507  1.00  0.00    -0.237 OA
ATOM    112  O   UNL A   1      50.037  28.720  36.833  1.00  0.00    -0.744 OA
ENDBRANCH 108 109
ENDBRANCH  76 101
ENDBRANCH  50  51
ENDBRANCH  42  45
ENDBRANCH  40  41
ENDBRANCH  39  40
ENDBRANCH   1  39
TORSDOF 18
ENDMDL
