MODEL 1
REMARK VINA RESULT:     -11.8      0.000      0.000
REMARK SMILES Cc1occc1C(=O)NN1C(=O)/C(=C\c2ccc(O[C@H](C)C(=O)NCCCNC(=O)c3ccc(-c4c5nc(c(-c6c(F)cc(S(=O)(=O)[O-])cc6F)c6ccc([nH]6)c(-c6c(F)cc(S(=O)(=O)[O-])cc6F)c6nc(c(-c7c(F)cc(S(=O)(=O)[O-])cc7F)c7ccc4[nH]7)C=C6)C=C5)cc3)cc2)SC1=S
REMARK SMILES IDX 25 1 24 2 22 3 23 4 20 6 21 7 19 8 18 9 15 10 16 11 98 12
REMARK SMILES IDX 17 13 97 14 14 15 10 16 11 17 100 18 12 19 13 20 99 21
REMARK SMILES IDX 101 22 9 23 7 24 8 25 6 27 1 28 2 29 3 30 4 31 5 32 26 33
REMARK SMILES IDX 27 34 28 35 29 36 30 38 31 39 32 40 96 41 33 42 95 43 34 44
REMARK SMILES IDX 35 45 36 46 89 47 37 48 94 49 88 50 90 51 38 52 93 53 87 54
REMARK SMILES IDX 86 55 39 57 73 58 52 59 72 60 53 61 56 62 71 63 91 64 54 65
REMARK SMILES IDX 55 66 70 68 92 69 57 70 40 71 41 72 50 73 42 74 43 75 49 76
REMARK SMILES IDX 51 77 44 78 45 79 46 80 47 81 48 82 74 83 75 84 84 85 76 86
REMARK SMILES IDX 77 87 83 88 85 89 78 90 79 91 80 92 81 93 82 94 58 95 59 96
REMARK SMILES IDX 68 97 60 98 61 99 67 100 69 101 62 102 63 103 64 104 65 105
REMARK SMILES IDX 66 106
REMARK H PARENT 24 5 9 26 28 37 90 56 56 67
REMARK Flexibility Score: inf
ROOT
ATOM      1  C   UNL A   1      34.519  34.042  28.154  1.00  0.00     0.118 C 
ENDROOT
BRANCH   1   2
ATOM      2  N   UNL A   1      34.895  32.993  29.075  1.00  0.00    -0.353 N 
ATOM      3  C   UNL A   1      35.029  31.653  28.898  1.00  0.00     0.260 C 
ATOM      4  O   UNL A   1      35.545  31.033  29.838  1.00  0.00    -0.271 OA
ATOM      5  H   UNL A   1      35.089  33.304  29.988  1.00  0.00     0.163 HD
BRANCH   3   6
ATOM      6  C   UNL A   1      34.487  30.869  27.669  1.00  0.00     0.258 C 
ATOM      7  C   UNL A   1      35.433  29.711  27.358  1.00  0.00     0.064 C 
BRANCH   6   8
ATOM      8  O   UNL A   1      33.095  30.690  27.453  1.00  0.00    -0.481 OA
BRANCH   8   9
ATOM      9  C   UNL A   1      32.499  29.621  26.865  1.00  0.00     0.120 A 
ATOM     10  C   UNL A   1      31.173  27.625  25.380  1.00  0.00    -0.024 A 
ATOM     11  C   UNL A   1      31.475  27.436  26.731  1.00  0.00     0.012 A 
ATOM     12  C   UNL A   1      31.540  28.822  24.765  1.00  0.00     0.012 A 
ATOM     13  C   UNL A   1      32.140  28.422  27.462  1.00  0.00     0.047 A 
ATOM     14  C   UNL A   1      32.218  29.800  25.503  1.00  0.00     0.047 A 
BRANCH  10  15
ATOM     15  C   UNL A   1      30.555  26.500  24.677  1.00  0.00     0.029 C 
ATOM     16  N   UNL A   1      33.028  24.301  23.173  1.00  0.00    -0.198 N 
ATOM     17  C   UNL A   1      32.720  25.452  23.883  1.00  0.00     0.285 C 
ATOM     18  C   UNL A   1      32.045  23.350  23.004  1.00  0.00     0.168 C 
ATOM     19  O   UNL A   1      33.538  26.272  24.259  1.00  0.00    -0.266 OA
ATOM     20  C   UNL A   1      31.245  25.508  24.101  1.00  0.00     0.082 C 
ATOM     21  S   UNL A   1      30.510  24.045  23.532  1.00  0.00    -0.052 SA
ATOM     22  S   UNL A   1      32.206  21.802  22.410  1.00  0.00    -0.050 S 
BRANCH  16  23
ATOM     23  N   UNL A   1      34.369  24.101  22.874  1.00  0.00    -0.254 N 
ATOM     24  C   UNL A   1      35.237  23.237  23.499  1.00  0.00     0.273 C 
ATOM     25  O   UNL A   1      36.302  23.004  22.922  1.00  0.00    -0.267 OA
ATOM     26  H   UNL A   1      34.738  24.635  22.134  1.00  0.00     0.192 HD
BRANCH  24  27
ATOM     27  C   UNL A   1      35.011  22.711  24.842  1.00  0.00     0.082 A 
ATOM     28  C   UNL A   1      34.662  20.063  24.820  1.00  0.00     0.088 C 
ATOM     29  C   UNL A   1      34.766  21.439  25.345  1.00  0.00     0.113 A 
ATOM     30  O   UNL A   1      34.635  21.488  26.706  1.00  0.00    -0.469 OA
ATOM     31  C   UNL A   1      34.850  22.761  27.098  1.00  0.00     0.196 A 
ATOM     32  C   UNL A   1      35.111  23.545  26.008  1.00  0.00     0.056 A 
ENDBRANCH  24  27
ENDBRANCH  16  23
ENDBRANCH  10  15
ENDBRANCH   8   9
ENDBRANCH   6   8
ENDBRANCH   3   6
ENDBRANCH   1   2
BRANCH   1  33
ATOM     33  C   UNL A   1      33.245  34.773  28.563  1.00  0.00     0.042 C 
BRANCH  33  34
ATOM     34  C   UNL A   1      33.505  35.950  29.500  1.00  0.00     0.118 C 
BRANCH  34  35
ATOM     35  N   UNL A   1      32.641  35.911  30.675  1.00  0.00    -0.352 N 
ATOM     36  C   UNL A   1      32.784  35.257  31.872  1.00  0.00     0.251 C 
ATOM     37  H   UNL A   1      31.817  36.444  30.595  1.00  0.00     0.163 HD
ATOM     38  O   UNL A   1      31.823  35.197  32.635  1.00  0.00    -0.269 OA
BRANCH  36  39
ATOM     39  C   UNL A   1      34.065  34.617  32.245  1.00  0.00     0.039 A 
ATOM     40  C   UNL A   1      35.219  35.405  32.286  1.00  0.00     0.014 A 
ATOM     41  C   UNL A   1      34.147  33.247  32.502  1.00  0.00     0.014 A 
ATOM     42  C   UNL A   1      36.444  34.829  32.635  1.00  0.00     0.010 A 
ATOM     43  C   UNL A   1      35.351  32.689  32.920  1.00  0.00     0.010 A 
ATOM     44  C   UNL A   1      36.513  33.472  32.984  1.00  0.00    -0.014 A 
BRANCH  44  45
ATOM     45  C   UNL A   1      37.791  32.848  33.408  1.00  0.00     0.031 A 
ATOM     46  C   UNL A   1      38.314  33.073  34.800  1.00  0.00     0.074 A 
ATOM     47  C   UNL A   1      38.509  32.134  32.519  1.00  0.00     0.049 A 
ATOM     48  N   UNL A   1      39.447  32.689  35.330  1.00  0.00    -0.248 NA
ATOM     49  C   UNL A   1      37.463  33.857  35.709  1.00  0.00     0.031 C 
ATOM     50  C   UNL A   1      38.122  31.880  31.129  1.00  0.00     0.029 A 
ATOM     51  N   UNL A   1      39.717  31.501  32.647  1.00  0.00    -0.354 N 
ATOM     52  C   UNL A   1      39.453  33.197  36.623  1.00  0.00     0.074 A 
ATOM     53  C   UNL A   1      38.233  33.960  36.781  1.00  0.00     0.031 C 
ATOM     54  C   UNL A   1      39.062  31.123  30.542  1.00  0.00     0.029 A 
ATOM     55  C   UNL A   1      40.135  30.871  31.498  1.00  0.00     0.049 A 
ATOM     56  H   UNL A   1      40.238  31.496  33.483  1.00  0.00     0.167 HD
ATOM     57  C   UNL A   1      40.377  33.024  37.599  1.00  0.00     0.037 A 
ATOM     58  C   UNL A   1      41.259  30.174  31.244  1.00  0.00     0.037 A 
ATOM     59  C   UNL A   1      41.575  32.242  37.440  1.00  0.00     0.049 A 
ATOM     60  C   UNL A   1      42.274  29.997  32.339  1.00  0.00     0.074 A 
ATOM     61  C   UNL A   1      42.555  31.966  38.377  1.00  0.00     0.029 A 
ATOM     62  N   UNL A   1      41.955  31.607  36.266  1.00  0.00    -0.354 N 
ATOM     63  N   UNL A   1      42.242  30.449  33.571  1.00  0.00    -0.248 NA
ATOM     64  C   UNL A   1      43.472  29.213  32.014  1.00  0.00     0.031 C 
ATOM     65  C   UNL A   1      43.545  31.191  37.759  1.00  0.00     0.029 A 
ATOM     66  C   UNL A   1      43.161  30.951  36.450  1.00  0.00     0.049 A 
ATOM     67  H   UNL A   1      41.443  31.621  35.425  1.00  0.00     0.167 HD
ATOM     68  C   UNL A   1      43.405  29.983  34.176  1.00  0.00     0.074 A 
ATOM     69  C   UNL A   1      44.111  29.208  33.177  1.00  0.00     0.031 C 
ATOM     70  C   UNL A   1      43.845  30.178  35.443  1.00  0.00     0.037 A 
BRANCH  57  71
ATOM     71  C   UNL A   1      40.119  33.691  38.921  1.00  0.00     0.058 A 
ATOM     72  C   UNL A   1      39.273  33.115  39.883  1.00  0.00     0.135 A 
ATOM     73  C   UNL A   1      40.725  34.918  39.237  1.00  0.00     0.135 A 
ATOM     74  F   UNL A   1      38.655  31.951  39.628  1.00  0.00    -0.206 F 
ATOM     75  C   UNL A   1      39.002  33.751  41.090  1.00  0.00     0.059 A 
ATOM     76  C   UNL A   1      40.491  35.559  40.450  1.00  0.00     0.059 A 
ATOM     77  F   UNL A   1      41.544  35.513  38.356  1.00  0.00    -0.206 F 
ATOM     78  C   UNL A   1      39.611  34.976  41.362  1.00  0.00     0.060 A 
BRANCH  78  79
ATOM     79  S   UNL A   1      39.234  35.802  42.922  1.00  0.00     0.124 S 
ATOM     80  O   UNL A   1      37.800  35.552  43.042  1.00  0.00    -0.237 OA
ATOM     81  O   UNL A   1      40.083  35.086  43.870  1.00  0.00    -0.237 OA
ATOM     82  O   UNL A   1      39.610  37.189  42.674  1.00  0.00    -0.744 OA
ENDBRANCH  78  79
ENDBRANCH  57  71
BRANCH  58  83
ATOM     83  C   UNL A   1      41.463  29.564  29.905  1.00  0.00     0.058 A 
ATOM     84  C   UNL A   1      42.257  30.202  28.940  1.00  0.00     0.135 A 
ATOM     85  C   UNL A   1      40.898  28.323  29.572  1.00  0.00     0.135 A 
ATOM     86  F   UNL A   1      42.814  31.392  29.212  1.00  0.00    -0.206 F 
ATOM     87  C   UNL A   1      42.476  29.638  27.688  1.00  0.00     0.059 A 
ATOM     88  C   UNL A   1      41.122  27.729  28.334  1.00  0.00     0.059 A 
ATOM     89  F   UNL A   1      40.147  27.663  30.466  1.00  0.00    -0.206 F 
ATOM     90  C   UNL A   1      41.906  28.398  27.395  1.00  0.00     0.060 A 
BRANCH  90  91
ATOM     91  S   UNL A   1      42.251  27.643  25.791  1.00  0.00     0.124 S 
ATOM     92  O   UNL A   1      41.139  26.709  25.662  1.00  0.00    -0.237 OA
ATOM     93  O   UNL A   1      42.224  28.797  24.897  1.00  0.00    -0.237 OA
ATOM     94  O   UNL A   1      43.566  27.040  25.983  1.00  0.00    -0.744 OA
ENDBRANCH  90  91
ENDBRANCH  58  83
BRANCH  70  95
ATOM     95  C   UNL A   1      45.137  29.517  35.830  1.00  0.00     0.058 A 
ATOM     96  C   UNL A   1      45.169  28.221  36.365  1.00  0.00     0.135 A 
ATOM     97  C   UNL A   1      46.361  30.171  35.616  1.00  0.00     0.135 A 
ATOM     98  F   UNL A   1      44.026  27.557  36.596  1.00  0.00    -0.206 F 
ATOM     99  C   UNL A   1      46.370  27.602  36.697  1.00  0.00     0.059 A 
ATOM    100  C   UNL A   1      47.576  29.563  35.917  1.00  0.00     0.059 A 
ATOM    101  F   UNL A   1      46.384  31.409  35.097  1.00  0.00    -0.206 F 
ATOM    102  C   UNL A   1      47.569  28.281  36.467  1.00  0.00     0.060 A 
BRANCH 102 103
ATOM    103  S   UNL A   1      49.123  27.456  36.867  1.00  0.00     0.124 S 
ATOM    104  O   UNL A   1      48.766  26.730  38.081  1.00  0.00    -0.237 OA
ATOM    105  O   UNL A   1      49.357  26.636  35.682  1.00  0.00    -0.237 OA
ATOM    106  O   UNL A   1      50.058  28.563  37.048  1.00  0.00    -0.744 OA
ENDBRANCH 102 103
ENDBRANCH  70  95
ENDBRANCH  44  45
ENDBRANCH  36  39
ENDBRANCH  34  35
ENDBRANCH  33  34
ENDBRANCH   1  33
TORSDOF 18
ENDMDL
MODEL 2
REMARK VINA RESULT:     -11.6      2.897      9.603
REMARK SMILES Cc1occc1C(=O)NN1C(=O)/C(=C\c2ccc(O[C@H](C)C(=O)NCCCNC(=O)c3ccc(-c4c5nc(c(-c6c(F)cc(S(=O)(=O)[O-])cc6F)c6ccc([nH]6)c(-c6c(F)cc(S(=O)(=O)[O-])cc6F)c6nc(c(-c7c(F)cc(S(=O)(=O)[O-])cc7F)c7ccc4[nH]7)C=C6)C=C5)cc3)cc2)SC1=S
REMARK SMILES IDX 25 1 24 2 22 3 23 4 20 6 21 7 19 8 18 9 15 10 16 11 98 12
REMARK SMILES IDX 17 13 97 14 14 15 10 16 11 17 100 18 12 19 13 20 99 21
REMARK SMILES IDX 101 22 9 23 7 24 8 25 6 27 1 28 2 29 3 30 4 31 5 32 26 33
REMARK SMILES IDX 27 34 28 35 29 36 30 38 31 39 32 40 96 41 33 42 95 43 34 44
REMARK SMILES IDX 35 45 36 46 89 47 37 48 94 49 88 50 90 51 38 52 93 53 87 54
REMARK SMILES IDX 86 55 39 57 73 58 52 59 72 60 53 61 56 62 71 63 91 64 54 65
REMARK SMILES IDX 55 66 70 68 92 69 57 70 40 71 41 72 50 73 42 74 43 75 49 76
REMARK SMILES IDX 51 77 44 78 45 79 46 80 47 81 48 82 74 83 75 84 84 85 76 86
REMARK SMILES IDX 77 87 83 88 85 89 78 90 79 91 80 92 81 93 82 94 58 95 59 96
REMARK SMILES IDX 68 97 60 98 61 99 67 100 69 101 62 102 63 103 64 104 65 105
REMARK SMILES IDX 66 106
REMARK H PARENT 24 5 9 26 28 37 90 56 56 67
REMARK Flexibility Score: inf
ROOT
ATOM      1  C   UNL A   1      42.513  22.571  26.260  1.00  0.00     0.118 C 
ENDROOT
BRANCH   1   2
ATOM      2  N   UNL A   1      41.863  21.493  26.971  1.00  0.00    -0.353 N 
ATOM      3  C   UNL A   1      40.563  21.099  27.005  1.00  0.00     0.260 C 
ATOM      4  O   UNL A   1      40.341  20.019  27.570  1.00  0.00    -0.271 OA
ATOM      5  H   UNL A   1      42.468  20.948  27.525  1.00  0.00     0.163 HD
BRANCH   3   6
ATOM      6  C   UNL A   1      39.372  21.956  26.491  1.00  0.00     0.258 C 
ATOM      7  C   UNL A   1      39.517  23.382  27.019  1.00  0.00     0.064 C 
BRANCH   6   8
ATOM      8  O   UNL A   1      38.815  21.760  25.200  1.00  0.00    -0.481 OA
BRANCH   8   9
ATOM      9  C   UNL A   1      37.502  21.845  24.864  1.00  0.00     0.120 A 
ATOM     10  C   UNL A   1      34.846  22.355  24.066  1.00  0.00    -0.024 A 
ATOM     11  C   UNL A   1      35.155  21.267  24.886  1.00  0.00     0.012 A 
ATOM     12  C   UNL A   1      35.875  23.194  23.638  1.00  0.00     0.012 A 
ATOM     13  C   UNL A   1      36.472  21.011  25.273  1.00  0.00     0.047 A 
ATOM     14  C   UNL A   1      37.194  22.922  24.020  1.00  0.00     0.047 A 
BRANCH  10  15
ATOM     15  C   UNL A   1      33.451  22.489  23.643  1.00  0.00     0.029 C 
ATOM     16  N   UNL A   1      31.659  24.970  25.605  1.00  0.00    -0.198 N 
ATOM     17  C   UNL A   1      32.816  24.250  25.351  1.00  0.00     0.285 C 
ATOM     18  C   UNL A   1      30.657  24.960  24.660  1.00  0.00     0.168 C 
ATOM     19  O   UNL A   1      33.838  24.327  26.010  1.00  0.00    -0.266 OA
ATOM     20  C   UNL A   1      32.597  23.385  24.155  1.00  0.00     0.082 C 
ATOM     21  S   UNL A   1      31.051  23.732  23.453  1.00  0.00    -0.052 SA
ATOM     22  S   UNL A   1      29.289  25.908  24.603  1.00  0.00    -0.050 S 
BRANCH  16  23
ATOM     23  N   UNL A   1      31.691  25.822  26.701  1.00  0.00    -0.254 N 
ATOM     24  C   UNL A   1      31.846  27.188  26.684  1.00  0.00     0.273 C 
ATOM     25  O   UNL A   1      31.577  27.791  27.726  1.00  0.00    -0.267 OA
ATOM     26  H   UNL A   1      31.591  25.402  27.586  1.00  0.00     0.192 HD
BRANCH  24  27
ATOM     27  C   UNL A   1      32.429  27.912  25.558  1.00  0.00     0.082 A 
ATOM     28  C   UNL A   1      30.659  29.552  24.415  1.00  0.00     0.088 C 
ATOM     29  C   UNL A   1      31.930  28.840  24.653  1.00  0.00     0.113 A 
ATOM     30  O   UNL A   1      32.913  29.224  23.782  1.00  0.00    -0.469 OA
ATOM     31  C   UNL A   1      34.055  28.603  24.145  1.00  0.00     0.196 A 
ATOM     32  C   UNL A   1      33.826  27.812  25.238  1.00  0.00     0.056 A 
ENDBRANCH  24  27
ENDBRANCH  16  23
ENDBRANCH  10  15
ENDBRANCH   8   9
ENDBRANCH   6   8
ENDBRANCH   3   6
ENDBRANCH   1   2
BRANCH   1  33
ATOM     33  C   UNL A   1      43.899  22.901  26.805  1.00  0.00     0.042 C 
BRANCH  33  34
ATOM     34  C   UNL A   1      44.138  24.401  26.960  1.00  0.00     0.118 C 
BRANCH  34  35
ATOM     35  N   UNL A   1      43.643  25.152  25.812  1.00  0.00    -0.352 N 
ATOM     36  C   UNL A   1      42.810  26.239  25.743  1.00  0.00     0.251 C 
ATOM     37  H   UNL A   1      43.960  24.823  24.939  1.00  0.00     0.163 HD
ATOM     38  O   UNL A   1      42.356  26.573  24.652  1.00  0.00    -0.269 OA
BRANCH  36  39
ATOM     39  C   UNL A   1      42.444  26.999  26.959  1.00  0.00     0.039 A 
ATOM     40  C   UNL A   1      41.530  26.432  27.853  1.00  0.00     0.014 A 
ATOM     41  C   UNL A   1      42.951  28.279  27.198  1.00  0.00     0.014 A 
ATOM     42  C   UNL A   1      41.166  27.126  29.010  1.00  0.00     0.010 A 
ATOM     43  C   UNL A   1      42.644  28.937  28.385  1.00  0.00     0.010 A 
ATOM     44  C   UNL A   1      41.744  28.371  29.300  1.00  0.00    -0.014 A 
BRANCH  44  45
ATOM     45  C   UNL A   1      41.413  29.105  30.547  1.00  0.00     0.031 A 
ATOM     46  C   UNL A   1      40.242  30.048  30.578  1.00  0.00     0.074 A 
ATOM     47  C   UNL A   1      42.206  28.969  31.628  1.00  0.00     0.049 A 
ATOM     48  N   UNL A   1      39.846  30.843  31.539  1.00  0.00    -0.248 NA
ATOM     49  C   UNL A   1      39.424  30.129  29.357  1.00  0.00     0.031 C 
ATOM     50  C   UNL A   1      43.391  28.112  31.704  1.00  0.00     0.029 A 
ATOM     51  N   UNL A   1      42.141  29.556  32.864  1.00  0.00    -0.354 N 
ATOM     52  C   UNL A   1      38.747  31.528  31.035  1.00  0.00     0.074 A 
ATOM     53  C   UNL A   1      38.571  31.094  29.665  1.00  0.00     0.031 C 
ATOM     54  C   UNL A   1      43.926  28.210  32.931  1.00  0.00     0.029 A 
ATOM     55  C   UNL A   1      43.148  29.164  33.715  1.00  0.00     0.049 A 
ATOM     56  H   UNL A   1      41.440  30.197  33.121  1.00  0.00     0.167 HD
ATOM     57  C   UNL A   1      37.943  32.420  31.662  1.00  0.00     0.037 A 
ATOM     58  C   UNL A   1      43.415  29.536  34.981  1.00  0.00     0.037 A 
ATOM     59  C   UNL A   1      38.111  32.828  33.033  1.00  0.00     0.049 A 
ATOM     60  C   UNL A   1      42.512  30.530  35.658  1.00  0.00     0.074 A 
ATOM     61  C   UNL A   1      37.328  33.691  33.778  1.00  0.00     0.029 A 
ATOM     62  N   UNL A   1      39.133  32.396  33.866  1.00  0.00    -0.354 N 
ATOM     63  N   UNL A   1      41.452  31.137  35.180  1.00  0.00    -0.248 NA
ATOM     64  C   UNL A   1      42.838  30.887  37.045  1.00  0.00     0.031 C 
ATOM     65  C   UNL A   1      37.896  33.807  35.053  1.00  0.00     0.029 A 
ATOM     66  C   UNL A   1      39.010  32.986  35.113  1.00  0.00     0.049 A 
ATOM     67  H   UNL A   1      39.843  31.765  33.608  1.00  0.00     0.167 HD
ATOM     68  C   UNL A   1      40.968  31.929  36.216  1.00  0.00     0.074 A 
ATOM     69  C   UNL A   1      41.848  31.716  37.347  1.00  0.00     0.031 C 
ATOM     70  C   UNL A   1      39.894  32.755  36.229  1.00  0.00     0.037 A 
BRANCH  57  71
ATOM     71  C   UNL A   1      36.810  33.008  30.868  1.00  0.00     0.058 A 
ATOM     72  C   UNL A   1      37.007  34.095  30.000  1.00  0.00     0.135 A 
ATOM     73  C   UNL A   1      35.512  32.481  30.970  1.00  0.00     0.135 A 
ATOM     74  F   UNL A   1      38.223  34.648  29.876  1.00  0.00    -0.206 F 
ATOM     75  C   UNL A   1      35.952  34.665  29.295  1.00  0.00     0.059 A 
ATOM     76  C   UNL A   1      34.446  33.017  30.252  1.00  0.00     0.059 A 
ATOM     77  F   UNL A   1      35.267  31.442  31.782  1.00  0.00    -0.206 F 
ATOM     78  C   UNL A   1      34.673  34.124  29.433  1.00  0.00     0.060 A 
BRANCH  78  79
ATOM     79  S   UNL A   1      33.309  34.887  28.531  1.00  0.00     0.124 S 
ATOM     80  O   UNL A   1      32.602  35.577  29.605  1.00  0.00    -0.237 OA
ATOM     81  O   UNL A   1      34.005  35.746  27.577  1.00  0.00    -0.237 OA
ATOM     82  O   UNL A   1      32.608  33.749  27.947  1.00  0.00    -0.744 OA
ENDBRANCH  78  79
ENDBRANCH  57  71
BRANCH  58  83
ATOM     83  C   UNL A   1      44.569  28.936  35.700  1.00  0.00     0.058 A 
ATOM     84  C   UNL A   1      45.841  29.520  35.626  1.00  0.00     0.135 A 
ATOM     85  C   UNL A   1      44.420  27.789  36.496  1.00  0.00     0.135 A 
ATOM     86  F   UNL A   1      46.032  30.615  34.873  1.00  0.00    -0.206 F 
ATOM     87  C   UNL A   1      46.930  28.986  36.306  1.00  0.00     0.059 A 
ATOM     88  C   UNL A   1      45.489  27.249  37.204  1.00  0.00     0.059 A 
ATOM     89  F   UNL A   1      43.219  27.204  36.615  1.00  0.00    -0.206 F 
ATOM     90  C   UNL A   1      46.743  27.850  37.096  1.00  0.00     0.060 A 
BRANCH  90  91
ATOM     91  S   UNL A   1      48.148  27.202  38.028  1.00  0.00     0.124 S 
ATOM     92  O   UNL A   1      49.083  28.319  37.963  1.00  0.00    -0.237 OA
ATOM     93  O   UNL A   1      47.554  26.940  39.335  1.00  0.00    -0.237 OA
ATOM     94  O   UNL A   1      48.527  26.012  37.271  1.00  0.00    -0.744 OA
ENDBRANCH  90  91
ENDBRANCH  58  83
BRANCH  70  95
ATOM     95  C   UNL A   1      39.591  33.466  37.517  1.00  0.00     0.058 A 
ATOM     96  C   UNL A   1      38.686  32.943  38.453  1.00  0.00     0.135 A 
ATOM     97  C   UNL A   1      40.252  34.662  37.839  1.00  0.00     0.135 A 
ATOM     98  F   UNL A   1      38.022  31.807  38.188  1.00  0.00    -0.206 F 
ATOM     99  C   UNL A   1      38.430  33.592  39.656  1.00  0.00     0.059 A 
ATOM    100  C   UNL A   1      40.031  35.316  39.047  1.00  0.00     0.059 A 
ATOM    101  F   UNL A   1      41.135  35.199  36.981  1.00  0.00    -0.206 F 
ATOM    102  C   UNL A   1      39.109  34.778  39.945  1.00  0.00     0.060 A 
BRANCH 102 103
ATOM    103  S   UNL A   1      38.796  35.594  41.524  1.00  0.00     0.124 S 
ATOM    104  O   UNL A   1      38.960  36.999  41.166  1.00  0.00    -0.237 OA
ATOM    105  O   UNL A   1      37.432  35.173  41.830  1.00  0.00    -0.237 OA
ATOM    106  O   UNL A   1      39.825  35.043  42.400  1.00  0.00    -0.744 OA
ENDBRANCH 102 103
ENDBRANCH  70  95
ENDBRANCH  44  45
ENDBRANCH  36  39
ENDBRANCH  34  35
ENDBRANCH  33  34
ENDBRANCH   1  33
TORSDOF 18
ENDMDL
MODEL 3
REMARK VINA RESULT:     -11.6      5.874     10.279
REMARK SMILES Cc1occc1C(=O)NN1C(=O)/C(=C\c2ccc(O[C@H](C)C(=O)NCCCNC(=O)c3ccc(-c4c5nc(c(-c6c(F)cc(S(=O)(=O)[O-])cc6F)c6ccc([nH]6)c(-c6c(F)cc(S(=O)(=O)[O-])cc6F)c6nc(c(-c7c(F)cc(S(=O)(=O)[O-])cc7F)c7ccc4[nH]7)C=C6)C=C5)cc3)cc2)SC1=S
REMARK SMILES IDX 25 1 24 2 22 3 23 4 20 6 21 7 19 8 18 9 15 10 16 11 98 12
REMARK SMILES IDX 17 13 97 14 14 15 10 16 11 17 100 18 12 19 13 20 99 21
REMARK SMILES IDX 101 22 9 23 7 24 8 25 6 27 1 28 2 29 3 30 4 31 5 32 26 33
REMARK SMILES IDX 27 34 28 35 29 36 30 38 31 39 32 40 96 41 33 42 95 43 34 44
REMARK SMILES IDX 35 45 36 46 89 47 37 48 94 49 88 50 90 51 38 52 93 53 87 54
REMARK SMILES IDX 86 55 39 57 73 58 52 59 72 60 53 61 56 62 71 63 91 64 54 65
REMARK SMILES IDX 55 66 70 68 92 69 57 70 40 71 41 72 50 73 42 74 43 75 49 76
REMARK SMILES IDX 51 77 44 78 45 79 46 80 47 81 48 82 74 83 75 84 84 85 76 86
REMARK SMILES IDX 77 87 83 88 85 89 78 90 79 91 80 92 81 93 82 94 58 95 59 96
REMARK SMILES IDX 68 97 60 98 61 99 67 100 69 101 62 102 63 103 64 104 65 105
REMARK SMILES IDX 66 106
REMARK H PARENT 24 5 9 26 28 37 90 56 56 67
REMARK Flexibility Score: inf
ROOT
ATOM      1  C   UNL A   1      36.040  32.943  29.645  1.00  0.00     0.118 C 
ENDROOT
BRANCH   1   2
ATOM      2  N   UNL A   1      34.968  33.567  28.902  1.00  0.00    -0.353 N 
ATOM      3  C   UNL A   1      33.991  33.034  28.123  1.00  0.00     0.260 C 
ATOM      4  O   UNL A   1      33.102  33.817  27.762  1.00  0.00    -0.271 OA
ATOM      5  H   UNL A   1      34.940  34.548  28.975  1.00  0.00     0.163 HD
BRANCH   3   6
ATOM      6  C   UNL A   1      33.992  31.574  27.587  1.00  0.00     0.258 C 
ATOM      7  C   UNL A   1      35.418  31.028  27.627  1.00  0.00     0.064 C 
BRANCH   6   8
ATOM      8  O   UNL A   1      32.914  30.686  27.842  1.00  0.00    -0.481 OA
BRANCH   8   9
ATOM      9  C   UNL A   1      32.396  29.776  26.978  1.00  0.00     0.120 A 
ATOM     10  C   UNL A   1      31.362  27.646  25.446  1.00  0.00    -0.024 A 
ATOM     11  C   UNL A   1      31.767  28.838  24.840  1.00  0.00     0.012 A 
ATOM     12  C   UNL A   1      31.471  27.519  26.830  1.00  0.00     0.012 A 
ATOM     13  C   UNL A   1      32.270  29.895  25.602  1.00  0.00     0.047 A 
ATOM     14  C   UNL A   1      31.965  28.588  27.587  1.00  0.00     0.047 A 
BRANCH  10  15
ATOM     15  C   UNL A   1      30.767  26.632  24.575  1.00  0.00     0.029 C 
ATOM     16  N   UNL A   1      33.203  24.162  23.487  1.00  0.00    -0.198 N 
ATOM     17  C   UNL A   1      32.901  25.325  24.179  1.00  0.00     0.285 C 
ATOM     18  C   UNL A   1      32.165  23.355  23.074  1.00  0.00     0.168 C 
ATOM     19  O   UNL A   1      33.720  26.019  24.754  1.00  0.00    -0.266 OA
ATOM     20  C   UNL A   1      31.432  25.571  24.098  1.00  0.00     0.082 C 
ATOM     21  S   UNL A   1      30.653  24.234  23.318  1.00  0.00    -0.052 SA
ATOM     22  S   UNL A   1      32.249  21.815  22.445  1.00  0.00    -0.050 S 
BRANCH  16  23
ATOM     23  N   UNL A   1      34.540  23.794  23.453  1.00  0.00    -0.254 N 
ATOM     24  C   UNL A   1      35.146  22.805  24.193  1.00  0.00     0.273 C 
ATOM     25  O   UNL A   1      36.269  22.448  23.830  1.00  0.00    -0.267 OA
ATOM     26  H   UNL A   1      35.118  24.293  22.832  1.00  0.00     0.192 HD
BRANCH  24  27
ATOM     27  C   UNL A   1      34.584  22.279  25.433  1.00  0.00     0.082 A 
ATOM     28  C   UNL A   1      33.754  19.756  25.150  1.00  0.00     0.088 C 
ATOM     29  C   UNL A   1      34.016  21.061  25.789  1.00  0.00     0.113 A 
ATOM     30  O   UNL A   1      33.651  21.079  27.107  1.00  0.00    -0.469 OA
ATOM     31  C   UNL A   1      34.026  22.266  27.626  1.00  0.00     0.196 A 
ATOM     32  C   UNL A   1      34.624  23.028  26.659  1.00  0.00     0.056 A 
ENDBRANCH  24  27
ENDBRANCH  16  23
ENDBRANCH  10  15
ENDBRANCH   8   9
ENDBRANCH   6   8
ENDBRANCH   3   6
ENDBRANCH   1   2
BRANCH   1  33
ATOM     33  C   UNL A   1      36.683  33.872  30.669  1.00  0.00     0.042 C 
BRANCH  33  34
ATOM     34  C   UNL A   1      37.509  33.129  31.715  1.00  0.00     0.118 C 
BRANCH  34  35
ATOM     35  N   UNL A   1      36.865  31.888  32.134  1.00  0.00    -0.352 N 
ATOM     36  C   UNL A   1      37.163  30.581  31.842  1.00  0.00     0.251 C 
ATOM     37  H   UNL A   1      36.088  32.009  32.726  1.00  0.00     0.163 HD
ATOM     38  O   UNL A   1      36.351  29.707  32.134  1.00  0.00    -0.269 OA
BRANCH  36  39
ATOM     39  C   UNL A   1      38.432  30.218  31.174  1.00  0.00     0.039 A 
ATOM     40  C   UNL A   1      38.519  30.351  29.784  1.00  0.00     0.014 A 
ATOM     41  C   UNL A   1      39.511  29.700  31.893  1.00  0.00     0.014 A 
ATOM     42  C   UNL A   1      39.705  30.016  29.126  1.00  0.00     0.010 A 
ATOM     43  C   UNL A   1      40.715  29.435  31.247  1.00  0.00     0.010 A 
ATOM     44  C   UNL A   1      40.822  29.584  29.856  1.00  0.00    -0.014 A 
BRANCH  44  45
ATOM     45  C   UNL A   1      42.108  29.270  29.186  1.00  0.00     0.031 A 
ATOM     46  C   UNL A   1      42.361  27.889  28.647  1.00  0.00     0.074 A 
ATOM     47  C   UNL A   1      43.070  30.212  29.122  1.00  0.00     0.049 A 
ATOM     48  N   UNL A   1      43.448  27.396  28.111  1.00  0.00    -0.248 NA
ATOM     49  C   UNL A   1      41.253  26.925  28.751  1.00  0.00     0.031 C 
ATOM     50  C   UNL A   1      42.955  31.575  29.643  1.00  0.00     0.029 A 
ATOM     51  N   UNL A   1      44.337  30.163  28.601  1.00  0.00    -0.354 N 
ATOM     52  C   UNL A   1      43.162  26.066  27.829  1.00  0.00     0.074 A 
ATOM     53  C   UNL A   1      41.817  25.815  28.302  1.00  0.00     0.031 C 
ATOM     54  C   UNL A   1      44.094  32.240  29.392  1.00  0.00     0.029 A 
ATOM     55  C   UNL A   1      45.034  31.341  28.729  1.00  0.00     0.049 A 
ATOM     56  H   UNL A   1      44.714  29.359  28.174  1.00  0.00     0.167 HD
ATOM     57  C   UNL A   1      43.939  25.144  27.212  1.00  0.00     0.037 A 
ATOM     58  C   UNL A   1      46.288  31.659  28.359  1.00  0.00     0.037 A 
ATOM     59  C   UNL A   1      45.267  25.410  26.723  1.00  0.00     0.049 A 
ATOM     60  C   UNL A   1      47.135  30.620  27.679  1.00  0.00     0.074 A 
ATOM     61  C   UNL A   1      46.123  24.561  26.044  1.00  0.00     0.029 A 
ATOM     62  N   UNL A   1      45.931  26.621  26.858  1.00  0.00    -0.354 N 
ATOM     63  N   UNL A   1      46.834  29.378  27.382  1.00  0.00    -0.248 NA
ATOM     64  C   UNL A   1      48.490  31.024  27.279  1.00  0.00     0.031 C 
ATOM     65  C   UNL A   1      47.318  25.248  25.799  1.00  0.00     0.029 A 
ATOM     66  C   UNL A   1      47.191  26.538  26.288  1.00  0.00     0.049 A 
ATOM     67  H   UNL A   1      45.561  27.422  27.296  1.00  0.00     0.167 HD
ATOM     68  C   UNL A   1      47.952  28.859  26.738  1.00  0.00     0.074 A 
ATOM     69  C   UNL A   1      48.931  29.925  26.681  1.00  0.00     0.031 C 
ATOM     70  C   UNL A   1      48.149  27.615  26.237  1.00  0.00     0.037 A 
BRANCH  57  71
ATOM     71  C   UNL A   1      43.366  23.766  27.030  1.00  0.00     0.058 A 
ATOM     72  C   UNL A   1      43.367  22.826  28.075  1.00  0.00     0.135 A 
ATOM     73  C   UNL A   1      42.807  23.376  25.802  1.00  0.00     0.135 A 
ATOM     74  F   UNL A   1      43.902  23.139  29.265  1.00  0.00    -0.206 F 
ATOM     75  C   UNL A   1      42.872  21.538  27.896  1.00  0.00     0.059 A 
ATOM     76  C   UNL A   1      42.281  22.102  25.609  1.00  0.00     0.059 A 
ATOM     77  F   UNL A   1      42.778  24.234  24.771  1.00  0.00    -0.206 F 
ATOM     78  C   UNL A   1      42.338  21.183  26.657  1.00  0.00     0.060 A 
BRANCH  78  79
ATOM     79  S   UNL A   1      41.722  19.501  26.432  1.00  0.00     0.124 S 
ATOM     80  O   UNL A   1      40.290  19.737  26.273  1.00  0.00    -0.237 OA
ATOM     81  O   UNL A   1      42.428  19.066  25.231  1.00  0.00    -0.237 OA
ATOM     82  O   UNL A   1      42.114  18.827  27.664  1.00  0.00    -0.744 OA
ENDBRANCH  78  79
ENDBRANCH  57  71
BRANCH  58  83
ATOM     83  C   UNL A   1      46.803  33.033  28.593  1.00  0.00     0.058 A 
ATOM     84  C   UNL A   1      47.514  33.342  29.762  1.00  0.00     0.135 A 
ATOM     85  C   UNL A   1      46.622  34.054  27.647  1.00  0.00     0.135 A 
ATOM     86  F   UNL A   1      47.707  32.399  30.697  1.00  0.00    -0.206 F 
ATOM     87  C   UNL A   1      48.020  34.616  29.992  1.00  0.00     0.059 A 
ATOM     88  C   UNL A   1      47.139  35.331  27.845  1.00  0.00     0.059 A 
ATOM     89  F   UNL A   1      45.965  33.804  26.505  1.00  0.00    -0.206 F 
ATOM     90  C   UNL A   1      47.830  35.604  29.024  1.00  0.00     0.060 A 
BRANCH  90  91
ATOM     91  S   UNL A   1      48.548  37.238  29.302  1.00  0.00     0.124 S 
ATOM     92  O   UNL A   1      47.673  38.083  28.498  1.00  0.00    -0.237 OA
ATOM     93  O   UNL A   1      48.428  37.385  30.748  1.00  0.00    -0.237 OA
ATOM     94  O   UNL A   1      49.914  37.089  28.807  1.00  0.00    -0.744 OA
ENDBRANCH  90  91
ENDBRANCH  58  83
BRANCH  70  95
ATOM     95  C   UNL A   1      49.461  27.348  25.557  1.00  0.00     0.058 A 
ATOM     96  C   UNL A   1      50.595  26.944  26.277  1.00  0.00     0.135 A 
ATOM     97  C   UNL A   1      49.571  27.453  24.161  1.00  0.00     0.135 A 
ATOM     98  F   UNL A   1      50.543  26.837  27.614  1.00  0.00    -0.206 F 
ATOM     99  C   UNL A   1      51.801  26.672  25.639  1.00  0.00     0.059 A 
ATOM    100  C   UNL A   1      50.760  27.163  23.499  1.00  0.00     0.059 A 
ATOM    101  F   UNL A   1      48.512  27.828  23.426  1.00  0.00    -0.206 F 
ATOM    102  C   UNL A   1      51.873  26.783  24.248  1.00  0.00     0.060 A 
BRANCH 102 103
ATOM    103  S   UNL A   1      53.432  26.394  23.427  1.00  0.00     0.124 S 
ATOM    104  O   UNL A   1      53.932  25.299  24.251  1.00  0.00    -0.237 OA
ATOM    105  O   UNL A   1      52.996  26.028  22.083  1.00  0.00    -0.237 OA
ATOM    106  O   UNL A   1      54.183  27.643  23.516  1.00  0.00    -0.744 OA
ENDBRANCH 102 103
ENDBRANCH  70  95
ENDBRANCH  44  45
ENDBRANCH  36  39
ENDBRANCH  34  35
ENDBRANCH  33  34
ENDBRANCH   1  33
TORSDOF 18
ENDMDL
