MODEL 1
REMARK VINA RESULT:     -10.8      0.000      0.000
REMARK SMILES COCCCC(=O)N[C@H]1CC[C@@H](C(=O)NCCCNC(=O)c2ccc(-c3c4nc(c(-c5c(F)cc(S(=O)(=O)[O-])cc5F)c5ccc([nH]5)c(-c5c(F)cc(S(=O)(=O)[O-])cc5F)c5nc(c(-c6c(F)cc(S(=O)(=O)[O-])cc6F)c6ccc3[nH]6)C=C5)C=C4)cc2)CC1
REMARK SMILES IDX 16 1 15 2 13 3 14 4 12 6 9 7 10 8 89 9 11 10 88 11 8 12 6 13
REMARK SMILES IDX 7 14 5 16 4 17 3 18 2 19 1 20 17 21 18 22 19 23 20 24 21 26
REMARK SMILES IDX 22 27 23 28 87 29 24 30 86 31 25 32 26 33 27 34 80 35 28 36
REMARK SMILES IDX 85 37 79 38 81 39 29 40 84 41 78 42 77 43 30 45 64 46 43 47
REMARK SMILES IDX 63 48 44 49 47 50 62 51 82 52 45 53 46 54 61 56 83 57 48 58
REMARK SMILES IDX 31 59 32 60 41 61 33 62 34 63 40 64 42 65 35 66 36 67 37 68
REMARK SMILES IDX 38 69 39 70 65 71 66 72 75 73 67 74 68 75 74 76 76 77 69 78
REMARK SMILES IDX 70 79 71 80 72 81 73 82 49 83 50 84 59 85 51 86 52 87 58 88
REMARK SMILES IDX 60 89 53 90 54 91 55 92 56 93 57 94
REMARK H PARENT 15 5 8 15 19 25 81 44 47 55
REMARK Flexibility Score: inf
ROOT
ATOM      1  C   UNL A   1      39.906  21.793  26.240  1.00  0.00     0.117 C 
ENDROOT
BRANCH   1   2
ATOM      2  N   UNL A   1      38.915  22.841  26.320  1.00  0.00    -0.356 N 
ATOM      3  C   UNL A   1      37.707  23.018  25.737  1.00  0.00     0.223 C 
ATOM      4  O   UNL A   1      37.023  23.940  26.201  1.00  0.00    -0.275 OA
ATOM      5  H   UNL A   1      39.172  23.578  26.921  1.00  0.00     0.163 HD
BRANCH   3   6
ATOM      6  C   UNL A   1      37.151  22.203  24.560  1.00  0.00     0.078 C 
ATOM      7  C   UNL A   1      34.219  22.098  23.961  1.00  0.00     0.082 C 
ATOM      8  C   UNL A   1      35.089  23.208  23.346  1.00  0.00     0.026 C 
ATOM      9  C   UNL A   1      34.828  21.275  25.097  1.00  0.00     0.026 C 
ATOM     10  C   UNL A   1      36.590  22.967  23.364  1.00  0.00     0.015 C 
ATOM     11  C   UNL A   1      36.310  20.992  24.944  1.00  0.00     0.015 C 
BRANCH   7  12
ATOM     12  N   UNL A   1      32.935  22.680  24.336  1.00  0.00    -0.353 N 
ATOM     13  C   UNL A   1      32.567  23.525  25.329  1.00  0.00     0.220 C 
ATOM     14  O   UNL A   1      31.357  23.647  25.536  1.00  0.00    -0.275 OA
ATOM     15  H   UNL A   1      32.191  22.406  23.753  1.00  0.00     0.163 HD
BRANCH  13  16
ATOM     16  C   UNL A   1      33.563  24.373  26.091  1.00  0.00     0.102 C 
BRANCH  16  17
ATOM     17  C   UNL A   1      33.743  25.841  25.710  1.00  0.00     0.038 C 
BRANCH  17  18
ATOM     18  C   UNL A   1      33.279  26.391  24.360  1.00  0.00     0.160 C 
BRANCH  18  19
ATOM     19  O   UNL A   1      32.956  27.763  24.161  1.00  0.00    -0.385 OA
ATOM     20  C   UNL A   1      31.613  28.197  24.203  1.00  0.00     0.194 C 
ENDBRANCH  18  19
ENDBRANCH  17  18
ENDBRANCH  16  17
ENDBRANCH  13  16
ENDBRANCH   7  12
ENDBRANCH   3   6
ENDBRANCH   1   2
BRANCH   1  21
ATOM     21  C   UNL A   1      40.765  21.662  27.485  1.00  0.00     0.042 C 
BRANCH  21  22
ATOM     22  C   UNL A   1      41.857  22.700  27.578  1.00  0.00     0.118 C 
BRANCH  22  23
ATOM     23  N   UNL A   1      41.974  23.509  26.366  1.00  0.00    -0.352 N 
ATOM     24  C   UNL A   1      41.898  24.870  26.186  1.00  0.00     0.251 C 
ATOM     25  H   UNL A   1      42.132  22.993  25.542  1.00  0.00     0.163 HD
ATOM     26  O   UNL A   1      41.927  25.323  25.042  1.00  0.00    -0.269 OA
BRANCH  24  27
ATOM     27  C   UNL A   1      41.756  25.778  27.344  1.00  0.00     0.039 A 
ATOM     28  C   UNL A   1      42.689  26.799  27.543  1.00  0.00     0.014 A 
ATOM     29  C   UNL A   1      40.693  25.636  28.235  1.00  0.00     0.014 A 
ATOM     30  C   UNL A   1      42.512  27.704  28.595  1.00  0.00     0.010 A 
ATOM     31  C   UNL A   1      40.425  26.630  29.161  1.00  0.00     0.010 A 
ATOM     32  C   UNL A   1      41.355  27.649  29.388  1.00  0.00    -0.014 A 
BRANCH  32  33
ATOM     33  C   UNL A   1      41.117  28.587  30.514  1.00  0.00     0.031 A 
ATOM     34  C   UNL A   1      41.965  28.475  31.761  1.00  0.00     0.074 A 
ATOM     35  C   UNL A   1      40.105  29.473  30.454  1.00  0.00     0.049 A 
ATOM     36  N   UNL A   1      41.853  29.111  32.897  1.00  0.00    -0.248 NA
ATOM     37  C   UNL A   1      43.050  27.477  31.744  1.00  0.00     0.031 C 
ATOM     38  C   UNL A   1      39.174  29.628  29.332  1.00  0.00     0.029 A 
ATOM     39  N   UNL A   1      39.682  30.411  31.363  1.00  0.00    -0.354 N 
ATOM     40  C   UNL A   1      42.826  28.567  33.729  1.00  0.00     0.074 A 
ATOM     41  C   UNL A   1      43.458  27.492  33.002  1.00  0.00     0.031 C 
ATOM     42  C   UNL A   1      38.320  30.628  29.601  1.00  0.00     0.029 A 
ATOM     43  C   UNL A   1      38.611  31.156  30.930  1.00  0.00     0.049 A 
ATOM     44  H   UNL A   1      40.107  30.537  32.242  1.00  0.00     0.167 HD
ATOM     45  C   UNL A   1      43.194  28.955  34.973  1.00  0.00     0.037 A 
ATOM     46  C   UNL A   1      37.940  32.153  31.539  1.00  0.00     0.037 A 
ATOM     47  C   UNL A   1      42.598  30.067  35.663  1.00  0.00     0.049 A 
ATOM     48  C   UNL A   1      38.383  32.588  32.911  1.00  0.00     0.074 A 
ATOM     49  C   UNL A   1      42.938  30.599  36.892  1.00  0.00     0.029 A 
ATOM     50  N   UNL A   1      41.543  30.824  35.173  1.00  0.00    -0.354 N 
ATOM     51  N   UNL A   1      39.348  32.107  33.657  1.00  0.00    -0.248 NA
ATOM     52  C   UNL A   1      37.652  33.707  33.520  1.00  0.00     0.031 C 
ATOM     53  C   UNL A   1      42.057  31.649  37.168  1.00  0.00     0.029 A 
ATOM     54  C   UNL A   1      41.206  31.807  36.084  1.00  0.00     0.049 A 
ATOM     55  H   UNL A   1      41.100  30.681  34.305  1.00  0.00     0.167 HD
ATOM     56  C   UNL A   1      39.362  32.884  34.811  1.00  0.00     0.074 A 
ATOM     57  C   UNL A   1      38.315  33.873  34.656  1.00  0.00     0.031 C 
ATOM     58  C   UNL A   1      40.165  32.790  35.900  1.00  0.00     0.037 A 
BRANCH  45  59
ATOM     59  C   UNL A   1      44.299  28.188  35.649  1.00  0.00     0.058 A 
ATOM     60  C   UNL A   1      45.652  28.528  35.476  1.00  0.00     0.135 A 
ATOM     61  C   UNL A   1      44.004  27.108  36.497  1.00  0.00     0.135 A 
ATOM     62  F   UNL A   1      45.996  29.539  34.662  1.00  0.00    -0.206 F 
ATOM     63  C   UNL A   1      46.670  27.804  36.086  1.00  0.00     0.059 A 
ATOM     64  C   UNL A   1      45.006  26.391  37.145  1.00  0.00     0.059 A 
ATOM     65  F   UNL A   1      42.730  26.734  36.697  1.00  0.00    -0.206 F 
ATOM     66  C   UNL A   1      46.337  26.737  36.920  1.00  0.00     0.060 A 
BRANCH  66  67
ATOM     67  S   UNL A   1      47.672  25.814  37.710  1.00  0.00     0.124 S 
ATOM     68  O   UNL A   1      48.724  26.823  37.776  1.00  0.00    -0.237 OA
ATOM     69  O   UNL A   1      47.076  25.436  38.986  1.00  0.00    -0.237 OA
ATOM     70  O   UNL A   1      47.917  24.712  36.784  1.00  0.00    -0.744 OA
ENDBRANCH  66  67
ENDBRANCH  45  59
BRANCH  46  71
ATOM     71  C   UNL A   1      36.811  32.827  30.844  1.00  0.00     0.058 A 
ATOM     72  C   UNL A   1      35.480  32.556  31.197  1.00  0.00     0.135 A 
ATOM     73  C   UNL A   1      37.036  33.768  29.827  1.00  0.00     0.135 A 
ATOM     74  F   UNL A   1      35.211  31.663  32.162  1.00  0.00    -0.206 F 
ATOM     75  C   UNL A   1      34.412  33.177  30.555  1.00  0.00     0.059 A 
ATOM     76  C   UNL A   1      35.985  34.423  29.188  1.00  0.00     0.059 A 
ATOM     77  F   UNL A   1      38.289  34.080  29.463  1.00  0.00    -0.206 F 
ATOM     78  C   UNL A   1      34.676  34.110  29.552  1.00  0.00     0.060 A 
BRANCH  78  79
ATOM     79  S   UNL A   1      33.284  34.939  28.754  1.00  0.00     0.124 S 
ATOM     80  O   UNL A   1      32.819  33.912  27.831  1.00  0.00    -0.237 OA
ATOM     81  O   UNL A   1      32.409  35.226  29.886  1.00  0.00    -0.237 OA
ATOM     82  O   UNL A   1      33.900  36.111  28.137  1.00  0.00    -0.744 OA
ENDBRANCH  78  79
ENDBRANCH  46  71
BRANCH  58  83
ATOM     83  C   UNL A   1      39.974  33.804  36.991  1.00  0.00     0.058 A 
ATOM     84  C   UNL A   1      40.585  35.067  36.942  1.00  0.00     0.135 A 
ATOM     85  C   UNL A   1      39.118  33.530  38.069  1.00  0.00     0.135 A 
ATOM     86  F   UNL A   1      41.416  35.377  35.934  1.00  0.00    -0.206 F 
ATOM     87  C   UNL A   1      40.373  36.013  37.938  1.00  0.00     0.059 A 
ATOM     88  C   UNL A   1      38.865  34.473  39.060  1.00  0.00     0.059 A 
ATOM     89  F   UNL A   1      38.498  32.342  38.156  1.00  0.00    -0.206 F 
ATOM     90  C   UNL A   1      39.509  35.707  38.991  1.00  0.00     0.060 A 
BRANCH  90  91
ATOM     91  S   UNL A   1      39.215  36.958  40.257  1.00  0.00     0.124 S 
ATOM     92  O   UNL A   1      38.630  38.039  39.471  1.00  0.00    -0.237 OA
ATOM     93  O   UNL A   1      38.304  36.272  41.168  1.00  0.00    -0.237 OA
ATOM     94  O   UNL A   1      40.548  37.221  40.793  1.00  0.00    -0.744 OA
ENDBRANCH  90  91
ENDBRANCH  58  83
ENDBRANCH  32  33
ENDBRANCH  24  27
ENDBRANCH  22  23
ENDBRANCH  21  22
ENDBRANCH   1  21
TORSDOF 18
ENDMDL
MODEL 2
REMARK VINA RESULT:     -10.8      1.284      2.093
REMARK SMILES COCCCC(=O)N[C@H]1CC[C@@H](C(=O)NCCCNC(=O)c2ccc(-c3c4nc(c(-c5c(F)cc(S(=O)(=O)[O-])cc5F)c5ccc([nH]5)c(-c5c(F)cc(S(=O)(=O)[O-])cc5F)c5nc(c(-c6c(F)cc(S(=O)(=O)[O-])cc6F)c6ccc3[nH]6)C=C5)C=C4)cc2)CC1
REMARK SMILES IDX 16 1 15 2 13 3 14 4 12 6 9 7 10 8 89 9 11 10 88 11 8 12 6 13
REMARK SMILES IDX 7 14 5 16 4 17 3 18 2 19 1 20 17 21 18 22 19 23 20 24 21 26
REMARK SMILES IDX 22 27 23 28 87 29 24 30 86 31 25 32 26 33 27 34 80 35 28 36
REMARK SMILES IDX 85 37 79 38 81 39 29 40 84 41 78 42 77 43 30 45 64 46 43 47
REMARK SMILES IDX 63 48 44 49 47 50 62 51 82 52 45 53 46 54 61 56 83 57 48 58
REMARK SMILES IDX 31 59 32 60 41 61 33 62 34 63 40 64 42 65 35 66 36 67 37 68
REMARK SMILES IDX 38 69 39 70 65 71 66 72 75 73 67 74 68 75 74 76 76 77 69 78
REMARK SMILES IDX 70 79 71 80 72 81 73 82 49 83 50 84 59 85 51 86 52 87 58 88
REMARK SMILES IDX 60 89 53 90 54 91 55 92 56 93 57 94
REMARK H PARENT 15 5 8 15 19 25 81 44 47 55
REMARK Flexibility Score: inf
ROOT
ATOM      1  C   UNL A   1      38.205  23.451  26.056  1.00  0.00     0.117 C 
ENDROOT
BRANCH   1   2
ATOM      2  N   UNL A   1      37.833  23.177  24.688  1.00  0.00    -0.356 N 
ATOM      3  C   UNL A   1      36.642  23.110  24.049  1.00  0.00     0.223 C 
ATOM      4  O   UNL A   1      36.705  23.062  22.813  1.00  0.00    -0.275 OA
ATOM      5  H   UNL A   1      38.604  23.002  24.100  1.00  0.00     0.163 HD
BRANCH   3   6
ATOM      6  C   UNL A   1      35.263  23.059  24.724  1.00  0.00     0.078 C 
ATOM      7  C   UNL A   1      32.919  24.570  23.635  1.00  0.00     0.082 C 
ATOM      8  C   UNL A   1      33.211  23.143  23.139  1.00  0.00     0.026 C 
ATOM      9  C   UNL A   1      34.015  25.274  24.436  1.00  0.00     0.026 C 
ATOM     10  C   UNL A   1      34.144  22.312  24.006  1.00  0.00     0.015 C 
ATOM     11  C   UNL A   1      34.800  24.364  25.360  1.00  0.00     0.015 C 
BRANCH   7  12
ATOM     12  N   UNL A   1      32.479  25.367  22.495  1.00  0.00    -0.353 N 
ATOM     13  C   UNL A   1      31.482  26.272  22.339  1.00  0.00     0.220 C 
ATOM     14  O   UNL A   1      31.205  26.601  21.183  1.00  0.00    -0.275 OA
ATOM     15  H   UNL A   1      33.010  25.219  21.679  1.00  0.00     0.163 HD
BRANCH  13  16
ATOM     16  C   UNL A   1      30.798  26.944  23.511  1.00  0.00     0.102 C 
BRANCH  16  17
ATOM     17  C   UNL A   1      29.275  27.054  23.526  1.00  0.00     0.038 C 
BRANCH  17  18
ATOM     18  C   UNL A   1      28.551  28.339  23.120  1.00  0.00     0.160 C 
BRANCH  18  19
ATOM     19  O   UNL A   1      28.922  29.099  21.974  1.00  0.00    -0.385 OA
ATOM     20  C   UNL A   1      30.072  29.917  21.997  1.00  0.00     0.194 C 
ENDBRANCH  18  19
ENDBRANCH  17  18
ENDBRANCH  16  17
ENDBRANCH  13  16
ENDBRANCH   7  12
ENDBRANCH   3   6
ENDBRANCH   1   2
BRANCH   1  21
ATOM     21  C   UNL A   1      39.363  22.609  26.561  1.00  0.00     0.042 C 
BRANCH  21  22
ATOM     22  C   UNL A   1      40.509  23.424  27.109  1.00  0.00     0.118 C 
BRANCH  22  23
ATOM     23  N   UNL A   1      41.219  24.171  26.072  1.00  0.00    -0.352 N 
ATOM     24  C   UNL A   1      41.539  25.505  25.989  1.00  0.00     0.251 C 
ATOM     25  H   UNL A   1      41.517  23.628  25.307  1.00  0.00     0.163 HD
ATOM     26  O   UNL A   1      42.060  25.931  24.958  1.00  0.00    -0.269 OA
BRANCH  24  27
ATOM     27  C   UNL A   1      41.238  26.426  27.107  1.00  0.00     0.039 A 
ATOM     28  C   UNL A   1      40.315  26.049  28.086  1.00  0.00     0.014 A 
ATOM     29  C   UNL A   1      41.874  27.662  27.201  1.00  0.00     0.014 A 
ATOM     30  C   UNL A   1      40.088  26.887  29.182  1.00  0.00     0.010 A 
ATOM     31  C   UNL A   1      41.780  28.404  28.367  1.00  0.00     0.010 A 
ATOM     32  C   UNL A   1      40.849  28.055  29.350  1.00  0.00    -0.014 A 
BRANCH  32  33
ATOM     33  C   UNL A   1      40.650  28.977  30.496  1.00  0.00     0.031 A 
ATOM     34  C   UNL A   1      41.507  28.817  31.731  1.00  0.00     0.074 A 
ATOM     35  C   UNL A   1      39.663  29.893  30.464  1.00  0.00     0.049 A 
ATOM     36  N   UNL A   1      41.426  29.433  32.881  1.00  0.00    -0.248 NA
ATOM     37  C   UNL A   1      42.563  27.788  31.684  1.00  0.00     0.031 C 
ATOM     38  C   UNL A   1      38.726  30.096  29.355  1.00  0.00     0.029 A 
ATOM     39  N   UNL A   1      39.278  30.824  31.395  1.00  0.00    -0.354 N 
ATOM     40  C   UNL A   1      42.391  28.845  33.692  1.00  0.00     0.074 A 
ATOM     41  C   UNL A   1      42.984  27.767  32.937  1.00  0.00     0.031 C 
ATOM     42  C   UNL A   1      37.905  31.115  29.652  1.00  0.00     0.029 A 
ATOM     43  C   UNL A   1      38.223  31.609  30.988  1.00  0.00     0.049 A 
ATOM     44  H   UNL A   1      39.714  30.921  32.272  1.00  0.00     0.167 HD
ATOM     45  C   UNL A   1      42.782  29.198  34.938  1.00  0.00     0.037 A 
ATOM     46  C   UNL A   1      37.588  32.612  31.623  1.00  0.00     0.037 A 
ATOM     47  C   UNL A   1      42.226  30.313  35.656  1.00  0.00     0.049 A 
ATOM     48  C   UNL A   1      38.058  33.008  32.998  1.00  0.00     0.074 A 
ATOM     49  C   UNL A   1      42.594  30.811  36.891  1.00  0.00     0.029 A 
ATOM     50  N   UNL A   1      41.188  31.110  35.192  1.00  0.00    -0.354 N 
ATOM     51  N   UNL A   1      39.016  32.484  33.725  1.00  0.00    -0.248 NA
ATOM     52  C   UNL A   1      37.366  34.135  33.636  1.00  0.00     0.031 C 
ATOM     53  C   UNL A   1      41.746  31.881  37.197  1.00  0.00     0.029 A 
ATOM     54  C   UNL A   1      40.889  32.085  36.126  1.00  0.00     0.049 A 
ATOM     55  H   UNL A   1      40.732  30.997  34.326  1.00  0.00     0.167 HD
ATOM     56  C   UNL A   1      39.064  33.238  34.893  1.00  0.00     0.074 A 
ATOM     57  C   UNL A   1      38.045  34.260  34.768  1.00  0.00     0.031 C 
ATOM     58  C   UNL A   1      39.876  33.100  35.971  1.00  0.00     0.037 A 
BRANCH  45  59
ATOM     59  C   UNL A   1      43.872  28.387  35.588  1.00  0.00     0.058 A 
ATOM     60  C   UNL A   1      45.232  28.671  35.380  1.00  0.00     0.135 A 
ATOM     61  C   UNL A   1      43.553  27.321  36.445  1.00  0.00     0.135 A 
ATOM     62  F   UNL A   1      45.598  29.666  34.556  1.00  0.00    -0.206 F 
ATOM     63  C   UNL A   1      46.234  27.906  35.966  1.00  0.00     0.059 A 
ATOM     64  C   UNL A   1      44.541  26.563  37.069  1.00  0.00     0.059 A 
ATOM     65  F   UNL A   1      42.271  27.000  36.678  1.00  0.00    -0.206 F 
ATOM     66  C   UNL A   1      45.879  26.854  36.810  1.00  0.00     0.060 A 
BRANCH  66  67
ATOM     67  S   UNL A   1      47.195  25.878  37.567  1.00  0.00     0.124 S 
ATOM     68  O   UNL A   1      48.191  25.855  36.501  1.00  0.00    -0.237 OA
ATOM     69  O   UNL A   1      47.539  26.675  38.739  1.00  0.00    -0.237 OA
ATOM     70  O   UNL A   1      46.549  24.599  37.850  1.00  0.00    -0.744 OA
ENDBRANCH  66  67
ENDBRANCH  45  59
BRANCH  46  71
ATOM     71  C   UNL A   1      36.472  33.332  30.953  1.00  0.00     0.058 A 
ATOM     72  C   UNL A   1      35.148  33.179  31.391  1.00  0.00     0.135 A 
ATOM     73  C   UNL A   1      36.705  34.200  29.875  1.00  0.00     0.135 A 
ATOM     74  F   UNL A   1      34.872  32.359  32.417  1.00  0.00    -0.206 F 
ATOM     75  C   UNL A   1      34.092  33.843  30.774  1.00  0.00     0.059 A 
ATOM     76  C   UNL A   1      35.669  34.897  29.259  1.00  0.00     0.059 A 
ATOM     77  F   UNL A   1      37.955  34.399  29.428  1.00  0.00    -0.206 F 
ATOM     78  C   UNL A   1      34.363  34.702  29.709  1.00  0.00     0.060 A 
BRANCH  78  79
ATOM     79  S   UNL A   1      32.991  35.590  28.942  1.00  0.00     0.124 S 
ATOM     80  O   UNL A   1      32.366  34.539  28.149  1.00  0.00    -0.237 OA
ATOM     81  O   UNL A   1      32.237  36.050  30.103  1.00  0.00    -0.237 OA
ATOM     82  O   UNL A   1      33.656  36.644  28.180  1.00  0.00    -0.744 OA
ENDBRANCH  78  79
ENDBRANCH  46  71
BRANCH  58  83
ATOM     83  C   UNL A   1      39.725  34.098  37.083  1.00  0.00     0.058 A 
ATOM     84  C   UNL A   1      38.982  33.812  38.238  1.00  0.00     0.135 A 
ATOM     85  C   UNL A   1      40.387  35.336  37.016  1.00  0.00     0.135 A 
ATOM     86  F   UNL A   1      38.328  32.645  38.350  1.00  0.00    -0.206 F 
ATOM     87  C   UNL A   1      38.879  34.728  39.278  1.00  0.00     0.059 A 
ATOM     88  C   UNL A   1      40.325  36.254  38.058  1.00  0.00     0.059 A 
ATOM     89  F   UNL A   1      41.123  35.653  35.938  1.00  0.00    -0.206 F 
ATOM     90  C   UNL A   1      39.557  35.946  39.180  1.00  0.00     0.060 A 
BRANCH  90  91
ATOM     91  S   UNL A   1      39.444  37.110  40.554  1.00  0.00     0.124 S 
ATOM     92  O   UNL A   1      38.587  36.384  41.484  1.00  0.00    -0.237 OA
ATOM     93  O   UNL A   1      40.839  37.253  40.957  1.00  0.00    -0.237 OA
ATOM     94  O   UNL A   1      38.847  38.297  39.947  1.00  0.00    -0.744 OA
ENDBRANCH  90  91
ENDBRANCH  58  83
ENDBRANCH  32  33
ENDBRANCH  24  27
ENDBRANCH  22  23
ENDBRANCH  21  22
ENDBRANCH   1  21
TORSDOF 18
ENDMDL
MODEL 3
REMARK VINA RESULT:     -10.7      1.393      2.988
REMARK SMILES COCCCC(=O)N[C@H]1CC[C@@H](C(=O)NCCCNC(=O)c2ccc(-c3c4nc(c(-c5c(F)cc(S(=O)(=O)[O-])cc5F)c5ccc([nH]5)c(-c5c(F)cc(S(=O)(=O)[O-])cc5F)c5nc(c(-c6c(F)cc(S(=O)(=O)[O-])cc6F)c6ccc3[nH]6)C=C5)C=C4)cc2)CC1
REMARK SMILES IDX 16 1 15 2 13 3 14 4 12 6 9 7 10 8 89 9 11 10 88 11 8 12 6 13
REMARK SMILES IDX 7 14 5 16 4 17 3 18 2 19 1 20 17 21 18 22 19 23 20 24 21 26
REMARK SMILES IDX 22 27 23 28 87 29 24 30 86 31 25 32 26 33 27 34 80 35 28 36
REMARK SMILES IDX 85 37 79 38 81 39 29 40 84 41 78 42 77 43 30 45 64 46 43 47
REMARK SMILES IDX 63 48 44 49 47 50 62 51 82 52 45 53 46 54 61 56 83 57 48 58
REMARK SMILES IDX 31 59 32 60 41 61 33 62 34 63 40 64 42 65 35 66 36 67 37 68
REMARK SMILES IDX 38 69 39 70 65 71 66 72 75 73 67 74 68 75 74 76 76 77 69 78
REMARK SMILES IDX 70 79 71 80 72 81 73 82 49 83 50 84 59 85 51 86 52 87 58 88
REMARK SMILES IDX 60 89 53 90 54 91 55 92 56 93 57 94
REMARK H PARENT 15 5 8 15 19 25 81 44 47 55
REMARK Flexibility Score: inf
ROOT
ATOM      1  C   UNL A   1      35.999  23.979  25.285  1.00  0.00     0.117 C 
ENDROOT
BRANCH   1   2
ATOM      2  N   UNL A   1      35.278  23.535  24.115  1.00  0.00    -0.356 N 
ATOM      3  C   UNL A   1      34.349  24.121  23.323  1.00  0.00     0.223 C 
ATOM      4  O   UNL A   1      34.098  23.523  22.268  1.00  0.00    -0.275 OA
ATOM      5  H   UNL A   1      35.509  22.620  23.836  1.00  0.00     0.163 HD
BRANCH   3   6
ATOM      6  C   UNL A   1      33.585  25.414  23.643  1.00  0.00     0.078 C 
ATOM      7  C   UNL A   1      31.387  25.486  25.675  1.00  0.00     0.082 C 
ATOM      8  C   UNL A   1      32.844  25.725  26.109  1.00  0.00     0.026 C 
ATOM      9  C   UNL A   1      31.156  24.918  24.274  1.00  0.00     0.026 C 
ATOM     10  C   UNL A   1      33.824  26.069  25.000  1.00  0.00     0.015 C 
ATOM     11  C   UNL A   1      32.121  25.428  23.222  1.00  0.00     0.015 C 
BRANCH   7  12
ATOM     12  N   UNL A   1      30.730  24.688  26.704  1.00  0.00    -0.353 N 
ATOM     13  C   UNL A   1      30.295  23.405  26.730  1.00  0.00     0.220 C 
ATOM     14  O   UNL A   1      29.556  23.087  27.665  1.00  0.00    -0.275 OA
ATOM     15  H   UNL A   1      30.572  25.177  27.544  1.00  0.00     0.163 HD
BRANCH  13  16
ATOM     16  C   UNL A   1      30.761  22.363  25.735  1.00  0.00     0.102 C 
BRANCH  16  17
ATOM     17  C   UNL A   1      32.202  21.860  25.798  1.00  0.00     0.038 C 
BRANCH  17  18
ATOM     18  C   UNL A   1      32.713  20.749  24.880  1.00  0.00     0.160 C 
BRANCH  18  19
ATOM     19  O   UNL A   1      32.303  19.392  25.015  1.00  0.00    -0.385 OA
ATOM     20  C   UNL A   1      32.554  18.461  23.985  1.00  0.00     0.194 C 
ENDBRANCH  18  19
ENDBRANCH  17  18
ENDBRANCH  16  17
ENDBRANCH  13  16
ENDBRANCH   7  12
ENDBRANCH   3   6
ENDBRANCH   1   2
BRANCH   1  21
ATOM     21  C   UNL A   1      37.334  23.285  25.486  1.00  0.00     0.042 C 
BRANCH  21  22
ATOM     22  C   UNL A   1      38.234  23.980  26.478  1.00  0.00     0.118 C 
BRANCH  22  23
ATOM     23  N   UNL A   1      39.640  23.959  26.079  1.00  0.00    -0.352 N 
ATOM     24  C   UNL A   1      40.693  24.752  26.467  1.00  0.00     0.251 C 
ATOM     25  H   UNL A   1      39.870  23.261  25.424  1.00  0.00     0.163 HD
ATOM     26  O   UNL A   1      41.784  24.610  25.913  1.00  0.00    -0.269 OA
BRANCH  24  27
ATOM     27  C   UNL A   1      40.519  25.781  27.515  1.00  0.00     0.039 A 
ATOM     28  C   UNL A   1      39.602  25.571  28.548  1.00  0.00     0.014 A 
ATOM     29  C   UNL A   1      41.269  26.956  27.491  1.00  0.00     0.014 A 
ATOM     30  C   UNL A   1      39.492  26.510  29.578  1.00  0.00     0.010 A 
ATOM     31  C   UNL A   1      41.286  27.792  28.594  1.00  0.00     0.010 A 
ATOM     32  C   UNL A   1      40.363  27.609  29.629  1.00  0.00    -0.014 A 
BRANCH  32  33
ATOM     33  C   UNL A   1      40.291  28.633  30.702  1.00  0.00     0.031 A 
ATOM     34  C   UNL A   1      41.199  28.508  31.905  1.00  0.00     0.074 A 
ATOM     35  C   UNL A   1      39.371  29.615  30.640  1.00  0.00     0.049 A 
ATOM     36  N   UNL A   1      41.222  29.219  33.001  1.00  0.00    -0.248 NA
ATOM     37  C   UNL A   1      42.174  27.402  31.894  1.00  0.00     0.031 C 
ATOM     38  C   UNL A   1      38.394  29.799  29.563  1.00  0.00     0.029 A 
ATOM     39  N   UNL A   1      39.103  30.644  31.506  1.00  0.00    -0.354 N 
ATOM     40  C   UNL A   1      42.185  28.627  33.812  1.00  0.00     0.074 A 
ATOM     41  C   UNL A   1      42.659  27.450  33.124  1.00  0.00     0.031 C 
ATOM     42  C   UNL A   1      37.664  30.897  29.812  1.00  0.00     0.029 A 
ATOM     43  C   UNL A   1      38.087  31.471  31.086  1.00  0.00     0.049 A 
ATOM     44  H   UNL A   1      39.591  30.778  32.351  1.00  0.00     0.167 HD
ATOM     45  C   UNL A   1      42.666  29.048  35.005  1.00  0.00     0.037 A 
ATOM     46  C   UNL A   1      37.559  32.567  31.664  1.00  0.00     0.037 A 
ATOM     47  C   UNL A   1      42.229  30.256  35.652  1.00  0.00     0.049 A 
ATOM     48  C   UNL A   1      38.128  33.035  32.977  1.00  0.00     0.074 A 
ATOM     49  C   UNL A   1      42.696  30.822  36.823  1.00  0.00     0.029 A 
ATOM     50  N   UNL A   1      41.228  31.089  35.172  1.00  0.00    -0.354 N 
ATOM     51  N   UNL A   1      39.085  32.501  33.699  1.00  0.00    -0.248 NA
ATOM     52  C   UNL A   1      37.553  34.259  33.550  1.00  0.00     0.031 C 
ATOM     53  C   UNL A   1      41.945  31.973  37.077  1.00  0.00     0.029 A 
ATOM     54  C   UNL A   1      41.049  32.155  36.034  1.00  0.00     0.049 A 
ATOM     55  H   UNL A   1      40.719  30.941  34.342  1.00  0.00     0.167 HD
ATOM     56  C   UNL A   1      39.248  33.340  34.796  1.00  0.00     0.074 A 
ATOM     57  C   UNL A   1      38.298  34.423  34.634  1.00  0.00     0.031 C 
ATOM     58  C   UNL A   1      40.103  33.228  35.843  1.00  0.00     0.037 A 
BRANCH  45  59
ATOM     59  C   UNL A   1      43.728  28.212  35.669  1.00  0.00     0.058 A 
ATOM     60  C   UNL A   1      43.403  27.144  36.524  1.00  0.00     0.135 A 
ATOM     61  C   UNL A   1      45.088  28.468  35.435  1.00  0.00     0.135 A 
ATOM     62  F   UNL A   1      42.120  26.864  36.800  1.00  0.00    -0.206 F 
ATOM     63  C   UNL A   1      44.387  26.388  37.150  1.00  0.00     0.059 A 
ATOM     64  C   UNL A   1      46.089  27.700  36.025  1.00  0.00     0.059 A 
ATOM     65  F   UNL A   1      45.458  29.477  34.631  1.00  0.00    -0.206 F 
ATOM     66  C   UNL A   1      45.728  26.673  36.894  1.00  0.00     0.060 A 
BRANCH  66  67
ATOM     67  S   UNL A   1      46.991  25.675  37.711  1.00  0.00     0.124 S 
ATOM     68  O   UNL A   1      46.195  24.943  38.692  1.00  0.00    -0.237 OA
ATOM     69  O   UNL A   1      47.522  24.881  36.608  1.00  0.00    -0.237 OA
ATOM     70  O   UNL A   1      47.906  26.669  38.262  1.00  0.00    -0.744 OA
ENDBRANCH  66  67
ENDBRANCH  45  59
BRANCH  46  71
ATOM     71  C   UNL A   1      36.464  33.312  30.989  1.00  0.00     0.058 A 
ATOM     72  C   UNL A   1      36.735  34.193  29.930  1.00  0.00     0.135 A 
ATOM     73  C   UNL A   1      35.123  33.149  31.372  1.00  0.00     0.135 A 
ATOM     74  F   UNL A   1      38.000  34.386  29.526  1.00  0.00    -0.206 F 
ATOM     75  C   UNL A   1      35.722  34.900  29.290  1.00  0.00     0.059 A 
ATOM     76  C   UNL A   1      34.089  33.824  30.729  1.00  0.00     0.059 A 
ATOM     77  F   UNL A   1      34.805  32.304  32.366  1.00  0.00    -0.206 F 
ATOM     78  C   UNL A   1      34.401  34.708  29.696  1.00  0.00     0.060 A 
BRANCH  78  79
ATOM     79  S   UNL A   1      33.091  35.599  28.831  1.00  0.00     0.124 S 
ATOM     80  O   UNL A   1      33.857  36.545  28.028  1.00  0.00    -0.237 OA
ATOM     81  O   UNL A   1      32.426  34.528  28.095  1.00  0.00    -0.237 OA
ATOM     82  O   UNL A   1      32.307  36.182  29.916  1.00  0.00    -0.744 OA
ENDBRANCH  78  79
ENDBRANCH  46  71
BRANCH  58  83
ATOM     83  C   UNL A   1      40.084  34.321  36.873  1.00  0.00     0.058 A 
ATOM     84  C   UNL A   1      40.917  35.445  36.774  1.00  0.00     0.135 A 
ATOM     85  C   UNL A   1      39.173  34.269  37.941  1.00  0.00     0.135 A 
ATOM     86  F   UNL A   1      41.808  35.541  35.774  1.00  0.00    -0.206 F 
ATOM     87  C   UNL A   1      40.865  36.469  37.713  1.00  0.00     0.059 A 
ATOM     88  C   UNL A   1      39.081  35.296  38.873  1.00  0.00     0.059 A 
ATOM     89  F   UNL A   1      38.344  33.221  38.073  1.00  0.00    -0.206 F 
ATOM     90  C   UNL A   1      39.942  36.387  38.757  1.00  0.00     0.060 A 
BRANCH  90  91
ATOM     91  S   UNL A   1      39.862  37.741  39.947  1.00  0.00     0.124 S 
ATOM     92  O   UNL A   1      39.946  37.023  41.214  1.00  0.00    -0.237 OA
ATOM     93  O   UNL A   1      41.031  38.539  39.591  1.00  0.00    -0.237 OA
ATOM     94  O   UNL A   1      38.573  38.367  39.665  1.00  0.00    -0.744 OA
ENDBRANCH  90  91
ENDBRANCH  58  83
ENDBRANCH  32  33
ENDBRANCH  24  27
ENDBRANCH  22  23
ENDBRANCH  21  22
ENDBRANCH   1  21
TORSDOF 18
ENDMDL
