MODEL 1
REMARK VINA RESULT:     -10.4      0.000      0.000
REMARK SMILES C[C@@H](NC(=O)CCCNC(=O)c1ccco1)C(=O)NCCCNC(=O)c1ccc(-c2c3nc(c(-c4c(F)cc(S(=O)(=O)[O-])cc4F)c4ccc([nH]4)c(-c4c(F)cc(S(=O)(=O)[O-])cc4F)c4nc(c(-c5c(F)cc(S(=O)(=O)[O-])cc5F)c5ccc2[nH]5)C=C4)C=C3)cc1
REMARK SMILES IDX 17 1 18 2 19 3 2 5 1 6 3 7 4 8 5 10 6 11 7 12 8 13 9 14
REMARK SMILES IDX 10 15 11 17 12 18 13 19 16 20 14 21 15 22 20 23 21 24 22 25
REMARK SMILES IDX 23 26 24 27 25 29 26 30 27 31 91 32 28 33 90 34 29 35 30 36
REMARK SMILES IDX 31 37 84 38 32 39 89 40 83 41 85 42 33 43 88 44 82 45 81 46
REMARK SMILES IDX 34 48 68 49 47 50 67 51 48 52 51 53 66 54 86 55 49 56 50 57
REMARK SMILES IDX 65 59 87 60 52 61 35 62 36 63 45 64 37 65 38 66 44 67 46 68
REMARK SMILES IDX 39 69 40 70 41 71 42 72 43 73 69 74 70 75 79 76 71 77 72 78
REMARK SMILES IDX 78 79 80 80 73 81 74 82 75 83 76 84 77 85 53 86 54 87 63 88
REMARK SMILES IDX 55 89 56 90 62 91 64 92 57 93 58 94 59 95 60 96 61 97
REMARK H PARENT 19 4 3 9 9 16 23 28 85 47 51 58
REMARK Flexibility Score: inf
ROOT
ATOM      1  C   UNL A   1      33.383  25.939  22.662  1.00  0.00     0.242 C 
ATOM      2  O   UNL A   1      33.793  26.586  21.670  1.00  0.00    -0.273 OA
ATOM      3  N   UNL A   1      33.950  26.445  23.795  1.00  0.00    -0.354 N 
ATOM      4  H   UNL A   1      34.798  26.850  23.500  1.00  0.00     0.163 HD
ENDROOT
BRANCH   1   5
ATOM      5  C   UNL A   1      32.400  24.682  22.234  1.00  0.00     0.168 C 
ATOM      6  C   UNL A   1      33.184  23.599  21.412  1.00  0.00     0.041 C 
BRANCH   5   7
ATOM      7  N   UNL A   1      31.419  23.832  22.923  1.00  0.00    -0.345 N 
ATOM      8  C   UNL A   1      31.405  23.476  24.224  1.00  0.00     0.220 C 
ATOM      9  H   UNL A   1      30.684  23.482  22.370  1.00  0.00     0.164 HD
ATOM     10  O   UNL A   1      30.376  23.475  24.883  1.00  0.00    -0.275 OA
BRANCH   8  11
ATOM     11  C   UNL A   1      32.711  22.991  24.709  1.00  0.00     0.102 C 
BRANCH  11  12
ATOM     12  C   UNL A   1      32.591  22.043  25.939  1.00  0.00     0.031 C 
BRANCH  12  13
ATOM     13  C   UNL A   1      33.598  20.955  26.541  1.00  0.00     0.117 C 
BRANCH  13  14
ATOM     14  N   UNL A   1      34.735  20.425  25.794  1.00  0.00    -0.349 N 
ATOM     15  C   UNL A   1      36.046  20.641  25.413  1.00  0.00     0.286 C 
ATOM     16  H   UNL A   1      34.454  19.564  25.406  1.00  0.00     0.163 HD
ATOM     17  O   UNL A   1      36.545  19.676  24.821  1.00  0.00    -0.266 OA
BRANCH  15  18
ATOM     18  C   UNL A   1      36.836  21.838  25.580  1.00  0.00     0.191 A 
ATOM     19  C   UNL A   1      36.575  23.186  25.695  1.00  0.00     0.056 A 
ATOM     20  O   UNL A   1      38.182  21.635  25.837  1.00  0.00    -0.459 OA
ATOM     21  C   UNL A   1      37.803  23.822  26.045  1.00  0.00     0.043 A 
ATOM     22  C   UNL A   1      38.754  22.833  26.098  1.00  0.00     0.196 A 
ENDBRANCH  15  18
ENDBRANCH  13  14
ENDBRANCH  12  13
ENDBRANCH  11  12
ENDBRANCH   8  11
ENDBRANCH   5   7
ENDBRANCH   1   5
BRANCH   3  23
ATOM     23  C   UNL A   1      33.898  26.682  25.292  1.00  0.00     0.117 C 
BRANCH  23  24
ATOM     24  C   UNL A   1      33.706  28.130  25.773  1.00  0.00     0.042 C 
BRANCH  24  25
ATOM     25  C   UNL A   1      33.572  28.382  27.272  1.00  0.00     0.118 C 
BRANCH  25  26
ATOM     26  N   UNL A   1      33.528  29.784  27.645  1.00  0.00    -0.352 N 
ATOM     27  C   UNL A   1      34.494  30.599  28.194  1.00  0.00     0.251 C 
ATOM     28  H   UNL A   1      32.664  30.225  27.479  1.00  0.00     0.163 HD
ATOM     29  O   UNL A   1      34.174  31.736  28.537  1.00  0.00    -0.269 OA
BRANCH  27  30
ATOM     30  C   UNL A   1      35.893  30.138  28.388  1.00  0.00     0.039 A 
ATOM     31  C   UNL A   1      36.278  29.618  29.632  1.00  0.00     0.014 A 
ATOM     32  C   UNL A   1      36.847  30.260  27.380  1.00  0.00     0.014 A 
ATOM     33  C   UNL A   1      37.601  29.212  29.844  1.00  0.00     0.010 A 
ATOM     34  C   UNL A   1      38.115  29.716  27.540  1.00  0.00     0.010 A 
ATOM     35  C   UNL A   1      38.527  29.248  28.791  1.00  0.00    -0.014 A 
BRANCH  35  36
ATOM     36  C   UNL A   1      39.959  28.910  28.988  1.00  0.00     0.031 A 
ATOM     37  C   UNL A   1      40.888  29.949  29.577  1.00  0.00     0.074 A 
ATOM     38  C   UNL A   1      40.429  27.715  28.584  1.00  0.00     0.049 A 
ATOM     39  N   UNL A   1      42.181  29.898  29.761  1.00  0.00    -0.248 NA
ATOM     40  C   UNL A   1      40.291  31.244  29.955  1.00  0.00     0.031 C 
ATOM     41  C   UNL A   1      39.636  26.672  27.926  1.00  0.00     0.029 A 
ATOM     42  N   UNL A   1      41.683  27.171  28.665  1.00  0.00    -0.354 N 
ATOM     43  C   UNL A   1      42.544  31.155  30.236  1.00  0.00     0.074 A 
ATOM     44  C   UNL A   1      41.359  31.977  30.217  1.00  0.00     0.031 C 
ATOM     45  C   UNL A   1      40.411  25.596  27.713  1.00  0.00     0.029 A 
ATOM     46  C   UNL A   1      41.759  25.884  28.188  1.00  0.00     0.049 A 
ATOM     47  H   UNL A   1      42.457  27.656  29.034  1.00  0.00     0.167 HD
ATOM     48  C   UNL A   1      43.746  31.574  30.698  1.00  0.00     0.037 A 
ATOM     49  C   UNL A   1      42.802  25.033  28.156  1.00  0.00     0.037 A 
ATOM     50  C   UNL A   1      44.896  30.715  30.773  1.00  0.00     0.049 A 
ATOM     51  C   UNL A   1      44.111  25.490  28.741  1.00  0.00     0.074 A 
ATOM     52  C   UNL A   1      46.151  30.990  31.283  1.00  0.00     0.029 A 
ATOM     53  N   UNL A   1      44.916  29.395  30.339  1.00  0.00    -0.354 N 
ATOM     54  N   UNL A   1      44.424  26.664  29.243  1.00  0.00    -0.248 NA
ATOM     55  C   UNL A   1      45.198  24.507  28.781  1.00  0.00     0.031 C 
ATOM     56  C   UNL A   1      46.942  29.846  31.122  1.00  0.00     0.029 A 
ATOM     57  C   UNL A   1      46.163  28.843  30.564  1.00  0.00     0.049 A 
ATOM     58  H   UNL A   1      44.154  28.924  29.931  1.00  0.00     0.167 HD
ATOM     59  C   UNL A   1      45.735  26.549  29.690  1.00  0.00     0.074 A 
ATOM     60  C   UNL A   1      46.146  25.187  29.412  1.00  0.00     0.031 C 
ATOM     61  C   UNL A   1      46.530  27.479  30.279  1.00  0.00     0.037 A 
BRANCH  48  62
ATOM     62  C   UNL A   1      43.859  32.999  31.174  1.00  0.00     0.058 A 
ATOM     63  C   UNL A   1      43.617  33.356  32.513  1.00  0.00     0.135 A 
ATOM     64  C   UNL A   1      44.218  34.026  30.285  1.00  0.00     0.135 A 
ATOM     65  F   UNL A   1      43.250  32.423  33.407  1.00  0.00    -0.206 F 
ATOM     66  C   UNL A   1      43.688  34.677  32.943  1.00  0.00     0.059 A 
ATOM     67  C   UNL A   1      44.329  35.350  30.702  1.00  0.00     0.059 A 
ATOM     68  F   UNL A   1      44.456  33.749  28.994  1.00  0.00    -0.206 F 
ATOM     69  C   UNL A   1      44.047  35.669  32.029  1.00  0.00     0.060 A 
BRANCH  69  70
ATOM     70  S   UNL A   1      44.144  37.376  32.606  1.00  0.00     0.124 S 
ATOM     71  O   UNL A   1      43.084  37.406  33.609  1.00  0.00    -0.237 OA
ATOM     72  O   UNL A   1      45.507  37.452  33.124  1.00  0.00    -0.237 OA
ATOM     73  O   UNL A   1      43.891  38.158  31.400  1.00  0.00    -0.744 OA
ENDBRANCH  69  70
ENDBRANCH  48  62
BRANCH  49  74
ATOM     74  C   UNL A   1      42.627  23.656  27.618  1.00  0.00     0.058 A 
ATOM     75  C   UNL A   1      42.716  23.401  26.240  1.00  0.00     0.135 A 
ATOM     76  C   UNL A   1      42.399  22.563  28.468  1.00  0.00     0.135 A 
ATOM     77  F   UNL A   1      42.939  24.409  25.385  1.00  0.00    -0.206 F 
ATOM     78  C   UNL A   1      42.559  22.119  25.723  1.00  0.00     0.059 A 
ATOM     79  C   UNL A   1      42.267  21.267  27.977  1.00  0.00     0.059 A 
ATOM     80  F   UNL A   1      42.333  22.746  29.796  1.00  0.00    -0.206 F 
ATOM     81  C   UNL A   1      42.337  21.057  26.601  1.00  0.00     0.060 A 
BRANCH  81  82
ATOM     82  S   UNL A   1      42.174  19.390  25.922  1.00  0.00     0.124 S 
ATOM     83  O   UNL A   1      42.993  19.483  24.718  1.00  0.00    -0.237 OA
ATOM     84  O   UNL A   1      42.712  18.566  27.000  1.00  0.00    -0.237 OA
ATOM     85  O   UNL A   1      40.738  19.259  25.699  1.00  0.00    -0.744 OA
ENDBRANCH  81  82
ENDBRANCH  49  74
BRANCH  61  86
ATOM     86  C   UNL A   1      47.899  27.030  30.702  1.00  0.00     0.058 A 
ATOM     87  C   UNL A   1      49.011  27.146  29.855  1.00  0.00     0.135 A 
ATOM     88  C   UNL A   1      48.098  26.495  31.985  1.00  0.00     0.135 A 
ATOM     89  F   UNL A   1      48.871  27.652  28.620  1.00  0.00    -0.206 F 
ATOM     90  C   UNL A   1      50.266  26.698  30.247  1.00  0.00     0.059 A 
ATOM     91  C   UNL A   1      49.351  26.074  32.410  1.00  0.00     0.059 A 
ATOM     92  F   UNL A   1      47.069  26.383  32.840  1.00  0.00    -0.206 F 
ATOM     93  C   UNL A   1      50.424  26.157  31.525  1.00  0.00     0.060 A 
BRANCH  93  94
ATOM     94  S   UNL A   1      52.055  25.567  32.017  1.00  0.00     0.124 S 
ATOM     95  O   UNL A   1      52.279  26.320  33.246  1.00  0.00    -0.237 OA
ATOM     96  O   UNL A   1      51.833  24.134  32.182  1.00  0.00    -0.237 OA
ATOM     97  O   UNL A   1      52.905  25.938  30.888  1.00  0.00    -0.744 OA
ENDBRANCH  93  94
ENDBRANCH  61  86
ENDBRANCH  35  36
ENDBRANCH  27  30
ENDBRANCH  25  26
ENDBRANCH  24  25
ENDBRANCH  23  24
ENDBRANCH   3  23
TORSDOF 19
ENDMDL
MODEL 2
REMARK VINA RESULT:     -10.4      4.768     10.601
REMARK SMILES C[C@@H](NC(=O)CCCNC(=O)c1ccco1)C(=O)NCCCNC(=O)c1ccc(-c2c3nc(c(-c4c(F)cc(S(=O)(=O)[O-])cc4F)c4ccc([nH]4)c(-c4c(F)cc(S(=O)(=O)[O-])cc4F)c4nc(c(-c5c(F)cc(S(=O)(=O)[O-])cc5F)c5ccc2[nH]5)C=C4)C=C3)cc1
REMARK SMILES IDX 17 1 18 2 19 3 2 5 1 6 3 7 4 8 5 10 6 11 7 12 8 13 9 14
REMARK SMILES IDX 10 15 11 17 12 18 13 19 16 20 14 21 15 22 20 23 21 24 22 25
REMARK SMILES IDX 23 26 24 27 25 29 26 30 27 31 91 32 28 33 90 34 29 35 30 36
REMARK SMILES IDX 31 37 84 38 32 39 89 40 83 41 85 42 33 43 88 44 82 45 81 46
REMARK SMILES IDX 34 48 68 49 47 50 67 51 48 52 51 53 66 54 86 55 49 56 50 57
REMARK SMILES IDX 65 59 87 60 52 61 35 62 36 63 45 64 37 65 38 66 44 67 46 68
REMARK SMILES IDX 39 69 40 70 41 71 42 72 43 73 69 74 70 75 79 76 71 77 72 78
REMARK SMILES IDX 78 79 80 80 73 81 74 82 75 83 76 84 77 85 53 86 54 87 63 88
REMARK SMILES IDX 55 89 56 90 62 91 64 92 57 93 58 94 59 95 60 96 61 97
REMARK H PARENT 19 4 3 9 9 16 23 28 85 47 51 58
REMARK Flexibility Score: inf
ROOT
ATOM      1  C   UNL A   1      37.546  21.374  25.137  1.00  0.00     0.242 C 
ATOM      2  O   UNL A   1      36.923  20.318  24.877  1.00  0.00    -0.273 OA
ATOM      3  N   UNL A   1      38.709  21.065  25.781  1.00  0.00    -0.354 N 
ATOM      4  H   UNL A   1      38.536  20.203  26.225  1.00  0.00     0.163 HD
ENDROOT
BRANCH   1   5
ATOM      5  C   UNL A   1      36.706  22.727  24.698  1.00  0.00     0.168 C 
ATOM      6  C   UNL A   1      36.677  22.899  23.138  1.00  0.00     0.041 C 
BRANCH   5   7
ATOM      7  N   UNL A   1      35.410  23.322  25.055  1.00  0.00    -0.345 N 
ATOM      8  C   UNL A   1      34.277  22.681  25.408  1.00  0.00     0.220 C 
ATOM      9  H   UNL A   1      35.364  24.305  25.034  1.00  0.00     0.164 HD
ATOM     10  O   UNL A   1      33.579  23.066  26.333  1.00  0.00    -0.275 OA
BRANCH   8  11
ATOM     11  C   UNL A   1      33.930  21.569  24.501  1.00  0.00     0.102 C 
BRANCH  11  12
ATOM     12  C   UNL A   1      32.792  21.932  23.501  1.00  0.00     0.031 C 
BRANCH  12  13
ATOM     13  C   UNL A   1      32.086  23.326  23.160  1.00  0.00     0.117 C 
BRANCH  13  14
ATOM     14  N   UNL A   1      32.439  24.134  21.996  1.00  0.00    -0.349 N 
ATOM     15  C   UNL A   1      32.925  25.353  21.563  1.00  0.00     0.286 C 
ATOM     16  H   UNL A   1      32.260  23.588  21.196  1.00  0.00     0.163 HD
ATOM     17  O   UNL A   1      33.124  25.391  20.342  1.00  0.00    -0.266 OA
BRANCH  15  18
ATOM     18  C   UNL A   1      33.161  26.545  22.343  1.00  0.00     0.191 A 
ATOM     19  C   UNL A   1      32.971  26.922  23.654  1.00  0.00     0.056 A 
ATOM     20  O   UNL A   1      33.884  27.542  21.707  1.00  0.00    -0.459 OA
ATOM     21  C   UNL A   1      33.612  28.185  23.825  1.00  0.00     0.043 A 
ATOM     22  C   UNL A   1      34.134  28.526  22.602  1.00  0.00     0.196 A 
ENDBRANCH  15  18
ENDBRANCH  13  14
ENDBRANCH  12  13
ENDBRANCH  11  12
ENDBRANCH   8  11
ENDBRANCH   5   7
ENDBRANCH   1   5
BRANCH   3  23
ATOM     23  C   UNL A   1      40.141  21.414  26.138  1.00  0.00     0.117 C 
BRANCH  23  24
ATOM     24  C   UNL A   1      40.372  22.226  27.423  1.00  0.00     0.042 C 
BRANCH  24  25
ATOM     25  C   UNL A   1      41.489  23.264  27.432  1.00  0.00     0.118 C 
BRANCH  25  26
ATOM     26  N   UNL A   1      41.501  24.148  26.282  1.00  0.00    -0.352 N 
ATOM     27  C   UNL A   1      41.288  25.506  26.188  1.00  0.00     0.251 C 
ATOM     28  H   UNL A   1      41.692  23.702  25.424  1.00  0.00     0.163 HD
ATOM     29  O   UNL A   1      41.231  26.014  25.071  1.00  0.00    -0.269 OA
BRANCH  27  30
ATOM     30  C   UNL A   1      41.117  26.358  27.394  1.00  0.00     0.039 A 
ATOM     31  C   UNL A   1      40.074  26.082  28.289  1.00  0.00     0.014 A 
ATOM     32  C   UNL A   1      41.938  27.460  27.630  1.00  0.00     0.014 A 
ATOM     33  C   UNL A   1      39.876  26.896  29.410  1.00  0.00     0.010 A 
ATOM     34  C   UNL A   1      41.838  28.171  28.818  1.00  0.00     0.010 A 
ATOM     35  C   UNL A   1      40.768  27.942  29.688  1.00  0.00    -0.014 A 
BRANCH  35  36
ATOM     36  C   UNL A   1      40.553  28.885  30.815  1.00  0.00     0.031 A 
ATOM     37  C   UNL A   1      41.414  28.763  32.052  1.00  0.00     0.074 A 
ATOM     38  C   UNL A   1      39.559  29.791  30.752  1.00  0.00     0.049 A 
ATOM     39  N   UNL A   1      41.347  29.423  33.179  1.00  0.00    -0.248 NA
ATOM     40  C   UNL A   1      42.453  27.715  32.045  1.00  0.00     0.031 C 
ATOM     41  C   UNL A   1      38.615  29.937  29.640  1.00  0.00     0.029 A 
ATOM     42  N   UNL A   1      39.174  30.761  31.639  1.00  0.00    -0.354 N 
ATOM     43  C   UNL A   1      42.302  28.846  34.011  1.00  0.00     0.074 A 
ATOM     44  C   UNL A   1      42.864  27.723  33.302  1.00  0.00     0.031 C 
ATOM     45  C   UNL A   1      37.796  30.972  29.889  1.00  0.00     0.029 A 
ATOM     46  C   UNL A   1      38.134  31.539  31.189  1.00  0.00     0.049 A 
ATOM     47  H   UNL A   1      39.603  30.890  32.516  1.00  0.00     0.167 HD
ATOM     48  C   UNL A   1      42.714  29.247  35.237  1.00  0.00     0.037 A 
ATOM     49  C   UNL A   1      37.536  32.601  31.762  1.00  0.00     0.037 A 
ATOM     50  C   UNL A   1      42.189  30.412  35.894  1.00  0.00     0.049 A 
ATOM     51  C   UNL A   1      38.057  33.077  33.091  1.00  0.00     0.074 A 
ATOM     52  C   UNL A   1      42.566  30.969  37.102  1.00  0.00     0.029 A 
ATOM     53  N   UNL A   1      41.180  31.214  35.376  1.00  0.00    -0.354 N 
ATOM     54  N   UNL A   1      39.003  32.557  33.840  1.00  0.00    -0.248 NA
ATOM     55  C   UNL A   1      37.452  34.294  33.642  1.00  0.00     0.031 C 
ATOM     56  C   UNL A   1      41.756  32.087  37.332  1.00  0.00     0.029 A 
ATOM     57  C   UNL A   1      40.916  32.259  36.242  1.00  0.00     0.049 A 
ATOM     58  H   UNL A   1      40.721  31.060  34.519  1.00  0.00     0.167 HD
ATOM     59  C   UNL A   1      39.130  33.404  34.935  1.00  0.00     0.074 A 
ATOM     60  C   UNL A   1      38.174  34.476  34.738  1.00  0.00     0.031 C 
ATOM     61  C   UNL A   1      39.960  33.311  36.005  1.00  0.00     0.037 A 
BRANCH  48  62
ATOM     62  C   UNL A   1      43.790  28.439  35.916  1.00  0.00     0.058 A 
ATOM     63  C   UNL A   1      45.157  28.702  35.711  1.00  0.00     0.135 A 
ATOM     64  C   UNL A   1      43.456  27.391  36.789  1.00  0.00     0.135 A 
ATOM     65  F   UNL A   1      45.540  29.677  34.872  1.00  0.00    -0.206 F 
ATOM     66  C   UNL A   1      46.148  27.933  36.313  1.00  0.00     0.059 A 
ATOM     67  C   UNL A   1      44.432  26.630  37.429  1.00  0.00     0.059 A 
ATOM     68  F   UNL A   1      42.169  27.089  37.022  1.00  0.00    -0.206 F 
ATOM     69  C   UNL A   1      45.776  26.899  37.172  1.00  0.00     0.060 A 
BRANCH  69  70
ATOM     70  S   UNL A   1      47.075  25.918  37.953  1.00  0.00     0.124 S 
ATOM     71  O   UNL A   1      46.403  24.635  38.133  1.00  0.00    -0.237 OA
ATOM     72  O   UNL A   1      48.131  25.944  36.946  1.00  0.00    -0.237 OA
ATOM     73  O   UNL A   1      47.365  26.653  39.180  1.00  0.00    -0.744 OA
ENDBRANCH  69  70
ENDBRANCH  48  62
BRANCH  49  74
ATOM     74  C   UNL A   1      36.440  33.315  31.052  1.00  0.00     0.058 A 
ATOM     75  C   UNL A   1      35.132  33.320  31.560  1.00  0.00     0.135 A 
ATOM     76  C   UNL A   1      36.682  34.033  29.871  1.00  0.00     0.135 A 
ATOM     77  F   UNL A   1      34.849  32.655  32.690  1.00  0.00    -0.206 F 
ATOM     78  C   UNL A   1      34.098  33.987  30.910  1.00  0.00     0.059 A 
ATOM     79  C   UNL A   1      35.669  34.732  29.217  1.00  0.00     0.059 A 
ATOM     80  F   UNL A   1      37.920  34.086  29.356  1.00  0.00    -0.206 F 
ATOM     81  C   UNL A   1      34.378  34.692  29.739  1.00  0.00     0.060 A 
BRANCH  81  82
ATOM     82  S   UNL A   1      33.036  35.588  28.925  1.00  0.00     0.124 S 
ATOM     83  O   UNL A   1      33.759  36.676  28.278  1.00  0.00    -0.237 OA
ATOM     84  O   UNL A   1      32.482  34.570  28.037  1.00  0.00    -0.237 OA
ATOM     85  O   UNL A   1      32.172  35.977  30.035  1.00  0.00    -0.744 OA
ENDBRANCH  81  82
ENDBRANCH  49  74
BRANCH  61  86
ATOM     86  C   UNL A   1      39.897  34.425  37.011  1.00  0.00     0.058 A 
ATOM     87  C   UNL A   1      40.683  35.581  36.885  1.00  0.00     0.135 A 
ATOM     88  C   UNL A   1      39.019  34.337  38.103  1.00  0.00     0.135 A 
ATOM     89  F   UNL A   1      41.535  35.710  35.857  1.00  0.00    -0.206 F 
ATOM     90  C   UNL A   1      40.638  36.589  37.839  1.00  0.00     0.059 A 
ATOM     91  C   UNL A   1      38.933  35.350  39.049  1.00  0.00     0.059 A 
ATOM     92  F   UNL A   1      38.232  33.260  38.255  1.00  0.00    -0.206 F 
ATOM     93  C   UNL A   1      39.764  36.462  38.921  1.00  0.00     0.060 A 
BRANCH  93  94
ATOM     94  S   UNL A   1      39.726  37.772  40.159  1.00  0.00     0.124 S 
ATOM     95  O   UNL A   1      38.638  38.609  39.663  1.00  0.00    -0.237 OA
ATOM     96  O   UNL A   1      39.450  37.034  41.387  1.00  0.00    -0.237 OA
ATOM     97  O   UNL A   1      41.060  38.359  40.073  1.00  0.00    -0.744 OA
ENDBRANCH  93  94
ENDBRANCH  61  86
ENDBRANCH  35  36
ENDBRANCH  27  30
ENDBRANCH  25  26
ENDBRANCH  24  25
ENDBRANCH  23  24
ENDBRANCH   3  23
TORSDOF 19
ENDMDL
MODEL 3
REMARK VINA RESULT:     -10.1      4.769     10.482
REMARK SMILES C[C@@H](NC(=O)CCCNC(=O)c1ccco1)C(=O)NCCCNC(=O)c1ccc(-c2c3nc(c(-c4c(F)cc(S(=O)(=O)[O-])cc4F)c4ccc([nH]4)c(-c4c(F)cc(S(=O)(=O)[O-])cc4F)c4nc(c(-c5c(F)cc(S(=O)(=O)[O-])cc5F)c5ccc2[nH]5)C=C4)C=C3)cc1
REMARK SMILES IDX 17 1 18 2 19 3 2 5 1 6 3 7 4 8 5 10 6 11 7 12 8 13 9 14
REMARK SMILES IDX 10 15 11 17 12 18 13 19 16 20 14 21 15 22 20 23 21 24 22 25
REMARK SMILES IDX 23 26 24 27 25 29 26 30 27 31 91 32 28 33 90 34 29 35 30 36
REMARK SMILES IDX 31 37 84 38 32 39 89 40 83 41 85 42 33 43 88 44 82 45 81 46
REMARK SMILES IDX 34 48 68 49 47 50 67 51 48 52 51 53 66 54 86 55 49 56 50 57
REMARK SMILES IDX 65 59 87 60 52 61 35 62 36 63 45 64 37 65 38 66 44 67 46 68
REMARK SMILES IDX 39 69 40 70 41 71 42 72 43 73 69 74 70 75 79 76 71 77 72 78
REMARK SMILES IDX 78 79 80 80 73 81 74 82 75 83 76 84 77 85 53 86 54 87 63 88
REMARK SMILES IDX 55 89 56 90 62 91 64 92 57 93 58 94 59 95 60 96 61 97
REMARK H PARENT 19 4 3 9 9 16 23 28 85 47 51 58
REMARK Flexibility Score: inf
ROOT
ATOM      1  C   UNL A   1      34.120  24.966  25.826  1.00  0.00     0.242 C 
ATOM      2  O   UNL A   1      33.130  24.355  26.293  1.00  0.00    -0.273 OA
ATOM      3  N   UNL A   1      35.114  24.072  25.556  1.00  0.00    -0.354 N 
ATOM      4  H   UNL A   1      34.957  23.318  26.170  1.00  0.00     0.163 HD
ENDROOT
BRANCH   1   5
ATOM      5  C   UNL A   1      33.896  26.603  25.798  1.00  0.00     0.168 C 
ATOM      6  C   UNL A   1      34.076  27.178  24.349  1.00  0.00     0.041 C 
BRANCH   5   7
ATOM      7  N   UNL A   1      32.895  27.536  26.333  1.00  0.00    -0.345 N 
ATOM      8  C   UNL A   1      31.585  27.303  26.557  1.00  0.00     0.220 C 
ATOM      9  H   UNL A   1      33.218  28.439  26.554  1.00  0.00     0.164 HD
ATOM     10  O   UNL A   1      31.025  27.689  27.570  1.00  0.00    -0.275 OA
BRANCH   8  11
ATOM     11  C   UNL A   1      30.907  26.652  25.419  1.00  0.00     0.102 C 
BRANCH  11  12
ATOM     12  C   UNL A   1      30.569  27.642  24.264  1.00  0.00     0.031 C 
BRANCH  12  13
ATOM     13  C   UNL A   1      30.541  27.447  22.677  1.00  0.00     0.117 C 
BRANCH  13  14
ATOM     14  N   UNL A   1      31.679  26.937  21.917  1.00  0.00    -0.349 N 
ATOM     15  C   UNL A   1      32.438  25.822  21.617  1.00  0.00     0.286 C 
ATOM     16  H   UNL A   1      32.059  27.694  21.415  1.00  0.00     0.163 HD
ATOM     17  O   UNL A   1      33.277  26.029  20.731  1.00  0.00    -0.266 OA
BRANCH  15  18
ATOM     18  C   UNL A   1      32.390  24.518  22.237  1.00  0.00     0.191 A 
ATOM     19  C   UNL A   1      33.279  23.483  22.430  1.00  0.00     0.056 A 
ATOM     20  O   UNL A   1      31.239  24.241  22.956  1.00  0.00    -0.459 OA
ATOM     21  C   UNL A   1      32.649  22.549  23.306  1.00  0.00     0.043 A 
ATOM     22  C   UNL A   1      31.401  23.050  23.580  1.00  0.00     0.196 A 
ENDBRANCH  15  18
ENDBRANCH  13  14
ENDBRANCH  12  13
ENDBRANCH  11  12
ENDBRANCH   8  11
ENDBRANCH   5   7
ENDBRANCH   1   5
BRANCH   3  23
ATOM     23  C   UNL A   1      36.346  23.684  24.761  1.00  0.00     0.117 C 
BRANCH  23  24
ATOM     24  C   UNL A   1      37.542  23.113  25.540  1.00  0.00     0.042 C 
BRANCH  24  25
ATOM     25  C   UNL A   1      38.400  24.075  26.356  1.00  0.00     0.118 C 
BRANCH  25  26
ATOM     26  N   UNL A   1      39.827  23.952  26.126  1.00  0.00    -0.352 N 
ATOM     27  C   UNL A   1      40.885  24.684  26.622  1.00  0.00     0.251 C 
ATOM     28  H   UNL A   1      40.083  23.224  25.514  1.00  0.00     0.163 HD
ATOM     29  O   UNL A   1      42.009  24.461  26.179  1.00  0.00    -0.269 OA
BRANCH  27  30
ATOM     30  C   UNL A   1      40.696  25.732  27.658  1.00  0.00     0.039 A 
ATOM     31  C   UNL A   1      41.539  26.853  27.664  1.00  0.00     0.014 A 
ATOM     32  C   UNL A   1      39.734  25.603  28.659  1.00  0.00     0.014 A 
ATOM     33  C   UNL A   1      41.399  27.832  28.655  1.00  0.00     0.010 A 
ATOM     34  C   UNL A   1      39.495  26.645  29.545  1.00  0.00     0.010 A 
ATOM     35  C   UNL A   1      40.364  27.738  29.597  1.00  0.00    -0.014 A 
BRANCH  35  36
ATOM     36  C   UNL A   1      40.227  28.704  30.716  1.00  0.00     0.031 A 
ATOM     37  C   UNL A   1      41.118  28.557  31.930  1.00  0.00     0.074 A 
ATOM     38  C   UNL A   1      39.274  29.655  30.670  1.00  0.00     0.049 A 
ATOM     39  N   UNL A   1      41.114  29.233  33.049  1.00  0.00    -0.248 NA
ATOM     40  C   UNL A   1      42.106  27.462  31.907  1.00  0.00     0.031 C 
ATOM     41  C   UNL A   1      38.306  29.831  29.584  1.00  0.00     0.029 A 
ATOM     42  N   UNL A   1      38.961  30.652  31.554  1.00  0.00    -0.354 N 
ATOM     43  C   UNL A   1      42.066  28.623  33.861  1.00  0.00     0.074 A 
ATOM     44  C   UNL A   1      42.553  27.466  33.151  1.00  0.00     0.031 C 
ATOM     45  C   UNL A   1      37.544  30.906  29.842  1.00  0.00     0.029 A 
ATOM     46  C   UNL A   1      37.946  31.474  31.124  1.00  0.00     0.049 A 
ATOM     47  H   UNL A   1      39.422  30.772  32.416  1.00  0.00     0.167 HD
ATOM     48  C   UNL A   1      42.532  29.019  35.069  1.00  0.00     0.037 A 
ATOM     49  C   UNL A   1      37.416  32.569  31.699  1.00  0.00     0.037 A 
ATOM     50  C   UNL A   1      42.081  30.216  35.725  1.00  0.00     0.049 A 
ATOM     51  C   UNL A   1      37.997  33.037  33.005  1.00  0.00     0.074 A 
ATOM     52  C   UNL A   1      42.519  30.769  36.914  1.00  0.00     0.029 A 
ATOM     53  N   UNL A   1      41.097  31.058  35.225  1.00  0.00    -0.354 N 
ATOM     54  N   UNL A   1      38.939  32.483  33.734  1.00  0.00    -0.248 NA
ATOM     55  C   UNL A   1      37.466  34.288  33.557  1.00  0.00     0.031 C 
ATOM     56  C   UNL A   1      41.770  31.927  37.151  1.00  0.00     0.029 A 
ATOM     57  C   UNL A   1      40.907  32.124  36.084  1.00  0.00     0.049 A 
ATOM     58  H   UNL A   1      40.605  30.915  34.384  1.00  0.00     0.167 HD
ATOM     59  C   UNL A   1      39.138  33.336  34.813  1.00  0.00     0.074 A 
ATOM     60  C   UNL A   1      38.228  34.450  34.629  1.00  0.00     0.031 C 
ATOM     61  C   UNL A   1      39.994  33.217  35.860  1.00  0.00     0.037 A 
BRANCH  48  62
ATOM     62  C   UNL A   1      43.589  28.170  35.728  1.00  0.00     0.058 A 
ATOM     63  C   UNL A   1      44.959  28.361  35.475  1.00  0.00     0.135 A 
ATOM     64  C   UNL A   1      43.232  27.154  36.630  1.00  0.00     0.135 A 
ATOM     65  F   UNL A   1      45.363  29.303  34.607  1.00  0.00    -0.206 F 
ATOM     66  C   UNL A   1      45.931  27.554  36.059  1.00  0.00     0.059 A 
ATOM     67  C   UNL A   1      44.190  26.357  37.252  1.00  0.00     0.059 A 
ATOM     68  F   UNL A   1      41.940  26.920  36.908  1.00  0.00    -0.206 F 
ATOM     69  C   UNL A   1      45.537  26.554  36.948  1.00  0.00     0.060 A 
BRANCH  69  70
ATOM     70  S   UNL A   1      46.811  25.523  37.704  1.00  0.00     0.124 S 
ATOM     71  O   UNL A   1      46.366  25.483  39.093  1.00  0.00    -0.237 OA
ATOM     72  O   UNL A   1      46.681  24.274  36.961  1.00  0.00    -0.237 OA
ATOM     73  O   UNL A   1      48.042  26.270  37.459  1.00  0.00    -0.744 OA
ENDBRANCH  69  70
ENDBRANCH  48  62
BRANCH  49  74
ATOM     74  C   UNL A   1      36.334  33.325  31.011  1.00  0.00     0.058 A 
ATOM     75  C   UNL A   1      36.594  34.060  29.844  1.00  0.00     0.135 A 
ATOM     76  C   UNL A   1      35.013  33.304  31.485  1.00  0.00     0.135 A 
ATOM     77  F   UNL A   1      37.839  34.108  29.346  1.00  0.00    -0.206 F 
ATOM     78  C   UNL A   1      35.592  34.768  29.187  1.00  0.00     0.059 A 
ATOM     79  C   UNL A   1      33.988  33.981  30.829  1.00  0.00     0.059 A 
ATOM     80  F   UNL A   1      34.702  32.594  32.580  1.00  0.00    -0.206 F 
ATOM     81  C   UNL A   1      34.290  34.720  29.687  1.00  0.00     0.060 A 
BRANCH  81  82
ATOM     82  S   UNL A   1      32.989  35.610  28.803  1.00  0.00     0.124 S 
ATOM     83  O   UNL A   1      32.155  36.078  29.903  1.00  0.00    -0.237 OA
ATOM     84  O   UNL A   1      33.748  36.636  28.093  1.00  0.00    -0.237 OA
ATOM     85  O   UNL A   1      32.397  34.580  27.956  1.00  0.00    -0.744 OA
ENDBRANCH  81  82
ENDBRANCH  49  74
BRANCH  61  86
ATOM     86  C   UNL A   1      40.013  34.346  36.852  1.00  0.00     0.058 A 
ATOM     87  C   UNL A   1      40.888  35.435  36.717  1.00  0.00     0.135 A 
ATOM     88  C   UNL A   1      39.125  34.341  37.939  1.00  0.00     0.135 A 
ATOM     89  F   UNL A   1      41.754  35.484  35.693  1.00  0.00    -0.206 F 
ATOM     90  C   UNL A   1      40.917  36.456  37.658  1.00  0.00     0.059 A 
ATOM     91  C   UNL A   1      39.113  35.369  38.872  1.00  0.00     0.059 A 
ATOM     92  F   UNL A   1      38.255  33.331  38.099  1.00  0.00    -0.206 F 
ATOM     93  C   UNL A   1      40.030  36.411  38.736  1.00  0.00     0.060 A 
BRANCH  93  94
ATOM     94  S   UNL A   1      40.087  37.736  39.957  1.00  0.00     0.124 S 
ATOM     95  O   UNL A   1      40.002  36.986  41.205  1.00  0.00    -0.237 OA
ATOM     96  O   UNL A   1      41.376  38.362  39.679  1.00  0.00    -0.237 OA
ATOM     97  O   UNL A   1      38.918  38.549  39.631  1.00  0.00    -0.744 OA
ENDBRANCH  93  94
ENDBRANCH  61  86
ENDBRANCH  35  36
ENDBRANCH  27  30
ENDBRANCH  25  26
ENDBRANCH  24  25
ENDBRANCH  23  24
ENDBRANCH   3  23
TORSDOF 19
ENDMDL
