MODEL 1
REMARK VINA RESULT:     -12.4      0.000      0.000
REMARK SMILES O=C(Cn1c(SCCOc2ccccc2Cl)nc2ccccc21)NCCCNC(=O)c1ccc(-c2c3nc(c(-c4c(F)cc(S(=O)(=O)[O-])cc4F)c4ccc([nH]4)c(-c4c(F)cc(S(=O)(=O)[O-])cc4F)c4nc(c(-c5c(F)cc(S(=O)(=O)[O-])cc5F)c5ccc2[nH]5)C=C4)C=C3)cc1
REMARK SMILES IDX 1 1 2 2 24 3 3 5 4 6 5 7 23 8 17 9 18 10 22 11 19 12 21 13
REMARK SMILES IDX 20 14 6 15 7 16 8 17 9 18 10 19 11 20 15 21 12 22 14 23
REMARK SMILES IDX 16 24 13 25 25 26 26 27 27 28 28 29 29 30 30 32 31 33 32 34
REMARK SMILES IDX 96 35 33 36 95 37 34 38 35 39 36 40 89 41 37 42 94 43 88 44
REMARK SMILES IDX 90 45 38 46 93 47 87 48 86 49 39 51 73 52 52 53 72 54 53 55
REMARK SMILES IDX 56 56 71 57 91 58 54 59 55 60 70 62 92 63 57 64 40 65 41 66
REMARK SMILES IDX 50 67 42 68 43 69 49 70 51 71 44 72 45 73 46 74 47 75 48 76
REMARK SMILES IDX 74 77 75 78 84 79 76 80 77 81 83 82 85 83 78 84 79 85 80 86
REMARK SMILES IDX 81 87 82 88 58 89 59 90 68 91 60 92 61 93 67 94 69 95 62 96
REMARK SMILES IDX 63 97 64 98 65 99 66 100
REMARK H PARENT 24 4 28 31 90 50 56 61
REMARK Flexibility Score: inf
ROOT
ATOM      1  O   UNL A   1      36.151  21.927  24.175  1.00  0.00    -0.273 OA
ATOM      2  C   UNL A   1      36.165  21.769  25.397  1.00  0.00     0.240 C 
ATOM      3  N   UNL A   1      37.234  22.074  26.202  1.00  0.00    -0.354 N 
ATOM      4  H   UNL A   1      37.108  22.115  27.178  1.00  0.00     0.163 HD
ENDROOT
BRANCH   2   5
ATOM      5  C   UNL A   1      35.008  21.185  26.152  1.00  0.00     0.224 C 
BRANCH   5   6
ATOM      6  N   UNL A   1      33.947  20.758  25.271  1.00  0.00    -0.309 N 
ATOM      7  C   UNL A   1      32.797  21.423  24.925  1.00  0.00     0.169 A 
ATOM      8  C   UNL A   1      33.915  19.518  24.642  1.00  0.00     0.069 A 
ATOM      9  N   UNL A   1      32.131  20.766  23.995  1.00  0.00    -0.222 NA
ATOM     10  C   UNL A   1      32.801  19.583  23.815  1.00  0.00     0.090 A 
ATOM     11  C   UNL A   1      34.723  18.372  24.711  1.00  0.00     0.028 A 
ATOM     12  C   UNL A   1      32.494  18.492  22.983  1.00  0.00     0.030 A 
ATOM     13  C   UNL A   1      34.395  17.288  23.891  1.00  0.00     0.002 A 
ATOM     14  C   UNL A   1      33.301  17.348  23.031  1.00  0.00     0.002 A 
BRANCH   7  15
ATOM     15  S   UNL A   1      32.196  22.938  25.527  1.00  0.00    -0.084 SA
BRANCH  15  16
ATOM     16  C   UNL A   1      33.367  24.288  25.212  1.00  0.00     0.119 C 
BRANCH  16  17
ATOM     17  C   UNL A   1      33.369  25.600  26.012  1.00  0.00     0.241 C 
BRANCH  17  18
ATOM     18  O   UNL A   1      33.209  26.796  25.254  1.00  0.00    -0.491 OA
BRANCH  18  19
ATOM     19  C   UNL A   1      33.125  27.993  25.920  1.00  0.00     0.137 A 
ATOM     20  C   UNL A   1      34.063  28.436  26.860  1.00  0.00     0.048 A 
ATOM     21  C   UNL A   1      32.099  28.873  25.533  1.00  0.00     0.083 A 
ATOM     22  C   UNL A   1      34.043  29.753  27.320  1.00  0.00     0.004 A 
ATOM     23  C   UNL A   1      32.073  30.189  26.005  1.00  0.00     0.024 A 
ATOM     24  Cl  UNL A   1      30.866  28.390  24.418  1.00  0.00    -0.080 Cl
ATOM     25  C   UNL A   1      33.062  30.635  26.879  1.00  0.00     0.002 A 
ENDBRANCH  18  19
ENDBRANCH  17  18
ENDBRANCH  16  17
ENDBRANCH  15  16
ENDBRANCH   7  15
ENDBRANCH   5   6
ENDBRANCH   2   5
BRANCH   3  26
ATOM     26  C   UNL A   1      38.536  22.334  25.642  1.00  0.00     0.117 C 
BRANCH  26  27
ATOM     27  C   UNL A   1      39.464  21.142  25.800  1.00  0.00     0.042 C 
BRANCH  27  28
ATOM     28  C   UNL A   1      40.856  21.475  26.357  1.00  0.00     0.118 C 
BRANCH  28  29
ATOM     29  N   UNL A   1      41.773  22.106  25.429  1.00  0.00    -0.352 N 
ATOM     30  C   UNL A   1      42.429  23.309  25.423  1.00  0.00     0.251 C 
ATOM     31  H   UNL A   1      41.965  21.554  24.637  1.00  0.00     0.163 HD
ATOM     32  O   UNL A   1      43.382  23.410  24.647  1.00  0.00    -0.269 OA
BRANCH  30  33
ATOM     33  C   UNL A   1      42.005  24.496  26.214  1.00  0.00     0.039 A 
ATOM     34  C   UNL A   1      41.001  25.377  25.832  1.00  0.00     0.014 A 
ATOM     35  C   UNL A   1      42.749  24.792  27.373  1.00  0.00     0.014 A 
ATOM     36  C   UNL A   1      40.852  26.591  26.478  1.00  0.00     0.010 A 
ATOM     37  C   UNL A   1      42.558  25.987  28.068  1.00  0.00     0.010 A 
ATOM     38  C   UNL A   1      41.643  26.913  27.584  1.00  0.00    -0.014 A 
BRANCH  38  39
ATOM     39  C   UNL A   1      41.349  28.193  28.223  1.00  0.00     0.031 A 
ATOM     40  C   UNL A   1      42.419  29.207  28.040  1.00  0.00     0.074 A 
ATOM     41  C   UNL A   1      40.241  28.492  28.929  1.00  0.00     0.049 A 
ATOM     42  N   UNL A   1      43.275  29.609  28.922  1.00  0.00    -0.248 NA
ATOM     43  C   UNL A   1      42.674  29.709  26.683  1.00  0.00     0.031 C 
ATOM     44  C   UNL A   1      38.986  27.742  28.986  1.00  0.00     0.029 A 
ATOM     45  N   UNL A   1      39.985  29.591  29.703  1.00  0.00    -0.354 N 
ATOM     46  C   UNL A   1      44.016  30.605  28.296  1.00  0.00     0.074 A 
ATOM     47  C   UNL A   1      43.732  30.498  26.888  1.00  0.00     0.031 C 
ATOM     48  C   UNL A   1      38.034  28.513  29.562  1.00  0.00     0.029 A 
ATOM     49  C   UNL A   1      38.652  29.730  30.065  1.00  0.00     0.049 A 
ATOM     50  H   UNL A   1      40.684  30.227  29.980  1.00  0.00     0.167 HD
ATOM     51  C   UNL A   1      44.575  31.610  29.023  1.00  0.00     0.037 A 
ATOM     52  C   UNL A   1      38.087  30.773  30.716  1.00  0.00     0.037 A 
ATOM     53  C   UNL A   1      44.611  31.293  30.427  1.00  0.00     0.049 A 
ATOM     54  C   UNL A   1      39.133  31.432  31.534  1.00  0.00     0.074 A 
ATOM     55  C   UNL A   1      45.413  30.584  31.291  1.00  0.00     0.029 A 
ATOM     56  N   UNL A   1      43.433  31.539  31.074  1.00  0.00    -0.354 N 
ATOM     57  N   UNL A   1      39.729  30.858  32.544  1.00  0.00    -0.248 NA
ATOM     58  C   UNL A   1      39.747  32.672  31.067  1.00  0.00     0.031 C 
ATOM     59  C   UNL A   1      44.622  30.314  32.450  1.00  0.00     0.029 A 
ATOM     60  C   UNL A   1      43.364  30.879  32.272  1.00  0.00     0.049 A 
ATOM     61  H   UNL A   1      42.720  32.120  30.722  1.00  0.00     0.167 HD
ATOM     62  C   UNL A   1      40.985  31.426  32.564  1.00  0.00     0.074 A 
ATOM     63  C   UNL A   1      40.883  32.639  31.768  1.00  0.00     0.031 C 
ATOM     64  C   UNL A   1      42.081  30.699  32.915  1.00  0.00     0.037 A 
BRANCH  51  65
ATOM     65  C   UNL A   1      44.632  33.053  28.563  1.00  0.00     0.058 A 
ATOM     66  C   UNL A   1      45.885  33.651  28.317  1.00  0.00     0.135 A 
ATOM     67  C   UNL A   1      43.541  33.946  28.660  1.00  0.00     0.135 A 
ATOM     68  F   UNL A   1      46.994  32.901  28.223  1.00  0.00    -0.206 F 
ATOM     69  C   UNL A   1      46.049  35.035  28.229  1.00  0.00     0.059 A 
ATOM     70  C   UNL A   1      43.674  35.324  28.523  1.00  0.00     0.059 A 
ATOM     71  F   UNL A   1      42.311  33.538  28.993  1.00  0.00    -0.206 F 
ATOM     72  C   UNL A   1      44.936  35.863  28.345  1.00  0.00     0.060 A 
BRANCH  72  73
ATOM     73  S   UNL A   1      45.153  37.652  28.309  1.00  0.00     0.124 S 
ATOM     74  O   UNL A   1      45.132  37.921  26.877  1.00  0.00    -0.237 OA
ATOM     75  O   UNL A   1      43.991  38.110  29.064  1.00  0.00    -0.237 OA
ATOM     76  O   UNL A   1      46.439  37.847  28.973  1.00  0.00    -0.744 OA
ENDBRANCH  72  73
ENDBRANCH  51  65
BRANCH  52  77
ATOM     77  C   UNL A   1      36.778  31.424  30.447  1.00  0.00     0.058 A 
ATOM     78  C   UNL A   1      35.996  31.928  31.503  1.00  0.00     0.135 A 
ATOM     79  C   UNL A   1      36.428  31.851  29.151  1.00  0.00     0.135 A 
ATOM     80  F   UNL A   1      36.261  31.572  32.769  1.00  0.00    -0.206 F 
ATOM     81  C   UNL A   1      34.990  32.874  31.297  1.00  0.00     0.059 A 
ATOM     82  C   UNL A   1      35.420  32.786  28.921  1.00  0.00     0.059 A 
ATOM     83  F   UNL A   1      37.126  31.451  28.078  1.00  0.00    -0.206 F 
ATOM     84  C   UNL A   1      34.732  33.322  30.003  1.00  0.00     0.060 A 
BRANCH  84  85
ATOM     85  S   UNL A   1      33.591  34.704  29.762  1.00  0.00     0.124 S 
ATOM     86  O   UNL A   1      33.144  34.968  31.125  1.00  0.00    -0.237 OA
ATOM     87  O   UNL A   1      34.458  35.715  29.167  1.00  0.00    -0.237 OA
ATOM     88  O   UNL A   1      32.576  34.151  28.868  1.00  0.00    -0.744 OA
ENDBRANCH  84  85
ENDBRANCH  52  77
BRANCH  64  89
ATOM     89  C   UNL A   1      41.904  29.578  33.888  1.00  0.00     0.058 A 
ATOM     90  C   UNL A   1      41.690  28.234  33.546  1.00  0.00     0.135 A 
ATOM     91  C   UNL A   1      42.023  29.889  35.252  1.00  0.00     0.135 A 
ATOM     92  F   UNL A   1      41.631  27.850  32.262  1.00  0.00    -0.206 F 
ATOM     93  C   UNL A   1      41.579  27.243  34.525  1.00  0.00     0.059 A 
ATOM     94  C   UNL A   1      41.943  28.917  36.241  1.00  0.00     0.059 A 
ATOM     95  F   UNL A   1      42.259  31.155  35.635  1.00  0.00    -0.206 F 
ATOM     96  C   UNL A   1      41.713  27.595  35.871  1.00  0.00     0.060 A 
BRANCH  96  97
ATOM     97  S   UNL A   1      41.653  26.305  37.133  1.00  0.00     0.124 S 
ATOM     98  O   UNL A   1      41.708  25.086  36.333  1.00  0.00    -0.237 OA
ATOM     99  O   UNL A   1      42.839  26.595  37.932  1.00  0.00    -0.237 OA
ATOM    100  O   UNL A   1      40.381  26.547  37.811  1.00  0.00    -0.744 OA
ENDBRANCH  96  97
ENDBRANCH  64  89
ENDBRANCH  38  39
ENDBRANCH  30  33
ENDBRANCH  28  29
ENDBRANCH  27  28
ENDBRANCH  26  27
ENDBRANCH   3  26
TORSDOF 19
ENDMDL
MODEL 2
REMARK VINA RESULT:     -12.2      3.251      9.391
REMARK SMILES O=C(Cn1c(SCCOc2ccccc2Cl)nc2ccccc21)NCCCNC(=O)c1ccc(-c2c3nc(c(-c4c(F)cc(S(=O)(=O)[O-])cc4F)c4ccc([nH]4)c(-c4c(F)cc(S(=O)(=O)[O-])cc4F)c4nc(c(-c5c(F)cc(S(=O)(=O)[O-])cc5F)c5ccc2[nH]5)C=C4)C=C3)cc1
REMARK SMILES IDX 1 1 2 2 24 3 3 5 4 6 5 7 23 8 17 9 18 10 22 11 19 12 21 13
REMARK SMILES IDX 20 14 6 15 7 16 8 17 9 18 10 19 11 20 15 21 12 22 14 23
REMARK SMILES IDX 16 24 13 25 25 26 26 27 27 28 28 29 29 30 30 32 31 33 32 34
REMARK SMILES IDX 96 35 33 36 95 37 34 38 35 39 36 40 89 41 37 42 94 43 88 44
REMARK SMILES IDX 90 45 38 46 93 47 87 48 86 49 39 51 73 52 52 53 72 54 53 55
REMARK SMILES IDX 56 56 71 57 91 58 54 59 55 60 70 62 92 63 57 64 40 65 41 66
REMARK SMILES IDX 50 67 42 68 43 69 49 70 51 71 44 72 45 73 46 74 47 75 48 76
REMARK SMILES IDX 74 77 75 78 84 79 76 80 77 81 83 82 85 83 78 84 79 85 80 86
REMARK SMILES IDX 81 87 82 88 58 89 59 90 68 91 60 92 61 93 67 94 69 95 62 96
REMARK SMILES IDX 63 97 64 98 65 99 66 100
REMARK H PARENT 24 4 28 31 90 50 56 61
REMARK Flexibility Score: inf
ROOT
ATOM      1  O   UNL A   1      33.949  27.620  24.298  1.00  0.00    -0.273 OA
ATOM      2  C   UNL A   1      33.637  27.147  25.392  1.00  0.00     0.240 C 
ATOM      3  N   UNL A   1      33.729  27.826  26.581  1.00  0.00    -0.354 N 
ATOM      4  H   UNL A   1      33.277  27.466  27.379  1.00  0.00     0.163 HD
ENDROOT
BRANCH   2   5
ATOM      5  C   UNL A   1      33.142  25.740  25.554  1.00  0.00     0.224 C 
BRANCH   5   6
ATOM      6  N   UNL A   1      33.691  24.854  24.554  1.00  0.00    -0.309 N 
ATOM      7  C   UNL A   1      33.152  24.485  23.346  1.00  0.00     0.169 A 
ATOM      8  C   UNL A   1      34.895  24.175  24.698  1.00  0.00     0.069 A 
ATOM      9  N   UNL A   1      34.006  23.760  22.650  1.00  0.00    -0.222 NA
ATOM     10  C   UNL A   1      35.083  23.550  23.472  1.00  0.00     0.090 A 
ATOM     11  C   UNL A   1      35.815  24.041  25.749  1.00  0.00     0.028 A 
ATOM     12  C   UNL A   1      36.251  22.799  23.252  1.00  0.00     0.030 A 
ATOM     13  C   UNL A   1      36.965  23.276  25.522  1.00  0.00     0.002 A 
ATOM     14  C   UNL A   1      37.186  22.670  24.288  1.00  0.00     0.002 A 
BRANCH   7  15
ATOM     15  S   UNL A   1      31.591  24.871  22.689  1.00  0.00    -0.084 SA
BRANCH  15  16
ATOM     16  C   UNL A   1      31.558  26.550  22.002  1.00  0.00     0.119 C 
BRANCH  16  17
ATOM     17  C   UNL A   1      30.474  27.580  22.356  1.00  0.00     0.241 C 
BRANCH  17  18
ATOM     18  O   UNL A   1      30.801  28.944  22.109  1.00  0.00    -0.491 OA
BRANCH  18  19
ATOM     19  C   UNL A   1      29.856  29.906  22.364  1.00  0.00     0.137 A 
ATOM     20  C   UNL A   1      28.861  30.287  21.458  1.00  0.00     0.048 A 
ATOM     21  C   UNL A   1      29.820  30.443  23.663  1.00  0.00     0.083 A 
ATOM     22  C   UNL A   1      27.799  31.096  21.865  1.00  0.00     0.004 A 
ATOM     23  C   UNL A   1      28.761  31.263  24.066  1.00  0.00     0.024 A 
ATOM     24  Cl  UNL A   1      31.042  30.068  24.831  1.00  0.00    -0.080 Cl
ATOM     25  C   UNL A   1      27.738  31.567  23.172  1.00  0.00     0.002 A 
ENDBRANCH  18  19
ENDBRANCH  17  18
ENDBRANCH  16  17
ENDBRANCH  15  16
ENDBRANCH   7  15
ENDBRANCH   5   6
ENDBRANCH   2   5
BRANCH   3  26
ATOM     26  C   UNL A   1      34.474  29.055  26.680  1.00  0.00     0.117 C 
BRANCH  26  27
ATOM     27  C   UNL A   1      33.672  30.145  27.371  1.00  0.00     0.042 C 
BRANCH  27  28
ATOM     28  C   UNL A   1      34.455  31.430  27.676  1.00  0.00     0.118 C 
BRANCH  28  29
ATOM     29  N   UNL A   1      34.309  31.955  29.018  1.00  0.00    -0.352 N 
ATOM     30  C   UNL A   1      35.170  32.095  30.074  1.00  0.00     0.251 C 
ATOM     31  H   UNL A   1      33.400  32.279  29.211  1.00  0.00     0.163 HD
ATOM     32  O   UNL A   1      34.820  32.871  30.967  1.00  0.00    -0.269 OA
BRANCH  30  33
ATOM     33  C   UNL A   1      36.425  31.313  30.239  1.00  0.00     0.039 A 
ATOM     34  C   UNL A   1      37.702  31.856  30.183  1.00  0.00     0.014 A 
ATOM     35  C   UNL A   1      36.297  29.915  30.356  1.00  0.00     0.014 A 
ATOM     36  C   UNL A   1      38.809  31.033  30.077  1.00  0.00     0.010 A 
ATOM     37  C   UNL A   1      37.416  29.082  30.315  1.00  0.00     0.010 A 
ATOM     38  C   UNL A   1      38.671  29.643  30.119  1.00  0.00    -0.014 A 
BRANCH  38  39
ATOM     39  C   UNL A   1      39.916  28.880  30.064  1.00  0.00     0.031 A 
ATOM     40  C   UNL A   1      40.564  28.706  31.389  1.00  0.00     0.074 A 
ATOM     41  C   UNL A   1      40.482  28.364  28.957  1.00  0.00     0.049 A 
ATOM     42  N   UNL A   1      41.617  29.312  31.831  1.00  0.00    -0.248 NA
ATOM     43  C   UNL A   1      39.870  27.895  32.399  1.00  0.00     0.031 C 
ATOM     44  C   UNL A   1      39.876  28.194  27.636  1.00  0.00     0.029 A 
ATOM     45  N   UNL A   1      41.724  27.809  28.804  1.00  0.00    -0.354 N 
ATOM     46  C   UNL A   1      41.865  28.764  33.085  1.00  0.00     0.074 A 
ATOM     47  C   UNL A   1      40.674  28.043  33.455  1.00  0.00     0.031 C 
ATOM     48  C   UNL A   1      40.658  27.381  26.889  1.00  0.00     0.029 A 
ATOM     49  C   UNL A   1      41.892  27.119  27.611  1.00  0.00     0.049 A 
ATOM     50  H   UNL A   1      42.435  27.891  29.480  1.00  0.00     0.167 HD
ATOM     51  C   UNL A   1      43.131  28.715  33.580  1.00  0.00     0.037 A 
ATOM     52  C   UNL A   1      42.960  26.372  27.243  1.00  0.00     0.037 A 
ATOM     53  C   UNL A   1      44.018  29.586  32.853  1.00  0.00     0.049 A 
ATOM     54  C   UNL A   1      44.152  26.880  27.963  1.00  0.00     0.074 A 
ATOM     55  C   UNL A   1      44.360  30.919  32.848  1.00  0.00     0.029 A 
ATOM     56  N   UNL A   1      44.496  29.040  31.696  1.00  0.00    -0.354 N 
ATOM     57  N   UNL A   1      44.659  28.068  27.775  1.00  0.00    -0.248 NA
ATOM     58  C   UNL A   1      44.656  26.163  29.132  1.00  0.00     0.031 C 
ATOM     59  C   UNL A   1      44.966  31.178  31.580  1.00  0.00     0.029 A 
ATOM     60  C   UNL A   1      44.996  29.994  30.851  1.00  0.00     0.049 A 
ATOM     61  H   UNL A   1      44.483  28.075  31.493  1.00  0.00     0.167 HD
ATOM     62  C   UNL A   1      45.212  28.399  28.993  1.00  0.00     0.074 A 
ATOM     63  C   UNL A   1      45.340  27.146  29.722  1.00  0.00     0.031 C 
ATOM     64  C   UNL A   1      45.190  29.680  29.453  1.00  0.00     0.037 A 
BRANCH  51  65
ATOM     65  C   UNL A   1      43.684  27.546  34.369  1.00  0.00     0.058 A 
ATOM     66  C   UNL A   1      44.157  27.759  35.680  1.00  0.00     0.135 A 
ATOM     67  C   UNL A   1      44.055  26.314  33.782  1.00  0.00     0.135 A 
ATOM     68  F   UNL A   1      43.881  28.901  36.330  1.00  0.00    -0.206 F 
ATOM     69  C   UNL A   1      44.979  26.841  36.338  1.00  0.00     0.059 A 
ATOM     70  C   UNL A   1      44.829  25.364  34.439  1.00  0.00     0.059 A 
ATOM     71  F   UNL A   1      43.770  26.016  32.510  1.00  0.00    -0.206 F 
ATOM     72  C   UNL A   1      45.318  25.650  35.702  1.00  0.00     0.060 A 
BRANCH  72  73
ATOM     73  S   UNL A   1      46.440  24.498  36.514  1.00  0.00     0.124 S 
ATOM     74  O   UNL A   1      46.695  25.179  37.778  1.00  0.00    -0.237 OA
ATOM     75  O   UNL A   1      45.627  23.289  36.590  1.00  0.00    -0.237 OA
ATOM     76  O   UNL A   1      47.571  24.427  35.593  1.00  0.00    -0.744 OA
ENDBRANCH  72  73
ENDBRANCH  51  65
BRANCH  52  77
ATOM     77  C   UNL A   1      42.966  25.059  26.546  1.00  0.00     0.058 A 
ATOM     78  C   UNL A   1      43.567  24.922  25.282  1.00  0.00     0.135 A 
ATOM     79  C   UNL A   1      42.681  23.865  27.236  1.00  0.00     0.135 A 
ATOM     80  F   UNL A   1      43.873  26.009  24.556  1.00  0.00    -0.206 F 
ATOM     81  C   UNL A   1      43.951  23.679  24.772  1.00  0.00     0.059 A 
ATOM     82  C   UNL A   1      43.044  22.613  26.742  1.00  0.00     0.059 A 
ATOM     83  F   UNL A   1      42.132  23.886  28.460  1.00  0.00    -0.206 F 
ATOM     84  C   UNL A   1      43.714  22.532  25.527  1.00  0.00     0.060 A 
BRANCH  84  85
ATOM     85  S   UNL A   1      44.408  20.956  24.974  1.00  0.00     0.124 S 
ATOM     86  O   UNL A   1      43.386  20.010  25.403  1.00  0.00    -0.237 OA
ATOM     87  O   UNL A   1      44.524  21.163  23.534  1.00  0.00    -0.237 OA
ATOM     88  O   UNL A   1      45.677  20.875  25.694  1.00  0.00    -0.744 OA
ENDBRANCH  84  85
ENDBRANCH  52  77
BRANCH  64  89
ATOM     89  C   UNL A   1      45.214  30.790  28.452  1.00  0.00     0.058 A 
ATOM     90  C   UNL A   1      44.083  31.432  27.926  1.00  0.00     0.135 A 
ATOM     91  C   UNL A   1      46.474  31.268  28.055  1.00  0.00     0.135 A 
ATOM     92  F   UNL A   1      42.848  31.074  28.308  1.00  0.00    -0.206 F 
ATOM     93  C   UNL A   1      44.202  32.493  27.025  1.00  0.00     0.059 A 
ATOM     94  C   UNL A   1      46.616  32.339  27.182  1.00  0.00     0.059 A 
ATOM     95  F   UNL A   1      47.591  30.711  28.552  1.00  0.00    -0.206 F 
ATOM     96  C   UNL A   1      45.475  32.943  26.664  1.00  0.00     0.060 A 
BRANCH  96  97
ATOM     97  S   UNL A   1      45.631  34.368  25.566  1.00  0.00     0.124 S 
ATOM     98  O   UNL A   1      47.064  34.395  25.295  1.00  0.00    -0.237 OA
ATOM     99  O   UNL A   1      44.778  33.991  24.443  1.00  0.00    -0.237 OA
ATOM    100  O   UNL A   1      45.129  35.479  26.372  1.00  0.00    -0.744 OA
ENDBRANCH  96  97
ENDBRANCH  64  89
ENDBRANCH  38  39
ENDBRANCH  30  33
ENDBRANCH  28  29
ENDBRANCH  27  28
ENDBRANCH  26  27
ENDBRANCH   3  26
TORSDOF 19
ENDMDL
MODEL 3
REMARK VINA RESULT:     -12.0      3.392      9.974
REMARK SMILES O=C(Cn1c(SCCOc2ccccc2Cl)nc2ccccc21)NCCCNC(=O)c1ccc(-c2c3nc(c(-c4c(F)cc(S(=O)(=O)[O-])cc4F)c4ccc([nH]4)c(-c4c(F)cc(S(=O)(=O)[O-])cc4F)c4nc(c(-c5c(F)cc(S(=O)(=O)[O-])cc5F)c5ccc2[nH]5)C=C4)C=C3)cc1
REMARK SMILES IDX 1 1 2 2 24 3 3 5 4 6 5 7 23 8 17 9 18 10 22 11 19 12 21 13
REMARK SMILES IDX 20 14 6 15 7 16 8 17 9 18 10 19 11 20 15 21 12 22 14 23
REMARK SMILES IDX 16 24 13 25 25 26 26 27 27 28 28 29 29 30 30 32 31 33 32 34
REMARK SMILES IDX 96 35 33 36 95 37 34 38 35 39 36 40 89 41 37 42 94 43 88 44
REMARK SMILES IDX 90 45 38 46 93 47 87 48 86 49 39 51 73 52 52 53 72 54 53 55
REMARK SMILES IDX 56 56 71 57 91 58 54 59 55 60 70 62 92 63 57 64 40 65 41 66
REMARK SMILES IDX 50 67 42 68 43 69 49 70 51 71 44 72 45 73 46 74 47 75 48 76
REMARK SMILES IDX 74 77 75 78 84 79 76 80 77 81 83 82 85 83 78 84 79 85 80 86
REMARK SMILES IDX 81 87 82 88 58 89 59 90 68 91 60 92 61 93 67 94 69 95 62 96
REMARK SMILES IDX 63 97 64 98 65 99 66 100
REMARK H PARENT 24 4 28 31 90 50 56 61
REMARK Flexibility Score: inf
ROOT
ATOM      1  O   UNL A   1      33.805  28.018  25.010  1.00  0.00    -0.273 OA
ATOM      2  C   UNL A   1      32.696  28.352  24.592  1.00  0.00     0.240 C 
ATOM      3  N   UNL A   1      31.826  29.164  25.276  1.00  0.00    -0.354 N 
ATOM      4  H   UNL A   1      31.054  29.552  24.804  1.00  0.00     0.163 HD
ENDROOT
BRANCH   2   5
ATOM      5  C   UNL A   1      32.148  27.876  23.279  1.00  0.00     0.224 C 
BRANCH   5   6
ATOM      6  N   UNL A   1      30.725  27.635  23.341  1.00  0.00    -0.309 N 
ATOM      7  C   UNL A   1      30.064  26.503  23.748  1.00  0.00     0.169 A 
ATOM      8  C   UNL A   1      29.765  28.554  22.933  1.00  0.00     0.069 A 
ATOM      9  N   UNL A   1      28.761  26.705  23.786  1.00  0.00    -0.222 NA
ATOM     10  C   UNL A   1      28.557  27.962  23.277  1.00  0.00     0.090 A 
ATOM     11  C   UNL A   1      29.826  29.810  22.310  1.00  0.00     0.028 A 
ATOM     12  C   UNL A   1      27.357  28.655  23.043  1.00  0.00     0.030 A 
ATOM     13  C   UNL A   1      28.622  30.481  22.067  1.00  0.00     0.002 A 
ATOM     14  C   UNL A   1      27.403  29.916  22.436  1.00  0.00     0.002 A 
BRANCH   7  15
ATOM     15  S   UNL A   1      30.726  24.963  24.204  1.00  0.00    -0.084 SA
BRANCH  15  16
ATOM     16  C   UNL A   1      31.458  25.022  25.863  1.00  0.00     0.119 C 
BRANCH  16  17
ATOM     17  C   UNL A   1      32.271  23.864  26.462  1.00  0.00     0.241 C 
BRANCH  17  18
ATOM     18  O   UNL A   1      32.832  22.944  25.531  1.00  0.00    -0.491 OA
BRANCH  18  19
ATOM     19  C   UNL A   1      34.192  22.940  25.343  1.00  0.00     0.137 A 
ATOM     20  C   UNL A   1      35.024  24.033  25.611  1.00  0.00     0.048 A 
ATOM     21  C   UNL A   1      34.788  21.720  24.981  1.00  0.00     0.083 A 
ATOM     22  C   UNL A   1      36.412  23.887  25.622  1.00  0.00     0.004 A 
ATOM     23  C   UNL A   1      36.178  21.577  24.980  1.00  0.00     0.024 A 
ATOM     24  Cl  UNL A   1      33.833  20.332  24.581  1.00  0.00    -0.080 Cl
ATOM     25  C   UNL A   1      36.988  22.656  25.327  1.00  0.00     0.002 A 
ENDBRANCH  18  19
ENDBRANCH  17  18
ENDBRANCH  16  17
ENDBRANCH  15  16
ENDBRANCH   7  15
ENDBRANCH   5   6
ENDBRANCH   2   5
BRANCH   3  26
ATOM     26  C   UNL A   1      32.023  29.456  26.673  1.00  0.00     0.117 C 
BRANCH  26  27
ATOM     27  C   UNL A   1      32.276  30.937  26.906  1.00  0.00     0.042 C 
BRANCH  27  28
ATOM     28  C   UNL A   1      33.718  31.293  27.298  1.00  0.00     0.118 C 
BRANCH  28  29
ATOM     29  N   UNL A   1      33.897  31.824  28.634  1.00  0.00    -0.352 N 
ATOM     30  C   UNL A   1      34.988  31.981  29.447  1.00  0.00     0.251 C 
ATOM     31  H   UNL A   1      33.059  32.137  29.042  1.00  0.00     0.163 HD
ATOM     32  O   UNL A   1      34.856  32.756  30.397  1.00  0.00    -0.269 OA
BRANCH  30  33
ATOM     33  C   UNL A   1      36.256  31.216  29.302  1.00  0.00     0.039 A 
ATOM     34  C   UNL A   1      36.335  29.831  29.231  1.00  0.00     0.014 A 
ATOM     35  C   UNL A   1      37.457  31.952  29.344  1.00  0.00     0.014 A 
ATOM     36  C   UNL A   1      37.554  29.191  29.367  1.00  0.00     0.010 A 
ATOM     37  C   UNL A   1      38.694  31.312  29.416  1.00  0.00     0.010 A 
ATOM     38  C   UNL A   1      38.736  29.926  29.483  1.00  0.00    -0.014 A 
BRANCH  38  39
ATOM     39  C   UNL A   1      39.966  29.140  29.554  1.00  0.00     0.031 A 
ATOM     40  C   UNL A   1      40.433  28.893  30.942  1.00  0.00     0.074 A 
ATOM     41  C   UNL A   1      40.664  28.662  28.506  1.00  0.00     0.049 A 
ATOM     42  N   UNL A   1      41.429  29.456  31.545  1.00  0.00    -0.248 NA
ATOM     43  C   UNL A   1      39.601  28.052  31.814  1.00  0.00     0.031 C 
ATOM     44  C   UNL A   1      40.232  28.564  27.112  1.00  0.00     0.029 A 
ATOM     45  N   UNL A   1      41.906  28.088  28.490  1.00  0.00    -0.354 N 
ATOM     46  C   UNL A   1      41.503  28.847  32.793  1.00  0.00     0.074 A 
ATOM     47  C   UNL A   1      40.263  28.136  32.971  1.00  0.00     0.031 C 
ATOM     48  C   UNL A   1      41.093  27.769  26.435  1.00  0.00     0.029 A 
ATOM     49  C   UNL A   1      42.218  27.449  27.298  1.00  0.00     0.049 A 
ATOM     50  H   UNL A   1      42.525  28.125  29.256  1.00  0.00     0.167 HD
ATOM     51  C   UNL A   1      42.693  28.749  33.445  1.00  0.00     0.037 A 
ATOM     52  C   UNL A   1      43.313  26.696  27.036  1.00  0.00     0.037 A 
ATOM     53  C   UNL A   1      43.680  29.632  32.881  1.00  0.00     0.049 A 
ATOM     54  C   UNL A   1      44.409  27.146  27.928  1.00  0.00     0.074 A 
ATOM     55  C   UNL A   1      44.040  30.957  32.983  1.00  0.00     0.029 A 
ATOM     56  N   UNL A   1      44.297  29.129  31.771  1.00  0.00    -0.354 N 
ATOM     57  N   UNL A   1      44.954  28.330  27.862  1.00  0.00    -0.248 NA
ATOM     58  C   UNL A   1      44.745  26.367  29.117  1.00  0.00     0.031 C 
ATOM     59  C   UNL A   1      44.810  31.260  31.818  1.00  0.00     0.029 A 
ATOM     60  C   UNL A   1      44.917  30.109  31.044  1.00  0.00     0.049 A 
ATOM     61  H   UNL A   1      44.295  28.175  31.523  1.00  0.00     0.167 HD
ATOM     62  C   UNL A   1      45.349  28.594  29.156  1.00  0.00     0.074 A 
ATOM     63  C   UNL A   1      45.362  27.308  29.836  1.00  0.00     0.031 C 
ATOM     64  C   UNL A   1      45.286  29.854  29.669  1.00  0.00     0.037 A 
BRANCH  51  65
ATOM     65  C   UNL A   1      43.120  27.534  34.243  1.00  0.00     0.058 A 
ATOM     66  C   UNL A   1      43.307  27.653  35.636  1.00  0.00     0.135 A 
ATOM     67  C   UNL A   1      43.652  26.363  33.656  1.00  0.00     0.135 A 
ATOM     68  F   UNL A   1      42.858  28.732  36.296  1.00  0.00    -0.206 F 
ATOM     69  C   UNL A   1      44.014  26.706  36.380  1.00  0.00     0.059 A 
ATOM     70  C   UNL A   1      44.313  25.382  34.387  1.00  0.00     0.059 A 
ATOM     71  F   UNL A   1      43.645  26.161  32.334  1.00  0.00    -0.206 F 
ATOM     72  C   UNL A   1      44.523  25.578  35.741  1.00  0.00     0.060 A 
BRANCH  72  73
ATOM     73  S   UNL A   1      45.502  24.393  36.680  1.00  0.00     0.124 S 
ATOM     74  O   UNL A   1      45.092  23.131  36.077  1.00  0.00    -0.237 OA
ATOM     75  O   UNL A   1      46.864  24.830  36.389  1.00  0.00    -0.237 OA
ATOM     76  O   UNL A   1      45.063  24.610  38.056  1.00  0.00    -0.744 OA
ENDBRANCH  72  73
ENDBRANCH  51  65
BRANCH  52  77
ATOM     77  C   UNL A   1      43.390  25.416  26.285  1.00  0.00     0.058 A 
ATOM     78  C   UNL A   1      44.355  25.232  25.278  1.00  0.00     0.135 A 
ATOM     79  C   UNL A   1      42.747  24.254  26.755  1.00  0.00     0.135 A 
ATOM     80  F   UNL A   1      45.015  26.286  24.773  1.00  0.00    -0.206 F 
ATOM     81  C   UNL A   1      44.731  23.963  24.831  1.00  0.00     0.059 A 
ATOM     82  C   UNL A   1      43.098  22.978  26.316  1.00  0.00     0.059 A 
ATOM     83  F   UNL A   1      41.830  24.317  27.732  1.00  0.00    -0.206 F 
ATOM     84  C   UNL A   1      44.119  22.839  25.382  1.00  0.00     0.060 A 
BRANCH  84  85
ATOM     85  S   UNL A   1      44.759  21.199  24.971  1.00  0.00     0.124 S 
ATOM     86  O   UNL A   1      46.098  21.245  25.547  1.00  0.00    -0.237 OA
ATOM     87  O   UNL A   1      43.805  20.323  25.643  1.00  0.00    -0.237 OA
ATOM     88  O   UNL A   1      44.707  21.172  23.511  1.00  0.00    -0.744 OA
ENDBRANCH  84  85
ENDBRANCH  52  77
BRANCH  64  89
ATOM     89  C   UNL A   1      45.458  31.007  28.733  1.00  0.00     0.058 A 
ATOM     90  C   UNL A   1      46.688  31.565  28.353  1.00  0.00     0.135 A 
ATOM     91  C   UNL A   1      44.298  31.531  28.143  1.00  0.00     0.135 A 
ATOM     92  F   UNL A   1      47.843  31.074  28.826  1.00  0.00    -0.206 F 
ATOM     93  C   UNL A   1      46.756  32.617  27.436  1.00  0.00     0.059 A 
ATOM     94  C   UNL A   1      44.343  32.558  27.208  1.00  0.00     0.059 A 
ATOM     95  F   UNL A   1      43.095  31.014  28.446  1.00  0.00    -0.206 F 
ATOM     96  C   UNL A   1      45.577  33.102  26.864  1.00  0.00     0.060 A 
BRANCH  96  97
ATOM     97  S   UNL A   1      45.670  34.404  25.617  1.00  0.00     0.124 S 
ATOM     98  O   UNL A   1      44.774  33.904  24.580  1.00  0.00    -0.237 OA
ATOM     99  O   UNL A   1      45.201  35.575  26.352  1.00  0.00    -0.237 OA
ATOM    100  O   UNL A   1      47.085  34.432  25.254  1.00  0.00    -0.744 OA
ENDBRANCH  96  97
ENDBRANCH  64  89
ENDBRANCH  38  39
ENDBRANCH  30  33
ENDBRANCH  28  29
ENDBRANCH  27  28
ENDBRANCH  26  27
ENDBRANCH   3  26
TORSDOF 19
ENDMDL
