MODEL 1
REMARK VINA RESULT:     -13.6      0.000      0.000
REMARK SMILES Cc1cc(-c2cncc(C(=O)NCCCNC(=O)c3ccc(-c4c5nc(c(-c6c(F)cc(S(=O)(=O)[O-])cc6F)c6ccc([nH]6)c(-c6c(F)cc(S(=O)(=O)[O-])cc6F)c6nc(c(-c7c(F)cc(S(=O)(=O)[O-])cc7F)c7ccc4[nH]7)C=C6)C=C5)cc3)c2)ccc1F
REMARK SMILES IDX 15 1 14 2 13 3 12 4 10 5 11 6 9 8 5 9 6 10 85 11 7 12 8 13
REMARK SMILES IDX 4 14 1 15 2 16 3 17 88 18 87 19 89 20 86 21 16 22 17 23
REMARK SMILES IDX 18 25 19 26 20 27 84 28 21 29 83 30 22 31 23 32 24 33 77 34
REMARK SMILES IDX 25 35 82 36 76 37 78 38 26 39 81 40 75 41 74 42 27 44 61 45
REMARK SMILES IDX 40 46 60 47 41 48 44 49 59 50 79 51 42 52 43 53 58 55 80 56
REMARK SMILES IDX 45 57 28 58 29 59 38 60 30 61 31 62 37 63 39 64 32 65 33 66
REMARK SMILES IDX 34 67 35 68 36 69 62 70 63 71 72 72 64 73 65 74 71 75 73 76
REMARK SMILES IDX 66 77 67 78 68 79 69 80 70 81 46 82 47 83 56 84 48 85 49 86
REMARK SMILES IDX 55 87 57 88 50 89 51 90 52 91 53 92 54 93
REMARK H PARENT 12 7 16 24 78 43 44 54
REMARK Flexibility Score: inf
ROOT
ATOM      1  C   UNL A   1      36.087  31.639  28.041  1.00  0.00     0.118 C 
ENDROOT
BRANCH   1   2
ATOM      2  C   UNL A   1      34.747  30.990  28.130  1.00  0.00     0.042 C 
BRANCH   2   3
ATOM      3  C   UNL A   1      34.586  29.843  27.140  1.00  0.00     0.118 C 
BRANCH   3   4
ATOM      4  N   UNL A   1      33.535  30.133  26.180  1.00  0.00    -0.352 N 
ATOM      5  C   UNL A   1      32.616  29.324  25.559  1.00  0.00     0.252 C 
ATOM      6  O   UNL A   1      31.810  29.853  24.793  1.00  0.00    -0.269 OA
ATOM      7  H   UNL A   1      33.471  31.084  25.929  1.00  0.00     0.163 HD
BRANCH   5   8
ATOM      8  C   UNL A   1      32.528  27.855  25.781  1.00  0.00     0.058 A 
ATOM      9  C   UNL A   1      33.267  25.531  25.558  1.00  0.00     0.001 A 
ATOM     10  C   UNL A   1      32.192  25.171  26.353  1.00  0.00     0.119 A 
ATOM     11  C   UNL A   1      33.393  26.892  25.272  1.00  0.00     0.025 A 
ATOM     12  N   UNL A   1      31.291  26.054  26.854  1.00  0.00    -0.263 NA
ATOM     13  C   UNL A   1      31.483  27.371  26.555  1.00  0.00     0.124 A 
BRANCH   9  14
ATOM     14  C   UNL A   1      34.273  24.600  25.029  1.00  0.00    -0.016 A 
ATOM     15  C   UNL A   1      37.811  23.444  25.945  1.00  0.00     0.047 C 
ATOM     16  C   UNL A   1      36.519  23.620  25.206  1.00  0.00    -0.015 A 
ATOM     17  C   UNL A   1      35.487  24.412  25.726  1.00  0.00     0.015 A 
ATOM     18  C   UNL A   1      36.320  23.001  23.974  1.00  0.00     0.126 A 
ATOM     19  C   UNL A   1      35.135  23.172  23.263  1.00  0.00     0.040 A 
ATOM     20  F   UNL A   1      37.284  22.231  23.450  1.00  0.00    -0.207 F 
ATOM     21  C   UNL A   1      34.115  23.971  23.788  1.00  0.00     0.012 A 
ENDBRANCH   9  14
ENDBRANCH   5   8
ENDBRANCH   3   4
ENDBRANCH   2   3
ENDBRANCH   1   2
BRANCH   1  22
ATOM     22  N   UNL A   1      36.941  31.307  29.145  1.00  0.00    -0.352 N 
ATOM     23  C   UNL A   1      38.095  30.622  28.902  1.00  0.00     0.251 C 
ATOM     24  H   UNL A   1      36.698  31.569  30.062  1.00  0.00     0.163 HD
ATOM     25  O   UNL A   1      39.172  31.184  29.079  1.00  0.00    -0.269 OA
BRANCH  23  26
ATOM     26  C   UNL A   1      38.022  29.307  28.180  1.00  0.00     0.039 A 
ATOM     27  C   UNL A   1      37.889  28.296  29.143  1.00  0.00     0.014 A 
ATOM     28  C   UNL A   1      39.091  29.242  27.285  1.00  0.00     0.014 A 
ATOM     29  C   UNL A   1      39.045  27.676  29.584  1.00  0.00     0.010 A 
ATOM     30  C   UNL A   1      40.274  28.820  27.806  1.00  0.00     0.010 A 
ATOM     31  C   UNL A   1      40.235  28.070  28.984  1.00  0.00    -0.014 A 
BRANCH  31  32
ATOM     32  C   UNL A   1      41.528  27.547  29.314  1.00  0.00     0.031 A 
ATOM     33  C   UNL A   1      41.705  26.146  28.929  1.00  0.00     0.074 A 
ATOM     34  C   UNL A   1      42.487  28.434  29.638  1.00  0.00     0.049 A 
ATOM     35  N   UNL A   1      42.726  25.435  29.205  1.00  0.00    -0.248 NA
ATOM     36  C   UNL A   1      40.685  25.419  28.165  1.00  0.00     0.031 C 
ATOM     37  C   UNL A   1      43.930  28.268  29.664  1.00  0.00     0.029 A 
ATOM     38  N   UNL A   1      42.268  29.635  30.306  1.00  0.00    -0.354 N 
ATOM     39  C   UNL A   1      42.661  24.309  28.415  1.00  0.00     0.074 A 
ATOM     40  C   UNL A   1      41.335  24.300  27.860  1.00  0.00     0.031 C 
ATOM     41  C   UNL A   1      44.435  29.120  30.577  1.00  0.00     0.029 A 
ATOM     42  C   UNL A   1      43.306  29.756  31.247  1.00  0.00     0.049 A 
ATOM     43  H   UNL A   1      41.533  30.273  30.152  1.00  0.00     0.167 HD
ATOM     44  C   UNL A   1      43.817  23.617  28.232  1.00  0.00     0.037 A 
ATOM     45  C   UNL A   1      42.961  29.560  32.560  1.00  0.00     0.037 A 
ATOM     46  C   UNL A   1      44.842  24.148  29.140  1.00  0.00     0.049 A 
ATOM     47  C   UNL A   1      43.459  28.215  33.104  1.00  0.00     0.074 A 
ATOM     48  C   UNL A   1      45.824  25.119  29.031  1.00  0.00     0.029 A 
ATOM     49  N   UNL A   1      44.616  23.996  30.496  1.00  0.00    -0.354 N 
ATOM     50  N   UNL A   1      43.986  27.266  32.369  1.00  0.00    -0.248 NA
ATOM     51  C   UNL A   1      43.428  27.840  34.519  1.00  0.00     0.031 C 
ATOM     52  C   UNL A   1      46.077  25.633  30.347  1.00  0.00     0.029 A 
ATOM     53  C   UNL A   1      45.255  24.968  31.243  1.00  0.00     0.049 A 
ATOM     54  H   UNL A   1      44.065  23.278  30.884  1.00  0.00     0.167 HD
ATOM     55  C   UNL A   1      44.355  26.203  33.148  1.00  0.00     0.074 A 
ATOM     56  C   UNL A   1      43.968  26.606  34.491  1.00  0.00     0.031 C 
ATOM     57  C   UNL A   1      44.942  25.065  32.666  1.00  0.00     0.037 A 
BRANCH  44  58
ATOM     58  C   UNL A   1      44.079  22.626  27.127  1.00  0.00     0.058 A 
ATOM     59  C   UNL A   1      43.280  21.467  27.049  1.00  0.00     0.135 A 
ATOM     60  C   UNL A   1      45.090  22.710  26.145  1.00  0.00     0.135 A 
ATOM     61  F   UNL A   1      42.270  21.254  27.904  1.00  0.00    -0.206 F 
ATOM     62  C   UNL A   1      43.482  20.468  26.098  1.00  0.00     0.059 A 
ATOM     63  C   UNL A   1      45.338  21.703  25.209  1.00  0.00     0.059 A 
ATOM     64  F   UNL A   1      45.862  23.789  25.999  1.00  0.00    -0.206 F 
ATOM     65  C   UNL A   1      44.518  20.589  25.186  1.00  0.00     0.060 A 
BRANCH  65  66
ATOM     66  S   UNL A   1      44.740  19.303  23.950  1.00  0.00     0.124 S 
ATOM     67  O   UNL A   1      43.674  18.366  24.290  1.00  0.00    -0.237 OA
ATOM     68  O   UNL A   1      44.563  20.047  22.708  1.00  0.00    -0.237 OA
ATOM     69  O   UNL A   1      46.095  18.818  24.200  1.00  0.00    -0.744 OA
ENDBRANCH  65  66
ENDBRANCH  44  58
BRANCH  45  70
ATOM     70  C   UNL A   1      41.667  30.282  32.867  1.00  0.00     0.058 A 
ATOM     71  C   UNL A   1      40.526  29.479  33.119  1.00  0.00     0.135 A 
ATOM     72  C   UNL A   1      41.628  31.584  33.386  1.00  0.00     0.135 A 
ATOM     73  F   UNL A   1      40.480  28.224  32.636  1.00  0.00    -0.206 F 
ATOM     74  C   UNL A   1      39.488  29.880  33.968  1.00  0.00     0.059 A 
ATOM     75  C   UNL A   1      40.582  32.016  34.225  1.00  0.00     0.059 A 
ATOM     76  F   UNL A   1      42.658  32.420  33.179  1.00  0.00    -0.206 F 
ATOM     77  C   UNL A   1      39.540  31.141  34.554  1.00  0.00     0.060 A 
BRANCH  77  78
ATOM     78  S   UNL A   1      38.280  31.590  35.795  1.00  0.00     0.124 S 
ATOM     79  O   UNL A   1      38.105  30.324  36.501  1.00  0.00    -0.237 OA
ATOM     80  O   UNL A   1      38.907  32.642  36.598  1.00  0.00    -0.237 OA
ATOM     81  O   UNL A   1      37.126  32.010  35.000  1.00  0.00    -0.744 OA
ENDBRANCH  77  78
ENDBRANCH  45  70
BRANCH  57  82
ATOM     82  C   UNL A   1      45.272  23.897  33.550  1.00  0.00     0.058 A 
ATOM     83  C   UNL A   1      44.316  22.930  33.886  1.00  0.00     0.135 A 
ATOM     84  C   UNL A   1      46.533  23.781  34.173  1.00  0.00     0.135 A 
ATOM     85  F   UNL A   1      43.077  22.988  33.372  1.00  0.00    -0.206 F 
ATOM     86  C   UNL A   1      44.613  21.875  34.747  1.00  0.00     0.059 A 
ATOM     87  C   UNL A   1      46.829  22.782  35.090  1.00  0.00     0.059 A 
ATOM     88  F   UNL A   1      47.541  24.618  33.878  1.00  0.00    -0.206 F 
ATOM     89  C   UNL A   1      45.874  21.807  35.339  1.00  0.00     0.060 A 
BRANCH  89  90
ATOM     90  S   UNL A   1      46.294  20.415  36.400  1.00  0.00     0.124 S 
ATOM     91  O   UNL A   1      45.778  20.843  37.702  1.00  0.00    -0.237 OA
ATOM     92  O   UNL A   1      45.548  19.334  35.756  1.00  0.00    -0.237 OA
ATOM     93  O   UNL A   1      47.739  20.329  36.301  1.00  0.00    -0.744 OA
ENDBRANCH  89  90
ENDBRANCH  57  82
ENDBRANCH  31  32
ENDBRANCH  23  26
ENDBRANCH   1  22
TORSDOF 14
ENDMDL
MODEL 2
REMARK VINA RESULT:     -13.4      2.133      3.061
REMARK SMILES Cc1cc(-c2cncc(C(=O)NCCCNC(=O)c3ccc(-c4c5nc(c(-c6c(F)cc(S(=O)(=O)[O-])cc6F)c6ccc([nH]6)c(-c6c(F)cc(S(=O)(=O)[O-])cc6F)c6nc(c(-c7c(F)cc(S(=O)(=O)[O-])cc7F)c7ccc4[nH]7)C=C6)C=C5)cc3)c2)ccc1F
REMARK SMILES IDX 15 1 14 2 13 3 12 4 10 5 11 6 9 8 5 9 6 10 85 11 7 12 8 13
REMARK SMILES IDX 4 14 1 15 2 16 3 17 88 18 87 19 89 20 86 21 16 22 17 23
REMARK SMILES IDX 18 25 19 26 20 27 84 28 21 29 83 30 22 31 23 32 24 33 77 34
REMARK SMILES IDX 25 35 82 36 76 37 78 38 26 39 81 40 75 41 74 42 27 44 61 45
REMARK SMILES IDX 40 46 60 47 41 48 44 49 59 50 79 51 42 52 43 53 58 55 80 56
REMARK SMILES IDX 45 57 28 58 29 59 38 60 30 61 31 62 37 63 39 64 32 65 33 66
REMARK SMILES IDX 34 67 35 68 36 69 62 70 63 71 72 72 64 73 65 74 71 75 73 76
REMARK SMILES IDX 66 77 67 78 68 79 69 80 70 81 46 82 47 83 56 84 48 85 49 86
REMARK SMILES IDX 55 87 57 88 50 89 51 90 52 91 53 92 54 93
REMARK H PARENT 12 7 16 24 78 43 44 54
REMARK Flexibility Score: inf
ROOT
ATOM      1  C   UNL A   1      34.221  32.237  27.627  1.00  0.00     0.118 C 
ENDROOT
BRANCH   1   2
ATOM      2  C   UNL A   1      33.029  31.355  27.462  1.00  0.00     0.042 C 
BRANCH   2   3
ATOM      3  C   UNL A   1      33.315  30.145  26.581  1.00  0.00     0.118 C 
BRANCH   3   4
ATOM      4  N   UNL A   1      32.378  30.080  25.473  1.00  0.00    -0.352 N 
ATOM      5  C   UNL A   1      31.725  29.023  24.889  1.00  0.00     0.252 C 
ATOM      6  O   UNL A   1      30.954  29.265  23.960  1.00  0.00    -0.269 OA
ATOM      7  H   UNL A   1      32.174  30.954  25.067  1.00  0.00     0.163 HD
BRANCH   5   8
ATOM      8  C   UNL A   1      31.881  27.610  25.334  1.00  0.00     0.058 A 
ATOM      9  C   UNL A   1      32.921  25.393  25.349  1.00  0.00     0.001 A 
ATOM     10  C   UNL A   1      32.015  25.036  26.333  1.00  0.00     0.119 A 
ATOM     11  C   UNL A   1      32.810  26.694  24.852  1.00  0.00     0.025 A 
ATOM     12  N   UNL A   1      31.062  25.869  26.824  1.00  0.00    -0.263 NA
ATOM     13  C   UNL A   1      31.021  27.132  26.312  1.00  0.00     0.124 A 
BRANCH   9  14
ATOM     14  C   UNL A   1      33.980  24.523  24.823  1.00  0.00    -0.016 A 
ATOM     15  C   UNL A   1      37.615  23.661  25.681  1.00  0.00     0.047 C 
ATOM     16  C   UNL A   1      36.297  23.717  24.971  1.00  0.00    -0.015 A 
ATOM     17  C   UNL A   1      35.221  24.447  25.494  1.00  0.00     0.015 A 
ATOM     18  C   UNL A   1      36.115  23.044  23.765  1.00  0.00     0.126 A 
ATOM     19  C   UNL A   1      34.904  23.105  23.080  1.00  0.00     0.040 A 
ATOM     20  F   UNL A   1      37.122  22.332  23.240  1.00  0.00    -0.207 F 
ATOM     21  C   UNL A   1      33.840  23.843  23.606  1.00  0.00     0.012 A 
ENDBRANCH   9  14
ENDBRANCH   5   8
ENDBRANCH   3   4
ENDBRANCH   2   3
ENDBRANCH   1   2
BRANCH   1  22
ATOM     22  N   UNL A   1      34.778  32.178  28.949  1.00  0.00    -0.352 N 
ATOM     23  C   UNL A   1      35.988  31.575  29.126  1.00  0.00     0.251 C 
ATOM     24  H   UNL A   1      34.294  32.566  29.713  1.00  0.00     0.163 HD
ATOM     25  O   UNL A   1      36.954  32.259  29.452  1.00  0.00    -0.269 OA
BRANCH  23  26
ATOM     26  C   UNL A   1      36.168  30.157  28.667  1.00  0.00     0.039 A 
ATOM     27  C   UNL A   1      36.205  29.338  29.805  1.00  0.00     0.014 A 
ATOM     28  C   UNL A   1      37.247  30.120  27.782  1.00  0.00     0.014 A 
ATOM     29  C   UNL A   1      37.446  29.034  30.336  1.00  0.00     0.010 A 
ATOM     30  C   UNL A   1      38.477  30.027  28.353  1.00  0.00     0.010 A 
ATOM     31  C   UNL A   1      38.555  29.518  29.652  1.00  0.00    -0.014 A 
BRANCH  31  32
ATOM     32  C   UNL A   1      39.916  29.311  30.053  1.00  0.00     0.031 A 
ATOM     33  C   UNL A   1      40.470  28.035  29.595  1.00  0.00     0.074 A 
ATOM     34  C   UNL A   1      40.593  30.381  30.508  1.00  0.00     0.049 A 
ATOM     35  N   UNL A   1      41.619  27.584  29.909  1.00  0.00    -0.248 NA
ATOM     36  C   UNL A   1      39.720  27.141  28.707  1.00  0.00     0.031 C 
ATOM     37  C   UNL A   1      42.026  30.581  30.641  1.00  0.00     0.029 A 
ATOM     38  N   UNL A   1      40.032  31.430  31.231  1.00  0.00    -0.354 N 
ATOM     39  C   UNL A   1      41.895  26.545  29.047  1.00  0.00     0.074 A 
ATOM     40  C   UNL A   1      40.653  26.249  28.386  1.00  0.00     0.031 C 
ATOM     41  C   UNL A   1      42.238  31.455  31.644  1.00  0.00     0.029 A 
ATOM     42  C   UNL A   1      40.943  31.731  32.258  1.00  0.00     0.049 A 
ATOM     43  H   UNL A   1      39.169  31.874  31.057  1.00  0.00     0.167 HD
ATOM     44  C   UNL A   1      43.198  26.183  28.915  1.00  0.00     0.037 A 
ATOM     45  C   UNL A   1      40.578  31.348  33.524  1.00  0.00     0.037 A 
ATOM     46  C   UNL A   1      43.994  26.878  29.936  1.00  0.00     0.049 A 
ATOM     47  C   UNL A   1      41.369  30.132  34.021  1.00  0.00     0.074 A 
ATOM     48  C   UNL A   1      44.699  28.070  29.968  1.00  0.00     0.029 A 
ATOM     49  N   UNL A   1      43.730  26.565  31.257  1.00  0.00    -0.354 N 
ATOM     50  N   UNL A   1      42.167  29.408  33.274  1.00  0.00    -0.248 NA
ATOM     51  C   UNL A   1      41.346  29.646  35.402  1.00  0.00     0.031 C 
ATOM     52  C   UNL A   1      44.729  28.522  31.330  1.00  0.00     0.029 A 
ATOM     53  C   UNL A   1      44.051  27.602  32.112  1.00  0.00     0.049 A 
ATOM     54  H   UNL A   1      43.358  25.703  31.552  1.00  0.00     0.167 HD
ATOM     55  C   UNL A   1      42.746  28.412  34.012  1.00  0.00     0.074 A 
ATOM     56  C   UNL A   1      42.186  28.594  35.342  1.00  0.00     0.031 C 
ATOM     57  C   UNL A   1      43.635  27.501  33.508  1.00  0.00     0.037 A 
BRANCH  44  58
ATOM     58  C   UNL A   1      43.774  25.383  27.776  1.00  0.00     0.058 A 
ATOM     59  C   UNL A   1      43.764  23.976  27.858  1.00  0.00     0.135 A 
ATOM     60  C   UNL A   1      44.376  25.898  26.606  1.00  0.00     0.135 A 
ATOM     61  F   UNL A   1      43.214  23.340  28.902  1.00  0.00    -0.206 F 
ATOM     62  C   UNL A   1      44.323  23.154  26.882  1.00  0.00     0.059 A 
ATOM     63  C   UNL A   1      44.979  25.096  25.634  1.00  0.00     0.059 A 
ATOM     64  F   UNL A   1      44.370  27.200  26.310  1.00  0.00    -0.206 F 
ATOM     65  C   UNL A   1      44.936  23.721  25.775  1.00  0.00     0.060 A 
BRANCH  65  66
ATOM     66  S   UNL A   1      45.622  22.640  24.514  1.00  0.00     0.124 S 
ATOM     67  O   UNL A   1      44.447  22.327  23.708  1.00  0.00    -0.237 OA
ATOM     68  O   UNL A   1      46.614  23.505  23.886  1.00  0.00    -0.237 OA
ATOM     69  O   UNL A   1      46.165  21.521  25.280  1.00  0.00    -0.744 OA
ENDBRANCH  65  66
ENDBRANCH  44  58
BRANCH  45  70
ATOM     70  C   UNL A   1      39.126  31.695  33.769  1.00  0.00     0.058 A 
ATOM     71  C   UNL A   1      38.808  33.071  33.909  1.00  0.00     0.135 A 
ATOM     72  C   UNL A   1      38.068  30.857  33.389  1.00  0.00     0.135 A 
ATOM     73  F   UNL A   1      39.765  33.935  34.291  1.00  0.00    -0.206 F 
ATOM     74  C   UNL A   1      37.569  33.605  33.535  1.00  0.00     0.059 A 
ATOM     75  C   UNL A   1      36.807  31.371  33.030  1.00  0.00     0.059 A 
ATOM     76  F   UNL A   1      38.275  29.538  33.250  1.00  0.00    -0.206 F 
ATOM     77  C   UNL A   1      36.579  32.752  33.056  1.00  0.00     0.060 A 
BRANCH  77  78
ATOM     78  S   UNL A   1      35.034  33.472  32.407  1.00  0.00     0.124 S 
ATOM     79  O   UNL A   1      34.540  34.198  33.574  1.00  0.00    -0.237 OA
ATOM     80  O   UNL A   1      35.460  34.332  31.302  1.00  0.00    -0.237 OA
ATOM     81  O   UNL A   1      34.229  32.311  32.025  1.00  0.00    -0.744 OA
ENDBRANCH  77  78
ENDBRANCH  45  70
BRANCH  57  82
ATOM     82  C   UNL A   1      44.196  26.385  34.341  1.00  0.00     0.058 A 
ATOM     83  C   UNL A   1      45.568  26.273  34.600  1.00  0.00     0.135 A 
ATOM     84  C   UNL A   1      43.377  25.336  34.811  1.00  0.00     0.135 A 
ATOM     85  F   UNL A   1      46.425  27.204  34.153  1.00  0.00    -0.206 F 
ATOM     86  C   UNL A   1      46.090  25.208  35.333  1.00  0.00     0.059 A 
ATOM     87  C   UNL A   1      43.883  24.229  35.480  1.00  0.00     0.059 A 
ATOM     88  F   UNL A   1      42.042  25.372  34.671  1.00  0.00    -0.206 F 
ATOM     89  C   UNL A   1      45.238  24.195  35.773  1.00  0.00     0.060 A 
BRANCH  89  90
ATOM     90  S   UNL A   1      45.886  22.849  36.777  1.00  0.00     0.124 S 
ATOM     91  O   UNL A   1      45.349  21.665  36.103  1.00  0.00    -0.237 OA
ATOM     92  O   UNL A   1      47.328  23.054  36.626  1.00  0.00    -0.237 OA
ATOM     93  O   UNL A   1      45.347  23.112  38.097  1.00  0.00    -0.744 OA
ENDBRANCH  89  90
ENDBRANCH  57  82
ENDBRANCH  31  32
ENDBRANCH  23  26
ENDBRANCH   1  22
TORSDOF 14
ENDMDL
MODEL 3
REMARK VINA RESULT:     -13.3      5.136     11.705
REMARK SMILES Cc1cc(-c2cncc(C(=O)NCCCNC(=O)c3ccc(-c4c5nc(c(-c6c(F)cc(S(=O)(=O)[O-])cc6F)c6ccc([nH]6)c(-c6c(F)cc(S(=O)(=O)[O-])cc6F)c6nc(c(-c7c(F)cc(S(=O)(=O)[O-])cc7F)c7ccc4[nH]7)C=C6)C=C5)cc3)c2)ccc1F
REMARK SMILES IDX 15 1 14 2 13 3 12 4 10 5 11 6 9 8 5 9 6 10 85 11 7 12 8 13
REMARK SMILES IDX 4 14 1 15 2 16 3 17 88 18 87 19 89 20 86 21 16 22 17 23
REMARK SMILES IDX 18 25 19 26 20 27 84 28 21 29 83 30 22 31 23 32 24 33 77 34
REMARK SMILES IDX 25 35 82 36 76 37 78 38 26 39 81 40 75 41 74 42 27 44 61 45
REMARK SMILES IDX 40 46 60 47 41 48 44 49 59 50 79 51 42 52 43 53 58 55 80 56
REMARK SMILES IDX 45 57 28 58 29 59 38 60 30 61 31 62 37 63 39 64 32 65 33 66
REMARK SMILES IDX 34 67 35 68 36 69 62 70 63 71 72 72 64 73 65 74 71 75 73 76
REMARK SMILES IDX 66 77 67 78 68 79 69 80 70 81 46 82 47 83 56 84 48 85 49 86
REMARK SMILES IDX 55 87 57 88 50 89 51 90 52 91 53 92 54 93
REMARK H PARENT 12 7 16 24 78 43 44 54
REMARK Flexibility Score: inf
ROOT
ATOM      1  C   UNL A   1      40.147  23.203  27.667  1.00  0.00     0.118 C 
ENDROOT
BRANCH   1   2
ATOM      2  C   UNL A   1      39.446  22.683  26.457  1.00  0.00     0.042 C 
BRANCH   2   3
ATOM      3  C   UNL A   1      38.176  23.461  26.137  1.00  0.00     0.118 C 
BRANCH   3   4
ATOM      4  N   UNL A   1      37.794  23.277  24.748  1.00  0.00    -0.352 N 
ATOM      5  C   UNL A   1      36.571  23.312  24.125  1.00  0.00     0.252 C 
ATOM      6  O   UNL A   1      36.542  23.141  22.906  1.00  0.00    -0.269 OA
ATOM      7  H   UNL A   1      38.550  23.095  24.144  1.00  0.00     0.163 HD
BRANCH   5   8
ATOM      8  C   UNL A   1      35.289  23.567  24.838  1.00  0.00     0.058 A 
ATOM      9  C   UNL A   1      33.568  24.970  25.871  1.00  0.00     0.001 A 
ATOM     10  C   UNL A   1      32.855  23.811  26.126  1.00  0.00     0.119 A 
ATOM     11  C   UNL A   1      34.803  24.807  25.238  1.00  0.00     0.025 A 
ATOM     12  N   UNL A   1      33.285  22.567  25.792  1.00  0.00    -0.263 NA
ATOM     13  C   UNL A   1      34.489  22.479  25.158  1.00  0.00     0.124 A 
BRANCH   9  14
ATOM     14  C   UNL A   1      33.111  26.328  26.192  1.00  0.00    -0.016 A 
ATOM     15  C   UNL A   1      34.691  29.702  27.096  1.00  0.00     0.047 C 
ATOM     16  C   UNL A   1      33.675  28.631  26.836  1.00  0.00    -0.015 A 
ATOM     17  C   UNL A   1      34.060  27.350  26.421  1.00  0.00     0.015 A 
ATOM     18  C   UNL A   1      32.316  28.890  27.011  1.00  0.00     0.126 A 
ATOM     19  C   UNL A   1      31.360  27.900  26.797  1.00  0.00     0.040 A 
ATOM     20  F   UNL A   1      31.914  30.107  27.402  1.00  0.00    -0.207 F 
ATOM     21  C   UNL A   1      31.756  26.622  26.391  1.00  0.00     0.012 A 
ENDBRANCH   9  14
ENDBRANCH   5   8
ENDBRANCH   3   4
ENDBRANCH   2   3
ENDBRANCH   1   2
BRANCH   1  22
ATOM     22  N   UNL A   1      40.964  24.350  27.387  1.00  0.00    -0.352 N 
ATOM     23  C   UNL A   1      40.774  25.486  28.116  1.00  0.00     0.251 C 
ATOM     24  H   UNL A   1      41.648  24.316  26.681  1.00  0.00     0.163 HD
ATOM     25  O   UNL A   1      41.656  25.856  28.886  1.00  0.00    -0.269 OA
BRANCH  23  26
ATOM     26  C   UNL A   1      39.406  26.103  28.160  1.00  0.00     0.039 A 
ATOM     27  C   UNL A   1      39.367  27.131  27.207  1.00  0.00     0.014 A 
ATOM     28  C   UNL A   1      39.110  26.411  29.488  1.00  0.00     0.014 A 
ATOM     29  C   UNL A   1      39.658  28.414  27.637  1.00  0.00     0.010 A 
ATOM     30  C   UNL A   1      39.592  27.599  29.942  1.00  0.00     0.010 A 
ATOM     31  C   UNL A   1      39.902  28.579  28.995  1.00  0.00    -0.014 A 
BRANCH  31  32
ATOM     32  C   UNL A   1      40.225  29.828  29.620  1.00  0.00     0.031 A 
ATOM     33  C   UNL A   1      39.180  30.842  29.469  1.00  0.00     0.074 A 
ATOM     34  C   UNL A   1      41.250  29.832  30.492  1.00  0.00     0.049 A 
ATOM     35  N   UNL A   1      39.278  32.054  29.850  1.00  0.00    -0.248 NA
ATOM     36  C   UNL A   1      37.888  30.535  28.845  1.00  0.00     0.031 C 
ATOM     37  C   UNL A   1      41.584  30.801  31.522  1.00  0.00     0.029 A 
ATOM     38  N   UNL A   1      42.388  29.037  30.387  1.00  0.00    -0.354 N 
ATOM     39  C   UNL A   1      38.008  32.589  29.829  1.00  0.00     0.074 A 
ATOM     40  C   UNL A   1      37.200  31.641  29.112  1.00  0.00     0.031 C 
ATOM     41  C   UNL A   1      42.916  30.767  31.716  1.00  0.00     0.029 A 
ATOM     42  C   UNL A   1      43.477  29.864  30.716  1.00  0.00     0.049 A 
ATOM     43  H   UNL A   1      42.424  28.086  30.134  1.00  0.00     0.167 HD
ATOM     44  C   UNL A   1      37.800  33.711  30.567  1.00  0.00     0.037 A 
ATOM     45  C   UNL A   1      44.281  30.250  29.674  1.00  0.00     0.037 A 
ATOM     46  C   UNL A   1      39.094  34.215  31.048  1.00  0.00     0.049 A 
ATOM     47  C   UNL A   1      44.078  31.720  29.287  1.00  0.00     0.074 A 
ATOM     48  C   UNL A   1      39.840  34.026  32.199  1.00  0.00     0.029 A 
ATOM     49  N   UNL A   1      39.991  34.652  30.090  1.00  0.00    -0.354 N 
ATOM     50  N   UNL A   1      43.119  32.484  29.751  1.00  0.00    -0.248 NA
ATOM     51  C   UNL A   1      44.948  32.454  28.366  1.00  0.00     0.031 C 
ATOM     52  C   UNL A   1      41.220  34.232  31.864  1.00  0.00     0.029 A 
ATOM     53  C   UNL A   1      41.301  34.550  30.518  1.00  0.00     0.049 A 
ATOM     54  H   UNL A   1      39.726  34.995  29.206  1.00  0.00     0.167 HD
ATOM     55  C   UNL A   1      43.220  33.748  29.237  1.00  0.00     0.074 A 
ATOM     56  C   UNL A   1      44.378  33.675  28.359  1.00  0.00     0.031 C 
ATOM     57  C   UNL A   1      42.367  34.773  29.545  1.00  0.00     0.037 A 
BRANCH  44  58
ATOM     58  C   UNL A   1      36.458  34.229  31.014  1.00  0.00     0.058 A 
ATOM     59  C   UNL A   1      35.496  34.558  30.037  1.00  0.00     0.135 A 
ATOM     60  C   UNL A   1      36.048  34.464  32.345  1.00  0.00     0.135 A 
ATOM     61  F   UNL A   1      35.734  34.376  28.731  1.00  0.00    -0.206 F 
ATOM     62  C   UNL A   1      34.249  35.095  30.350  1.00  0.00     0.059 A 
ATOM     63  C   UNL A   1      34.820  35.040  32.681  1.00  0.00     0.059 A 
ATOM     64  F   UNL A   1      36.785  34.104  33.397  1.00  0.00    -0.206 F 
ATOM     65  C   UNL A   1      33.920  35.341  31.674  1.00  0.00     0.060 A 
BRANCH  65  66
ATOM     66  S   UNL A   1      32.294  36.006  32.056  1.00  0.00     0.124 S 
ATOM     67  O   UNL A   1      32.621  37.119  32.942  1.00  0.00    -0.237 OA
ATOM     68  O   UNL A   1      31.801  36.368  30.732  1.00  0.00    -0.237 OA
ATOM     69  O   UNL A   1      31.607  34.886  32.694  1.00  0.00    -0.744 OA
ENDBRANCH  65  66
ENDBRANCH  44  58
BRANCH  45  70
ATOM     70  C   UNL A   1      44.564  29.066  28.774  1.00  0.00     0.058 A 
ATOM     71  C   UNL A   1      43.914  29.047  27.514  1.00  0.00     0.135 A 
ATOM     72  C   UNL A   1      45.731  28.295  28.875  1.00  0.00     0.135 A 
ATOM     73  F   UNL A   1      42.777  29.745  27.344  1.00  0.00    -0.206 F 
ATOM     74  C   UNL A   1      44.472  28.441  26.382  1.00  0.00     0.059 A 
ATOM     75  C   UNL A   1      46.297  27.659  27.754  1.00  0.00     0.059 A 
ATOM     76  F   UNL A   1      46.400  28.241  30.037  1.00  0.00    -0.206 F 
ATOM     77  C   UNL A   1      45.690  27.778  26.498  1.00  0.00     0.060 A 
BRANCH  77  78
ATOM     78  S   UNL A   1      46.497  27.144  24.989  1.00  0.00     0.124 S 
ATOM     79  O   UNL A   1      45.684  25.965  24.701  1.00  0.00    -0.237 OA
ATOM     80  O   UNL A   1      46.356  28.223  24.011  1.00  0.00    -0.237 OA
ATOM     81  O   UNL A   1      47.867  26.852  25.410  1.00  0.00    -0.744 OA
ENDBRANCH  77  78
ENDBRANCH  45  70
BRANCH  57  82
ATOM     82  C   UNL A   1      42.479  36.127  28.907  1.00  0.00     0.058 A 
ATOM     83  C   UNL A   1      42.042  36.368  27.598  1.00  0.00     0.135 A 
ATOM     84  C   UNL A   1      43.131  37.195  29.561  1.00  0.00     0.135 A 
ATOM     85  F   UNL A   1      41.449  35.395  26.888  1.00  0.00    -0.206 F 
ATOM     86  C   UNL A   1      42.193  37.615  26.993  1.00  0.00     0.059 A 
ATOM     87  C   UNL A   1      43.359  38.422  28.953  1.00  0.00     0.059 A 
ATOM     88  F   UNL A   1      43.536  37.094  30.837  1.00  0.00    -0.206 F 
ATOM     89  C   UNL A   1      42.847  38.636  27.682  1.00  0.00     0.060 A 
BRANCH  89  90
ATOM     90  S   UNL A   1      42.991  40.270  26.940  1.00  0.00     0.124 S 
ATOM     91  O   UNL A   1      43.601  41.054  28.017  1.00  0.00    -0.237 OA
ATOM     92  O   UNL A   1      43.865  39.986  25.801  1.00  0.00    -0.237 OA
ATOM     93  O   UNL A   1      41.623  40.622  26.612  1.00  0.00    -0.744 OA
ENDBRANCH  89  90
ENDBRANCH  57  82
ENDBRANCH  31  32
ENDBRANCH  23  26
ENDBRANCH   1  22
TORSDOF 14
ENDMDL
