MODEL 1
REMARK VINA RESULT:     -10.9      0.000      0.000
REMARK SMILES COc1ccc([C@@H]([NH3+])[C@](C)(C(N)=O)C(=O)NCCCNC(=O)c2ccc(-c3c4nc(c(-c5c(F)cc(S(=O)(=O)[O-])cc5F)c5ccc([nH]5)c(-c5c(F)cc(S(=O)(=O)[O-])cc5F)c5nc(c(-c6c(F)cc(S(=O)(=O)[O-])cc6F)c6ccc3[nH]6)C=C5)C=C4)cc2)cc1OC
REMARK SMILES IDX 18 1 17 2 16 3 14 4 15 5 9 7 10 8 7 9 6 10 3 11 4 12 90 13
REMARK SMILES IDX 5 14 89 15 2 16 1 17 91 18 92 19 8 20 11 24 12 25 13 26
REMARK SMILES IDX 19 29 20 30 21 31 22 33 23 34 24 35 88 36 25 37 87 38 26 39
REMARK SMILES IDX 27 40 28 41 81 42 29 43 86 44 80 45 82 46 30 47 85 48 79 49
REMARK SMILES IDX 78 50 31 52 65 53 44 54 64 55 45 56 48 57 63 58 83 59 46 60
REMARK SMILES IDX 47 61 62 63 84 64 49 65 32 66 33 67 42 68 34 69 35 70 41 71
REMARK SMILES IDX 43 72 36 73 37 74 38 75 39 76 40 77 66 78 67 79 76 80 68 81
REMARK SMILES IDX 69 82 75 83 77 84 70 85 71 86 72 87 73 88 74 89 50 90 51 91
REMARK SMILES IDX 60 92 52 93 53 94 59 95 61 96 54 97 55 98 56 99 57 100
REMARK SMILES IDX 58 101
REMARK H PARENT 16 6 8 21 8 22 8 23 12 27 12 28 20 32 82 51 48 62
REMARK Flexibility Score: inf
ROOT
ATOM      1  C   UNL A   1      32.104  27.920  27.479  1.00  0.00     0.042 C 
ENDROOT
BRANCH   1   2
ATOM      2  C   UNL A   1      31.767  26.863  26.445  1.00  0.00     0.117 C 
BRANCH   2   3
ATOM      3  N   UNL A   1      32.766  26.743  25.396  1.00  0.00    -0.355 N 
ATOM      4  C   UNL A   1      33.156  25.671  24.656  1.00  0.00     0.241 C 
ATOM      5  O   UNL A   1      34.024  25.910  23.807  1.00  0.00    -0.274 OA
ATOM      6  H   UNL A   1      33.241  27.580  25.186  1.00  0.00     0.163 HD
BRANCH   4   7
ATOM      7  C   UNL A   1      32.547  24.264  24.823  1.00  0.00     0.180 C 
ATOM      8  C   UNL A   1      32.832  23.856  26.298  1.00  0.00     0.039 C 
BRANCH   7   9
ATOM      9  C   UNL A   1      33.309  23.300  23.832  1.00  0.00     0.237 C 
BRANCH   9  10
ATOM     10  C   UNL A   1      33.416  21.822  24.193  1.00  0.00     0.015 A 
ATOM     11  C   UNL A   1      33.785  19.074  24.691  1.00  0.00     0.160 A 
ATOM     12  C   UNL A   1      32.520  19.573  24.352  1.00  0.00     0.051 A 
ATOM     13  C   UNL A   1      34.885  19.934  24.752  1.00  0.00     0.161 A 
ATOM     14  C   UNL A   1      32.340  20.934  24.098  1.00  0.00     0.014 A 
ATOM     15  C   UNL A   1      34.681  21.298  24.513  1.00  0.00     0.060 A 
BRANCH  11  16
ATOM     16  O   UNL A   1      33.921  17.721  24.849  1.00  0.00    -0.493 OA
ATOM     17  C   UNL A   1      34.295  17.090  23.626  1.00  0.00     0.278 C 
ENDBRANCH  11  16
BRANCH  13  18
ATOM     18  O   UNL A   1      36.199  19.640  24.988  1.00  0.00    -0.493 OA
ATOM     19  C   UNL A   1      37.142  20.696  24.947  1.00  0.00     0.278 C 
ENDBRANCH  13  18
ENDBRANCH   9  10
BRANCH   9  20
ATOM     20  N   UNL A   1      32.951  23.386  22.403  1.00  0.00    -0.350 N 
ATOM     21  H   UNL A   1      32.858  22.445  22.018  1.00  0.00     0.345 HD
ATOM     22  H   UNL A   1      33.682  23.889  21.899  1.00  0.00     0.345 HD
ATOM     23  H   UNL A   1      32.066  23.882  22.302  1.00  0.00     0.345 HD
ENDBRANCH   9  20
ENDBRANCH   7   9
BRANCH   7  24
ATOM     24  C   UNL A   1      31.019  24.252  24.719  1.00  0.00     0.239 C 
ATOM     25  N   UNL A   1      30.325  23.633  25.726  1.00  0.00    -0.369 N 
ATOM     26  O   UNL A   1      30.382  24.639  23.743  1.00  0.00    -0.274 OA
ATOM     27  H   UNL A   1      30.801  23.309  26.524  1.00  0.00     0.159 HD
ATOM     28  H   UNL A   1      29.350  23.513  25.651  1.00  0.00     0.159 HD
ENDBRANCH   7  24
ENDBRANCH   4   7
ENDBRANCH   2   3
ENDBRANCH   1   2
BRANCH   1  29
ATOM     29  C   UNL A   1      33.455  28.581  27.278  1.00  0.00     0.118 C 
BRANCH  29  30
ATOM     30  N   UNL A   1      33.457  29.994  27.632  1.00  0.00    -0.352 N 
ATOM     31  C   UNL A   1      34.444  30.759  28.209  1.00  0.00     0.251 C 
ATOM     32  H   UNL A   1      32.625  30.477  27.426  1.00  0.00     0.163 HD
ATOM     33  O   UNL A   1      34.184  31.896  28.596  1.00  0.00    -0.269 OA
BRANCH  31  34
ATOM     34  C   UNL A   1      35.802  30.201  28.393  1.00  0.00     0.039 A 
ATOM     35  C   UNL A   1      36.698  30.216  27.321  1.00  0.00     0.014 A 
ATOM     36  C   UNL A   1      36.200  29.681  29.625  1.00  0.00     0.014 A 
ATOM     37  C   UNL A   1      38.016  29.794  27.517  1.00  0.00     0.010 A 
ATOM     38  C   UNL A   1      37.537  29.379  29.849  1.00  0.00     0.010 A 
ATOM     39  C   UNL A   1      38.461  29.420  28.796  1.00  0.00    -0.014 A 
BRANCH  39  40
ATOM     40  C   UNL A   1      39.879  29.059  29.058  1.00  0.00     0.031 A 
ATOM     41  C   UNL A   1      40.826  30.087  29.623  1.00  0.00     0.074 A 
ATOM     42  C   UNL A   1      40.333  27.835  28.718  1.00  0.00     0.049 A 
ATOM     43  N   UNL A   1      42.113  29.995  29.837  1.00  0.00    -0.248 NA
ATOM     44  C   UNL A   1      40.257  31.403  29.959  1.00  0.00     0.031 C 
ATOM     45  C   UNL A   1      39.531  26.771  28.109  1.00  0.00     0.029 A 
ATOM     46  N   UNL A   1      41.586  27.281  28.824  1.00  0.00    -0.354 N 
ATOM     47  C   UNL A   1      42.508  31.240  30.312  1.00  0.00     0.074 A 
ATOM     48  C   UNL A   1      41.339  32.090  30.292  1.00  0.00     0.031 C 
ATOM     49  C   UNL A   1      40.301  25.686  27.925  1.00  0.00     0.029 A 
ATOM     50  C   UNL A   1      41.661  25.989  28.357  1.00  0.00     0.049 A 
ATOM     51  H   UNL A   1      42.357  27.764  29.200  1.00  0.00     0.167 HD
ATOM     52  C   UNL A   1      43.727  31.632  30.753  1.00  0.00     0.037 A 
ATOM     53  C   UNL A   1      42.708  25.145  28.278  1.00  0.00     0.037 A 
ATOM     54  C   UNL A   1      44.877  30.770  30.801  1.00  0.00     0.049 A 
ATOM     55  C   UNL A   1      44.054  25.603  28.776  1.00  0.00     0.074 A 
ATOM     56  C   UNL A   1      46.141  31.050  31.288  1.00  0.00     0.029 A 
ATOM     57  N   UNL A   1      44.906  29.460  30.345  1.00  0.00    -0.354 N 
ATOM     58  N   UNL A   1      44.394  26.765  29.284  1.00  0.00    -0.248 NA
ATOM     59  C   UNL A   1      45.158  24.636  28.698  1.00  0.00     0.031 C 
ATOM     60  C   UNL A   1      46.949  29.929  31.079  1.00  0.00     0.029 A 
ATOM     61  C   UNL A   1      46.172  28.926  30.519  1.00  0.00     0.049 A 
ATOM     62  H   UNL A   1      44.140  28.981  29.956  1.00  0.00     0.167 HD
ATOM     63  C   UNL A   1      45.740  26.655  29.618  1.00  0.00     0.074 A 
ATOM     64  C   UNL A   1      46.149  25.312  29.260  1.00  0.00     0.031 C 
ATOM     65  C   UNL A   1      46.561  27.581  30.171  1.00  0.00     0.037 A 
BRANCH  52  66
ATOM     66  C   UNL A   1      43.876  33.053  31.227  1.00  0.00     0.058 A 
ATOM     67  C   UNL A   1      44.285  34.082  30.362  1.00  0.00     0.135 A 
ATOM     68  C   UNL A   1      43.572  33.400  32.554  1.00  0.00     0.135 A 
ATOM     69  F   UNL A   1      44.606  33.807  29.088  1.00  0.00    -0.206 F 
ATOM     70  C   UNL A   1      44.414  35.395  30.802  1.00  0.00     0.059 A 
ATOM     71  C   UNL A   1      43.662  34.712  33.007  1.00  0.00     0.059 A 
ATOM     72  F   UNL A   1      43.178  32.457  33.425  1.00  0.00    -0.206 F 
ATOM     73  C   UNL A   1      44.099  35.702  32.127  1.00  0.00     0.060 A 
BRANCH  73  74
ATOM     74  S   UNL A   1      44.263  37.413  32.676  1.00  0.00     0.124 S 
ATOM     75  O   UNL A   1      45.674  37.467  33.042  1.00  0.00    -0.237 OA
ATOM     76  O   UNL A   1      43.890  38.160  31.480  1.00  0.00    -0.237 OA
ATOM     77  O   UNL A   1      43.323  37.505  33.788  1.00  0.00    -0.744 OA
ENDBRANCH  73  74
ENDBRANCH  52  66
BRANCH  53  78
ATOM     78  C   UNL A   1      42.524  23.776  27.727  1.00  0.00     0.058 A 
ATOM     79  C   UNL A   1      42.411  22.664  28.575  1.00  0.00     0.135 A 
ATOM     80  C   UNL A   1      42.445  23.550  26.343  1.00  0.00     0.135 A 
ATOM     81  F   UNL A   1      42.485  22.825  29.905  1.00  0.00    -0.206 F 
ATOM     82  C   UNL A   1      42.247  21.377  28.074  1.00  0.00     0.059 A 
ATOM     83  C   UNL A   1      42.253  22.275  25.819  1.00  0.00     0.059 A 
ATOM     84  F   UNL A   1      42.529  24.581  25.487  1.00  0.00    -0.206 F 
ATOM     85  C   UNL A   1      42.166  21.192  26.693  1.00  0.00     0.060 A 
BRANCH  85  86
ATOM     86  S   UNL A   1      41.912  19.522  26.056  1.00  0.00     0.124 S 
ATOM     87  O   UNL A   1      42.757  19.528  24.868  1.00  0.00    -0.237 OA
ATOM     88  O   UNL A   1      42.376  18.698  27.167  1.00  0.00    -0.237 OA
ATOM     89  O   UNL A   1      40.473  19.474  25.807  1.00  0.00    -0.744 OA
ENDBRANCH  85  86
ENDBRANCH  53  78
BRANCH  65  90
ATOM     90  C   UNL A   1      47.974  27.167  30.473  1.00  0.00     0.058 A 
ATOM     91  C   UNL A   1      49.017  27.359  29.555  1.00  0.00     0.135 A 
ATOM     92  C   UNL A   1      48.299  26.627  31.730  1.00  0.00     0.135 A 
ATOM     93  F   UNL A   1      48.762  27.867  28.338  1.00  0.00    -0.206 F 
ATOM     94  C   UNL A   1      50.328  27.010  29.860  1.00  0.00     0.059 A 
ATOM     95  C   UNL A   1      49.607  26.301  32.068  1.00  0.00     0.059 A 
ATOM     96  F   UNL A   1      47.340  26.433  32.650  1.00  0.00    -0.206 F 
ATOM     97  C   UNL A   1      50.614  26.485  31.123  1.00  0.00     0.060 A 
BRANCH  97  98
ATOM     98  S   UNL A   1      52.326  26.075  31.522  1.00  0.00     0.124 S 
ATOM     99  O   UNL A   1      52.974  26.223  30.222  1.00  0.00    -0.237 OA
ATOM    100  O   UNL A   1      52.664  27.088  32.517  1.00  0.00    -0.237 OA
ATOM    101  O   UNL A   1      52.240  24.709  32.029  1.00  0.00    -0.744 OA
ENDBRANCH  97  98
ENDBRANCH  65  90
ENDBRANCH  39  40
ENDBRANCH  31  34
ENDBRANCH  29  30
ENDBRANCH   1  29
TORSDOF 19
ENDMDL
MODEL 2
REMARK VINA RESULT:     -10.6      1.207      2.039
REMARK SMILES COc1ccc([C@@H]([NH3+])[C@](C)(C(N)=O)C(=O)NCCCNC(=O)c2ccc(-c3c4nc(c(-c5c(F)cc(S(=O)(=O)[O-])cc5F)c5ccc([nH]5)c(-c5c(F)cc(S(=O)(=O)[O-])cc5F)c5nc(c(-c6c(F)cc(S(=O)(=O)[O-])cc6F)c6ccc3[nH]6)C=C5)C=C4)cc2)cc1OC
REMARK SMILES IDX 18 1 17 2 16 3 14 4 15 5 9 7 10 8 7 9 6 10 3 11 4 12 90 13
REMARK SMILES IDX 5 14 89 15 2 16 1 17 91 18 92 19 8 20 11 24 12 25 13 26
REMARK SMILES IDX 19 29 20 30 21 31 22 33 23 34 24 35 88 36 25 37 87 38 26 39
REMARK SMILES IDX 27 40 28 41 81 42 29 43 86 44 80 45 82 46 30 47 85 48 79 49
REMARK SMILES IDX 78 50 31 52 65 53 44 54 64 55 45 56 48 57 63 58 83 59 46 60
REMARK SMILES IDX 47 61 62 63 84 64 49 65 32 66 33 67 42 68 34 69 35 70 41 71
REMARK SMILES IDX 43 72 36 73 37 74 38 75 39 76 40 77 66 78 67 79 76 80 68 81
REMARK SMILES IDX 69 82 75 83 77 84 70 85 71 86 72 87 73 88 74 89 50 90 51 91
REMARK SMILES IDX 60 92 52 93 53 94 59 95 61 96 54 97 55 98 56 99 57 100
REMARK SMILES IDX 58 101
REMARK H PARENT 16 6 8 21 8 22 8 23 12 27 12 28 20 32 82 51 48 62
REMARK Flexibility Score: inf
ROOT
ATOM      1  C   UNL A   1      31.920  27.806  27.464  1.00  0.00     0.042 C 
ENDROOT
BRANCH   1   2
ATOM      2  C   UNL A   1      31.476  26.951  26.293  1.00  0.00     0.117 C 
BRANCH   2   3
ATOM      3  N   UNL A   1      31.189  27.719  25.094  1.00  0.00    -0.355 N 
ATOM      4  C   UNL A   1      31.444  27.455  23.784  1.00  0.00     0.241 C 
ATOM      5  O   UNL A   1      31.038  28.311  22.989  1.00  0.00    -0.274 OA
ATOM      6  H   UNL A   1      30.732  28.575  25.257  1.00  0.00     0.163 HD
BRANCH   4   7
ATOM      7  C   UNL A   1      32.155  26.172  23.305  1.00  0.00     0.180 C 
ATOM      8  C   UNL A   1      31.083  25.045  23.383  1.00  0.00     0.039 C 
BRANCH   7   9
ATOM      9  C   UNL A   1      33.330  25.879  24.317  1.00  0.00     0.237 C 
BRANCH   9  10
ATOM     10  C   UNL A   1      33.927  24.476  24.353  1.00  0.00     0.015 A 
ATOM     11  C   UNL A   1      35.060  21.915  24.658  1.00  0.00     0.160 A 
ATOM     12  C   UNL A   1      35.611  22.836  23.756  1.00  0.00     0.051 A 
ATOM     13  C   UNL A   1      33.959  22.274  25.440  1.00  0.00     0.161 A 
ATOM     14  C   UNL A   1      35.053  24.107  23.611  1.00  0.00     0.014 A 
ATOM     15  C   UNL A   1      33.403  23.546  25.269  1.00  0.00     0.060 A 
BRANCH  11  16
ATOM     16  O   UNL A   1      35.696  20.714  24.818  1.00  0.00    -0.493 OA
ATOM     17  C   UNL A   1      37.112  20.878  24.872  1.00  0.00     0.278 C 
ENDBRANCH  11  16
BRANCH  13  18
ATOM     18  O   UNL A   1      33.327  21.559  26.420  1.00  0.00    -0.493 OA
ATOM     19  C   UNL A   1      33.756  21.728  27.759  1.00  0.00     0.278 C 
ENDBRANCH  13  18
ENDBRANCH   9  10
BRANCH   9  20
ATOM     20  N   UNL A   1      34.449  26.841  24.345  1.00  0.00    -0.350 N 
ATOM     21  H   UNL A   1      34.972  26.730  25.214  1.00  0.00     0.345 HD
ATOM     22  H   UNL A   1      34.082  27.791  24.288  1.00  0.00     0.345 HD
ATOM     23  H   UNL A   1      35.067  26.668  23.552  1.00  0.00     0.345 HD
ENDBRANCH   9  20
ENDBRANCH   7   9
BRANCH   7  24
ATOM     24  C   UNL A   1      32.547  26.216  21.825  1.00  0.00     0.239 C 
ATOM     25  N   UNL A   1      31.552  26.018  20.905  1.00  0.00    -0.369 N 
ATOM     26  O   UNL A   1      33.701  26.287  21.410  1.00  0.00    -0.274 OA
ATOM     27  H   UNL A   1      30.615  25.957  21.199  1.00  0.00     0.159 HD
ATOM     28  H   UNL A   1      31.774  25.938  19.949  1.00  0.00     0.159 HD
ENDBRANCH   7  24
ENDBRANCH   4   7
ENDBRANCH   2   3
ENDBRANCH   1   2
BRANCH   1  29
ATOM     29  C   UNL A   1      33.282  28.448  27.286  1.00  0.00     0.118 C 
BRANCH  29  30
ATOM     30  N   UNL A   1      33.283  29.877  27.572  1.00  0.00    -0.352 N 
ATOM     31  C   UNL A   1      34.270  30.670  28.109  1.00  0.00     0.251 C 
ATOM     32  H   UNL A   1      32.448  30.347  27.346  1.00  0.00     0.163 HD
ATOM     33  O   UNL A   1      34.008  31.823  28.442  1.00  0.00    -0.269 OA
BRANCH  31  34
ATOM     34  C   UNL A   1      35.629  30.124  28.314  1.00  0.00     0.039 A 
ATOM     35  C   UNL A   1      36.537  30.133  27.253  1.00  0.00     0.014 A 
ATOM     36  C   UNL A   1      36.017  29.623  29.557  1.00  0.00     0.014 A 
ATOM     37  C   UNL A   1      37.856  29.723  27.468  1.00  0.00     0.010 A 
ATOM     38  C   UNL A   1      37.354  29.333  29.800  1.00  0.00     0.010 A 
ATOM     39  C   UNL A   1      38.289  29.368  28.757  1.00  0.00    -0.014 A 
BRANCH  39  40
ATOM     40  C   UNL A   1      39.707  29.021  29.038  1.00  0.00     0.031 A 
ATOM     41  C   UNL A   1      40.635  30.057  29.619  1.00  0.00     0.074 A 
ATOM     42  C   UNL A   1      40.178  27.802  28.702  1.00  0.00     0.049 A 
ATOM     43  N   UNL A   1      41.920  29.977  29.851  1.00  0.00    -0.248 NA
ATOM     44  C   UNL A   1      40.048  31.367  29.949  1.00  0.00     0.031 C 
ATOM     45  C   UNL A   1      39.396  26.732  28.080  1.00  0.00     0.029 A 
ATOM     46  N   UNL A   1      41.435  27.261  28.826  1.00  0.00    -0.354 N 
ATOM     47  C   UNL A   1      42.295  31.226  30.334  1.00  0.00     0.074 A 
ATOM     48  C   UNL A   1      41.118  32.064  30.299  1.00  0.00     0.031 C 
ATOM     49  C   UNL A   1      40.180  25.655  27.905  1.00  0.00     0.029 A 
ATOM     50  C   UNL A   1      41.530  25.971  28.358  1.00  0.00     0.049 A 
ATOM     51  H   UNL A   1      42.196  27.751  29.214  1.00  0.00     0.167 HD
ATOM     52  C   UNL A   1      43.503  31.629  30.795  1.00  0.00     0.037 A 
ATOM     53  C   UNL A   1      42.587  25.138  28.292  1.00  0.00     0.037 A 
ATOM     54  C   UNL A   1      44.662  30.779  30.857  1.00  0.00     0.049 A 
ATOM     55  C   UNL A   1      43.921  25.608  28.810  1.00  0.00     0.074 A 
ATOM     56  C   UNL A   1      45.916  31.071  31.363  1.00  0.00     0.029 A 
ATOM     57  N   UNL A   1      44.710  29.470  30.399  1.00  0.00    -0.354 N 
ATOM     58  N   UNL A   1      44.241  26.772  29.326  1.00  0.00    -0.248 NA
ATOM     59  C   UNL A   1      45.035  24.652  28.746  1.00  0.00     0.031 C 
ATOM     60  C   UNL A   1      46.738  29.958  31.164  1.00  0.00     0.029 A 
ATOM     61  C   UNL A   1      45.979  28.948  30.590  1.00  0.00     0.049 A 
ATOM     62  H   UNL A   1      43.955  28.984  29.998  1.00  0.00     0.167 HD
ATOM     63  C   UNL A   1      45.583  26.675  29.678  1.00  0.00     0.074 A 
ATOM     64  C   UNL A   1      46.011  25.338  29.324  1.00  0.00     0.031 C 
ATOM     65  C   UNL A   1      46.386  27.608  30.246  1.00  0.00     0.037 A 
BRANCH  52  66
ATOM     66  C   UNL A   1      43.632  33.051  31.274  1.00  0.00     0.058 A 
ATOM     67  C   UNL A   1      43.503  33.388  32.632  1.00  0.00     0.135 A 
ATOM     68  C   UNL A   1      43.924  34.085  30.370  1.00  0.00     0.135 A 
ATOM     69  F   UNL A   1      43.207  32.443  33.539  1.00  0.00    -0.206 F 
ATOM     70  C   UNL A   1      43.630  34.701  33.071  1.00  0.00     0.059 A 
ATOM     71  C   UNL A   1      44.089  35.401  30.793  1.00  0.00     0.059 A 
ATOM     72  F   UNL A   1      44.057  33.822  29.060  1.00  0.00    -0.206 F 
ATOM     73  C   UNL A   1      43.925  35.702  32.144  1.00  0.00     0.060 A 
BRANCH  73  74
ATOM     74  S   UNL A   1      44.097  37.398  32.735  1.00  0.00     0.124 S 
ATOM     75  O   UNL A   1      42.979  37.496  33.667  1.00  0.00    -0.237 OA
ATOM     76  O   UNL A   1      45.425  37.384  33.338  1.00  0.00    -0.237 OA
ATOM     77  O   UNL A   1      43.971  38.196  31.519  1.00  0.00    -0.744 OA
ENDBRANCH  73  74
ENDBRANCH  52  66
BRANCH  53  78
ATOM     78  C   UNL A   1      42.424  23.768  27.735  1.00  0.00     0.058 A 
ATOM     79  C   UNL A   1      42.349  22.649  28.578  1.00  0.00     0.135 A 
ATOM     80  C   UNL A   1      42.329  23.548  26.351  1.00  0.00     0.135 A 
ATOM     81  F   UNL A   1      42.440  22.804  29.908  1.00  0.00    -0.206 F 
ATOM     82  C   UNL A   1      42.206  21.361  28.072  1.00  0.00     0.059 A 
ATOM     83  C   UNL A   1      42.157  22.273  25.822  1.00  0.00     0.059 A 
ATOM     84  F   UNL A   1      42.377  24.585  25.501  1.00  0.00    -0.206 F 
ATOM     85  C   UNL A   1      42.108  21.183  26.691  1.00  0.00     0.060 A 
BRANCH  85  86
ATOM     86  S   UNL A   1      41.881  19.511  26.048  1.00  0.00     0.124 S 
ATOM     87  O   UNL A   1      42.719  19.539  24.855  1.00  0.00    -0.237 OA
ATOM     88  O   UNL A   1      42.368  18.691  27.152  1.00  0.00    -0.237 OA
ATOM     89  O   UNL A   1      40.442  19.437  25.807  1.00  0.00    -0.744 OA
ENDBRANCH  85  86
ENDBRANCH  53  78
BRANCH  65  90
ATOM     90  C   UNL A   1      47.800  27.208  30.567  1.00  0.00     0.058 A 
ATOM     91  C   UNL A   1      48.857  27.430  29.673  1.00  0.00     0.135 A 
ATOM     92  C   UNL A   1      48.108  26.651  31.820  1.00  0.00     0.135 A 
ATOM     93  F   UNL A   1      48.617  27.955  28.460  1.00  0.00    -0.206 F 
ATOM     94  C   UNL A   1      50.167  27.093  29.997  1.00  0.00     0.059 A 
ATOM     95  C   UNL A   1      49.414  26.336  32.178  1.00  0.00     0.059 A 
ATOM     96  F   UNL A   1      47.135  26.427  32.718  1.00  0.00    -0.206 F 
ATOM     97  C   UNL A   1      50.436  26.550  31.256  1.00  0.00     0.060 A 
BRANCH  97  98
ATOM     98  S   UNL A   1      52.146  26.157  31.680  1.00  0.00     0.124 S 
ATOM     99  O   UNL A   1      52.026  24.772  32.126  1.00  0.00    -0.237 OA
ATOM    100  O   UNL A   1      52.835  26.356  30.410  1.00  0.00    -0.237 OA
ATOM    101  O   UNL A   1      52.470  27.126  32.723  1.00  0.00    -0.744 OA
ENDBRANCH  97  98
ENDBRANCH  65  90
ENDBRANCH  39  40
ENDBRANCH  31  34
ENDBRANCH  29  30
ENDBRANCH   1  29
TORSDOF 19
ENDMDL
MODEL 3
REMARK VINA RESULT:     -10.6      4.825     10.400
REMARK SMILES COc1ccc([C@@H]([NH3+])[C@](C)(C(N)=O)C(=O)NCCCNC(=O)c2ccc(-c3c4nc(c(-c5c(F)cc(S(=O)(=O)[O-])cc5F)c5ccc([nH]5)c(-c5c(F)cc(S(=O)(=O)[O-])cc5F)c5nc(c(-c6c(F)cc(S(=O)(=O)[O-])cc6F)c6ccc3[nH]6)C=C5)C=C4)cc2)cc1OC
REMARK SMILES IDX 18 1 17 2 16 3 14 4 15 5 9 7 10 8 7 9 6 10 3 11 4 12 90 13
REMARK SMILES IDX 5 14 89 15 2 16 1 17 91 18 92 19 8 20 11 24 12 25 13 26
REMARK SMILES IDX 19 29 20 30 21 31 22 33 23 34 24 35 88 36 25 37 87 38 26 39
REMARK SMILES IDX 27 40 28 41 81 42 29 43 86 44 80 45 82 46 30 47 85 48 79 49
REMARK SMILES IDX 78 50 31 52 65 53 44 54 64 55 45 56 48 57 63 58 83 59 46 60
REMARK SMILES IDX 47 61 62 63 84 64 49 65 32 66 33 67 42 68 34 69 35 70 41 71
REMARK SMILES IDX 43 72 36 73 37 74 38 75 39 76 40 77 66 78 67 79 76 80 68 81
REMARK SMILES IDX 69 82 75 83 77 84 70 85 71 86 72 87 73 88 74 89 50 90 51 91
REMARK SMILES IDX 60 92 52 93 53 94 59 95 61 96 54 97 55 98 56 99 57 100
REMARK SMILES IDX 58 101
REMARK H PARENT 16 6 8 21 8 22 8 23 12 27 12 28 20 32 82 51 48 62
REMARK Flexibility Score: inf
ROOT
ATOM      1  C   UNL A   1      37.884  23.792  26.513  1.00  0.00     0.042 C 
ENDROOT
BRANCH   1   2
ATOM      2  C   UNL A   1      37.619  23.270  25.114  1.00  0.00     0.117 C 
BRANCH   2   3
ATOM      3  N   UNL A   1      37.422  21.831  25.064  1.00  0.00    -0.355 N 
ATOM      4  C   UNL A   1      36.283  21.089  25.019  1.00  0.00     0.241 C 
ATOM      5  O   UNL A   1      36.457  19.867  24.949  1.00  0.00    -0.274 OA
ATOM      6  H   UNL A   1      38.253  21.305  25.061  1.00  0.00     0.163 HD
BRANCH   4   7
ATOM      7  C   UNL A   1      34.871  21.711  25.018  1.00  0.00     0.180 C 
ATOM      8  C   UNL A   1      34.805  22.602  23.743  1.00  0.00     0.039 C 
BRANCH   7   9
ATOM      9  C   UNL A   1      34.749  22.602  26.315  1.00  0.00     0.237 C 
BRANCH   9  10
ATOM     10  C   UNL A   1      33.782  23.782  26.298  1.00  0.00     0.015 A 
ATOM     11  C   UNL A   1      31.853  25.828  26.124  1.00  0.00     0.160 A 
ATOM     12  C   UNL A   1      33.182  26.068  25.752  1.00  0.00     0.051 A 
ATOM     13  C   UNL A   1      31.465  24.556  26.555  1.00  0.00     0.161 A 
ATOM     14  C   UNL A   1      34.136  25.052  25.832  1.00  0.00     0.014 A 
ATOM     15  C   UNL A   1      32.438  23.555  26.645  1.00  0.00     0.060 A 
BRANCH  11  16
ATOM     16  O   UNL A   1      30.945  26.837  25.949  1.00  0.00    -0.493 OA
ATOM     17  C   UNL A   1      31.502  27.914  25.198  1.00  0.00     0.278 C 
ENDBRANCH  11  16
BRANCH  13  18
ATOM     18  O   UNL A   1      30.219  24.100  26.887  1.00  0.00    -0.493 OA
ATOM     19  C   UNL A   1      29.991  22.703  26.881  1.00  0.00     0.278 C 
ENDBRANCH  13  18
ENDBRANCH   9  10
BRANCH   9  20
ATOM     20  N   UNL A   1      34.572  21.899  27.601  1.00  0.00    -0.350 N 
ATOM     21  H   UNL A   1      34.307  20.930  27.425  1.00  0.00     0.345 HD
ATOM     22  H   UNL A   1      33.840  22.359  28.142  1.00  0.00     0.345 HD
ATOM     23  H   UNL A   1      35.447  21.922  28.124  1.00  0.00     0.345 HD
ENDBRANCH   9  20
ENDBRANCH   7   9
BRANCH   7  24
ATOM     24  C   UNL A   1      33.757  20.679  24.813  1.00  0.00     0.239 C 
ATOM     25  N   UNL A   1      33.756  19.584  25.636  1.00  0.00    -0.369 N 
ATOM     26  O   UNL A   1      32.950  20.697  23.888  1.00  0.00    -0.274 OA
ATOM     27  H   UNL A   1      34.388  19.533  26.389  1.00  0.00     0.159 HD
ATOM     28  H   UNL A   1      33.121  18.848  25.476  1.00  0.00     0.159 HD
ENDBRANCH   7  24
ENDBRANCH   4   7
ENDBRANCH   2   3
ENDBRANCH   1   2
BRANCH   1  29
ATOM     29  C   UNL A   1      39.304  23.576  27.002  1.00  0.00     0.118 C 
BRANCH  29  30
ATOM     30  N   UNL A   1      40.310  24.072  26.072  1.00  0.00    -0.352 N 
ATOM     31  C   UNL A   1      41.074  25.214  26.125  1.00  0.00     0.251 C 
ATOM     32  H   UNL A   1      40.466  23.503  25.285  1.00  0.00     0.163 HD
ATOM     33  O   UNL A   1      41.738  25.547  25.145  1.00  0.00    -0.269 OA
BRANCH  31  34
ATOM     34  C   UNL A   1      41.070  26.053  27.343  1.00  0.00     0.039 A 
ATOM     35  C   UNL A   1      42.062  27.023  27.509  1.00  0.00     0.014 A 
ATOM     36  C   UNL A   1      40.079  25.900  28.313  1.00  0.00     0.014 A 
ATOM     37  C   UNL A   1      42.001  27.893  28.601  1.00  0.00     0.010 A 
ATOM     38  C   UNL A   1      39.951  26.840  29.327  1.00  0.00     0.010 A 
ATOM     39  C   UNL A   1      40.916  27.843  29.491  1.00  0.00    -0.014 A 
BRANCH  39  40
ATOM     40  C   UNL A   1      40.772  28.816  30.606  1.00  0.00     0.031 A 
ATOM     41  C   UNL A   1      41.655  28.704  31.823  1.00  0.00     0.074 A 
ATOM     42  C   UNL A   1      39.800  29.750  30.559  1.00  0.00     0.049 A 
ATOM     43  N   UNL A   1      41.624  29.396  32.932  1.00  0.00    -0.248 NA
ATOM     44  C   UNL A   1      42.685  27.652  31.803  1.00  0.00     0.031 C 
ATOM     45  C   UNL A   1      38.842  29.925  29.464  1.00  0.00     0.029 A 
ATOM     46  N   UNL A   1      39.446  30.724  31.462  1.00  0.00    -0.354 N 
ATOM     47  C   UNL A   1      42.613  28.852  33.745  1.00  0.00     0.074 A 
ATOM     48  C   UNL A   1      43.180  27.732  33.029  1.00  0.00     0.031 C 
ATOM     49  C   UNL A   1      38.034  30.960  29.744  1.00  0.00     0.029 A 
ATOM     50  C   UNL A   1      38.380  31.494  31.057  1.00  0.00     0.049 A 
ATOM     51  H   UNL A   1      39.913  30.858  32.318  1.00  0.00     0.167 HD
ATOM     52  C   UNL A   1      43.031  29.268  34.964  1.00  0.00     0.037 A 
ATOM     53  C   UNL A   1      37.748  32.510  31.676  1.00  0.00     0.037 A 
ATOM     54  C   UNL A   1      42.484  30.404  35.655  1.00  0.00     0.049 A 
ATOM     55  C   UNL A   1      38.232  32.954  33.031  1.00  0.00     0.074 A 
ATOM     56  C   UNL A   1      42.879  30.945  36.866  1.00  0.00     0.029 A 
ATOM     57  N   UNL A   1      41.424  31.174  35.200  1.00  0.00    -0.354 N 
ATOM     58  N   UNL A   1      39.213  32.469  33.756  1.00  0.00    -0.248 NA
ATOM     59  C   UNL A   1      37.530  34.087  33.650  1.00  0.00     0.031 C 
ATOM     60  C   UNL A   1      42.025  32.010  37.168  1.00  0.00     0.029 A 
ATOM     61  C   UNL A   1      41.137  32.173  36.115  1.00  0.00     0.049 A 
ATOM     62  H   UNL A   1      40.947  31.033  34.351  1.00  0.00     0.167 HD
ATOM     63  C   UNL A   1      39.267  33.260  34.899  1.00  0.00     0.074 A 
ATOM     64  C   UNL A   1      38.226  34.257  34.766  1.00  0.00     0.031 C 
ATOM     65  C   UNL A   1      40.105  33.169  35.961  1.00  0.00     0.037 A 
BRANCH  52  66
ATOM     66  C   UNL A   1      44.141  28.493  35.625  1.00  0.00     0.058 A 
ATOM     67  C   UNL A   1      43.877  27.436  36.513  1.00  0.00     0.135 A 
ATOM     68  C   UNL A   1      45.484  28.784  35.339  1.00  0.00     0.135 A 
ATOM     69  F   UNL A   1      42.612  27.123  36.836  1.00  0.00    -0.206 F 
ATOM     70  C   UNL A   1      44.904  26.718  37.115  1.00  0.00     0.059 A 
ATOM     71  C   UNL A   1      46.527  28.057  35.905  1.00  0.00     0.059 A 
ATOM     72  F   UNL A   1      45.795  29.784  34.499  1.00  0.00    -0.206 F 
ATOM     73  C   UNL A   1      46.227  27.034  36.803  1.00  0.00     0.060 A 
BRANCH  73  74
ATOM     74  S   UNL A   1      47.546  26.084  37.587  1.00  0.00     0.124 S 
ATOM     75  O   UNL A   1      47.119  24.715  37.316  1.00  0.00    -0.237 OA
ATOM     76  O   UNL A   1      48.728  26.534  36.859  1.00  0.00    -0.237 OA
ATOM     77  O   UNL A   1      47.479  26.497  38.985  1.00  0.00    -0.744 OA
ENDBRANCH  73  74
ENDBRANCH  52  66
BRANCH  53  78
ATOM     78  C   UNL A   1      36.604  33.192  31.012  1.00  0.00     0.058 A 
ATOM     79  C   UNL A   1      35.289  33.003  31.464  1.00  0.00     0.135 A 
ATOM     80  C   UNL A   1      36.800  34.054  29.921  1.00  0.00     0.135 A 
ATOM     81  F   UNL A   1      35.047  32.185  32.499  1.00  0.00    -0.206 F 
ATOM     82  C   UNL A   1      34.209  33.626  30.848  1.00  0.00     0.059 A 
ATOM     83  C   UNL A   1      35.739  34.710  29.306  1.00  0.00     0.059 A 
ATOM     84  F   UNL A   1      38.040  34.283  29.460  1.00  0.00    -0.206 F 
ATOM     85  C   UNL A   1      34.444  34.481  29.769  1.00  0.00     0.060 A 
BRANCH  85  86
ATOM     86  S   UNL A   1      33.038  35.316  29.004  1.00  0.00     0.124 S 
ATOM     87  O   UNL A   1      32.179  35.562  30.157  1.00  0.00    -0.237 OA
ATOM     88  O   UNL A   1      33.667  36.493  28.412  1.00  0.00    -0.237 OA
ATOM     89  O   UNL A   1      32.543  34.330  28.047  1.00  0.00    -0.744 OA
ENDBRANCH  85  86
ENDBRANCH  53  78
BRANCH  65  90
ATOM     90  C   UNL A   1      39.969  34.201  37.046  1.00  0.00     0.058 A 
ATOM     91  C   UNL A   1      40.530  35.481  36.930  1.00  0.00     0.135 A 
ATOM     92  C   UNL A   1      39.208  33.920  38.195  1.00  0.00     0.135 A 
ATOM     93  F   UNL A   1      41.270  35.799  35.856  1.00  0.00    -0.206 F 
ATOM     94  C   UNL A   1      40.363  36.441  37.923  1.00  0.00     0.059 A 
ATOM     95  C   UNL A   1      39.002  34.875  39.185  1.00  0.00     0.059 A 
ATOM     96  F   UNL A   1      38.640  32.714  38.352  1.00  0.00    -0.206 F 
ATOM     97  C   UNL A   1      39.593  36.129  39.045  1.00  0.00     0.060 A 
BRANCH  97  98
ATOM     98  S   UNL A   1      39.349  37.398  40.306  1.00  0.00     0.124 S 
ATOM     99  O   UNL A   1      40.723  37.811  40.576  1.00  0.00    -0.237 OA
ATOM    100  O   UNL A   1      38.519  38.374  39.608  1.00  0.00    -0.237 OA
ATOM    101  O   UNL A   1      38.686  36.679  41.389  1.00  0.00    -0.744 OA
ENDBRANCH  97  98
ENDBRANCH  65  90
ENDBRANCH  39  40
ENDBRANCH  31  34
ENDBRANCH  29  30
ENDBRANCH   1  29
TORSDOF 19
ENDMDL
