MODEL 1
REMARK VINA RESULT:     -12.2      0.000      0.000
REMARK SMILES O=C(NCCCNC(=O)[C@@]1([NH2+]C2CC2)CC[C@@H]([N@@H+]2CC[N@@H+]3CCC[C@@H]3C2)C1)c1ccc(-c2c3nc(c(-c4c(F)cc(S(=O)(=O)[O-])cc4F)c4ccc([nH]4)c(-c4c(F)cc(S(=O)(=O)[O-])cc4F)c4nc(c(-c5c(F)cc(S(=O)(=O)[O-])cc5F)c5ccc2[nH]5)C=C4)C=C3)cc1
REMARK SMILES IDX 4 1 3 2 1 3 2 4 28 6 29 7 93 8 30 9 92 10 31 11 32 12 33 13
REMARK SMILES IDX 86 14 34 15 91 16 85 17 87 18 35 19 90 20 84 21 83 22 36 24
REMARK SMILES IDX 70 25 49 26 69 27 50 28 53 29 68 30 88 31 51 32 52 33 67 35
REMARK SMILES IDX 89 36 54 37 37 38 38 39 47 40 39 41 40 42 46 43 48 44 41 45
REMARK SMILES IDX 42 46 43 47 44 48 45 49 71 50 72 51 81 52 73 53 74 54 80 55
REMARK SMILES IDX 82 56 75 57 76 58 77 59 78 60 79 61 55 62 56 63 65 64 57 65
REMARK SMILES IDX 58 66 64 67 66 68 59 69 60 70 61 71 62 72 63 73 5 74 6 75
REMARK SMILES IDX 7 76 8 77 9 79 10 80 15 81 27 82 16 83 17 84 11 85 12 88
REMARK SMILES IDX 13 89 14 90 18 91 19 92 26 93 20 95 25 96 21 97 24 98 22 99
REMARK SMILES IDX 23 101
REMARK H PARENT 3 5 87 23 53 34 7 78 11 86 11 87 18 94 21 100
REMARK Flexibility Score: inf
ROOT
ATOM      1  C   UNL A   1      33.393  28.887  27.256  1.00  0.00     0.118 C 
ENDROOT
BRANCH   1   2
ATOM      2  N   UNL A   1      33.525  30.266  27.689  1.00  0.00    -0.352 N 
ATOM      3  O   UNL A   1      34.364  31.931  28.940  1.00  0.00    -0.269 OA
ATOM      4  C   UNL A   1      34.555  30.851  28.381  1.00  0.00     0.251 C 
ATOM      5  H   UNL A   1      32.776  30.860  27.454  1.00  0.00     0.163 HD
BRANCH   4   6
ATOM      6  C   UNL A   1      35.887  30.204  28.456  1.00  0.00     0.039 A 
ATOM      7  C   UNL A   1      36.764  30.230  27.365  1.00  0.00     0.014 A 
ATOM      8  C   UNL A   1      36.311  29.662  29.673  1.00  0.00     0.014 A 
ATOM      9  C   UNL A   1      38.033  29.666  27.471  1.00  0.00     0.010 A 
ATOM     10  C   UNL A   1      37.611  29.160  29.802  1.00  0.00     0.010 A 
ATOM     11  C   UNL A   1      38.486  29.174  28.706  1.00  0.00    -0.014 A 
BRANCH  11  12
ATOM     12  C   UNL A   1      39.928  28.866  28.881  1.00  0.00     0.031 A 
ATOM     13  C   UNL A   1      40.508  27.537  28.492  1.00  0.00     0.074 A 
ATOM     14  C   UNL A   1      40.708  29.814  29.440  1.00  0.00     0.049 A 
ATOM     15  N   UNL A   1      41.740  27.116  28.617  1.00  0.00    -0.248 NA
ATOM     16  C   UNL A   1      39.594  26.551  27.897  1.00  0.00     0.031 C 
ATOM     17  C   UNL A   1      40.238  31.127  29.897  1.00  0.00     0.029 A 
ATOM     18  N   UNL A   1      42.048  29.828  29.728  1.00  0.00    -0.354 N 
ATOM     19  C   UNL A   1      41.752  25.814  28.137  1.00  0.00     0.074 A 
ATOM     20  C   UNL A   1      40.398  25.507  27.724  1.00  0.00     0.031 C 
ATOM     21  C   UNL A   1      41.274  31.821  30.390  1.00  0.00     0.029 A 
ATOM     22  C   UNL A   1      42.468  30.988  30.334  1.00  0.00     0.049 A 
ATOM     23  H   UNL A   1      42.651  29.077  29.521  1.00  0.00     0.167 HD
ATOM     24  C   UNL A   1      42.800  24.960  28.051  1.00  0.00     0.037 A 
ATOM     25  C   UNL A   1      43.672  31.337  30.823  1.00  0.00     0.037 A 
ATOM     26  C   UNL A   1      44.148  25.288  28.440  1.00  0.00     0.049 A 
ATOM     27  C   UNL A   1      44.808  30.363  30.720  1.00  0.00     0.074 A 
ATOM     28  C   UNL A   1      45.293  24.523  28.295  1.00  0.00     0.029 A 
ATOM     29  N   UNL A   1      44.531  26.465  29.065  1.00  0.00    -0.354 N 
ATOM     30  N   UNL A   1      44.814  29.165  30.189  1.00  0.00    -0.248 NA
ATOM     31  C   UNL A   1      46.095  30.781  31.293  1.00  0.00     0.031 C 
ATOM     32  C   UNL A   1      46.361  25.220  28.871  1.00  0.00     0.029 A 
ATOM     33  C   UNL A   1      45.887  26.433  29.346  1.00  0.00     0.049 A 
ATOM     34  H   UNL A   1      43.928  27.214  29.277  1.00  0.00     0.167 HD
ATOM     35  C   UNL A   1      46.104  28.680  30.368  1.00  0.00     0.074 A 
ATOM     36  C   UNL A   1      46.856  29.726  31.031  1.00  0.00     0.031 C 
ATOM     37  C   UNL A   1      46.614  27.474  30.023  1.00  0.00     0.037 A 
BRANCH  24  38
ATOM     38  C   UNL A   1      42.549  23.579  27.517  1.00  0.00     0.058 A 
ATOM     39  C   UNL A   1      42.623  23.296  26.146  1.00  0.00     0.135 A 
ATOM     40  C   UNL A   1      42.337  22.506  28.399  1.00  0.00     0.135 A 
ATOM     41  F   UNL A   1      42.814  24.287  25.261  1.00  0.00    -0.206 F 
ATOM     42  C   UNL A   1      42.496  21.997  25.665  1.00  0.00     0.059 A 
ATOM     43  C   UNL A   1      42.222  21.196  27.941  1.00  0.00     0.059 A 
ATOM     44  F   UNL A   1      42.257  22.724  29.721  1.00  0.00    -0.206 F 
ATOM     45  C   UNL A   1      42.300  20.952  26.571  1.00  0.00     0.060 A 
BRANCH  45  46
ATOM     46  S   UNL A   1      42.181  19.265  25.935  1.00  0.00     0.124 S 
ATOM     47  O   UNL A   1      42.653  18.491  27.079  1.00  0.00    -0.237 OA
ATOM     48  O   UNL A   1      40.759  19.144  25.633  1.00  0.00    -0.237 OA
ATOM     49  O   UNL A   1      43.067  19.275  24.776  1.00  0.00    -0.744 OA
ENDBRANCH  45  46
ENDBRANCH  24  38
BRANCH  25  50
ATOM     50  C   UNL A   1      43.847  32.651  31.490  1.00  0.00     0.058 A 
ATOM     51  C   UNL A   1      44.176  33.798  30.757  1.00  0.00     0.135 A 
ATOM     52  C   UNL A   1      43.673  32.784  32.877  1.00  0.00     0.135 A 
ATOM     53  F   UNL A   1      44.355  33.719  29.429  1.00  0.00    -0.206 F 
ATOM     54  C   UNL A   1      44.343  35.033  31.376  1.00  0.00     0.059 A 
ATOM     55  C   UNL A   1      43.813  34.010  33.515  1.00  0.00     0.059 A 
ATOM     56  F   UNL A   1      43.340  31.716  33.618  1.00  0.00    -0.206 F 
ATOM     57  C   UNL A   1      44.162  35.128  32.757  1.00  0.00     0.060 A 
BRANCH  57  58
ATOM     58  S   UNL A   1      44.341  36.738  33.556  1.00  0.00     0.124 S 
ATOM     59  O   UNL A   1      43.418  36.609  34.677  1.00  0.00    -0.237 OA
ATOM     60  O   UNL A   1      45.760  36.762  33.896  1.00  0.00    -0.237 OA
ATOM     61  O   UNL A   1      43.941  37.672  32.508  1.00  0.00    -0.744 OA
ENDBRANCH  57  58
ENDBRANCH  25  50
BRANCH  37  62
ATOM     62  C   UNL A   1      48.051  27.220  30.373  1.00  0.00     0.058 A 
ATOM     63  C   UNL A   1      48.399  26.523  31.540  1.00  0.00     0.135 A 
ATOM     64  C   UNL A   1      49.083  27.644  29.524  1.00  0.00     0.135 A 
ATOM     65  F   UNL A   1      47.445  26.108  32.389  1.00  0.00    -0.206 F 
ATOM     66  C   UNL A   1      49.727  26.266  31.861  1.00  0.00     0.059 A 
ATOM     67  C   UNL A   1      50.418  27.381  29.815  1.00  0.00     0.059 A 
ATOM     68  F   UNL A   1      48.798  28.312  28.394  1.00  0.00    -0.206 F 
ATOM     69  C   UNL A   1      50.730  26.700  30.991  1.00  0.00     0.060 A 
BRANCH  69  70
ATOM     70  S   UNL A   1      52.450  26.331  31.398  1.00  0.00     0.124 S 
ATOM     71  O   UNL A   1      52.316  25.067  32.115  1.00  0.00    -0.237 OA
ATOM     72  O   UNL A   1      53.076  26.251  30.082  1.00  0.00    -0.237 OA
ATOM     73  O   UNL A   1      52.856  27.475  32.210  1.00  0.00    -0.744 OA
ENDBRANCH  69  70
ENDBRANCH  37  62
ENDBRANCH  11  12
ENDBRANCH   4   6
ENDBRANCH   1   2
BRANCH   1  74
ATOM     74  C   UNL A   1      32.033  28.320  27.635  1.00  0.00     0.042 C 
BRANCH  74  75
ATOM     75  C   UNL A   1      31.218  27.821  26.448  1.00  0.00     0.118 C 
BRANCH  75  76
ATOM     76  N   UNL A   1      30.740  26.456  26.619  1.00  0.00    -0.351 N 
ATOM     77  C   UNL A   1      31.084  25.229  26.143  1.00  0.00     0.281 C 
ATOM     78  H   UNL A   1      29.974  26.409  27.234  1.00  0.00     0.163 HD
ATOM     79  O   UNL A   1      30.307  24.322  26.481  1.00  0.00    -0.268 OA
BRANCH  77  80
ATOM     80  C   UNL A   1      32.344  24.909  25.291  1.00  0.00     0.181 C 
ATOM     81  C   UNL A   1      33.649  24.590  26.024  1.00  0.00     0.085 C 
ATOM     82  C   UNL A   1      32.039  23.500  24.675  1.00  0.00     0.144 C 
ATOM     83  C   UNL A   1      34.442  23.671  25.110  1.00  0.00     0.072 C 
ATOM     84  C   UNL A   1      33.389  22.805  24.411  1.00  0.00     0.191 C 
BRANCH  80  85
ATOM     85  N   UNL A   1      32.490  25.789  24.108  1.00  0.00    -0.331 N 
ATOM     86  H   UNL A   1      33.287  25.414  23.595  1.00  0.00     0.347 HD
ATOM     87  H   UNL A   1      32.502  26.697  24.573  1.00  0.00     0.347 HD
BRANCH  85  88
ATOM     88  C   UNL A   1      31.477  26.053  23.094  1.00  0.00     0.183 C 
ATOM     89  C   UNL A   1      31.331  27.322  22.321  1.00  0.00     0.071 C 
ATOM     90  C   UNL A   1      31.747  26.051  21.626  1.00  0.00     0.071 C 
ENDBRANCH  85  88
ENDBRANCH  80  85
BRANCH  84  91
ATOM     91  N   UNL A   1      33.463  21.389  24.791  1.00  0.00    -0.323 N 
ATOM     92  C   UNL A   1      34.785  21.010  25.329  1.00  0.00     0.324 C 
ATOM     93  C   UNL A   1      32.959  20.413  23.814  1.00  0.00     0.328 C 
ATOM     94  H   UNL A   1      32.783  21.327  25.550  1.00  0.00     0.348 HD
ATOM     95  C   UNL A   1      35.328  19.628  24.891  1.00  0.00     0.324 C 
ATOM     96  C   UNL A   1      33.028  18.968  24.361  1.00  0.00     0.240 C 
ATOM     97  N   UNL A   1      34.328  18.555  24.936  1.00  0.00    -0.323 N 
ATOM     98  C   UNL A   1      32.699  17.926  23.291  1.00  0.00     0.077 C 
ATOM     99  C   UNL A   1      34.779  17.343  24.247  1.00  0.00     0.263 C 
ATOM    100  H   UNL A   1      34.206  18.351  25.928  1.00  0.00     0.348 HD
ATOM    101  C   UNL A   1      33.501  16.715  23.724  1.00  0.00     0.068 C 
ENDBRANCH  84  91
ENDBRANCH  77  80
ENDBRANCH  75  76
ENDBRANCH  74  75
ENDBRANCH   1  74
TORSDOF 16
ENDMDL
MODEL 2
REMARK VINA RESULT:     -12.0      4.985     10.152
REMARK SMILES O=C(NCCCNC(=O)[C@@]1([NH2+]C2CC2)CC[C@@H]([N@@H+]2CC[N@@H+]3CCC[C@@H]3C2)C1)c1ccc(-c2c3nc(c(-c4c(F)cc(S(=O)(=O)[O-])cc4F)c4ccc([nH]4)c(-c4c(F)cc(S(=O)(=O)[O-])cc4F)c4nc(c(-c5c(F)cc(S(=O)(=O)[O-])cc5F)c5ccc2[nH]5)C=C4)C=C3)cc1
REMARK SMILES IDX 4 1 3 2 1 3 2 4 28 6 29 7 93 8 30 9 92 10 31 11 32 12 33 13
REMARK SMILES IDX 86 14 34 15 91 16 85 17 87 18 35 19 90 20 84 21 83 22 36 24
REMARK SMILES IDX 70 25 49 26 69 27 50 28 53 29 68 30 88 31 51 32 52 33 67 35
REMARK SMILES IDX 89 36 54 37 37 38 38 39 47 40 39 41 40 42 46 43 48 44 41 45
REMARK SMILES IDX 42 46 43 47 44 48 45 49 71 50 72 51 81 52 73 53 74 54 80 55
REMARK SMILES IDX 82 56 75 57 76 58 77 59 78 60 79 61 55 62 56 63 65 64 57 65
REMARK SMILES IDX 58 66 64 67 66 68 59 69 60 70 61 71 62 72 63 73 5 74 6 75
REMARK SMILES IDX 7 76 8 77 9 79 10 80 15 81 27 82 16 83 17 84 11 85 12 88
REMARK SMILES IDX 13 89 14 90 18 91 19 92 26 93 20 95 25 96 21 97 24 98 22 99
REMARK SMILES IDX 23 101
REMARK H PARENT 3 5 87 23 53 34 7 78 11 86 11 87 18 94 21 100
REMARK Flexibility Score: inf
ROOT
ATOM      1  C   UNL A   1      40.409  23.176  26.994  1.00  0.00     0.118 C 
ENDROOT
BRANCH   1   2
ATOM      2  N   UNL A   1      40.986  24.070  26.006  1.00  0.00    -0.352 N 
ATOM      3  O   UNL A   1      41.389  26.067  25.063  1.00  0.00    -0.269 OA
ATOM      4  C   UNL A   1      41.193  25.423  26.094  1.00  0.00     0.251 C 
ATOM      5  H   UNL A   1      41.265  23.648  25.161  1.00  0.00     0.163 HD
BRANCH   4   6
ATOM      6  C   UNL A   1      41.193  26.110  27.408  1.00  0.00     0.039 A 
ATOM      7  C   UNL A   1      42.315  26.819  27.852  1.00  0.00     0.014 A 
ATOM      8  C   UNL A   1      40.013  26.140  28.158  1.00  0.00     0.014 A 
ATOM      9  C   UNL A   1      42.278  27.504  29.064  1.00  0.00     0.010 A 
ATOM     10  C   UNL A   1      39.952  26.888  29.339  1.00  0.00     0.010 A 
ATOM     11  C   UNL A   1      41.080  27.589  29.792  1.00  0.00    -0.014 A 
BRANCH  11  12
ATOM     12  C   UNL A   1      40.971  28.566  30.904  1.00  0.00     0.031 A 
ATOM     13  C   UNL A   1      41.833  28.472  32.129  1.00  0.00     0.074 A 
ATOM     14  C   UNL A   1      40.038  29.535  30.797  1.00  0.00     0.049 A 
ATOM     15  N   UNL A   1      41.826  29.235  33.192  1.00  0.00    -0.248 NA
ATOM     16  C   UNL A   1      42.821  27.383  32.176  1.00  0.00     0.031 C 
ATOM     17  C   UNL A   1      39.115  29.693  29.668  1.00  0.00     0.029 A 
ATOM     18  N   UNL A   1      39.702  30.562  31.641  1.00  0.00    -0.354 N 
ATOM     19  C   UNL A   1      42.790  28.713  34.045  1.00  0.00     0.074 A 
ATOM     20  C   UNL A   1      43.359  27.560  33.378  1.00  0.00     0.031 C 
ATOM     21  C   UNL A   1      38.332  30.760  29.882  1.00  0.00     0.029 A 
ATOM     22  C   UNL A   1      38.659  31.331  31.182  1.00  0.00     0.049 A 
ATOM     23  H   UNL A   1      40.164  30.731  32.494  1.00  0.00     0.167 HD
ATOM     24  C   UNL A   1      43.160  29.161  35.268  1.00  0.00     0.037 A 
ATOM     25  C   UNL A   1      38.011  32.363  31.753  1.00  0.00     0.037 A 
ATOM     26  C   UNL A   1      42.604  30.327  35.907  1.00  0.00     0.049 A 
ATOM     27  C   UNL A   1      38.441  32.827  33.113  1.00  0.00     0.074 A 
ATOM     28  C   UNL A   1      42.988  30.917  37.100  1.00  0.00     0.029 A 
ATOM     29  N   UNL A   1      41.539  31.069  35.420  1.00  0.00    -0.354 N 
ATOM     30  N   UNL A   1      39.409  32.368  33.868  1.00  0.00    -0.248 NA
ATOM     31  C   UNL A   1      37.684  33.938  33.705  1.00  0.00     0.031 C 
ATOM     32  C   UNL A   1      42.126  31.989  37.355  1.00  0.00     0.029 A 
ATOM     33  C   UNL A   1      41.227  32.088  36.305  1.00  0.00     0.049 A 
ATOM     34  H   UNL A   1      41.074  30.898  34.569  1.00  0.00     0.167 HD
ATOM     35  C   UNL A   1      39.376  33.130  35.029  1.00  0.00     0.074 A 
ATOM     36  C   UNL A   1      38.310  34.098  34.864  1.00  0.00     0.031 C 
ATOM     37  C   UNL A   1      40.152  33.029  36.134  1.00  0.00     0.037 A 
BRANCH  24  38
ATOM     38  C   UNL A   1      44.218  28.400  36.014  1.00  0.00     0.058 A 
ATOM     39  C   UNL A   1      45.575  28.738  35.915  1.00  0.00     0.135 A 
ATOM     40  C   UNL A   1      43.857  27.388  36.919  1.00  0.00     0.135 A 
ATOM     41  F   UNL A   1      45.974  29.691  35.058  1.00  0.00    -0.206 F 
ATOM     42  C   UNL A   1      46.540  28.100  36.689  1.00  0.00     0.059 A 
ATOM     43  C   UNL A   1      44.803  26.747  37.714  1.00  0.00     0.059 A 
ATOM     44  F   UNL A   1      42.571  27.026  37.049  1.00  0.00    -0.206 F 
ATOM     45  C   UNL A   1      46.144  27.109  37.589  1.00  0.00     0.060 A 
BRANCH  45  46
ATOM     46  S   UNL A   1      47.402  26.321  38.618  1.00  0.00     0.124 S 
ATOM     47  O   UNL A   1      48.389  27.390  38.738  1.00  0.00    -0.237 OA
ATOM     48  O   UNL A   1      46.660  26.007  39.835  1.00  0.00    -0.237 OA
ATOM     49  O   UNL A   1      47.818  25.169  37.826  1.00  0.00    -0.744 OA
ENDBRANCH  45  46
ENDBRANCH  24  38
BRANCH  25  50
ATOM     50  C   UNL A   1      36.863  32.992  31.055  1.00  0.00     0.058 A 
ATOM     51  C   UNL A   1      35.543  32.691  31.414  1.00  0.00     0.135 A 
ATOM     52  C   UNL A   1      37.069  33.921  30.022  1.00  0.00     0.135 A 
ATOM     53  F   UNL A   1      35.298  31.807  32.393  1.00  0.00    -0.206 F 
ATOM     54  C   UNL A   1      34.462  33.276  30.762  1.00  0.00     0.059 A 
ATOM     55  C   UNL A   1      36.006  34.535  29.372  1.00  0.00     0.059 A 
ATOM     56  F   UNL A   1      38.316  34.255  29.656  1.00  0.00    -0.206 F 
ATOM     57  C   UNL A   1      34.704  34.195  29.740  1.00  0.00     0.060 A 
BRANCH  57  58
ATOM     58  S   UNL A   1      33.301  34.984  28.920  1.00  0.00     0.124 S 
ATOM     59  O   UNL A   1      32.836  33.914  28.046  1.00  0.00    -0.237 OA
ATOM     60  O   UNL A   1      32.429  35.316  30.043  1.00  0.00    -0.237 OA
ATOM     61  O   UNL A   1      33.911  36.130  28.252  1.00  0.00    -0.744 OA
ENDBRANCH  57  58
ENDBRANCH  25  50
BRANCH  37  62
ATOM     62  C   UNL A   1      39.863  33.982  37.256  1.00  0.00     0.058 A 
ATOM     63  C   UNL A   1      39.063  33.599  38.343  1.00  0.00     0.135 A 
ATOM     64  C   UNL A   1      40.412  35.273  37.262  1.00  0.00     0.135 A 
ATOM     65  F   UNL A   1      38.505  32.378  38.375  1.00  0.00    -0.206 F 
ATOM     66  C   UNL A   1      38.806  34.470  39.395  1.00  0.00     0.059 A 
ATOM     67  C   UNL A   1      40.185  36.154  38.314  1.00  0.00     0.059 A 
ATOM     68  F   UNL A   1      41.186  35.683  36.244  1.00  0.00    -0.206 F 
ATOM     69  C   UNL A   1      39.372  35.747  39.371  1.00  0.00     0.060 A 
BRANCH  69  70
ATOM     70  S   UNL A   1      39.062  36.859  40.760  1.00  0.00     0.124 S 
ATOM     71  O   UNL A   1      38.262  37.901  40.126  1.00  0.00    -0.237 OA
ATOM     72  O   UNL A   1      38.353  35.999  41.701  1.00  0.00    -0.237 OA
ATOM     73  O   UNL A   1      40.404  37.260  41.175  1.00  0.00    -0.744 OA
ENDBRANCH  69  70
ENDBRANCH  37  62
ENDBRANCH  11  12
ENDBRANCH   4   6
ENDBRANCH   1   2
BRANCH   1  74
ATOM     74  C   UNL A   1      39.193  22.450  26.435  1.00  0.00     0.042 C 
BRANCH  74  75
ATOM     75  C   UNL A   1      38.018  23.367  26.118  1.00  0.00     0.118 C 
BRANCH  75  76
ATOM     76  N   UNL A   1      37.638  23.339  24.712  1.00  0.00    -0.351 N 
ATOM     77  C   UNL A   1      36.483  23.186  24.010  1.00  0.00     0.281 C 
ATOM     78  H   UNL A   1      38.414  23.463  24.119  1.00  0.00     0.163 HD
ATOM     79  O   UNL A   1      36.646  23.117  22.782  1.00  0.00    -0.268 OA
BRANCH  77  80
ATOM     80  C   UNL A   1      35.054  23.141  24.620  1.00  0.00     0.181 C 
ATOM     81  C   UNL A   1      34.598  24.323  25.478  1.00  0.00     0.085 C 
ATOM     82  C   UNL A   1      34.108  23.335  23.384  1.00  0.00     0.144 C 
ATOM     83  C   UNL A   1      33.086  24.398  25.339  1.00  0.00     0.072 C 
ATOM     84  C   UNL A   1      32.802  23.976  23.894  1.00  0.00     0.191 C 
BRANCH  80  85
ATOM     85  N   UNL A   1      34.682  21.806  25.144  1.00  0.00    -0.331 N 
ATOM     86  H   UNL A   1      34.109  21.994  25.966  1.00  0.00     0.347 HD
ATOM     87  H   UNL A   1      35.608  21.380  25.194  1.00  0.00     0.347 HD
BRANCH  85  88
ATOM     88  C   UNL A   1      33.974  20.757  24.420  1.00  0.00     0.183 C 
ATOM     89  C   UNL A   1      33.938  19.313  24.799  1.00  0.00     0.071 C 
ATOM     90  C   UNL A   1      32.688  20.152  24.876  1.00  0.00     0.071 C 
ENDBRANCH  85  88
ENDBRANCH  80  85
BRANCH  84  91
ATOM     91  N   UNL A   1      32.262  25.066  23.072  1.00  0.00    -0.323 N 
ATOM     92  C   UNL A   1      33.318  25.914  22.483  1.00  0.00     0.324 C 
ATOM     93  C   UNL A   1      31.171  25.859  23.656  1.00  0.00     0.328 C 
ATOM     94  H   UNL A   1      31.800  24.563  22.313  1.00  0.00     0.348 HD
ATOM     95  C   UNL A   1      33.034  27.436  22.459  1.00  0.00     0.324 C 
ATOM     96  C   UNL A   1      30.646  26.925  22.666  1.00  0.00     0.240 C 
ATOM     97  N   UNL A   1      31.674  27.781  22.030  1.00  0.00    -0.323 N 
ATOM     98  C   UNL A   1      29.655  27.888  23.321  1.00  0.00     0.077 C 
ATOM     99  C   UNL A   1      31.343  29.183  22.295  1.00  0.00     0.263 C 
ATOM    100  H   UNL A   1      31.667  27.619  21.023  1.00  0.00     0.348 HD
ATOM    101  C   UNL A   1      29.846  29.173  22.540  1.00  0.00     0.068 C 
ENDBRANCH  84  91
ENDBRANCH  77  80
ENDBRANCH  75  76
ENDBRANCH  74  75
ENDBRANCH   1  74
TORSDOF 16
ENDMDL
MODEL 3
REMARK VINA RESULT:     -12.0      0.745      8.227
REMARK SMILES O=C(NCCCNC(=O)[C@@]1([NH2+]C2CC2)CC[C@@H]([N@@H+]2CC[N@@H+]3CCC[C@@H]3C2)C1)c1ccc(-c2c3nc(c(-c4c(F)cc(S(=O)(=O)[O-])cc4F)c4ccc([nH]4)c(-c4c(F)cc(S(=O)(=O)[O-])cc4F)c4nc(c(-c5c(F)cc(S(=O)(=O)[O-])cc5F)c5ccc2[nH]5)C=C4)C=C3)cc1
REMARK SMILES IDX 4 1 3 2 1 3 2 4 28 6 29 7 93 8 30 9 92 10 31 11 32 12 33 13
REMARK SMILES IDX 86 14 34 15 91 16 85 17 87 18 35 19 90 20 84 21 83 22 36 24
REMARK SMILES IDX 70 25 49 26 69 27 50 28 53 29 68 30 88 31 51 32 52 33 67 35
REMARK SMILES IDX 89 36 54 37 37 38 38 39 47 40 39 41 40 42 46 43 48 44 41 45
REMARK SMILES IDX 42 46 43 47 44 48 45 49 71 50 72 51 81 52 73 53 74 54 80 55
REMARK SMILES IDX 82 56 75 57 76 58 77 59 78 60 79 61 55 62 56 63 65 64 57 65
REMARK SMILES IDX 58 66 64 67 66 68 59 69 60 70 61 71 62 72 63 73 5 74 6 75
REMARK SMILES IDX 7 76 8 77 9 79 10 80 15 81 27 82 16 83 17 84 11 85 12 88
REMARK SMILES IDX 13 89 14 90 18 91 19 92 26 93 20 95 25 96 21 97 24 98 22 99
REMARK SMILES IDX 23 101
REMARK H PARENT 3 5 87 23 53 34 7 78 11 86 11 87 18 94 21 100
REMARK Flexibility Score: inf
ROOT
ATOM      1  C   UNL A   1      33.781  29.029  26.874  1.00  0.00     0.118 C 
ENDROOT
BRANCH   1   2
ATOM      2  N   UNL A   1      33.788  30.325  27.528  1.00  0.00    -0.352 N 
ATOM      3  O   UNL A   1      34.388  31.797  29.113  1.00  0.00    -0.269 OA
ATOM      4  C   UNL A   1      34.699  30.828  28.422  1.00  0.00     0.251 C 
ATOM      5  H   UNL A   1      33.039  30.921  27.299  1.00  0.00     0.163 HD
BRANCH   4   6
ATOM      6  C   UNL A   1      36.048  30.225  28.555  1.00  0.00     0.039 A 
ATOM      7  C   UNL A   1      36.954  30.239  27.488  1.00  0.00     0.014 A 
ATOM      8  C   UNL A   1      36.454  29.739  29.802  1.00  0.00     0.014 A 
ATOM      9  C   UNL A   1      38.235  29.719  27.649  1.00  0.00     0.010 A 
ATOM     10  C   UNL A   1      37.764  29.283  29.984  1.00  0.00     0.010 A 
ATOM     11  C   UNL A   1      38.669  29.284  28.912  1.00  0.00    -0.014 A 
BRANCH  11  12
ATOM     12  C   UNL A   1      40.114  29.028  29.137  1.00  0.00     0.031 A 
ATOM     13  C   UNL A   1      41.038  30.093  29.648  1.00  0.00     0.074 A 
ATOM     14  C   UNL A   1      40.587  27.802  28.830  1.00  0.00     0.049 A 
ATOM     15  N   UNL A   1      42.327  30.022  29.862  1.00  0.00    -0.248 NA
ATOM     16  C   UNL A   1      40.450  31.407  29.952  1.00  0.00     0.031 C 
ATOM     17  C   UNL A   1      39.784  26.703  28.282  1.00  0.00     0.029 A 
ATOM     18  N   UNL A   1      41.847  27.271  28.923  1.00  0.00    -0.354 N 
ATOM     19  C   UNL A   1      42.712  31.280  30.305  1.00  0.00     0.074 A 
ATOM     20  C   UNL A   1      41.520  32.102  30.323  1.00  0.00     0.031 C 
ATOM     21  C   UNL A   1      40.565  25.628  28.106  1.00  0.00     0.029 A 
ATOM     22  C   UNL A   1      41.931  25.974  28.475  1.00  0.00     0.049 A 
ATOM     23  H   UNL A   1      42.618  27.772  29.276  1.00  0.00     0.167 HD
ATOM     24  C   UNL A   1      43.949  31.702  30.663  1.00  0.00     0.037 A 
ATOM     25  C   UNL A   1      42.994  25.158  28.344  1.00  0.00     0.037 A 
ATOM     26  C   UNL A   1      45.122  30.865  30.667  1.00  0.00     0.049 A 
ATOM     27  C   UNL A   1      44.349  25.661  28.741  1.00  0.00     0.074 A 
ATOM     28  C   UNL A   1      46.396  31.176  31.110  1.00  0.00     0.029 A 
ATOM     29  N   UNL A   1      45.171  29.563  30.191  1.00  0.00    -0.354 N 
ATOM     30  N   UNL A   1      44.678  26.829  29.234  1.00  0.00    -0.248 NA
ATOM     31  C   UNL A   1      45.480  24.741  28.552  1.00  0.00     0.031 C 
ATOM     32  C   UNL A   1      47.226  30.077  30.863  1.00  0.00     0.029 A 
ATOM     33  C   UNL A   1      46.462  29.070  30.295  1.00  0.00     0.049 A 
ATOM     34  H   UNL A   1      44.402  29.064  29.833  1.00  0.00     0.167 HD
ATOM     35  C   UNL A   1      46.056  26.791  29.409  1.00  0.00     0.074 A 
ATOM     36  C   UNL A   1      46.494  25.472  28.997  1.00  0.00     0.031 C 
ATOM     37  C   UNL A   1      46.882  27.763  29.862  1.00  0.00     0.037 A 
BRANCH  24  38
ATOM     38  C   UNL A   1      44.117  33.133  31.085  1.00  0.00     0.058 A 
ATOM     39  C   UNL A   1      44.383  34.148  30.154  1.00  0.00     0.135 A 
ATOM     40  C   UNL A   1      43.906  33.507  32.422  1.00  0.00     0.135 A 
ATOM     41  F   UNL A   1      44.602  33.842  28.865  1.00  0.00    -0.206 F 
ATOM     42  C   UNL A   1      44.433  35.486  30.532  1.00  0.00     0.059 A 
ATOM     43  C   UNL A   1      43.937  34.841  32.821  1.00  0.00     0.059 A 
ATOM     44  F   UNL A   1      43.651  32.574  33.352  1.00  0.00    -0.206 F 
ATOM     45  C   UNL A   1      44.204  35.823  31.868  1.00  0.00     0.060 A 
BRANCH  45  46
ATOM     46  S   UNL A   1      44.228  37.567  32.337  1.00  0.00     0.124 S 
ATOM     47  O   UNL A   1      45.623  37.743  32.726  1.00  0.00    -0.237 OA
ATOM     48  O   UNL A   1      43.828  38.230  31.100  1.00  0.00    -0.237 OA
ATOM     49  O   UNL A   1      43.259  37.641  33.425  1.00  0.00    -0.744 OA
ENDBRANCH  45  46
ENDBRANCH  24  38
BRANCH  25  50
ATOM     50  C   UNL A   1      42.816  23.800  27.773  1.00  0.00     0.058 A 
ATOM     51  C   UNL A   1      42.599  22.689  28.598  1.00  0.00     0.135 A 
ATOM     52  C   UNL A   1      42.847  23.593  26.385  1.00  0.00     0.135 A 
ATOM     53  F   UNL A   1      42.565  22.839  29.931  1.00  0.00    -0.206 F 
ATOM     54  C   UNL A   1      42.434  21.413  28.069  1.00  0.00     0.059 A 
ATOM     55  C   UNL A   1      42.663  22.331  25.831  1.00  0.00     0.059 A 
ATOM     56  F   UNL A   1      43.034  24.629  25.554  1.00  0.00    -0.206 F 
ATOM     57  C   UNL A   1      42.471  21.244  26.683  1.00  0.00     0.060 A 
BRANCH  57  58
ATOM     58  S   UNL A   1      42.217  19.594  25.995  1.00  0.00     0.124 S 
ATOM     59  O   UNL A   1      43.107  19.622  24.839  1.00  0.00    -0.237 OA
ATOM     60  O   UNL A   1      42.628  18.728  27.096  1.00  0.00    -0.237 OA
ATOM     61  O   UNL A   1      40.789  19.576  25.696  1.00  0.00    -0.744 OA
ENDBRANCH  57  58
ENDBRANCH  25  50
BRANCH  37  62
ATOM     62  C   UNL A   1      48.346  27.438  29.919  1.00  0.00     0.058 A 
ATOM     63  C   UNL A   1      49.204  27.778  28.862  1.00  0.00     0.135 A 
ATOM     64  C   UNL A   1      48.900  26.813  31.045  1.00  0.00     0.135 A 
ATOM     65  F   UNL A   1      48.717  28.366  27.758  1.00  0.00    -0.206 F 
ATOM     66  C   UNL A   1      50.565  27.498  28.915  1.00  0.00     0.059 A 
ATOM     67  C   UNL A   1      50.262  26.541  31.129  1.00  0.00     0.059 A 
ATOM     68  F   UNL A   1      48.119  26.472  32.083  1.00  0.00    -0.206 F 
ATOM     69  C   UNL A   1      51.084  26.878  30.054  1.00  0.00     0.060 A 
BRANCH  69  70
ATOM     70  S   UNL A   1      52.858  26.550  30.129  1.00  0.00     0.124 S 
ATOM     71  O   UNL A   1      52.926  25.549  31.189  1.00  0.00    -0.237 OA
ATOM     72  O   UNL A   1      53.147  26.068  28.782  1.00  0.00    -0.237 OA
ATOM     73  O   UNL A   1      53.428  27.854  30.457  1.00  0.00    -0.744 OA
ENDBRANCH  69  70
ENDBRANCH  37  62
ENDBRANCH  11  12
ENDBRANCH   4   6
ENDBRANCH   1   2
BRANCH   1  74
ATOM     74  C   UNL A   1      32.766  28.094  27.517  1.00  0.00     0.042 C 
BRANCH  74  75
ATOM     75  C   UNL A   1      31.420  28.060  26.804  1.00  0.00     0.118 C 
BRANCH  75  76
ATOM     76  N   UNL A   1      30.782  26.751  26.855  1.00  0.00    -0.351 N 
ATOM     77  C   UNL A   1      30.924  25.564  26.207  1.00  0.00     0.281 C 
ATOM     78  H   UNL A   1      30.065  26.718  27.529  1.00  0.00     0.163 HD
ATOM     79  O   UNL A   1      30.063  24.722  26.505  1.00  0.00    -0.268 OA
BRANCH  77  80
ATOM     80  C   UNL A   1      32.061  25.209  25.209  1.00  0.00     0.181 C 
ATOM     81  C   UNL A   1      33.445  24.884  25.777  1.00  0.00     0.085 C 
ATOM     82  C   UNL A   1      31.662  23.793  24.667  1.00  0.00     0.144 C 
ATOM     83  C   UNL A   1      34.104  23.936  24.790  1.00  0.00     0.072 C 
ATOM     84  C   UNL A   1      32.960  23.072  24.249  1.00  0.00     0.191 C 
BRANCH  80  85
ATOM     85  N   UNL A   1      32.067  26.064  23.999  1.00  0.00    -0.331 N 
ATOM     86  H   UNL A   1      31.161  26.533  24.001  1.00  0.00     0.347 HD
ATOM     87  H   UNL A   1      32.333  25.368  23.302  1.00  0.00     0.347 HD
BRANCH  85  88
ATOM     88  C   UNL A   1      33.032  27.107  23.679  1.00  0.00     0.183 C 
ATOM     89  C   UNL A   1      33.531  27.441  22.310  1.00  0.00     0.071 C 
ATOM     90  C   UNL A   1      32.670  28.420  23.068  1.00  0.00     0.071 C 
ENDBRANCH  85  88
ENDBRANCH  80  85
BRANCH  84  91
ATOM     91  N   UNL A   1      33.063  21.663  24.646  1.00  0.00    -0.323 N 
ATOM     92  C   UNL A   1      34.355  21.344  25.286  1.00  0.00     0.324 C 
ATOM     93  C   UNL A   1      32.676  20.661  23.643  1.00  0.00     0.328 C 
ATOM     94  H   UNL A   1      32.331  21.577  25.352  1.00  0.00     0.348 HD
ATOM     95  C   UNL A   1      34.987  19.983  24.903  1.00  0.00     0.324 C 
ATOM     96  C   UNL A   1      32.763  19.224  24.207  1.00  0.00     0.240 C 
ATOM     97  N   UNL A   1      34.032  18.869  24.882  1.00  0.00    -0.323 N 
ATOM     98  C   UNL A   1      32.560  18.162  23.125  1.00  0.00     0.077 C 
ATOM     99  C   UNL A   1      34.584  17.673  24.241  1.00  0.00     0.263 C 
ATOM    100  H   UNL A   1      33.843  18.666  25.864  1.00  0.00     0.348 HD
ATOM    101  C   UNL A   1      33.377  16.988  23.629  1.00  0.00     0.068 C 
ENDBRANCH  84  91
ENDBRANCH  77  80
ENDBRANCH  75  76
ENDBRANCH  74  75
ENDBRANCH   1  74
TORSDOF 16
ENDMDL
