MODEL 1
REMARK VINA RESULT:     -13.0      0.000      0.000
REMARK SMILES O=C(NCCCNC(=O)[C@@H]1Cc2[nH]cnc2CN1C(=O)NCC(F)(F)F)c1ccc(-c2c3nc(c(-c4c(F)cc(S(=O)(=O)[O-])cc4F)c4ccc([nH]4)c(-c4c(F)cc(S(=O)(=O)[O-])cc4F)c4nc(c(-c5c(F)cc(S(=O)(=O)[O-])cc5F)c5ccc2[nH]5)C=C4)C=C3)cc1
REMARK SMILES IDX 5 1 4 2 3 3 1 4 2 5 27 7 28 8 92 9 29 10 91 11 30 12 31 13
REMARK SMILES IDX 32 14 85 15 33 16 90 17 84 18 86 19 34 20 89 21 83 22 82 23
REMARK SMILES IDX 35 25 69 26 48 27 68 28 49 29 52 30 67 31 87 32 50 33 51 34
REMARK SMILES IDX 66 36 88 37 53 38 36 39 37 40 46 41 38 42 39 43 45 44 47 45
REMARK SMILES IDX 40 46 41 47 42 48 43 49 44 50 70 51 71 52 80 53 72 54 73 55
REMARK SMILES IDX 79 56 81 57 74 58 75 59 76 60 77 61 78 62 54 63 55 64 64 65
REMARK SMILES IDX 56 66 57 67 63 68 65 69 58 70 59 71 60 72 61 73 62 74 6 75
REMARK SMILES IDX 7 76 8 77 9 79 10 80 11 81 18 82 12 83 17 84 13 85 16 86
REMARK SMILES IDX 14 87 15 89 19 90 20 91 21 92 22 94 23 95 24 96 25 97 26 98
REMARK H PARENT 3 6 86 24 52 35 7 78 13 88 21 93
REMARK Flexibility Score: inf
ROOT
ATOM      1  C   UNL A   1      36.918  22.830  24.465  1.00  0.00     0.042 C 
ENDROOT
BRANCH   1   2
ATOM      2  C   UNL A   1      37.223  22.125  25.786  1.00  0.00     0.118 C 
BRANCH   2   3
ATOM      3  N   UNL A   1      38.593  21.657  25.869  1.00  0.00    -0.352 N 
ATOM      4  O   UNL A   1      40.764  21.455  26.121  1.00  0.00    -0.269 OA
ATOM      5  C   UNL A   1      39.786  22.195  26.268  1.00  0.00     0.251 C 
ATOM      6  H   UNL A   1      38.688  20.726  25.564  1.00  0.00     0.163 HD
BRANCH   5   7
ATOM      7  C   UNL A   1      39.996  23.556  26.848  1.00  0.00     0.039 A 
ATOM      8  C   UNL A   1      39.156  24.661  26.704  1.00  0.00     0.014 A 
ATOM      9  C   UNL A   1      41.156  23.710  27.636  1.00  0.00     0.014 A 
ATOM     10  C   UNL A   1      39.463  25.878  27.332  1.00  0.00     0.010 A 
ATOM     11  C   UNL A   1      41.460  24.917  28.269  1.00  0.00     0.010 A 
ATOM     12  C   UNL A   1      40.615  26.013  28.116  1.00  0.00    -0.014 A 
BRANCH  12  13
ATOM     13  C   UNL A   1      40.839  27.273  28.837  1.00  0.00     0.031 A 
ATOM     14  C   UNL A   1      41.962  28.141  28.354  1.00  0.00     0.074 A 
ATOM     15  C   UNL A   1      39.997  27.802  29.749  1.00  0.00     0.049 A 
ATOM     16  N   UNL A   1      42.984  28.591  29.009  1.00  0.00    -0.248 NA
ATOM     17  C   UNL A   1      41.934  28.553  26.942  1.00  0.00     0.031 C 
ATOM     18  C   UNL A   1      38.653  27.344  30.112  1.00  0.00     0.029 A 
ATOM     19  N   UNL A   1      40.141  28.951  30.478  1.00  0.00    -0.354 N 
ATOM     20  C   UNL A   1      43.646  29.472  28.151  1.00  0.00     0.074 A 
ATOM     21  C   UNL A   1      43.006  29.343  26.866  1.00  0.00     0.031 C 
ATOM     22  C   UNL A   1      38.034  28.310  30.827  1.00  0.00     0.029 A 
ATOM     23  C   UNL A   1      38.976  29.386  31.091  1.00  0.00     0.049 A 
ATOM     24  H   UNL A   1      40.998  29.428  30.560  1.00  0.00     0.167 HD
ATOM     25  C   UNL A   1      44.587  30.364  28.576  1.00  0.00     0.037 A 
ATOM     26  C   UNL A   1      38.778  30.567  31.724  1.00  0.00     0.037 A 
ATOM     27  C   UNL A   1      45.088  30.048  29.884  1.00  0.00     0.049 A 
ATOM     28  C   UNL A   1      40.103  31.122  32.095  1.00  0.00     0.074 A 
ATOM     29  C   UNL A   1      45.743  28.971  30.447  1.00  0.00     0.029 A 
ATOM     30  N   UNL A   1      44.690  30.828  30.941  1.00  0.00    -0.354 N 
ATOM     31  N   UNL A   1      40.902  30.611  32.992  1.00  0.00    -0.248 NA
ATOM     32  C   UNL A   1      40.704  32.119  31.223  1.00  0.00     0.031 C 
ATOM     33  C   UNL A   1      45.285  28.916  31.795  1.00  0.00     0.029 A 
ATOM     34  C   UNL A   1      44.387  29.971  31.968  1.00  0.00     0.049 A 
ATOM     35  H   UNL A   1      44.633  31.810  30.959  1.00  0.00     0.167 HD
ATOM     36  C   UNL A   1      42.178  30.921  32.551  1.00  0.00     0.074 A 
ATOM     37  C   UNL A   1      41.989  31.954  31.540  1.00  0.00     0.031 C 
ATOM     38  C   UNL A   1      43.246  30.125  32.845  1.00  0.00     0.037 A 
BRANCH  25  39
ATOM     39  C   UNL A   1      44.884  31.687  27.909  1.00  0.00     0.058 A 
ATOM     40  C   UNL A   1      46.121  31.893  27.260  1.00  0.00     0.135 A 
ATOM     41  C   UNL A   1      44.102  32.843  28.116  1.00  0.00     0.135 A 
ATOM     42  F   UNL A   1      46.953  30.865  27.033  1.00  0.00    -0.206 F 
ATOM     43  C   UNL A   1      46.568  33.163  26.889  1.00  0.00     0.059 A 
ATOM     44  C   UNL A   1      44.507  34.112  27.709  1.00  0.00     0.059 A 
ATOM     45  F   UNL A   1      42.954  32.800  28.805  1.00  0.00    -0.206 F 
ATOM     46  C   UNL A   1      45.760  34.269  27.135  1.00  0.00     0.060 A 
BRANCH  46  47
ATOM     47  S   UNL A   1      46.382  35.920  26.759  1.00  0.00     0.124 S 
ATOM     48  O   UNL A   1      47.035  35.698  25.476  1.00  0.00    -0.237 OA
ATOM     49  O   UNL A   1      45.157  36.713  26.725  1.00  0.00    -0.237 OA
ATOM     50  O   UNL A   1      47.272  36.204  27.883  1.00  0.00    -0.744 OA
ENDBRANCH  46  47
ENDBRANCH  25  39
BRANCH  26  51
ATOM     51  C   UNL A   1      37.536  31.377  31.802  1.00  0.00     0.058 A 
ATOM     52  C   UNL A   1      36.943  31.690  33.038  1.00  0.00     0.135 A 
ATOM     53  C   UNL A   1      37.062  32.094  30.684  1.00  0.00     0.135 A 
ATOM     54  F   UNL A   1      37.352  31.075  34.158  1.00  0.00    -0.206 F 
ATOM     55  C   UNL A   1      35.969  32.684  33.167  1.00  0.00     0.059 A 
ATOM     56  C   UNL A   1      36.082  33.080  30.786  1.00  0.00     0.059 A 
ATOM     57  F   UNL A   1      37.606  31.921  29.471  1.00  0.00    -0.206 F 
ATOM     58  C   UNL A   1      35.558  33.388  32.035  1.00  0.00     0.060 A 
BRANCH  58  59
ATOM     59  S   UNL A   1      34.432  34.790  32.223  1.00  0.00     0.124 S 
ATOM     60  O   UNL A   1      35.255  35.739  32.966  1.00  0.00    -0.237 OA
ATOM     61  O   UNL A   1      34.144  35.143  30.837  1.00  0.00    -0.237 OA
ATOM     62  O   UNL A   1      33.308  34.224  32.966  1.00  0.00    -0.744 OA
ENDBRANCH  58  59
ENDBRANCH  26  51
BRANCH  38  63
ATOM     63  C   UNL A   1      43.113  29.121  33.958  1.00  0.00     0.058 A 
ATOM     64  C   UNL A   1      43.370  29.408  35.309  1.00  0.00     0.135 A 
ATOM     65  C   UNL A   1      42.534  27.875  33.665  1.00  0.00     0.135 A 
ATOM     66  F   UNL A   1      43.826  30.611  35.685  1.00  0.00    -0.206 F 
ATOM     67  C   UNL A   1      43.091  28.487  36.320  1.00  0.00     0.059 A 
ATOM     68  C   UNL A   1      42.219  26.954  34.660  1.00  0.00     0.059 A 
ATOM     69  F   UNL A   1      42.210  27.566  32.398  1.00  0.00    -0.206 F 
ATOM     70  C   UNL A   1      42.508  27.264  35.988  1.00  0.00     0.060 A 
BRANCH  70  71
ATOM     71  S   UNL A   1      42.036  26.128  37.311  1.00  0.00     0.124 S 
ATOM     72  O   UNL A   1      40.692  26.585  37.642  1.00  0.00    -0.237 OA
ATOM     73  O   UNL A   1      42.117  24.824  36.659  1.00  0.00    -0.237 OA
ATOM     74  O   UNL A   1      43.048  26.364  38.338  1.00  0.00    -0.744 OA
ENDBRANCH  70  71
ENDBRANCH  38  63
ENDBRANCH  12  13
ENDBRANCH   5   7
ENDBRANCH   2   3
ENDBRANCH   1   2
BRANCH   1  75
ATOM     75  C   UNL A   1      35.420  22.981  24.176  1.00  0.00     0.117 C 
BRANCH  75  76
ATOM     76  N   UNL A   1      34.852  24.211  24.707  1.00  0.00    -0.354 N 
ATOM     77  C   UNL A   1      33.995  24.521  25.712  1.00  0.00     0.243 C 
ATOM     78  H   UNL A   1      35.164  25.009  24.221  1.00  0.00     0.163 HD
ATOM     79  O   UNL A   1      33.814  25.740  25.863  1.00  0.00    -0.273 OA
BRANCH  77  80
ATOM     80  C   UNL A   1      33.164  23.535  26.590  1.00  0.00     0.182 C 
ATOM     81  C   UNL A   1      33.770  22.159  26.975  1.00  0.00     0.091 C 
ATOM     82  N   UNL A   1      31.766  23.387  26.074  1.00  0.00    -0.306 N 
ATOM     83  C   UNL A   1      33.384  21.162  25.944  1.00  0.00     0.042 A 
ATOM     84  C   UNL A   1      31.661  22.638  24.800  1.00  0.00     0.180 C 
ATOM     85  N   UNL A   1      33.869  19.905  25.727  1.00  0.00    -0.348 N 
ATOM     86  C   UNL A   1      32.459  21.384  24.946  1.00  0.00     0.081 A 
ATOM     87  C   UNL A   1      33.290  19.458  24.566  1.00  0.00     0.197 A 
ATOM     88  H   UNL A   1      34.509  19.416  26.293  1.00  0.00     0.167 HD
ATOM     89  N   UNL A   1      32.453  20.342  24.065  1.00  0.00    -0.240 NA
BRANCH  82  90
ATOM     90  C   UNL A   1      30.590  23.840  26.578  1.00  0.00     0.318 C 
ATOM     91  O   UNL A   1      29.961  23.209  27.435  1.00  0.00    -0.249 OA
ATOM     92  N   UNL A   1      30.033  25.016  26.266  1.00  0.00    -0.329 N 
ATOM     93  H   UNL A   1      29.190  25.150  26.757  1.00  0.00     0.165 HD
BRANCH  92  94
ATOM     94  C   UNL A   1      30.325  26.155  25.402  1.00  0.00     0.233 C 
BRANCH  94  95
ATOM     95  C   UNL A   1      29.542  26.145  24.087  1.00  0.00     0.405 C 
ATOM     96  F   UNL A   1      29.686  24.956  23.453  1.00  0.00    -0.169 F 
ATOM     97  F   UNL A   1      28.220  26.319  24.320  1.00  0.00    -0.169 F 
ATOM     98  F   UNL A   1      29.939  27.116  23.242  1.00  0.00    -0.169 F 
ENDBRANCH  94  95
ENDBRANCH  92  94
ENDBRANCH  82  90
ENDBRANCH  77  80
ENDBRANCH  75  76
ENDBRANCH   1  75
TORSDOF 16
ENDMDL
MODEL 2
REMARK VINA RESULT:     -12.8      3.084      9.256
REMARK SMILES O=C(NCCCNC(=O)[C@@H]1Cc2[nH]cnc2CN1C(=O)NCC(F)(F)F)c1ccc(-c2c3nc(c(-c4c(F)cc(S(=O)(=O)[O-])cc4F)c4ccc([nH]4)c(-c4c(F)cc(S(=O)(=O)[O-])cc4F)c4nc(c(-c5c(F)cc(S(=O)(=O)[O-])cc5F)c5ccc2[nH]5)C=C4)C=C3)cc1
REMARK SMILES IDX 5 1 4 2 3 3 1 4 2 5 27 7 28 8 92 9 29 10 91 11 30 12 31 13
REMARK SMILES IDX 32 14 85 15 33 16 90 17 84 18 86 19 34 20 89 21 83 22 82 23
REMARK SMILES IDX 35 25 69 26 48 27 68 28 49 29 52 30 67 31 87 32 50 33 51 34
REMARK SMILES IDX 66 36 88 37 53 38 36 39 37 40 46 41 38 42 39 43 45 44 47 45
REMARK SMILES IDX 40 46 41 47 42 48 43 49 44 50 70 51 71 52 80 53 72 54 73 55
REMARK SMILES IDX 79 56 81 57 74 58 75 59 76 60 77 61 78 62 54 63 55 64 64 65
REMARK SMILES IDX 56 66 57 67 63 68 65 69 58 70 59 71 60 72 61 73 62 74 6 75
REMARK SMILES IDX 7 76 8 77 9 79 10 80 11 81 18 82 12 83 17 84 13 85 16 86
REMARK SMILES IDX 14 87 15 89 19 90 20 91 21 92 22 94 23 95 24 96 25 97 26 98
REMARK H PARENT 3 6 86 24 52 35 7 78 13 88 21 93
REMARK Flexibility Score: inf
ROOT
ATOM      1  C   UNL A   1      33.274  29.017  27.266  1.00  0.00     0.042 C 
ENDROOT
BRANCH   1   2
ATOM      2  C   UNL A   1      33.632  30.457  26.903  1.00  0.00     0.118 C 
BRANCH   2   3
ATOM      3  N   UNL A   1      33.699  31.328  28.061  1.00  0.00    -0.352 N 
ATOM      4  O   UNL A   1      34.273  32.414  29.879  1.00  0.00    -0.269 OA
ATOM      5  C   UNL A   1      34.652  31.646  28.990  1.00  0.00     0.251 C 
ATOM      6  H   UNL A   1      32.853  31.808  28.216  1.00  0.00     0.163 HD
BRANCH   5   7
ATOM      7  C   UNL A   1      36.063  31.156  29.016  1.00  0.00     0.039 A 
ATOM      8  C   UNL A   1      37.216  31.939  29.089  1.00  0.00     0.014 A 
ATOM      9  C   UNL A   1      36.222  29.754  28.988  1.00  0.00     0.014 A 
ATOM     10  C   UNL A   1      38.484  31.341  29.136  1.00  0.00     0.010 A 
ATOM     11  C   UNL A   1      37.482  29.155  29.043  1.00  0.00     0.010 A 
ATOM     12  C   UNL A   1      38.624  29.948  29.113  1.00  0.00    -0.014 A 
BRANCH  12  13
ATOM     13  C   UNL A   1      39.965  29.367  29.270  1.00  0.00     0.031 A 
ATOM     14  C   UNL A   1      40.478  29.214  30.670  1.00  0.00     0.074 A 
ATOM     15  C   UNL A   1      40.671  28.777  28.284  1.00  0.00     0.049 A 
ATOM     16  N   UNL A   1      41.566  29.682  31.195  1.00  0.00    -0.248 NA
ATOM     17  C   UNL A   1      39.653  28.436  31.607  1.00  0.00     0.031 C 
ATOM     18  C   UNL A   1      40.232  28.457  26.923  1.00  0.00     0.029 A 
ATOM     19  N   UNL A   1      41.927  28.235  28.341  1.00  0.00    -0.354 N 
ATOM     20  C   UNL A   1      41.654  29.131  32.475  1.00  0.00     0.074 A 
ATOM     21  C   UNL A   1      40.409  28.442  32.706  1.00  0.00     0.031 C 
ATOM     22  C   UNL A   1      41.119  27.604  26.361  1.00  0.00     0.029 A 
ATOM     23  C   UNL A   1      42.249  27.431  27.258  1.00  0.00     0.049 A 
ATOM     24  H   UNL A   1      42.548  28.403  29.087  1.00  0.00     0.167 HD
ATOM     25  C   UNL A   1      42.798  29.147  33.219  1.00  0.00     0.037 A 
ATOM     26  C   UNL A   1      43.339  26.636  27.127  1.00  0.00     0.037 A 
ATOM     27  C   UNL A   1      43.757  30.094  32.725  1.00  0.00     0.049 A 
ATOM     28  C   UNL A   1      44.375  27.110  28.078  1.00  0.00     0.074 A 
ATOM     29  C   UNL A   1      43.772  31.462  32.533  1.00  0.00     0.029 A 
ATOM     30  N   UNL A   1      44.865  29.620  32.068  1.00  0.00    -0.354 N 
ATOM     31  N   UNL A   1      45.013  28.245  27.982  1.00  0.00    -0.248 NA
ATOM     32  C   UNL A   1      44.500  26.432  29.358  1.00  0.00     0.031 C 
ATOM     33  C   UNL A   1      44.593  31.671  31.388  1.00  0.00     0.029 A 
ATOM     34  C   UNL A   1      45.035  30.417  30.963  1.00  0.00     0.049 A 
ATOM     35  H   UNL A   1      45.426  28.858  32.335  1.00  0.00     0.167 HD
ATOM     36  C   UNL A   1      45.286  28.611  29.289  1.00  0.00     0.074 A 
ATOM     37  C   UNL A   1      45.067  27.403  30.075  1.00  0.00     0.031 C 
ATOM     38  C   UNL A   1      45.399  29.921  29.654  1.00  0.00     0.037 A 
BRANCH  25  39
ATOM     39  C   UNL A   1      43.164  28.115  34.260  1.00  0.00     0.058 A 
ATOM     40  C   UNL A   1      43.396  28.506  35.597  1.00  0.00     0.135 A 
ATOM     41  C   UNL A   1      43.551  26.798  33.933  1.00  0.00     0.135 A 
ATOM     42  F   UNL A   1      43.086  29.745  36.010  1.00  0.00    -0.206 F 
ATOM     43  C   UNL A   1      44.014  27.666  36.525  1.00  0.00     0.059 A 
ATOM     44  C   UNL A   1      44.123  25.926  34.856  1.00  0.00     0.059 A 
ATOM     45  F   UNL A   1      43.474  26.336  32.678  1.00  0.00    -0.206 F 
ATOM     46  C   UNL A   1      44.390  26.383  36.139  1.00  0.00     0.060 A 
BRANCH  46  47
ATOM     47  S   UNL A   1      45.288  25.336  37.302  1.00  0.00     0.124 S 
ATOM     48  O   UNL A   1      44.547  25.571  38.535  1.00  0.00    -0.237 OA
ATOM     49  O   UNL A   1      45.137  24.012  36.708  1.00  0.00    -0.237 OA
ATOM     50  O   UNL A   1      46.643  25.882  37.263  1.00  0.00    -0.744 OA
ENDBRANCH  46  47
ENDBRANCH  25  39
BRANCH  26  51
ATOM     51  C   UNL A   1      43.454  25.335  26.422  1.00  0.00     0.058 A 
ATOM     52  C   UNL A   1      44.349  25.159  25.352  1.00  0.00     0.135 A 
ATOM     53  C   UNL A   1      42.890  24.161  26.963  1.00  0.00     0.135 A 
ATOM     54  F   UNL A   1      44.952  26.220  24.795  1.00  0.00    -0.206 F 
ATOM     55  C   UNL A   1      44.699  23.893  24.874  1.00  0.00     0.059 A 
ATOM     56  C   UNL A   1      43.213  22.889  26.494  1.00  0.00     0.059 A 
ATOM     57  F   UNL A   1      42.077  24.212  28.028  1.00  0.00    -0.206 F 
ATOM     58  C   UNL A   1      44.138  22.761  25.465  1.00  0.00     0.060 A 
BRANCH  58  59
ATOM     59  S   UNL A   1      44.720  21.122  24.971  1.00  0.00     0.124 S 
ATOM     60  O   UNL A   1      43.760  20.248  25.637  1.00  0.00    -0.237 OA
ATOM     61  O   UNL A   1      44.624  21.185  23.517  1.00  0.00    -0.237 OA
ATOM     62  O   UNL A   1      46.081  21.072  25.501  1.00  0.00    -0.744 OA
ENDBRANCH  58  59
ENDBRANCH  26  51
BRANCH  38  63
ATOM     63  C   UNL A   1      45.606  30.954  28.577  1.00  0.00     0.058 A 
ATOM     64  C   UNL A   1      44.564  31.520  27.823  1.00  0.00     0.135 A 
ATOM     65  C   UNL A   1      46.885  31.515  28.431  1.00  0.00     0.135 A 
ATOM     66  F   UNL A   1      43.297  31.111  27.979  1.00  0.00    -0.206 F 
ATOM     67  C   UNL A   1      44.790  32.578  26.942  1.00  0.00     0.059 A 
ATOM     68  C   UNL A   1      47.126  32.591  27.581  1.00  0.00     0.059 A 
ATOM     69  F   UNL A   1      47.909  31.057  29.170  1.00  0.00    -0.206 F 
ATOM     70  C   UNL A   1      46.074  33.113  26.831  1.00  0.00     0.060 A 
BRANCH  70  71
ATOM     71  S   UNL A   1      46.334  34.560  25.782  1.00  0.00     0.124 S 
ATOM     72  O   UNL A   1      46.044  35.659  26.697  1.00  0.00    -0.237 OA
ATOM     73  O   UNL A   1      47.732  34.422  25.385  1.00  0.00    -0.237 OA
ATOM     74  O   UNL A   1      45.368  34.376  24.702  1.00  0.00    -0.744 OA
ENDBRANCH  70  71
ENDBRANCH  38  63
ENDBRANCH  12  13
ENDBRANCH   5   7
ENDBRANCH   2   3
ENDBRANCH   1   2
BRANCH   1  75
ATOM     75  C   UNL A   1      31.768  28.738  27.279  1.00  0.00     0.117 C 
BRANCH  75  76
ATOM     76  N   UNL A   1      31.442  27.321  27.242  1.00  0.00    -0.354 N 
ATOM     77  C   UNL A   1      31.230  26.407  26.262  1.00  0.00     0.243 C 
ATOM     78  H   UNL A   1      31.356  26.931  28.142  1.00  0.00     0.163 HD
ATOM     79  O   UNL A   1      31.027  25.256  26.681  1.00  0.00    -0.273 OA
BRANCH  77  80
ATOM     80  C   UNL A   1      31.113  26.668  24.728  1.00  0.00     0.182 C 
ATOM     81  C   UNL A   1      30.523  25.567  23.809  1.00  0.00     0.091 C 
ATOM     82  N   UNL A   1      32.389  27.217  24.168  1.00  0.00    -0.306 N 
ATOM     83  C   UNL A   1      31.632  24.709  23.318  1.00  0.00     0.042 A 
ATOM     84  C   UNL A   1      33.500  26.239  24.107  1.00  0.00     0.180 C 
ATOM     85  N   UNL A   1      31.581  23.497  22.695  1.00  0.00    -0.348 N 
ATOM     86  C   UNL A   1      32.972  24.993  23.478  1.00  0.00     0.081 A 
ATOM     87  C   UNL A   1      32.877  23.060  22.585  1.00  0.00     0.197 A 
ATOM     88  H   UNL A   1      30.773  23.028  22.384  1.00  0.00     0.167 HD
ATOM     89  N   UNL A   1      33.732  23.935  23.070  1.00  0.00    -0.240 NA
BRANCH  82  90
ATOM     90  C   UNL A   1      32.689  28.464  23.722  1.00  0.00     0.318 C 
ATOM     91  O   UNL A   1      33.810  28.751  23.290  1.00  0.00    -0.249 OA
ATOM     92  N   UNL A   1      31.811  29.472  23.637  1.00  0.00    -0.329 N 
ATOM     93  H   UNL A   1      32.236  30.282  23.274  1.00  0.00     0.165 HD
BRANCH  92  94
ATOM     94  C   UNL A   1      30.401  29.704  23.932  1.00  0.00     0.233 C 
BRANCH  94  95
ATOM     95  C   UNL A   1      29.482  29.520  22.724  1.00  0.00     0.405 C 
ATOM     96  F   UNL A   1      29.632  28.283  22.192  1.00  0.00    -0.169 F 
ATOM     97  F   UNL A   1      28.185  29.645  23.090  1.00  0.00    -0.169 F 
ATOM     98  F   UNL A   1      29.719  30.421  21.751  1.00  0.00    -0.169 F 
ENDBRANCH  94  95
ENDBRANCH  92  94
ENDBRANCH  82  90
ENDBRANCH  77  80
ENDBRANCH  75  76
ENDBRANCH   1  75
TORSDOF 16
ENDMDL
MODEL 3
REMARK VINA RESULT:     -12.6      3.177      9.433
REMARK SMILES O=C(NCCCNC(=O)[C@@H]1Cc2[nH]cnc2CN1C(=O)NCC(F)(F)F)c1ccc(-c2c3nc(c(-c4c(F)cc(S(=O)(=O)[O-])cc4F)c4ccc([nH]4)c(-c4c(F)cc(S(=O)(=O)[O-])cc4F)c4nc(c(-c5c(F)cc(S(=O)(=O)[O-])cc5F)c5ccc2[nH]5)C=C4)C=C3)cc1
REMARK SMILES IDX 5 1 4 2 3 3 1 4 2 5 27 7 28 8 92 9 29 10 91 11 30 12 31 13
REMARK SMILES IDX 32 14 85 15 33 16 90 17 84 18 86 19 34 20 89 21 83 22 82 23
REMARK SMILES IDX 35 25 69 26 48 27 68 28 49 29 52 30 67 31 87 32 50 33 51 34
REMARK SMILES IDX 66 36 88 37 53 38 36 39 37 40 46 41 38 42 39 43 45 44 47 45
REMARK SMILES IDX 40 46 41 47 42 48 43 49 44 50 70 51 71 52 80 53 72 54 73 55
REMARK SMILES IDX 79 56 81 57 74 58 75 59 76 60 77 61 78 62 54 63 55 64 64 65
REMARK SMILES IDX 56 66 57 67 63 68 65 69 58 70 59 71 60 72 61 73 62 74 6 75
REMARK SMILES IDX 7 76 8 77 9 79 10 80 11 81 18 82 12 83 17 84 13 85 16 86
REMARK SMILES IDX 14 87 15 89 19 90 20 91 21 92 22 94 23 95 24 96 25 97 26 98
REMARK H PARENT 3 6 86 24 52 35 7 78 13 88 21 93
REMARK Flexibility Score: inf
ROOT
ATOM      1  C   UNL A   1      31.881  29.899  26.087  1.00  0.00     0.042 C 
ENDROOT
BRANCH   1   2
ATOM      2  C   UNL A   1      33.304  29.977  26.638  1.00  0.00     0.118 C 
BRANCH   2   3
ATOM      3  N   UNL A   1      33.550  31.193  27.389  1.00  0.00    -0.352 N 
ATOM      4  O   UNL A   1      34.345  32.763  28.701  1.00  0.00    -0.269 OA
ATOM      5  C   UNL A   1      34.558  31.660  28.187  1.00  0.00     0.251 C 
ATOM      6  H   UNL A   1      32.814  31.841  27.302  1.00  0.00     0.163 HD
BRANCH   5   7
ATOM      7  C   UNL A   1      35.851  30.969  28.480  1.00  0.00     0.039 A 
ATOM      8  C   UNL A   1      36.099  29.598  28.403  1.00  0.00     0.014 A 
ATOM      9  C   UNL A   1      36.923  31.812  28.845  1.00  0.00     0.014 A 
ATOM     10  C   UNL A   1      37.376  29.087  28.678  1.00  0.00     0.010 A 
ATOM     11  C   UNL A   1      38.197  31.307  29.112  1.00  0.00     0.010 A 
ATOM     12  C   UNL A   1      38.430  29.936  29.034  1.00  0.00    -0.014 A 
BRANCH  12  13
ATOM     13  C   UNL A   1      39.773  29.366  29.210  1.00  0.00     0.031 A 
ATOM     14  C   UNL A   1      40.273  29.230  30.617  1.00  0.00     0.074 A 
ATOM     15  C   UNL A   1      40.493  28.770  28.237  1.00  0.00     0.049 A 
ATOM     16  N   UNL A   1      41.353  29.711  31.148  1.00  0.00    -0.248 NA
ATOM     17  C   UNL A   1      39.444  28.456  31.553  1.00  0.00     0.031 C 
ATOM     18  C   UNL A   1      40.070  28.433  26.875  1.00  0.00     0.029 A 
ATOM     19  N   UNL A   1      41.751  28.237  28.312  1.00  0.00    -0.354 N 
ATOM     20  C   UNL A   1      41.432  29.172  32.434  1.00  0.00     0.074 A 
ATOM     21  C   UNL A   1      40.189  28.478  32.660  1.00  0.00     0.031 C 
ATOM     22  C   UNL A   1      40.967  27.581  26.330  1.00  0.00     0.029 A 
ATOM     23  C   UNL A   1      42.090  27.425  27.240  1.00  0.00     0.049 A 
ATOM     24  H   UNL A   1      42.364  28.417  29.062  1.00  0.00     0.167 HD
ATOM     25  C   UNL A   1      42.568  29.204  33.189  1.00  0.00     0.037 A 
ATOM     26  C   UNL A   1      43.186  26.636  27.128  1.00  0.00     0.037 A 
ATOM     27  C   UNL A   1      43.526  30.152  32.695  1.00  0.00     0.049 A 
ATOM     28  C   UNL A   1      44.210  27.126  28.084  1.00  0.00     0.074 A 
ATOM     29  C   UNL A   1      43.534  31.518  32.489  1.00  0.00     0.029 A 
ATOM     30  N   UNL A   1      44.643  29.679  32.053  1.00  0.00    -0.354 N 
ATOM     31  N   UNL A   1      44.841  28.264  27.983  1.00  0.00    -0.248 NA
ATOM     32  C   UNL A   1      44.326  26.461  29.372  1.00  0.00     0.031 C 
ATOM     33  C   UNL A   1      44.365  31.721  31.350  1.00  0.00     0.029 A 
ATOM     34  C   UNL A   1      44.819  30.466  30.942  1.00  0.00     0.049 A 
ATOM     35  H   UNL A   1      45.207  28.923  32.333  1.00  0.00     0.167 HD
ATOM     36  C   UNL A   1      45.098  28.645  29.289  1.00  0.00     0.074 A 
ATOM     37  C   UNL A   1      44.879  27.443  30.085  1.00  0.00     0.031 C 
ATOM     38  C   UNL A   1      45.200  29.959  29.641  1.00  0.00     0.037 A 
BRANCH  25  39
ATOM     39  C   UNL A   1      42.931  28.185  34.244  1.00  0.00     0.058 A 
ATOM     40  C   UNL A   1      43.094  28.582  35.588  1.00  0.00     0.135 A 
ATOM     41  C   UNL A   1      43.380  26.884  33.932  1.00  0.00     0.135 A 
ATOM     42  F   UNL A   1      42.721  29.808  35.989  1.00  0.00    -0.206 F 
ATOM     43  C   UNL A   1      43.705  27.764  36.541  1.00  0.00     0.059 A 
ATOM     44  C   UNL A   1      43.947  26.033  34.878  1.00  0.00     0.059 A 
ATOM     45  F   UNL A   1      43.372  26.421  32.675  1.00  0.00    -0.206 F 
ATOM     46  C   UNL A   1      44.144  26.497  36.170  1.00  0.00     0.060 A 
BRANCH  46  47
ATOM     47  S   UNL A   1      45.034  25.483  37.369  1.00  0.00     0.124 S 
ATOM     48  O   UNL A   1      44.747  24.140  36.881  1.00  0.00    -0.237 OA
ATOM     49  O   UNL A   1      46.409  25.943  37.204  1.00  0.00    -0.237 OA
ATOM     50  O   UNL A   1      44.408  25.843  38.640  1.00  0.00    -0.744 OA
ENDBRANCH  46  47
ENDBRANCH  25  39
BRANCH  26  51
ATOM     51  C   UNL A   1      43.316  25.328  26.438  1.00  0.00     0.058 A 
ATOM     52  C   UNL A   1      44.214  25.151  25.370  1.00  0.00     0.135 A 
ATOM     53  C   UNL A   1      42.765  24.154  26.990  1.00  0.00     0.135 A 
ATOM     54  F   UNL A   1      44.805  26.213  24.802  1.00  0.00    -0.206 F 
ATOM     55  C   UNL A   1      44.579  23.884  24.906  1.00  0.00     0.059 A 
ATOM     56  C   UNL A   1      43.103  22.881  26.536  1.00  0.00     0.059 A 
ATOM     57  F   UNL A   1      41.951  24.207  28.055  1.00  0.00    -0.206 F 
ATOM     58  C   UNL A   1      44.031  22.752  25.509  1.00  0.00     0.060 A 
BRANCH  58  59
ATOM     59  S   UNL A   1      44.632  21.115  25.033  1.00  0.00     0.124 S 
ATOM     60  O   UNL A   1      45.986  21.121  25.577  1.00  0.00    -0.237 OA
ATOM     61  O   UNL A   1      43.681  20.230  25.698  1.00  0.00    -0.237 OA
ATOM     62  O   UNL A   1      44.545  21.134  23.574  1.00  0.00    -0.744 OA
ENDBRANCH  58  59
ENDBRANCH  26  51
BRANCH  38  63
ATOM     63  C   UNL A   1      45.410  30.982  28.557  1.00  0.00     0.058 A 
ATOM     64  C   UNL A   1      44.368  31.571  27.821  1.00  0.00     0.135 A 
ATOM     65  C   UNL A   1      46.699  31.512  28.383  1.00  0.00     0.135 A 
ATOM     66  F   UNL A   1      43.095  31.193  28.003  1.00  0.00    -0.206 F 
ATOM     67  C   UNL A   1      44.602  32.620  26.930  1.00  0.00     0.059 A 
ATOM     68  C   UNL A   1      46.950  32.579  27.524  1.00  0.00     0.059 A 
ATOM     69  F   UNL A   1      47.726  31.032  29.104  1.00  0.00    -0.206 F 
ATOM     70  C   UNL A   1      45.896  33.123  26.792  1.00  0.00     0.060 A 
BRANCH  70  71
ATOM     71  S   UNL A   1      46.170  34.559  25.733  1.00  0.00     0.124 S 
ATOM     72  O   UNL A   1      47.595  34.456  25.438  1.00  0.00    -0.237 OA
ATOM     73  O   UNL A   1      45.274  34.305  24.608  1.00  0.00    -0.237 OA
ATOM     74  O   UNL A   1      45.787  35.686  26.580  1.00  0.00    -0.744 OA
ENDBRANCH  70  71
ENDBRANCH  38  63
ENDBRANCH  12  13
ENDBRANCH   5   7
ENDBRANCH   2   3
ENDBRANCH   1   2
BRANCH   1  75
ATOM     75  C   UNL A   1      31.465  28.492  25.646  1.00  0.00     0.117 C 
BRANCH  75  76
ATOM     76  N   UNL A   1      32.519  27.503  25.803  1.00  0.00    -0.354 N 
ATOM     77  C   UNL A   1      33.439  26.937  24.982  1.00  0.00     0.243 C 
ATOM     78  H   UNL A   1      32.581  27.163  26.725  1.00  0.00     0.163 HD
ATOM     79  O   UNL A   1      34.211  26.150  25.555  1.00  0.00    -0.273 OA
BRANCH  77  80
ATOM     80  C   UNL A   1      33.549  27.086  23.433  1.00  0.00     0.182 C 
ATOM     81  C   UNL A   1      33.390  28.487  22.787  1.00  0.00     0.091 C 
ATOM     82  N   UNL A   1      32.715  26.064  22.724  1.00  0.00    -0.306 N 
ATOM     83  C   UNL A   1      31.959  28.697  22.448  1.00  0.00     0.042 A 
ATOM     84  C   UNL A   1      31.254  26.287  22.830  1.00  0.00     0.180 C 
ATOM     85  N   UNL A   1      31.310  29.844  22.095  1.00  0.00    -0.348 N 
ATOM     86  C   UNL A   1      30.990  27.718  22.496  1.00  0.00     0.081 A 
ATOM     87  C   UNL A   1      29.975  29.535  22.033  1.00  0.00     0.197 A 
ATOM     88  H   UNL A   1      31.720  30.723  21.920  1.00  0.00     0.167 HD
ATOM     89  N   UNL A   1      29.756  28.263  22.293  1.00  0.00    -0.240 NA
BRANCH  82  90
ATOM     90  C   UNL A   1      33.083  24.966  22.016  1.00  0.00     0.318 C 
ATOM     91  O   UNL A   1      33.297  25.014  20.799  1.00  0.00    -0.249 OA
ATOM     92  N   UNL A   1      33.318  23.761  22.550  1.00  0.00    -0.329 N 
ATOM     93  H   UNL A   1      33.587  23.113  21.859  1.00  0.00     0.165 HD
BRANCH  92  94
ATOM     94  C   UNL A   1      33.287  23.140  23.870  1.00  0.00     0.233 C 
BRANCH  94  95
ATOM     95  C   UNL A   1      31.878  22.999  24.449  1.00  0.00     0.405 C 
ATOM     96  F   UNL A   1      31.584  24.047  25.256  1.00  0.00    -0.169 F 
ATOM     97  F   UNL A   1      30.956  22.984  23.458  1.00  0.00    -0.169 F 
ATOM     98  F   UNL A   1      31.724  21.869  25.165  1.00  0.00    -0.169 F 
ENDBRANCH  94  95
ENDBRANCH  92  94
ENDBRANCH  82  90
ENDBRANCH  77  80
ENDBRANCH  75  76
ENDBRANCH   1  75
TORSDOF 16
ENDMDL
