MODEL 1
REMARK VINA RESULT:     -12.0      0.000      0.000
REMARK SMILES COc1ccc(CCC(=O)Nc2ccc(N3CCCC3)cc2C(=O)NCCCNC(=O)c2ccc(-c3c4nc(c(-c5c(F)cc(S(=O)(=O)[O-])cc5F)c5ccc([nH]5)c(-c5c(F)cc(S(=O)(=O)[O-])cc5F)c5nc(c(-c6c(F)cc(S(=O)(=O)[O-])cc6F)c6ccc3[nH]6)C=C5)C=C4)cc2)cc1
REMARK SMILES IDX 26 1 25 2 23 3 24 4 22 6 12 7 13 8 14 9 21 10 15 11 11 12
REMARK SMILES IDX 9 13 10 14 8 16 7 17 6 18 3 19 4 20 99 21 5 22 98 23 2 24
REMARK SMILES IDX 1 25 16 26 17 27 20 28 18 29 19 30 27 31 28 32 29 33 30 34
REMARK SMILES IDX 31 36 32 37 33 38 97 39 34 40 96 41 35 42 36 43 37 44 90 45
REMARK SMILES IDX 38 46 95 47 89 48 91 49 39 50 94 51 88 52 87 53 40 55 74 56
REMARK SMILES IDX 53 57 73 58 54 59 57 60 72 61 92 62 55 63 56 64 71 66 93 67
REMARK SMILES IDX 58 68 41 69 42 70 51 71 43 72 44 73 50 74 52 75 45 76 46 77
REMARK SMILES IDX 47 78 48 79 49 80 75 81 76 82 85 83 77 84 78 85 84 86 86 87
REMARK SMILES IDX 79 88 80 89 81 90 82 91 83 92 59 93 60 94 69 95 61 96 62 97
REMARK SMILES IDX 68 98 70 99 63 100 64 101 65 102 66 103 67 104
REMARK H PARENT 25 5 11 15 29 35 91 54 57 65
REMARK Flexibility Score: inf
ROOT
ATOM      1  C   UNL A   1      37.785  22.776  25.756  1.00  0.00     0.118 C 
ENDROOT
BRANCH   1   2
ATOM      2  N   UNL A   1      37.233  22.146  24.575  1.00  0.00    -0.352 N 
ATOM      3  C   UNL A   1      36.093  21.344  24.617  1.00  0.00     0.253 C 
ATOM      4  O   UNL A   1      36.273  20.219  25.039  1.00  0.00    -0.269 OA
ATOM      5  H   UNL A   1      37.678  22.291  23.709  1.00  0.00     0.163 HD
BRANCH   3   6
ATOM      6  C   UNL A   1      34.766  21.931  24.095  1.00  0.00     0.065 A 
ATOM      7  C   UNL A   1      33.670  21.422  24.716  1.00  0.00     0.054 A 
ATOM      8  C   UNL A   1      32.479  21.308  24.014  1.00  0.00     0.029 A 
ATOM      9  C   UNL A   1      32.192  22.333  23.124  1.00  0.00     0.028 A 
ATOM     10  C   UNL A   1      34.432  23.063  23.330  1.00  0.00     0.042 A 
ATOM     11  C   UNL A   1      33.092  23.379  22.976  1.00  0.00     0.038 A 
BRANCH   7  12
ATOM     12  N   UNL A   1      33.638  21.542  26.118  1.00  0.00    -0.325 N 
ATOM     13  C   UNL A   1      33.730  22.716  26.867  1.00  0.00     0.224 C 
ATOM     14  O   UNL A   1      34.120  22.559  28.034  1.00  0.00    -0.275 OA
ATOM     15  H   UNL A   1      33.540  20.705  26.627  1.00  0.00     0.169 HD
BRANCH  13  16
ATOM     16  C   UNL A   1      33.166  24.178  26.412  1.00  0.00     0.105 C 
BRANCH  16  17
ATOM     17  C   UNL A   1      33.811  25.555  25.831  1.00  0.00     0.045 C 
BRANCH  17  18
ATOM     18  C   UNL A   1      33.151  26.968  25.832  1.00  0.00    -0.047 A 
ATOM     19  C   UNL A   1      32.496  29.597  26.660  1.00  0.00     0.118 A 
ATOM     20  C   UNL A   1      31.754  28.522  27.112  1.00  0.00     0.046 A 
ATOM     21  C   UNL A   1      33.305  29.399  25.536  1.00  0.00     0.046 A 
ATOM     22  C   UNL A   1      31.990  27.241  26.579  1.00  0.00     0.007 A 
ATOM     23  C   UNL A   1      33.674  28.081  25.156  1.00  0.00     0.007 A 
BRANCH  19  24
ATOM     24  O   UNL A   1      32.844  30.515  27.631  1.00  0.00    -0.497 OA
ATOM     25  C   UNL A   1      34.105  31.143  27.532  1.00  0.00     0.278 C 
ENDBRANCH  19  24
ENDBRANCH  17  18
ENDBRANCH  16  17
ENDBRANCH  13  16
ENDBRANCH   7  12
BRANCH  11  26
ATOM     26  N   UNL A   1      32.633  24.632  22.627  1.00  0.00    -0.372 N 
ATOM     27  C   UNL A   1      33.244  25.543  21.684  1.00  0.00     0.116 C 
ATOM     28  C   UNL A   1      31.317  25.140  23.041  1.00  0.00     0.116 C 
ATOM     29  C   UNL A   1      32.617  26.896  22.017  1.00  0.00     0.023 C 
ATOM     30  C   UNL A   1      31.193  26.523  22.384  1.00  0.00     0.023 C 
ENDBRANCH  11  26
ENDBRANCH   3   6
ENDBRANCH   1   2
BRANCH   1  31
ATOM     31  C   UNL A   1      39.141  22.210  26.168  1.00  0.00     0.042 C 
BRANCH  31  32
ATOM     32  C   UNL A   1      40.053  23.175  26.927  1.00  0.00     0.118 C 
BRANCH  32  33
ATOM     33  N   UNL A   1      41.205  23.652  26.161  1.00  0.00    -0.352 N 
ATOM     34  C   UNL A   1      41.831  24.874  26.159  1.00  0.00     0.251 C 
ATOM     35  H   UNL A   1      41.595  22.989  25.547  1.00  0.00     0.163 HD
ATOM     36  O   UNL A   1      42.709  25.121  25.328  1.00  0.00    -0.269 OA
BRANCH  34  37
ATOM     37  C   UNL A   1      41.425  25.905  27.127  1.00  0.00     0.039 A 
ATOM     38  C   UNL A   1      40.464  25.603  28.094  1.00  0.00     0.014 A 
ATOM     39  C   UNL A   1      42.029  27.161  27.102  1.00  0.00     0.014 A 
ATOM     40  C   UNL A   1      40.190  26.529  29.102  1.00  0.00     0.010 A 
ATOM     41  C   UNL A   1      41.844  28.030  28.167  1.00  0.00     0.010 A 
ATOM     42  C   UNL A   1      40.921  27.727  29.180  1.00  0.00    -0.014 A 
BRANCH  42  43
ATOM     43  C   UNL A   1      40.729  28.690  30.296  1.00  0.00     0.031 A 
ATOM     44  C   UNL A   1      41.576  28.565  31.537  1.00  0.00     0.074 A 
ATOM     45  C   UNL A   1      39.755  29.621  30.220  1.00  0.00     0.049 A 
ATOM     46  N   UNL A   1      41.489  29.221  32.665  1.00  0.00    -0.248 NA
ATOM     47  C   UNL A   1      42.633  27.539  31.524  1.00  0.00     0.031 C 
ATOM     48  C   UNL A   1      38.833  29.798  29.095  1.00  0.00     0.029 A 
ATOM     49  N   UNL A   1      39.369  30.591  31.112  1.00  0.00    -0.354 N 
ATOM     50  C   UNL A   1      42.468  28.680  33.490  1.00  0.00     0.074 A 
ATOM     51  C   UNL A   1      43.079  27.588  32.769  1.00  0.00     0.031 C 
ATOM     52  C   UNL A   1      38.012  30.831  29.351  1.00  0.00     0.029 A 
ATOM     53  C   UNL A   1      38.317  31.362  30.674  1.00  0.00     0.049 A 
ATOM     54  H   UNL A   1      39.805  30.721  31.985  1.00  0.00     0.167 HD
ATOM     55  C   UNL A   1      42.857  29.089  34.720  1.00  0.00     0.037 A 
ATOM     56  C   UNL A   1      37.668  32.376  31.278  1.00  0.00     0.037 A 
ATOM     57  C   UNL A   1      42.273  30.204  35.413  1.00  0.00     0.049 A 
ATOM     58  C   UNL A   1      38.117  32.803  32.653  1.00  0.00     0.074 A 
ATOM     59  C   UNL A   1      42.613  30.725  36.648  1.00  0.00     0.029 A 
ATOM     60  N   UNL A   1      41.235  30.983  34.920  1.00  0.00    -0.354 N 
ATOM     61  N   UNL A   1      39.081  32.312  33.396  1.00  0.00    -0.248 NA
ATOM     62  C   UNL A   1      37.397  33.926  33.270  1.00  0.00     0.031 C 
ATOM     63  C   UNL A   1      41.758  31.798  36.918  1.00  0.00     0.029 A 
ATOM     64  C   UNL A   1      40.921  31.977  35.829  1.00  0.00     0.049 A 
ATOM     65  H   UNL A   1      40.791  30.848  34.052  1.00  0.00     0.167 HD
ATOM     66  C   UNL A   1      39.108  33.090  34.549  1.00  0.00     0.074 A 
ATOM     67  C   UNL A   1      38.076  34.094  34.397  1.00  0.00     0.031 C 
ATOM     68  C   UNL A   1      39.909  32.985  35.638  1.00  0.00     0.037 A 
BRANCH  55  69
ATOM     69  C   UNL A   1      43.998  28.358  35.373  1.00  0.00     0.058 A 
ATOM     70  C   UNL A   1      43.771  27.240  36.194  1.00  0.00     0.135 A 
ATOM     71  C   UNL A   1      45.329  28.732  35.133  1.00  0.00     0.135 A 
ATOM     72  F   UNL A   1      42.518  26.851  36.477  1.00  0.00    -0.206 F 
ATOM     73  C   UNL A   1      44.821  26.528  36.763  1.00  0.00     0.059 A 
ATOM     74  C   UNL A   1      46.397  28.016  35.666  1.00  0.00     0.059 A 
ATOM     75  F   UNL A   1      45.604  29.796  34.361  1.00  0.00    -0.206 F 
ATOM     76  C   UNL A   1      46.133  26.918  36.484  1.00  0.00     0.060 A 
BRANCH  76  77
ATOM     77  S   UNL A   1      47.481  25.948  37.190  1.00  0.00     0.124 S 
ATOM     78  O   UNL A   1      47.013  25.747  38.557  1.00  0.00    -0.237 OA
ATOM     79  O   UNL A   1      47.484  24.760  36.341  1.00  0.00    -0.237 OA
ATOM     80  O   UNL A   1      48.641  26.821  37.045  1.00  0.00    -0.744 OA
ENDBRANCH  76  77
ENDBRANCH  55  69
BRANCH  56  81
ATOM     81  C   UNL A   1      36.534  33.071  30.603  1.00  0.00     0.058 A 
ATOM     82  C   UNL A   1      36.764  34.038  29.612  1.00  0.00     0.135 A 
ATOM     83  C   UNL A   1      35.201  32.821  30.967  1.00  0.00     0.135 A 
ATOM     84  F   UNL A   1      38.019  34.316  29.225  1.00  0.00    -0.206 F 
ATOM     85  C   UNL A   1      35.724  34.769  29.046  1.00  0.00     0.059 A 
ATOM     86  C   UNL A   1      34.141  33.515  30.391  1.00  0.00     0.059 A 
ATOM     87  F   UNL A   1      34.919  31.891  31.892  1.00  0.00    -0.206 F 
ATOM     88  C   UNL A   1      34.415  34.505  29.450  1.00  0.00     0.060 A 
BRANCH  88  89
ATOM     89  S   UNL A   1      33.071  35.472  28.725  1.00  0.00     0.124 S 
ATOM     90  O   UNL A   1      32.419  36.005  29.915  1.00  0.00    -0.237 OA
ATOM     91  O   UNL A   1      33.794  36.438  27.906  1.00  0.00    -0.237 OA
ATOM     92  O   UNL A   1      32.307  34.476  27.979  1.00  0.00    -0.744 OA
ENDBRANCH  88  89
ENDBRANCH  56  81
BRANCH  68  93
ATOM     93  C   UNL A   1      39.743  34.012  36.722  1.00  0.00     0.058 A 
ATOM     94  C   UNL A   1      38.905  33.795  37.825  1.00  0.00     0.135 A 
ATOM     95  C   UNL A   1      40.482  35.206  36.681  1.00  0.00     0.135 A 
ATOM     96  F   UNL A   1      38.174  32.671  37.909  1.00  0.00    -0.206 F 
ATOM     97  C   UNL A   1      38.785  34.737  38.840  1.00  0.00     0.059 A 
ATOM     98  C   UNL A   1      40.402  36.148  37.700  1.00  0.00     0.059 A 
ATOM     99  F   UNL A   1      41.308  35.456  35.652  1.00  0.00    -0.206 F 
ATOM    100  C   UNL A   1      39.540  35.910  38.770  1.00  0.00     0.060 A 
BRANCH 100 101
ATOM    101  S   UNL A   1      39.402  37.106  40.113  1.00  0.00     0.124 S 
ATOM    102  O   UNL A   1      38.764  36.307  41.155  1.00  0.00    -0.237 OA
ATOM    103  O   UNL A   1      40.796  37.466  40.354  1.00  0.00    -0.237 OA
ATOM    104  O   UNL A   1      38.579  38.167  39.542  1.00  0.00    -0.744 OA
ENDBRANCH 100 101
ENDBRANCH  68  93
ENDBRANCH  42  43
ENDBRANCH  34  37
ENDBRANCH  32  33
ENDBRANCH  31  32
ENDBRANCH   1  31
TORSDOF 19
ENDMDL
MODEL 2
REMARK VINA RESULT:     -12.0      6.263     11.834
REMARK SMILES COc1ccc(CCC(=O)Nc2ccc(N3CCCC3)cc2C(=O)NCCCNC(=O)c2ccc(-c3c4nc(c(-c5c(F)cc(S(=O)(=O)[O-])cc5F)c5ccc([nH]5)c(-c5c(F)cc(S(=O)(=O)[O-])cc5F)c5nc(c(-c6c(F)cc(S(=O)(=O)[O-])cc6F)c6ccc3[nH]6)C=C5)C=C4)cc2)cc1
REMARK SMILES IDX 26 1 25 2 23 3 24 4 22 6 12 7 13 8 14 9 21 10 15 11 11 12
REMARK SMILES IDX 9 13 10 14 8 16 7 17 6 18 3 19 4 20 99 21 5 22 98 23 2 24
REMARK SMILES IDX 1 25 16 26 17 27 20 28 18 29 19 30 27 31 28 32 29 33 30 34
REMARK SMILES IDX 31 36 32 37 33 38 97 39 34 40 96 41 35 42 36 43 37 44 90 45
REMARK SMILES IDX 38 46 95 47 89 48 91 49 39 50 94 51 88 52 87 53 40 55 74 56
REMARK SMILES IDX 53 57 73 58 54 59 57 60 72 61 92 62 55 63 56 64 71 66 93 67
REMARK SMILES IDX 58 68 41 69 42 70 51 71 43 72 44 73 50 74 52 75 45 76 46 77
REMARK SMILES IDX 47 78 48 79 49 80 75 81 76 82 85 83 77 84 78 85 84 86 86 87
REMARK SMILES IDX 79 88 80 89 81 90 82 91 83 92 59 93 60 94 69 95 61 96 62 97
REMARK SMILES IDX 68 98 70 99 63 100 64 101 65 102 66 103 67 104
REMARK H PARENT 25 5 11 15 29 35 91 54 57 65
REMARK Flexibility Score: inf
ROOT
ATOM      1  C   UNL A   1      33.268  30.416  27.100  1.00  0.00     0.118 C 
ENDROOT
BRANCH   1   2
ATOM      2  N   UNL A   1      31.868  30.091  26.915  1.00  0.00    -0.352 N 
ATOM      3  C   UNL A   1      31.300  29.919  25.653  1.00  0.00     0.253 C 
ATOM      4  O   UNL A   1      31.061  30.948  25.053  1.00  0.00    -0.269 OA
ATOM      5  H   UNL A   1      31.297  29.987  27.710  1.00  0.00     0.163 HD
BRANCH   3   6
ATOM      6  C   UNL A   1      30.996  28.483  25.179  1.00  0.00     0.065 A 
ATOM      7  C   UNL A   1      31.000  28.350  23.827  1.00  0.00     0.054 A 
ATOM      8  C   UNL A   1      30.169  27.414  23.230  1.00  0.00     0.029 A 
ATOM      9  C   UNL A   1      30.009  26.215  23.910  1.00  0.00     0.028 A 
ATOM     10  C   UNL A   1      30.990  27.226  25.809  1.00  0.00     0.042 A 
ATOM     11  C   UNL A   1      30.659  26.027  25.122  1.00  0.00     0.038 A 
BRANCH   7  12
ATOM     12  N   UNL A   1      32.177  28.750  23.166  1.00  0.00    -0.325 N 
ATOM     13  C   UNL A   1      33.448  28.187  23.291  1.00  0.00     0.224 C 
ATOM     14  O   UNL A   1      34.384  28.942  22.985  1.00  0.00    -0.275 OA
ATOM     15  H   UNL A   1      32.095  29.512  22.548  1.00  0.00     0.169 HD
BRANCH  13  16
ATOM     16  C   UNL A   1      33.763  26.611  23.572  1.00  0.00     0.105 C 
BRANCH  16  17
ATOM     17  C   UNL A   1      34.317  25.731  24.825  1.00  0.00     0.045 C 
BRANCH  17  18
ATOM     18  C   UNL A   1      34.850  24.265  24.772  1.00  0.00    -0.047 A 
ATOM     19  C   UNL A   1      34.956  21.459  25.145  1.00  0.00     0.118 A 
ATOM     20  C   UNL A   1      35.454  22.308  26.117  1.00  0.00     0.046 A 
ATOM     21  C   UNL A   1      34.752  21.987  23.866  1.00  0.00     0.046 A 
ATOM     22  C   UNL A   1      35.534  23.689  25.858  1.00  0.00     0.007 A 
ATOM     23  C   UNL A   1      34.646  23.394  23.693  1.00  0.00     0.007 A 
BRANCH  19  24
ATOM     24  O   UNL A   1      34.171  20.427  25.619  1.00  0.00    -0.497 OA
ATOM     25  C   UNL A   1      33.435  19.668  24.684  1.00  0.00     0.278 C 
ENDBRANCH  19  24
ENDBRANCH  17  18
ENDBRANCH  16  17
ENDBRANCH  13  16
ENDBRANCH   7  12
BRANCH  11  26
ATOM     26  N   UNL A   1      31.031  24.757  25.508  1.00  0.00    -0.372 N 
ATOM     27  C   UNL A   1      31.126  23.589  24.659  1.00  0.00     0.116 C 
ATOM     28  C   UNL A   1      31.580  24.459  26.839  1.00  0.00     0.116 C 
ATOM     29  C   UNL A   1      31.121  22.418  25.638  1.00  0.00     0.023 C 
ATOM     30  C   UNL A   1      31.914  22.960  26.813  1.00  0.00     0.023 C 
ENDBRANCH  11  26
ENDBRANCH   3   6
ENDBRANCH   1   2
BRANCH   1  31
ATOM     31  C   UNL A   1      34.198  29.224  26.901  1.00  0.00     0.042 C 
BRANCH  31  32
ATOM     32  C   UNL A   1      35.486  29.249  27.727  1.00  0.00     0.118 C 
BRANCH  32  33
ATOM     33  N   UNL A   1      35.350  29.867  29.046  1.00  0.00    -0.352 N 
ATOM     34  C   UNL A   1      36.297  30.166  29.994  1.00  0.00     0.251 C 
ATOM     35  H   UNL A   1      34.428  30.107  29.296  1.00  0.00     0.163 HD
ATOM     36  O   UNL A   1      35.955  30.562  31.111  1.00  0.00    -0.269 OA
BRANCH  34  37
ATOM     37  C   UNL A   1      37.724  29.976  29.687  1.00  0.00     0.039 A 
ATOM     38  C   UNL A   1      38.595  29.549  30.691  1.00  0.00     0.014 A 
ATOM     39  C   UNL A   1      38.190  30.179  28.389  1.00  0.00     0.014 A 
ATOM     40  C   UNL A   1      39.912  29.224  30.364  1.00  0.00     0.010 A 
ATOM     41  C   UNL A   1      39.461  29.744  28.043  1.00  0.00     0.010 A 
ATOM     42  C   UNL A   1      40.340  29.263  29.026  1.00  0.00    -0.014 A 
BRANCH  42  43
ATOM     43  C   UNL A   1      41.704  28.827  28.627  1.00  0.00     0.031 A 
ATOM     44  C   UNL A   1      42.816  29.842  28.560  1.00  0.00     0.074 A 
ATOM     45  C   UNL A   1      41.920  27.547  28.260  1.00  0.00     0.049 A 
ATOM     46  N   UNL A   1      44.040  29.698  28.124  1.00  0.00    -0.248 NA
ATOM     47  C   UNL A   1      42.499  31.212  29.003  1.00  0.00     0.031 C 
ATOM     48  C   UNL A   1      40.906  26.488  28.226  1.00  0.00     0.029 A 
ATOM     49  N   UNL A   1      43.063  26.915  27.836  1.00  0.00    -0.354 N 
ATOM     50  C   UNL A   1      44.628  30.952  28.232  1.00  0.00     0.074 A 
ATOM     51  C   UNL A   1      43.607  31.864  28.692  1.00  0.00     0.031 C 
ATOM     52  C   UNL A   1      41.478  25.338  27.835  1.00  0.00     0.029 A 
ATOM     53  C   UNL A   1      42.886  25.581  27.548  1.00  0.00     0.049 A 
ATOM     54  H   UNL A   1      43.928  27.375  27.747  1.00  0.00     0.167 HD
ATOM     55  C   UNL A   1      45.917  31.304  28.015  1.00  0.00     0.037 A 
ATOM     56  C   UNL A   1      43.762  24.664  27.093  1.00  0.00     0.037 A 
ATOM     57  C   UNL A   1      46.937  30.381  27.599  1.00  0.00     0.049 A 
ATOM     58  C   UNL A   1      45.189  25.087  26.850  1.00  0.00     0.074 A 
ATOM     59  C   UNL A   1      48.282  30.623  27.382  1.00  0.00     0.029 A 
ATOM     60  N   UNL A   1      46.727  29.031  27.354  1.00  0.00    -0.354 N 
ATOM     61  N   UNL A   1      45.738  26.268  27.009  1.00  0.00    -0.248 NA
ATOM     62  C   UNL A   1      46.119  24.053  26.375  1.00  0.00     0.031 C 
ATOM     63  C   UNL A   1      48.878  29.427  26.972  1.00  0.00     0.029 A 
ATOM     64  C   UNL A   1      47.916  28.430  26.984  1.00  0.00     0.049 A 
ATOM     65  H   UNL A   1      45.860  28.571  27.432  1.00  0.00     0.167 HD
ATOM     66  C   UNL A   1      47.083  26.109  26.690  1.00  0.00     0.074 A 
ATOM     67  C   UNL A   1      47.267  24.716  26.347  1.00  0.00     0.031 C 
ATOM     68  C   UNL A   1      48.077  27.031  26.678  1.00  0.00     0.037 A 
BRANCH  55  69
ATOM     69  C   UNL A   1      46.306  32.734  28.270  1.00  0.00     0.058 A 
ATOM     70  C   UNL A   1      46.786  33.147  29.525  1.00  0.00     0.135 A 
ATOM     71  C   UNL A   1      46.260  33.690  27.243  1.00  0.00     0.135 A 
ATOM     72  F   UNL A   1      46.830  32.281  30.550  1.00  0.00    -0.206 F 
ATOM     73  C   UNL A   1      47.194  34.455  29.755  1.00  0.00     0.059 A 
ATOM     74  C   UNL A   1      46.693  34.998  27.442  1.00  0.00     0.059 A 
ATOM     75  F   UNL A   1      45.804  33.353  26.025  1.00  0.00    -0.206 F 
ATOM     76  C   UNL A   1      47.153  35.372  28.704  1.00  0.00     0.060 A 
BRANCH  76  77
ATOM     77  S   UNL A   1      47.738  37.052  29.011  1.00  0.00     0.124 S 
ATOM     78  O   UNL A   1      48.244  37.431  27.696  1.00  0.00    -0.237 OA
ATOM     79  O   UNL A   1      46.518  37.730  29.439  1.00  0.00    -0.237 OA
ATOM     80  O   UNL A   1      48.751  36.876  30.046  1.00  0.00    -0.744 OA
ENDBRANCH  76  77
ENDBRANCH  55  69
BRANCH  56  81
ATOM     81  C   UNL A   1      43.337  23.257  26.842  1.00  0.00     0.058 A 
ATOM     82  C   UNL A   1      43.086  22.375  27.906  1.00  0.00     0.135 A 
ATOM     83  C   UNL A   1      43.221  22.749  25.538  1.00  0.00     0.135 A 
ATOM     84  F   UNL A   1      43.182  22.808  29.172  1.00  0.00    -0.206 F 
ATOM     85  C   UNL A   1      42.790  21.032  27.689  1.00  0.00     0.059 A 
ATOM     86  C   UNL A   1      42.892  21.418  25.296  1.00  0.00     0.059 A 
ATOM     87  F   UNL A   1      43.426  23.551  24.483  1.00  0.00    -0.206 F 
ATOM     88  C   UNL A   1      42.704  20.562  26.379  1.00  0.00     0.060 A 
BRANCH  88  89
ATOM     89  S   UNL A   1      42.338  18.813  26.107  1.00  0.00     0.124 S 
ATOM     90  O   UNL A   1      42.641  18.244  27.415  1.00  0.00    -0.237 OA
ATOM     91  O   UNL A   1      40.927  18.848  25.737  1.00  0.00    -0.237 OA
ATOM     92  O   UNL A   1      43.252  18.443  25.030  1.00  0.00    -0.744 OA
ENDBRANCH  88  89
ENDBRANCH  56  81
BRANCH  68  93
ATOM     93  C   UNL A   1      49.461  26.553  26.339  1.00  0.00     0.058 A 
ATOM     94  C   UNL A   1      50.035  26.781  25.080  1.00  0.00     0.135 A 
ATOM     95  C   UNL A   1      50.243  25.909  27.312  1.00  0.00     0.135 A 
ATOM     96  F   UNL A   1      49.328  27.388  24.114  1.00  0.00    -0.206 F 
ATOM     97  C   UNL A   1      51.329  26.365  24.787  1.00  0.00     0.059 A 
ATOM     98  C   UNL A   1      51.550  25.513  27.052  1.00  0.00     0.059 A 
ATOM     99  F   UNL A   1      49.744  25.678  28.538  1.00  0.00    -0.206 F 
ATOM    100  C   UNL A   1      52.080  25.734  25.782  1.00  0.00     0.060 A 
BRANCH 100 101
ATOM    101  S   UNL A   1      53.770  25.233  25.400  1.00  0.00     0.124 S 
ATOM    102  O   UNL A   1      54.543  26.140  26.244  1.00  0.00    -0.237 OA
ATOM    103  O   UNL A   1      53.778  23.830  25.804  1.00  0.00    -0.237 OA
ATOM    104  O   UNL A   1      53.879  25.465  23.964  1.00  0.00    -0.744 OA
ENDBRANCH 100 101
ENDBRANCH  68  93
ENDBRANCH  42  43
ENDBRANCH  34  37
ENDBRANCH  32  33
ENDBRANCH  31  32
ENDBRANCH   1  31
TORSDOF 19
ENDMDL
MODEL 3
REMARK VINA RESULT:     -11.9      4.649     10.139
REMARK SMILES COc1ccc(CCC(=O)Nc2ccc(N3CCCC3)cc2C(=O)NCCCNC(=O)c2ccc(-c3c4nc(c(-c5c(F)cc(S(=O)(=O)[O-])cc5F)c5ccc([nH]5)c(-c5c(F)cc(S(=O)(=O)[O-])cc5F)c5nc(c(-c6c(F)cc(S(=O)(=O)[O-])cc6F)c6ccc3[nH]6)C=C5)C=C4)cc2)cc1
REMARK SMILES IDX 26 1 25 2 23 3 24 4 22 6 12 7 13 8 14 9 21 10 15 11 11 12
REMARK SMILES IDX 9 13 10 14 8 16 7 17 6 18 3 19 4 20 99 21 5 22 98 23 2 24
REMARK SMILES IDX 1 25 16 26 17 27 20 28 18 29 19 30 27 31 28 32 29 33 30 34
REMARK SMILES IDX 31 36 32 37 33 38 97 39 34 40 96 41 35 42 36 43 37 44 90 45
REMARK SMILES IDX 38 46 95 47 89 48 91 49 39 50 94 51 88 52 87 53 40 55 74 56
REMARK SMILES IDX 53 57 73 58 54 59 57 60 72 61 92 62 55 63 56 64 71 66 93 67
REMARK SMILES IDX 58 68 41 69 42 70 51 71 43 72 44 73 50 74 52 75 45 76 46 77
REMARK SMILES IDX 47 78 48 79 49 80 75 81 76 82 85 83 77 84 78 85 84 86 86 87
REMARK SMILES IDX 79 88 80 89 81 90 82 91 83 92 59 93 60 94 69 95 61 96 62 97
REMARK SMILES IDX 68 98 70 99 63 100 64 101 65 102 66 103 67 104
REMARK H PARENT 25 5 11 15 29 35 91 54 57 65
REMARK Flexibility Score: inf
ROOT
ATOM      1  C   UNL A   1      32.136  27.711  25.366  1.00  0.00     0.118 C 
ENDROOT
BRANCH   1   2
ATOM      2  N   UNL A   1      32.489  26.696  26.337  1.00  0.00    -0.352 N 
ATOM      3  C   UNL A   1      32.043  25.378  26.239  1.00  0.00     0.253 C 
ATOM      4  O   UNL A   1      30.892  25.199  26.583  1.00  0.00    -0.269 OA
ATOM      5  H   UNL A   1      33.065  26.946  27.095  1.00  0.00     0.163 HD
BRANCH   3   6
ATOM      6  C   UNL A   1      33.041  24.303  25.762  1.00  0.00     0.065 A 
ATOM      7  C   UNL A   1      32.771  23.833  24.516  1.00  0.00     0.054 A 
ATOM      8  C   UNL A   1      33.090  22.521  24.198  1.00  0.00     0.029 A 
ATOM      9  C   UNL A   1      34.268  22.028  24.739  1.00  0.00     0.028 A 
ATOM     10  C   UNL A   1      34.316  23.895  26.190  1.00  0.00     0.042 A 
ATOM     11  C   UNL A   1      35.036  22.845  25.558  1.00  0.00     0.038 A 
BRANCH   7  12
ATOM     12  N   UNL A   1      32.697  24.795  23.491  1.00  0.00    -0.325 N 
ATOM     13  C   UNL A   1      31.554  25.211  22.806  1.00  0.00     0.224 C 
ATOM     14  O   UNL A   1      31.770  25.707  21.689  1.00  0.00    -0.275 OA
ATOM     15  H   UNL A   1      33.544  25.222  23.228  1.00  0.00     0.169 HD
BRANCH  13  16
ATOM     16  C   UNL A   1      30.051  25.301  23.434  1.00  0.00     0.105 C 
BRANCH  16  17
ATOM     17  C   UNL A   1      29.017  26.494  23.833  1.00  0.00     0.045 C 
BRANCH  17  18
ATOM     18  C   UNL A   1      28.867  27.875  23.123  1.00  0.00    -0.047 A 
ATOM     19  C   UNL A   1      28.765  30.683  22.765  1.00  0.00     0.118 A 
ATOM     20  C   UNL A   1      27.619  29.984  23.096  1.00  0.00     0.046 A 
ATOM     21  C   UNL A   1      29.848  29.953  22.263  1.00  0.00     0.046 A 
ATOM     22  C   UNL A   1      27.647  28.577  23.123  1.00  0.00     0.007 A 
ATOM     23  C   UNL A   1      29.920  28.552  22.493  1.00  0.00     0.007 A 
BRANCH  19  24
ATOM     24  O   UNL A   1      28.965  31.846  23.480  1.00  0.00    -0.497 OA
ATOM     25  C   UNL A   1      28.764  33.078  22.818  1.00  0.00     0.278 C 
ENDBRANCH  19  24
ENDBRANCH  17  18
ENDBRANCH  16  17
ENDBRANCH  13  16
ENDBRANCH   7  12
BRANCH  11  26
ATOM     26  N   UNL A   1      36.403  22.669  25.611  1.00  0.00    -0.372 N 
ATOM     27  C   UNL A   1      37.156  21.583  25.024  1.00  0.00     0.116 C 
ATOM     28  C   UNL A   1      37.317  23.698  26.127  1.00  0.00     0.116 C 
ATOM     29  C   UNL A   1      38.499  21.628  25.750  1.00  0.00     0.023 C 
ATOM     30  C   UNL A   1      38.727  23.116  25.939  1.00  0.00     0.023 C 
ENDBRANCH  11  26
ENDBRANCH   3   6
ENDBRANCH   1   2
BRANCH   1  31
ATOM     31  C   UNL A   1      32.651  29.101  25.728  1.00  0.00     0.042 C 
BRANCH  31  32
ATOM     32  C   UNL A   1      33.646  29.152  26.888  1.00  0.00     0.118 C 
BRANCH  32  33
ATOM     33  N   UNL A   1      33.623  30.398  27.656  1.00  0.00    -0.352 N 
ATOM     34  C   UNL A   1      34.570  30.958  28.477  1.00  0.00     0.251 C 
ATOM     35  H   UNL A   1      32.793  30.920  27.568  1.00  0.00     0.163 HD
ATOM     36  O   UNL A   1      34.297  31.957  29.149  1.00  0.00    -0.269 OA
BRANCH  34  37
ATOM     37  C   UNL A   1      35.901  30.341  28.586  1.00  0.00     0.039 A 
ATOM     38  C   UNL A   1      36.785  30.412  27.508  1.00  0.00     0.014 A 
ATOM     39  C   UNL A   1      36.289  29.727  29.776  1.00  0.00     0.014 A 
ATOM     40  C   UNL A   1      38.096  29.961  27.665  1.00  0.00     0.010 A 
ATOM     41  C   UNL A   1      37.620  29.389  29.969  1.00  0.00     0.010 A 
ATOM     42  C   UNL A   1      38.541  29.500  28.915  1.00  0.00    -0.014 A 
BRANCH  42  43
ATOM     43  C   UNL A   1      39.956  29.107  29.147  1.00  0.00     0.031 A 
ATOM     44  C   UNL A   1      40.922  30.116  29.713  1.00  0.00     0.074 A 
ATOM     45  C   UNL A   1      40.381  27.878  28.785  1.00  0.00     0.049 A 
ATOM     46  N   UNL A   1      42.215  30.018  29.879  1.00  0.00    -0.248 NA
ATOM     47  C   UNL A   1      40.368  31.424  30.105  1.00  0.00     0.031 C 
ATOM     48  C   UNL A   1      39.551  26.838  28.170  1.00  0.00     0.029 A 
ATOM     49  N   UNL A   1      41.621  27.296  28.871  1.00  0.00    -0.354 N 
ATOM     50  C   UNL A   1      42.624  31.247  30.382  1.00  0.00     0.074 A 
ATOM     51  C   UNL A   1      41.461  32.103  30.414  1.00  0.00     0.031 C 
ATOM     52  C   UNL A   1      40.296  25.739  27.966  1.00  0.00     0.029 A 
ATOM     53  C   UNL A   1      41.664  26.007  28.390  1.00  0.00     0.049 A 
ATOM     54  H   UNL A   1      42.406  27.758  29.242  1.00  0.00     0.167 HD
ATOM     55  C   UNL A   1      43.849  31.615  30.825  1.00  0.00     0.037 A 
ATOM     56  C   UNL A   1      42.696  25.146  28.295  1.00  0.00     0.037 A 
ATOM     57  C   UNL A   1      44.991  30.743  30.829  1.00  0.00     0.049 A 
ATOM     58  C   UNL A   1      44.052  25.587  28.787  1.00  0.00     0.074 A 
ATOM     59  C   UNL A   1      46.271  31.002  31.287  1.00  0.00     0.029 A 
ATOM     60  N   UNL A   1      44.985  29.433  30.370  1.00  0.00    -0.354 N 
ATOM     61  N   UNL A   1      44.406  26.737  29.309  1.00  0.00    -0.248 NA
ATOM     62  C   UNL A   1      45.147  24.612  28.685  1.00  0.00     0.031 C 
ATOM     63  C   UNL A   1      47.048  29.860  31.071  1.00  0.00     0.029 A 
ATOM     64  C   UNL A   1      46.240  28.874  30.528  1.00  0.00     0.049 A 
ATOM     65  H   UNL A   1      44.204  28.972  29.989  1.00  0.00     0.167 HD
ATOM     66  C   UNL A   1      45.753  26.610  29.633  1.00  0.00     0.074 A 
ATOM     67  C   UNL A   1      46.144  25.266  29.264  1.00  0.00     0.031 C 
ATOM     68  C   UNL A   1      46.594  27.521  30.181  1.00  0.00     0.037 A 
BRANCH  55  69
ATOM     69  C   UNL A   1      44.005  33.002  31.385  1.00  0.00     0.058 A 
ATOM     70  C   UNL A   1      44.287  34.097  30.551  1.00  0.00     0.135 A 
ATOM     71  C   UNL A   1      43.811  33.256  32.752  1.00  0.00     0.135 A 
ATOM     72  F   UNL A   1      44.505  33.910  29.238  1.00  0.00    -0.206 F 
ATOM     73  C   UNL A   1      44.385  35.390  31.052  1.00  0.00     0.059 A 
ATOM     74  C   UNL A   1      43.874  34.547  33.271  1.00  0.00     0.059 A 
ATOM     75  F   UNL A   1      43.545  32.247  33.597  1.00  0.00    -0.206 F 
ATOM     76  C   UNL A   1      44.166  35.607  32.413  1.00  0.00     0.060 A 
BRANCH  76  77
ATOM     77  S   UNL A   1      44.244  37.300  33.034  1.00  0.00     0.124 S 
ATOM     78  O   UNL A   1      45.444  37.252  33.863  1.00  0.00    -0.237 OA
ATOM     79  O   UNL A   1      44.357  38.074  31.802  1.00  0.00    -0.237 OA
ATOM     80  O   UNL A   1      42.987  37.456  33.757  1.00  0.00    -0.744 OA
ENDBRANCH  76  77
ENDBRANCH  55  69
BRANCH  56  81
ATOM     81  C   UNL A   1      42.505  23.781  27.724  1.00  0.00     0.058 A 
ATOM     82  C   UNL A   1      42.410  22.655  28.557  1.00  0.00     0.135 A 
ATOM     83  C   UNL A   1      42.464  23.567  26.337  1.00  0.00     0.135 A 
ATOM     84  F   UNL A   1      42.443  22.802  29.890  1.00  0.00    -0.206 F 
ATOM     85  C   UNL A   1      42.336  21.365  28.039  1.00  0.00     0.059 A 
ATOM     86  C   UNL A   1      42.356  22.289  25.796  1.00  0.00     0.059 A 
ATOM     87  F   UNL A   1      42.527  24.608  25.494  1.00  0.00    -0.206 F 
ATOM     88  C   UNL A   1      42.318  21.193  26.654  1.00  0.00     0.060 A 
BRANCH  88  89
ATOM     89  S   UNL A   1      42.241  19.515  25.989  1.00  0.00     0.124 S 
ATOM     90  O   UNL A   1      40.843  19.425  25.582  1.00  0.00    -0.237 OA
ATOM     91  O   UNL A   1      43.219  19.567  24.908  1.00  0.00    -0.237 OA
ATOM     92  O   UNL A   1      42.621  18.685  27.129  1.00  0.00    -0.744 OA
ENDBRANCH  88  89
ENDBRANCH  56  81
BRANCH  68  93
ATOM     93  C   UNL A   1      48.001  27.079  30.471  1.00  0.00     0.058 A 
ATOM     94  C   UNL A   1      49.070  27.411  29.625  1.00  0.00     0.135 A 
ATOM     95  C   UNL A   1      48.288  26.363  31.645  1.00  0.00     0.135 A 
ATOM     96  F   UNL A   1      48.847  28.090  28.488  1.00  0.00    -0.206 F 
ATOM     97  C   UNL A   1      50.372  27.026  29.919  1.00  0.00     0.059 A 
ATOM     98  C   UNL A   1      49.588  25.996  31.975  1.00  0.00     0.059 A 
ATOM     99  F   UNL A   1      47.302  26.032  32.494  1.00  0.00    -0.206 F 
ATOM    100  C   UNL A   1      50.622  26.321  31.099  1.00  0.00     0.060 A 
BRANCH 100 101
ATOM    101  S   UNL A   1      52.323  25.861  31.486  1.00  0.00     0.124 S 
ATOM    102  O   UNL A   1      52.939  25.875  30.162  1.00  0.00    -0.237 OA
ATOM    103  O   UNL A   1      52.737  26.931  32.389  1.00  0.00    -0.237 OA
ATOM    104  O   UNL A   1      52.189  24.546  32.103  1.00  0.00    -0.744 OA
ENDBRANCH 100 101
ENDBRANCH  68  93
ENDBRANCH  42  43
ENDBRANCH  34  37
ENDBRANCH  32  33
ENDBRANCH  31  32
ENDBRANCH   1  31
TORSDOF 19
ENDMDL
