MODEL 1
REMARK VINA RESULT:     -10.7      0.000      0.000
REMARK SMILES [NH3+][C@]1(C(=O)NCCCNC(=O)c2ccc(-c3c4nc(c(-c5c(F)cc(S(=O)(=O)[O-])cc5F)c5ccc([nH]5)c(-c5c(F)cc(S(=O)(=O)[O-])cc5F)c5nc(c(-c6c(F)cc(S(=O)(=O)[O-])cc6F)c6ccc3[nH]6)C=C5)C=C4)cc2)CCC[C@@H](OC2CCC2)C1
REMARK SMILES IDX 7 1 6 2 5 3 3 4 4 5 2 7 78 8 87 9 79 10 81 11 80 12 1 13
REMARK SMILES IDX 82 17 83 18 84 19 86 20 85 21 8 22 9 23 10 24 11 26 12 27
REMARK SMILES IDX 13 28 77 29 14 30 76 31 15 32 16 33 17 34 70 35 18 36 75 37
REMARK SMILES IDX 69 38 71 39 19 40 74 41 68 42 67 43 20 45 54 46 33 47 53 48
REMARK SMILES IDX 34 49 37 50 52 51 72 52 35 53 36 54 51 56 73 57 38 58 21 59
REMARK SMILES IDX 22 60 31 61 23 62 24 63 30 64 32 65 25 66 26 67 27 68 28 69
REMARK SMILES IDX 29 70 55 71 56 72 65 73 57 74 58 75 64 76 66 77 59 78 60 79
REMARK SMILES IDX 61 80 62 81 63 82 39 83 40 84 49 85 41 86 42 87 48 88 50 89
REMARK SMILES IDX 43 90 44 91 45 92 46 93 47 94
REMARK H PARENT 5 6 1 14 1 15 1 16 9 25 71 44 37 55
REMARK Flexibility Score: inf
ROOT
ATOM      1  C   UNL A   1      33.286  27.750  25.760  1.00  0.00     0.042 C 
ENDROOT
BRANCH   1   2
ATOM      2  C   UNL A   1      33.132  26.253  25.488  1.00  0.00     0.118 C 
BRANCH   2   3
ATOM      3  N   UNL A   1      33.754  25.790  24.263  1.00  0.00    -0.351 N 
ATOM      4  C   UNL A   1      33.426  24.863  23.322  1.00  0.00     0.281 C 
ATOM      5  O   UNL A   1      34.078  24.974  22.273  1.00  0.00    -0.268 OA
ATOM      6  H   UNL A   1      34.604  26.248  24.069  1.00  0.00     0.163 HD
BRANCH   4   7
ATOM      7  C   UNL A   1      32.236  23.822  23.447  1.00  0.00     0.176 C 
ATOM      8  C   UNL A   1      32.606  22.551  22.619  1.00  0.00     0.079 C 
ATOM      9  C   UNL A   1      31.789  23.453  24.872  1.00  0.00     0.111 C 
ATOM     10  C   UNL A   1      32.329  21.175  23.229  1.00  0.00     0.010 C 
ATOM     11  C   UNL A   1      32.572  22.317  25.534  1.00  0.00     0.125 C 
ATOM     12  C   UNL A   1      32.459  21.025  24.743  1.00  0.00     0.032 C 
BRANCH   7  13
ATOM     13  N   UNL A   1      31.077  24.470  22.764  1.00  0.00    -0.345 N 
ATOM     14  H   UNL A   1      31.387  25.330  22.311  1.00  0.00     0.345 HD
ATOM     15  H   UNL A   1      30.356  24.687  23.451  1.00  0.00     0.345 HD
ATOM     16  H   UNL A   1      30.698  23.835  22.061  1.00  0.00     0.345 HD
ENDBRANCH   7  13
BRANCH  11  17
ATOM     17  O   UNL A   1      33.817  22.857  25.926  1.00  0.00    -0.375 OA
BRANCH  17  18
ATOM     18  C   UNL A   1      35.153  22.378  25.706  1.00  0.00     0.118 C 
ATOM     19  C   UNL A   1      35.782  22.109  24.332  1.00  0.00     0.032 C 
ATOM     20  C   UNL A   1      36.152  23.548  25.889  1.00  0.00     0.032 C 
ATOM     21  C   UNL A   1      36.658  23.353  24.464  1.00  0.00     0.005 C 
ENDBRANCH  17  18
ENDBRANCH  11  17
ENDBRANCH   4   7
ENDBRANCH   2   3
ENDBRANCH   1   2
BRANCH   1  22
ATOM     22  C   UNL A   1      33.328  28.176  27.225  1.00  0.00     0.118 C 
BRANCH  22  23
ATOM     23  N   UNL A   1      33.287  29.616  27.420  1.00  0.00    -0.352 N 
ATOM     24  C   UNL A   1      34.210  30.497  27.916  1.00  0.00     0.251 C 
ATOM     25  H   UNL A   1      32.439  30.034  27.144  1.00  0.00     0.163 HD
ATOM     26  O   UNL A   1      33.853  31.666  28.115  1.00  0.00    -0.269 OA
BRANCH  24  27
ATOM     27  C   UNL A   1      35.599  30.101  28.249  1.00  0.00     0.039 A 
ATOM     28  C   UNL A   1      36.550  30.099  27.221  1.00  0.00     0.014 A 
ATOM     29  C   UNL A   1      35.971  29.661  29.521  1.00  0.00     0.014 A 
ATOM     30  C   UNL A   1      37.873  29.722  27.481  1.00  0.00     0.010 A 
ATOM     31  C   UNL A   1      37.307  29.356  29.798  1.00  0.00     0.010 A 
ATOM     32  C   UNL A   1      38.275  29.382  28.782  1.00  0.00    -0.014 A 
BRANCH  32  33
ATOM     33  C   UNL A   1      39.697  29.056  29.092  1.00  0.00     0.031 A 
ATOM     34  C   UNL A   1      40.613  30.099  29.678  1.00  0.00     0.074 A 
ATOM     35  C   UNL A   1      40.181  27.833  28.796  1.00  0.00     0.049 A 
ATOM     36  N   UNL A   1      41.895  30.026  29.932  1.00  0.00    -0.248 NA
ATOM     37  C   UNL A   1      40.013  31.404  30.003  1.00  0.00     0.031 C 
ATOM     38  C   UNL A   1      39.411  26.741  28.196  1.00  0.00     0.029 A 
ATOM     39  N   UNL A   1      41.441  27.303  28.943  1.00  0.00    -0.354 N 
ATOM     40  C   UNL A   1      42.258  31.271  30.435  1.00  0.00     0.074 A 
ATOM     41  C   UNL A   1      41.070  32.098  30.403  1.00  0.00     0.031 C 
ATOM     42  C   UNL A   1      40.208  25.673  28.036  1.00  0.00     0.029 A 
ATOM     43  C   UNL A   1      41.557  26.013  28.480  1.00  0.00     0.049 A 
ATOM     44  H   UNL A   1      42.190  27.800  29.343  1.00  0.00     0.167 HD
ATOM     45  C   UNL A   1      43.463  31.682  30.901  1.00  0.00     0.037 A 
ATOM     46  C   UNL A   1      42.628  25.198  28.402  1.00  0.00     0.037 A 
ATOM     47  C   UNL A   1      44.639  30.851  30.949  1.00  0.00     0.049 A 
ATOM     48  C   UNL A   1      43.962  25.685  28.907  1.00  0.00     0.074 A 
ATOM     49  C   UNL A   1      45.895  31.166  31.438  1.00  0.00     0.029 A 
ATOM     50  N   UNL A   1      44.708  29.544  30.489  1.00  0.00    -0.354 N 
ATOM     51  N   UNL A   1      44.272  26.850  29.424  1.00  0.00    -0.248 NA
ATOM     52  C   UNL A   1      45.088  24.744  28.826  1.00  0.00     0.031 C 
ATOM     53  C   UNL A   1      46.735  30.067  31.234  1.00  0.00     0.029 A 
ATOM     54  C   UNL A   1      45.989  29.045  30.669  1.00  0.00     0.049 A 
ATOM     55  H   UNL A   1      43.958  29.043  30.094  1.00  0.00     0.167 HD
ATOM     56  C   UNL A   1      45.620  26.770  29.760  1.00  0.00     0.074 A 
ATOM     57  C   UNL A   1      46.063  25.440  29.397  1.00  0.00     0.031 C 
ATOM     58  C   UNL A   1      46.417  27.713  30.319  1.00  0.00     0.037 A 
BRANCH  45  59
ATOM     59  C   UNL A   1      43.575  33.096  31.408  1.00  0.00     0.058 A 
ATOM     60  C   UNL A   1      43.359  33.413  32.759  1.00  0.00     0.135 A 
ATOM     61  C   UNL A   1      43.956  34.137  30.546  1.00  0.00     0.135 A 
ATOM     62  F   UNL A   1      42.981  32.460  33.626  1.00  0.00    -0.206 F 
ATOM     63  C   UNL A   1      43.491  34.715  33.231  1.00  0.00     0.059 A 
ATOM     64  C   UNL A   1      44.124  35.442  31.003  1.00  0.00     0.059 A 
ATOM     65  F   UNL A   1      44.178  33.893  29.245  1.00  0.00    -0.206 F 
ATOM     66  C   UNL A   1      43.877  35.723  32.346  1.00  0.00     0.060 A 
BRANCH  66  67
ATOM     67  S   UNL A   1      44.056  37.404  32.978  1.00  0.00     0.124 S 
ATOM     68  O   UNL A   1      43.856  38.194  31.764  1.00  0.00    -0.237 OA
ATOM     69  O   UNL A   1      42.980  37.481  33.965  1.00  0.00    -0.237 OA
ATOM     70  O   UNL A   1      45.405  37.424  33.523  1.00  0.00    -0.744 OA
ENDBRANCH  66  67
ENDBRANCH  45  59
BRANCH  46  71
ATOM     71  C   UNL A   1      42.489  23.835  27.822  1.00  0.00     0.058 A 
ATOM     72  C   UNL A   1      42.399  22.700  28.644  1.00  0.00     0.135 A 
ATOM     73  C   UNL A   1      42.447  23.636  26.433  1.00  0.00     0.135 A 
ATOM     74  F   UNL A   1      42.441  22.835  29.978  1.00  0.00    -0.206 F 
ATOM     75  C   UNL A   1      42.298  21.419  28.112  1.00  0.00     0.059 A 
ATOM     76  C   UNL A   1      42.316  22.367  25.877  1.00  0.00     0.059 A 
ATOM     77  F   UNL A   1      42.512  24.687  25.601  1.00  0.00    -0.206 F 
ATOM     78  C   UNL A   1      42.257  21.263  26.725  1.00  0.00     0.060 A 
BRANCH  78  79
ATOM     79  S   UNL A   1      42.091  19.599  26.043  1.00  0.00     0.124 S 
ATOM     80  O   UNL A   1      40.672  19.560  25.706  1.00  0.00    -0.237 OA
ATOM     81  O   UNL A   1      43.015  19.639  24.912  1.00  0.00    -0.237 OA
ATOM     82  O   UNL A   1      42.503  18.741  27.147  1.00  0.00    -0.744 OA
ENDBRANCH  78  79
ENDBRANCH  46  71
BRANCH  58  83
ATOM     83  C   UNL A   1      47.841  27.333  30.625  1.00  0.00     0.058 A 
ATOM     84  C   UNL A   1      48.204  26.723  31.835  1.00  0.00     0.135 A 
ATOM     85  C   UNL A   1      48.847  27.530  29.663  1.00  0.00     0.135 A 
ATOM     86  F   UNL A   1      47.284  26.517  32.791  1.00  0.00    -0.206 F 
ATOM     87  C   UNL A   1      49.518  26.341  32.091  1.00  0.00     0.059 A 
ATOM     88  C   UNL A   1      50.161  27.130  29.886  1.00  0.00     0.059 A 
ATOM     89  F   UNL A   1      48.553  28.101  28.485  1.00  0.00    -0.206 F 
ATOM     90  C   UNL A   1      50.489  26.546  31.109  1.00  0.00     0.060 A 
BRANCH  90  91
ATOM     91  S   UNL A   1      52.180  26.009  31.440  1.00  0.00     0.124 S 
ATOM     92  O   UNL A   1      52.786  26.115  30.117  1.00  0.00    -0.237 OA
ATOM     93  O   UNL A   1      52.631  26.986  32.424  1.00  0.00    -0.237 OA
ATOM     94  O   UNL A   1      52.013  24.649  31.946  1.00  0.00    -0.744 OA
ENDBRANCH  90  91
ENDBRANCH  58  83
ENDBRANCH  32  33
ENDBRANCH  24  27
ENDBRANCH  22  23
ENDBRANCH   1  22
TORSDOF 16
ENDMDL
MODEL 2
REMARK VINA RESULT:     -10.5      4.961     10.394
REMARK SMILES [NH3+][C@]1(C(=O)NCCCNC(=O)c2ccc(-c3c4nc(c(-c5c(F)cc(S(=O)(=O)[O-])cc5F)c5ccc([nH]5)c(-c5c(F)cc(S(=O)(=O)[O-])cc5F)c5nc(c(-c6c(F)cc(S(=O)(=O)[O-])cc6F)c6ccc3[nH]6)C=C5)C=C4)cc2)CCC[C@@H](OC2CCC2)C1
REMARK SMILES IDX 7 1 6 2 5 3 3 4 4 5 2 7 78 8 87 9 79 10 81 11 80 12 1 13
REMARK SMILES IDX 82 17 83 18 84 19 86 20 85 21 8 22 9 23 10 24 11 26 12 27
REMARK SMILES IDX 13 28 77 29 14 30 76 31 15 32 16 33 17 34 70 35 18 36 75 37
REMARK SMILES IDX 69 38 71 39 19 40 74 41 68 42 67 43 20 45 54 46 33 47 53 48
REMARK SMILES IDX 34 49 37 50 52 51 72 52 35 53 36 54 51 56 73 57 38 58 21 59
REMARK SMILES IDX 22 60 31 61 23 62 24 63 30 64 32 65 25 66 26 67 27 68 28 69
REMARK SMILES IDX 29 70 55 71 56 72 65 73 57 74 58 75 64 76 66 77 59 78 60 79
REMARK SMILES IDX 61 80 62 81 63 82 39 83 40 84 49 85 41 86 42 87 48 88 50 89
REMARK SMILES IDX 43 90 44 91 45 92 46 93 47 94
REMARK H PARENT 5 6 1 14 1 15 1 16 9 25 71 44 37 55
REMARK Flexibility Score: inf
ROOT
ATOM      1  C   UNL A   1      37.454  23.630  25.512  1.00  0.00     0.042 C 
ENDROOT
BRANCH   1   2
ATOM      2  C   UNL A   1      36.006  24.066  25.745  1.00  0.00     0.118 C 
BRANCH   2   3
ATOM      3  N   UNL A   1      35.252  23.217  26.645  1.00  0.00    -0.351 N 
ATOM      4  C   UNL A   1      34.718  21.968  26.551  1.00  0.00     0.281 C 
ATOM      5  O   UNL A   1      34.398  21.485  27.647  1.00  0.00    -0.268 OA
ATOM      6  H   UNL A   1      35.090  23.637  27.521  1.00  0.00     0.163 HD
BRANCH   4   7
ATOM      7  C   UNL A   1      34.629  21.116  25.216  1.00  0.00     0.176 C 
ATOM      8  C   UNL A   1      33.407  20.151  25.330  1.00  0.00     0.079 C 
ATOM      9  C   UNL A   1      34.600  21.904  23.895  1.00  0.00     0.111 C 
ATOM     10  C   UNL A   1      32.488  19.989  24.117  1.00  0.00     0.010 C 
ATOM     11  C   UNL A   1      33.217  22.373  23.437  1.00  0.00     0.125 C 
ATOM     12  C   UNL A   1      32.276  21.202  23.213  1.00  0.00     0.032 C 
BRANCH   7  13
ATOM     13  N   UNL A   1      35.859  20.270  25.210  1.00  0.00    -0.345 N 
ATOM     14  H   UNL A   1      36.478  20.574  24.458  1.00  0.00     0.345 HD
ATOM     15  H   UNL A   1      35.600  19.295  25.063  1.00  0.00     0.345 HD
ATOM     16  H   UNL A   1      36.340  20.363  26.105  1.00  0.00     0.345 HD
ENDBRANCH   7  13
BRANCH  11  17
ATOM     17  O   UNL A   1      32.873  23.475  24.251  1.00  0.00    -0.375 OA
BRANCH  17  18
ATOM     18  C   UNL A   1      32.536  24.826  23.899  1.00  0.00     0.118 C 
ATOM     19  C   UNL A   1      33.515  26.007  23.881  1.00  0.00     0.032 C 
ATOM     20  C   UNL A   1      32.431  24.942  22.358  1.00  0.00     0.032 C 
ATOM     21  C   UNL A   1      33.515  26.014  22.355  1.00  0.00     0.005 C 
ENDBRANCH  17  18
ENDBRANCH  11  17
ENDBRANCH   4   7
ENDBRANCH   2   3
ENDBRANCH   1   2
BRANCH   1  22
ATOM     22  C   UNL A   1      38.461  24.000  26.597  1.00  0.00     0.118 C 
BRANCH  22  23
ATOM     23  N   UNL A   1      39.826  24.125  26.113  1.00  0.00    -0.352 N 
ATOM     24  C   UNL A   1      40.842  24.977  26.457  1.00  0.00     0.251 C 
ATOM     25  H   UNL A   1      40.064  23.479  25.410  1.00  0.00     0.163 HD
ATOM     26  O   UNL A   1      41.872  24.964  25.769  1.00  0.00    -0.269 OA
BRANCH  24  27
ATOM     27  C   UNL A   1      40.745  25.924  27.592  1.00  0.00     0.039 A 
ATOM     28  C   UNL A   1      41.724  26.919  27.710  1.00  0.00     0.014 A 
ATOM     29  C   UNL A   1      39.767  25.813  28.582  1.00  0.00     0.014 A 
ATOM     30  C   UNL A   1      41.684  27.831  28.771  1.00  0.00     0.010 A 
ATOM     31  C   UNL A   1      39.683  26.768  29.600  1.00  0.00     0.010 A 
ATOM     32  C   UNL A   1      40.640  27.789  29.708  1.00  0.00    -0.014 A 
BRANCH  32  33
ATOM     33  C   UNL A   1      40.538  28.801  30.798  1.00  0.00     0.031 A 
ATOM     34  C   UNL A   1      41.397  28.688  32.032  1.00  0.00     0.074 A 
ATOM     35  C   UNL A   1      39.633  29.796  30.704  1.00  0.00     0.049 A 
ATOM     36  N   UNL A   1      41.387  29.421  33.117  1.00  0.00    -0.248 NA
ATOM     37  C   UNL A   1      42.383  27.596  32.059  1.00  0.00     0.031 C 
ATOM     38  C   UNL A   1      38.717  30.001  29.579  1.00  0.00     0.029 A 
ATOM     39  N   UNL A   1      39.319  30.814  31.572  1.00  0.00    -0.354 N 
ATOM     40  C   UNL A   1      42.351  28.876  33.957  1.00  0.00     0.074 A 
ATOM     41  C   UNL A   1      42.894  27.719  33.276  1.00  0.00     0.031 C 
ATOM     42  C   UNL A   1      37.955  31.080  29.821  1.00  0.00     0.029 A 
ATOM     43  C   UNL A   1      38.294  31.620  31.134  1.00  0.00     0.049 A 
ATOM     44  H   UNL A   1      39.786  30.954  32.428  1.00  0.00     0.167 HD
ATOM     45  C   UNL A   1      42.765  29.311  35.173  1.00  0.00     0.037 A 
ATOM     46  C   UNL A   1      37.679  32.663  31.727  1.00  0.00     0.037 A 
ATOM     47  C   UNL A   1      42.236  30.472  35.840  1.00  0.00     0.049 A 
ATOM     48  C   UNL A   1      38.142  33.114  33.088  1.00  0.00     0.074 A 
ATOM     49  C   UNL A   1      42.617  31.014  37.056  1.00  0.00     0.029 A 
ATOM     50  N   UNL A   1      41.212  31.273  35.353  1.00  0.00    -0.354 N 
ATOM     51  N   UNL A   1      39.090  32.614  33.844  1.00  0.00    -0.248 NA
ATOM     52  C   UNL A   1      37.457  34.276  33.673  1.00  0.00     0.031 C 
ATOM     53  C   UNL A   1      41.794  32.112  37.326  1.00  0.00     0.029 A 
ATOM     54  C   UNL A   1      40.938  32.292  36.251  1.00  0.00     0.049 A 
ATOM     55  H   UNL A   1      40.749  31.137  34.494  1.00  0.00     0.167 HD
ATOM     56  C   UNL A   1      39.138  33.420  34.977  1.00  0.00     0.074 A 
ATOM     57  C   UNL A   1      38.131  34.445  34.803  1.00  0.00     0.031 C 
ATOM     58  C   UNL A   1      39.944  33.319  36.062  1.00  0.00     0.037 A 
BRANCH  45  59
ATOM     59  C   UNL A   1      43.851  28.530  35.865  1.00  0.00     0.058 A 
ATOM     60  C   UNL A   1      45.210  28.838  35.682  1.00  0.00     0.135 A 
ATOM     61  C   UNL A   1      43.532  27.501  36.765  1.00  0.00     0.135 A 
ATOM     62  F   UNL A   1      45.575  29.804  34.824  1.00  0.00    -0.206 F 
ATOM     63  C   UNL A   1      46.211  28.135  36.344  1.00  0.00     0.059 A 
ATOM     64  C   UNL A   1      44.516  26.805  37.462  1.00  0.00     0.059 A 
ATOM     65  F   UNL A   1      42.250  27.166  36.982  1.00  0.00    -0.206 F 
ATOM     66  C   UNL A   1      45.854  27.121  37.235  1.00  0.00     0.060 A 
BRANCH  66  67
ATOM     67  S   UNL A   1      47.165  26.229  38.096  1.00  0.00     0.124 S 
ATOM     68  O   UNL A   1      46.411  25.543  39.144  1.00  0.00    -0.237 OA
ATOM     69  O   UNL A   1      47.702  25.370  37.041  1.00  0.00    -0.237 OA
ATOM     70  O   UNL A   1      48.056  27.284  38.554  1.00  0.00    -0.744 OA
ENDBRANCH  66  67
ENDBRANCH  45  59
BRANCH  46  71
ATOM     71  C   UNL A   1      36.556  33.357  31.039  1.00  0.00     0.058 A 
ATOM     72  C   UNL A   1      35.237  33.247  31.507  1.00  0.00     0.135 A 
ATOM     73  C   UNL A   1      36.777  34.142  29.896  1.00  0.00     0.135 A 
ATOM     74  F   UNL A   1      34.972  32.502  32.591  1.00  0.00    -0.206 F 
ATOM     75  C   UNL A   1      34.177  33.867  30.854  1.00  0.00     0.059 A 
ATOM     76  C   UNL A   1      35.737  34.797  29.243  1.00  0.00     0.059 A 
ATOM     77  F   UNL A   1      38.021  34.296  29.415  1.00  0.00    -0.206 F 
ATOM     78  C   UNL A   1      34.438  34.641  29.723  1.00  0.00     0.060 A 
BRANCH  78  79
ATOM     79  S   UNL A   1      33.059  35.471  28.902  1.00  0.00     0.124 S 
ATOM     80  O   UNL A   1      32.277  35.937  30.042  1.00  0.00    -0.237 OA
ATOM     81  O   UNL A   1      33.742  36.507  28.130  1.00  0.00    -0.237 OA
ATOM     82  O   UNL A   1      32.452  34.409  28.110  1.00  0.00    -0.744 OA
ENDBRANCH  78  79
ENDBRANCH  46  71
BRANCH  58  83
ATOM     83  C   UNL A   1      39.813  34.371  37.130  1.00  0.00     0.058 A 
ATOM     84  C   UNL A   1      39.020  34.176  38.272  1.00  0.00     0.135 A 
ATOM     85  C   UNL A   1      40.540  35.570  37.035  1.00  0.00     0.135 A 
ATOM     86  F   UNL A   1      38.300  33.052  38.411  1.00  0.00    -0.206 F 
ATOM     87  C   UNL A   1      38.936  35.141  39.271  1.00  0.00     0.059 A 
ATOM     88  C   UNL A   1      40.493  36.536  38.035  1.00  0.00     0.059 A 
ATOM     89  F   UNL A   1      41.320  35.804  35.969  1.00  0.00    -0.206 F 
ATOM     90  C   UNL A   1      39.679  36.317  39.146  1.00  0.00     0.060 A 
BRANCH  90  91
ATOM     91  S   UNL A   1      39.591  37.541  40.469  1.00  0.00     0.124 S 
ATOM     92  O   UNL A   1      38.778  38.584  39.852  1.00  0.00    -0.237 OA
ATOM     93  O   UNL A   1      38.952  36.792  41.546  1.00  0.00    -0.237 OA
ATOM     94  O   UNL A   1      40.989  37.892  40.702  1.00  0.00    -0.744 OA
ENDBRANCH  90  91
ENDBRANCH  58  83
ENDBRANCH  32  33
ENDBRANCH  24  27
ENDBRANCH  22  23
ENDBRANCH   1  22
TORSDOF 16
ENDMDL
MODEL 3
REMARK VINA RESULT:     -10.5      4.835     10.388
REMARK SMILES [NH3+][C@]1(C(=O)NCCCNC(=O)c2ccc(-c3c4nc(c(-c5c(F)cc(S(=O)(=O)[O-])cc5F)c5ccc([nH]5)c(-c5c(F)cc(S(=O)(=O)[O-])cc5F)c5nc(c(-c6c(F)cc(S(=O)(=O)[O-])cc6F)c6ccc3[nH]6)C=C5)C=C4)cc2)CCC[C@@H](OC2CCC2)C1
REMARK SMILES IDX 7 1 6 2 5 3 3 4 4 5 2 7 78 8 87 9 79 10 81 11 80 12 1 13
REMARK SMILES IDX 82 17 83 18 84 19 86 20 85 21 8 22 9 23 10 24 11 26 12 27
REMARK SMILES IDX 13 28 77 29 14 30 76 31 15 32 16 33 17 34 70 35 18 36 75 37
REMARK SMILES IDX 69 38 71 39 19 40 74 41 68 42 67 43 20 45 54 46 33 47 53 48
REMARK SMILES IDX 34 49 37 50 52 51 72 52 35 53 36 54 51 56 73 57 38 58 21 59
REMARK SMILES IDX 22 60 31 61 23 62 24 63 30 64 32 65 25 66 26 67 27 68 28 69
REMARK SMILES IDX 29 70 55 71 56 72 65 73 57 74 58 75 64 76 66 77 59 78 60 79
REMARK SMILES IDX 61 80 62 81 63 82 39 83 40 84 49 85 41 86 42 87 48 88 50 89
REMARK SMILES IDX 43 90 44 91 45 92 46 93 47 94
REMARK H PARENT 5 6 1 14 1 15 1 16 9 25 71 44 37 55
REMARK Flexibility Score: inf
ROOT
ATOM      1  C   UNL A   1      37.380  23.346  25.420  1.00  0.00     0.042 C 
ENDROOT
BRANCH   1   2
ATOM      2  C   UNL A   1      36.034  24.000  25.104  1.00  0.00     0.118 C 
BRANCH   2   3
ATOM      3  N   UNL A   1      35.369  23.485  23.924  1.00  0.00    -0.351 N 
ATOM      4  C   UNL A   1      34.274  23.864  23.209  1.00  0.00     0.281 C 
ATOM      5  O   UNL A   1      34.205  23.328  22.093  1.00  0.00    -0.268 OA
ATOM      6  H   UNL A   1      35.806  22.682  23.559  1.00  0.00     0.163 HD
BRANCH   4   7
ATOM      7  C   UNL A   1      33.242  24.984  23.650  1.00  0.00     0.176 C 
ATOM      8  C   UNL A   1      31.827  24.582  23.131  1.00  0.00     0.079 C 
ATOM      9  C   UNL A   1      33.210  25.342  25.147  1.00  0.00     0.111 C 
ATOM     10  C   UNL A   1      30.628  24.749  24.067  1.00  0.00     0.010 C 
ATOM     11  C   UNL A   1      32.304  24.464  26.014  1.00  0.00     0.125 C 
ATOM     12  C   UNL A   1      30.856  24.540  25.563  1.00  0.00     0.032 C 
BRANCH   7  13
ATOM     13  N   UNL A   1      33.653  26.210  22.902  1.00  0.00    -0.345 N 
ATOM     14  H   UNL A   1      32.918  26.468  22.243  1.00  0.00     0.345 HD
ATOM     15  H   UNL A   1      34.516  26.023  22.393  1.00  0.00     0.345 HD
ATOM     16  H   UNL A   1      33.804  26.975  23.559  1.00  0.00     0.345 HD
ENDBRANCH   7  13
BRANCH  11  17
ATOM     17  O   UNL A   1      32.978  23.236  26.190  1.00  0.00    -0.375 OA
BRANCH  17  18
ATOM     18  C   UNL A   1      32.530  21.887  25.982  1.00  0.00     0.118 C 
ATOM     19  C   UNL A   1      32.173  21.272  24.623  1.00  0.00     0.032 C 
ATOM     20  C   UNL A   1      33.744  20.928  26.052  1.00  0.00     0.032 C 
ATOM     21  C   UNL A   1      33.453  20.439  24.638  1.00  0.00     0.005 C 
ENDBRANCH  17  18
ENDBRANCH  11  17
ENDBRANCH   4   7
ENDBRANCH   2   3
ENDBRANCH   1   2
BRANCH   1  22
ATOM     22  C   UNL A   1      38.283  24.083  26.405  1.00  0.00     0.118 C 
BRANCH  22  23
ATOM     23  N   UNL A   1      39.702  23.935  26.126  1.00  0.00    -0.352 N 
ATOM     24  C   UNL A   1      40.795  24.642  26.552  1.00  0.00     0.251 C 
ATOM     25  H   UNL A   1      39.916  23.190  25.519  1.00  0.00     0.163 HD
ATOM     26  O   UNL A   1      41.890  24.392  26.031  1.00  0.00    -0.269 OA
BRANCH  24  27
ATOM     27  C   UNL A   1      40.712  25.704  27.583  1.00  0.00     0.039 A 
ATOM     28  C   UNL A   1      39.676  25.634  28.523  1.00  0.00     0.014 A 
ATOM     29  C   UNL A   1      41.575  26.801  27.602  1.00  0.00     0.014 A 
ATOM     30  C   UNL A   1      39.548  26.619  29.509  1.00  0.00     0.010 A 
ATOM     31  C   UNL A   1      41.493  27.744  28.631  1.00  0.00     0.010 A 
ATOM     32  C   UNL A   1      40.478  27.666  29.598  1.00  0.00    -0.014 A 
BRANCH  32  33
ATOM     33  C   UNL A   1      40.403  28.678  30.690  1.00  0.00     0.031 A 
ATOM     34  C   UNL A   1      41.269  28.548  31.917  1.00  0.00     0.074 A 
ATOM     35  C   UNL A   1      39.514  29.689  30.605  1.00  0.00     0.049 A 
ATOM     36  N   UNL A   1      41.280  29.278  33.003  1.00  0.00    -0.248 NA
ATOM     37  C   UNL A   1      42.236  27.438  31.934  1.00  0.00     0.031 C 
ATOM     38  C   UNL A   1      38.594  29.912  29.488  1.00  0.00     0.029 A 
ATOM     39  N   UNL A   1      39.226  30.710  31.477  1.00  0.00    -0.354 N 
ATOM     40  C   UNL A   1      42.242  28.715  33.834  1.00  0.00     0.074 A 
ATOM     41  C   UNL A   1      42.758  27.550  33.147  1.00  0.00     0.031 C 
ATOM     42  C   UNL A   1      37.853  31.003  29.737  1.00  0.00     0.029 A 
ATOM     43  C   UNL A   1      38.211  31.535  31.048  1.00  0.00     0.049 A 
ATOM     44  H   UNL A   1      39.701  30.840  32.329  1.00  0.00     0.167 HD
ATOM     45  C   UNL A   1      42.673  29.140  35.048  1.00  0.00     0.037 A 
ATOM     46  C   UNL A   1      37.620  32.588  31.648  1.00  0.00     0.037 A 
ATOM     47  C   UNL A   1      42.170  30.310  35.721  1.00  0.00     0.049 A 
ATOM     48  C   UNL A   1      38.101  33.028  33.006  1.00  0.00     0.074 A 
ATOM     49  C   UNL A   1      42.570  30.842  36.935  1.00  0.00     0.029 A 
ATOM     50  N   UNL A   1      41.156  31.129  35.243  1.00  0.00    -0.354 N 
ATOM     51  N   UNL A   1      39.046  32.510  33.753  1.00  0.00    -0.248 NA
ATOM     52  C   UNL A   1      37.442  34.201  33.598  1.00  0.00     0.031 C 
ATOM     53  C   UNL A   1      41.769  31.954  37.213  1.00  0.00     0.029 A 
ATOM     54  C   UNL A   1      40.908  32.151  36.146  1.00  0.00     0.049 A 
ATOM     55  H   UNL A   1      40.684  31.003  34.388  1.00  0.00     0.167 HD
ATOM     56  C   UNL A   1      39.117  33.313  34.887  1.00  0.00     0.074 A 
ATOM     57  C   UNL A   1      38.127  34.356  34.723  1.00  0.00     0.031 C 
ATOM     58  C   UNL A   1      39.930  33.196  35.966  1.00  0.00     0.037 A 
BRANCH  45  59
ATOM     59  C   UNL A   1      43.750  28.339  35.730  1.00  0.00     0.058 A 
ATOM     60  C   UNL A   1      45.113  28.607  35.518  1.00  0.00     0.135 A 
ATOM     61  C   UNL A   1      43.420  27.330  36.650  1.00  0.00     0.135 A 
ATOM     62  F   UNL A   1      45.488  29.553  34.641  1.00  0.00    -0.206 F 
ATOM     63  C   UNL A   1      46.107  27.886  36.171  1.00  0.00     0.059 A 
ATOM     64  C   UNL A   1      44.398  26.616  37.337  1.00  0.00     0.059 A 
ATOM     65  F   UNL A   1      42.134  27.032  36.894  1.00  0.00    -0.206 F 
ATOM     66  C   UNL A   1      45.740  26.894  37.082  1.00  0.00     0.060 A 
BRANCH  66  67
ATOM     67  S   UNL A   1      47.043  25.977  37.930  1.00  0.00     0.124 S 
ATOM     68  O   UNL A   1      48.087  26.993  38.044  1.00  0.00    -0.237 OA
ATOM     69  O   UNL A   1      46.390  25.600  39.184  1.00  0.00    -0.237 OA
ATOM     70  O   UNL A   1      47.334  24.877  37.024  1.00  0.00    -0.744 OA
ENDBRANCH  66  67
ENDBRANCH  45  59
BRANCH  46  71
ATOM     71  C   UNL A   1      36.504  33.303  30.970  1.00  0.00     0.058 A 
ATOM     72  C   UNL A   1      36.739  34.130  29.860  1.00  0.00     0.135 A 
ATOM     73  C   UNL A   1      35.180  33.178  31.419  1.00  0.00     0.135 A 
ATOM     74  F   UNL A   1      37.988  34.289  29.395  1.00  0.00    -0.206 F 
ATOM     75  C   UNL A   1      35.708  34.827  29.237  1.00  0.00     0.059 A 
ATOM     76  C   UNL A   1      34.128  33.841  30.795  1.00  0.00     0.059 A 
ATOM     77  F   UNL A   1      34.897  32.387  32.466  1.00  0.00    -0.206 F 
ATOM     78  C   UNL A   1      34.404  34.674  29.713  1.00  0.00     0.060 A 
BRANCH  78  79
ATOM     79  S   UNL A   1      33.067  35.554  28.877  1.00  0.00     0.124 S 
ATOM     80  O   UNL A   1      32.245  35.978  30.006  1.00  0.00    -0.237 OA
ATOM     81  O   UNL A   1      33.788  36.615  28.179  1.00  0.00    -0.237 OA
ATOM     82  O   UNL A   1      32.481  34.535  28.015  1.00  0.00    -0.744 OA
ENDBRANCH  78  79
ENDBRANCH  46  71
BRANCH  58  83
ATOM     83  C   UNL A   1      39.826  34.248  37.037  1.00  0.00     0.058 A 
ATOM     84  C   UNL A   1      40.495  35.477  36.939  1.00  0.00     0.135 A 
ATOM     85  C   UNL A   1      38.994  34.043  38.151  1.00  0.00     0.135 A 
ATOM     86  F   UNL A   1      41.308  35.724  35.899  1.00  0.00    -0.206 F 
ATOM     87  C   UNL A   1      40.362  36.458  37.917  1.00  0.00     0.059 A 
ATOM     88  C   UNL A   1      38.823  35.020  39.127  1.00  0.00     0.059 A 
ATOM     89  F   UNL A   1      38.323  32.889  38.290  1.00  0.00    -0.206 F 
ATOM     90  C   UNL A   1      39.520  36.221  39.006  1.00  0.00     0.060 A 
BRANCH  90  91
ATOM     91  S   UNL A   1      39.325  37.518  40.246  1.00  0.00     0.124 S 
ATOM     92  O   UNL A   1      38.320  38.373  39.623  1.00  0.00    -0.237 OA
ATOM     93  O   UNL A   1      38.882  36.768  41.417  1.00  0.00    -0.237 OA
ATOM     94  O   UNL A   1      40.663  38.096  40.349  1.00  0.00    -0.744 OA
ENDBRANCH  90  91
ENDBRANCH  58  83
ENDBRANCH  32  33
ENDBRANCH  24  27
ENDBRANCH  22  23
ENDBRANCH   1  22
TORSDOF 16
ENDMDL
