MODEL 1
REMARK VINA RESULT:     -11.1      0.000      0.000
REMARK SMILES CCC[C@]1(C(=O)NCCCNC(=O)c2ccc(-c3c4nc(c(-c5c(F)cc(S(=O)(=O)[O-])cc5F)c5ccc([nH]5)c(-c5c(F)cc(S(=O)(=O)[O-])cc5F)c5nc(c(-c6c(F)cc(S(=O)(=O)[O-])cc6F)c6ccc3[nH]6)C=C5)C=C4)cc2)CCN(c2cncc(C(=O)OC)n2)C1
REMARK SMILES IDX 9 1 8 2 7 3 5 4 6 5 4 7 80 8 93 9 81 10 82 11 3 12 2 13 1 14
REMARK SMILES IDX 83 15 84 16 92 17 85 18 87 19 86 20 88 21 89 22 90 23 91 24
REMARK SMILES IDX 10 25 11 26 12 27 13 29 14 30 15 31 79 32 16 33 78 34 17 35
REMARK SMILES IDX 18 36 19 37 72 38 20 39 77 40 71 41 73 42 21 43 76 44 70 45
REMARK SMILES IDX 69 46 22 48 56 49 35 50 55 51 36 52 39 53 54 54 74 55 37 56
REMARK SMILES IDX 38 57 53 59 75 60 40 61 23 62 24 63 33 64 25 65 26 66 32 67
REMARK SMILES IDX 34 68 27 69 28 70 29 71 30 72 31 73 57 74 58 75 67 76 59 77
REMARK SMILES IDX 60 78 66 79 68 80 61 81 62 82 63 83 64 84 65 85 41 86 42 87
REMARK SMILES IDX 51 88 43 89 44 90 50 91 52 92 45 93 46 94 47 95 48 96 49 97
REMARK H PARENT 7 6 11 28 73 47 39 58
REMARK Flexibility Score: inf
ROOT
ATOM      1  C   UNL A   1      33.428  27.940  25.523  1.00  0.00     0.042 C 
ENDROOT
BRANCH   1   2
ATOM      2  C   UNL A   1      33.319  26.474  25.149  1.00  0.00     0.117 C 
BRANCH   2   3
ATOM      3  N   UNL A   1      32.338  25.756  25.947  1.00  0.00    -0.355 N 
ATOM      4  C   UNL A   1      32.365  24.527  26.533  1.00  0.00     0.228 C 
ATOM      5  O   UNL A   1      31.371  24.236  27.206  1.00  0.00    -0.274 OA
ATOM      6  H   UNL A   1      31.498  26.250  26.089  1.00  0.00     0.163 HD
BRANCH   4   7
ATOM      7  C   UNL A   1      33.538  23.535  26.354  1.00  0.00     0.068 C 
ATOM      8  C   UNL A   1      33.648  22.637  27.607  1.00  0.00     0.040 C 
ATOM      9  C   UNL A   1      33.258  22.585  25.168  1.00  0.00     0.135 C 
ATOM     10  C   UNL A   1      33.907  21.234  27.081  1.00  0.00     0.119 C 
ATOM     11  N   UNL A   1      33.338  21.253  25.750  1.00  0.00    -0.354 N 
BRANCH   7  12
ATOM     12  C   UNL A   1      34.844  24.364  26.160  1.00  0.00     0.018 C 
BRANCH  12  13
ATOM     13  C   UNL A   1      35.942  23.843  25.220  1.00  0.00    -0.002 C 
ATOM     14  C   UNL A   1      37.313  23.667  25.852  1.00  0.00     0.004 C 
ENDBRANCH  12  13
ENDBRANCH   7  12
BRANCH  11  15
ATOM     15  C   UNL A   1      33.033  20.116  25.053  1.00  0.00     0.148 A 
ATOM     16  C   UNL A   1      32.538  20.186  23.741  1.00  0.00     0.157 A 
ATOM     17  N   UNL A   1      33.234  18.911  25.628  1.00  0.00    -0.221 NA
ATOM     18  N   UNL A   1      32.227  19.111  22.975  1.00  0.00    -0.258 NA
ATOM     19  C   UNL A   1      32.878  17.821  24.886  1.00  0.00     0.169 A 
ATOM     20  C   UNL A   1      32.402  17.922  23.586  1.00  0.00     0.147 A 
BRANCH  19  21
ATOM     21  C   UNL A   1      32.927  16.467  25.488  1.00  0.00     0.358 C 
ATOM     22  O   UNL A   1      31.975  15.694  25.475  1.00  0.00    -0.244 OA
BRANCH  21  23
ATOM     23  O   UNL A   1      34.120  16.228  26.090  1.00  0.00    -0.464 OA
ATOM     24  C   UNL A   1      35.159  15.879  25.175  1.00  0.00     0.282 C 
ENDBRANCH  21  23
ENDBRANCH  19  21
ENDBRANCH  11  15
ENDBRANCH   4   7
ENDBRANCH   2   3
ENDBRANCH   1   2
BRANCH   1  25
ATOM     25  C   UNL A   1      33.707  28.168  26.997  1.00  0.00     0.118 C 
BRANCH  25  26
ATOM     26  N   UNL A   1      33.570  29.568  27.380  1.00  0.00    -0.352 N 
ATOM     27  C   UNL A   1      34.449  30.392  28.040  1.00  0.00     0.251 C 
ATOM     28  H   UNL A   1      32.716  29.987  27.128  1.00  0.00     0.163 HD
ATOM     29  O   UNL A   1      34.062  31.481  28.455  1.00  0.00    -0.269 OA
BRANCH  27  30
ATOM     30  C   UNL A   1      35.845  29.962  28.262  1.00  0.00     0.039 A 
ATOM     31  C   UNL A   1      36.765  30.063  27.217  1.00  0.00     0.014 A 
ATOM     32  C   UNL A   1      36.246  29.452  29.499  1.00  0.00     0.014 A 
ATOM     33  C   UNL A   1      38.099  29.710  27.435  1.00  0.00     0.010 A 
ATOM     34  C   UNL A   1      37.591  29.215  29.748  1.00  0.00     0.010 A 
ATOM     35  C   UNL A   1      38.530  29.317  28.713  1.00  0.00    -0.014 A 
BRANCH  35  36
ATOM     36  C   UNL A   1      39.948  28.971  28.982  1.00  0.00     0.031 A 
ATOM     37  C   UNL A   1      40.869  29.998  29.587  1.00  0.00     0.074 A 
ATOM     38  C   UNL A   1      40.421  27.759  28.628  1.00  0.00     0.049 A 
ATOM     39  N   UNL A   1      42.149  29.913  29.842  1.00  0.00    -0.248 NA
ATOM     40  C   UNL A   1      40.281  31.307  29.918  1.00  0.00     0.031 C 
ATOM     41  C   UNL A   1      39.640  26.700  27.985  1.00  0.00     0.029 A 
ATOM     42  N   UNL A   1      41.675  27.217  28.754  1.00  0.00    -0.354 N 
ATOM     43  C   UNL A   1      42.518  31.155  30.347  1.00  0.00     0.074 A 
ATOM     44  C   UNL A   1      41.346  31.999  30.293  1.00  0.00     0.031 C 
ATOM     45  C   UNL A   1      40.421  25.622  27.809  1.00  0.00     0.029 A 
ATOM     46  C   UNL A   1      41.767  25.928  28.283  1.00  0.00     0.049 A 
ATOM     47  H   UNL A   1      42.436  27.703  29.145  1.00  0.00     0.167 HD
ATOM     48  C   UNL A   1      43.716  31.549  30.842  1.00  0.00     0.037 A 
ATOM     49  C   UNL A   1      42.820  25.088  28.237  1.00  0.00     0.037 A 
ATOM     50  C   UNL A   1      44.871  30.694  30.913  1.00  0.00     0.049 A 
ATOM     51  C   UNL A   1      44.144  25.547  28.788  1.00  0.00     0.074 A 
ATOM     52  C   UNL A   1      46.119  30.975  31.440  1.00  0.00     0.029 A 
ATOM     53  N   UNL A   1      44.922  29.390  30.440  1.00  0.00    -0.354 N 
ATOM     54  N   UNL A   1      44.460  26.705  29.317  1.00  0.00    -0.248 NA
ATOM     55  C   UNL A   1      45.251  24.583  28.744  1.00  0.00     0.031 C 
ATOM     56  C   UNL A   1      46.939  29.859  31.240  1.00  0.00     0.029 A 
ATOM     57  C   UNL A   1      46.185  28.861  30.645  1.00  0.00     0.049 A 
ATOM     58  H   UNL A   1      44.170  28.912  30.021  1.00  0.00     0.167 HD
ATOM     59  C   UNL A   1      45.792  26.597  29.702  1.00  0.00     0.074 A 
ATOM     60  C   UNL A   1      46.217  25.256  29.352  1.00  0.00     0.031 C 
ATOM     61  C   UNL A   1      46.589  27.521  30.296  1.00  0.00     0.037 A 
BRANCH  48  62
ATOM     62  C   UNL A   1      43.829  32.964  31.345  1.00  0.00     0.058 A 
ATOM     63  C   UNL A   1      43.546  33.300  32.680  1.00  0.00     0.135 A 
ATOM     64  C   UNL A   1      44.236  33.998  30.485  1.00  0.00     0.135 A 
ATOM     65  F   UNL A   1      43.137  32.357  33.543  1.00  0.00    -0.206 F 
ATOM     66  C   UNL A   1      43.621  34.613  33.133  1.00  0.00     0.059 A 
ATOM     67  C   UNL A   1      44.353  35.313  30.927  1.00  0.00     0.059 A 
ATOM     68  F   UNL A   1      44.520  33.737  29.201  1.00  0.00    -0.206 F 
ATOM     69  C   UNL A   1      44.025  35.613  32.248  1.00  0.00     0.060 A 
BRANCH  69  70
ATOM     70  S   UNL A   1      44.108  37.313  32.850  1.00  0.00     0.124 S 
ATOM     71  O   UNL A   1      43.818  38.067  31.635  1.00  0.00    -0.237 OA
ATOM     72  O   UNL A   1      43.066  37.332  33.872  1.00  0.00    -0.237 OA
ATOM     73  O   UNL A   1      45.474  37.431  33.350  1.00  0.00    -0.744 OA
ENDBRANCH  69  70
ENDBRANCH  48  62
BRANCH  49  74
ATOM     74  C   UNL A   1      42.653  23.716  27.685  1.00  0.00     0.058 A 
ATOM     75  C   UNL A   1      42.416  22.623  28.532  1.00  0.00     0.135 A 
ATOM     76  C   UNL A   1      42.701  23.473  26.303  1.00  0.00     0.135 A 
ATOM     77  F   UNL A   1      42.367  22.802  29.860  1.00  0.00    -0.206 F 
ATOM     78  C   UNL A   1      42.250  21.336  28.031  1.00  0.00     0.059 A 
ATOM     79  C   UNL A   1      42.509  22.200  25.777  1.00  0.00     0.059 A 
ATOM     80  F   UNL A   1      42.905  24.488  25.448  1.00  0.00    -0.206 F 
ATOM     81  C   UNL A   1      42.293  21.135  26.651  1.00  0.00     0.060 A 
BRANCH  81  82
ATOM     82  S   UNL A   1      42.021  19.469  26.011  1.00  0.00     0.124 S 
ATOM     83  O   UNL A   1      42.873  19.465  24.827  1.00  0.00    -0.237 OA
ATOM     84  O   UNL A   1      42.467  18.638  27.123  1.00  0.00    -0.237 OA
ATOM     85  O   UNL A   1      40.583  19.440  25.752  1.00  0.00    -0.744 OA
ENDBRANCH  81  82
ENDBRANCH  49  74
BRANCH  61  86
ATOM     86  C   UNL A   1      47.991  27.099  30.650  1.00  0.00     0.058 A 
ATOM     87  C   UNL A   1      49.066  27.278  29.767  1.00  0.00     0.135 A 
ATOM     88  C   UNL A   1      48.264  26.550  31.914  1.00  0.00     0.135 A 
ATOM     89  F   UNL A   1      48.861  27.795  28.545  1.00  0.00    -0.206 F 
ATOM     90  C   UNL A   1      50.360  26.896  30.111  1.00  0.00     0.059 A 
ATOM     91  C   UNL A   1      49.554  26.192  32.291  1.00  0.00     0.059 A 
ATOM     92  F   UNL A   1      47.274  26.369  32.802  1.00  0.00    -0.206 F 
ATOM     93  C   UNL A   1      50.592  26.354  31.377  1.00  0.00     0.060 A 
BRANCH  93  94
ATOM     94  S   UNL A   1      52.278  25.883  31.818  1.00  0.00     0.124 S 
ATOM     95  O   UNL A   1      52.999  26.179  30.585  1.00  0.00    -0.237 OA
ATOM     96  O   UNL A   1      52.563  26.765  32.947  1.00  0.00    -0.237 OA
ATOM     97  O   UNL A   1      52.159  24.467  32.152  1.00  0.00    -0.744 OA
ENDBRANCH  93  94
ENDBRANCH  61  86
ENDBRANCH  35  36
ENDBRANCH  27  30
ENDBRANCH  25  26
ENDBRANCH   1  25
TORSDOF 18
ENDMDL
MODEL 2
REMARK VINA RESULT:     -10.9      3.579      9.855
REMARK SMILES CCC[C@]1(C(=O)NCCCNC(=O)c2ccc(-c3c4nc(c(-c5c(F)cc(S(=O)(=O)[O-])cc5F)c5ccc([nH]5)c(-c5c(F)cc(S(=O)(=O)[O-])cc5F)c5nc(c(-c6c(F)cc(S(=O)(=O)[O-])cc6F)c6ccc3[nH]6)C=C5)C=C4)cc2)CCN(c2cncc(C(=O)OC)n2)C1
REMARK SMILES IDX 9 1 8 2 7 3 5 4 6 5 4 7 80 8 93 9 81 10 82 11 3 12 2 13 1 14
REMARK SMILES IDX 83 15 84 16 92 17 85 18 87 19 86 20 88 21 89 22 90 23 91 24
REMARK SMILES IDX 10 25 11 26 12 27 13 29 14 30 15 31 79 32 16 33 78 34 17 35
REMARK SMILES IDX 18 36 19 37 72 38 20 39 77 40 71 41 73 42 21 43 76 44 70 45
REMARK SMILES IDX 69 46 22 48 56 49 35 50 55 51 36 52 39 53 54 54 74 55 37 56
REMARK SMILES IDX 38 57 53 59 75 60 40 61 23 62 24 63 33 64 25 65 26 66 32 67
REMARK SMILES IDX 34 68 27 69 28 70 29 71 30 72 31 73 57 74 58 75 67 76 59 77
REMARK SMILES IDX 60 78 66 79 68 80 61 81 62 82 63 83 64 84 65 85 41 86 42 87
REMARK SMILES IDX 51 88 43 89 44 90 50 91 52 92 45 93 46 94 47 95 48 96 49 97
REMARK H PARENT 7 6 11 28 73 47 39 58
REMARK Flexibility Score: inf
ROOT
ATOM      1  C   UNL A   1      34.902  23.065  25.970  1.00  0.00     0.042 C 
ENDROOT
BRANCH   1   2
ATOM      2  C   UNL A   1      33.834  24.059  25.555  1.00  0.00     0.117 C 
BRANCH   2   3
ATOM      3  N   UNL A   1      33.871  24.372  24.136  1.00  0.00    -0.355 N 
ATOM      4  C   UNL A   1      33.707  25.542  23.457  1.00  0.00     0.228 C 
ATOM      5  O   UNL A   1      33.863  25.475  22.234  1.00  0.00    -0.274 OA
ATOM      6  H   UNL A   1      34.046  23.595  23.558  1.00  0.00     0.163 HD
BRANCH   4   7
ATOM      7  C   UNL A   1      33.320  26.869  24.150  1.00  0.00     0.068 C 
ATOM      8  C   UNL A   1      33.767  28.059  23.271  1.00  0.00     0.040 C 
ATOM      9  C   UNL A   1      31.784  26.980  24.272  1.00  0.00     0.135 C 
ATOM     10  C   UNL A   1      32.615  29.051  23.310  1.00  0.00     0.119 C 
ATOM     11  N   UNL A   1      31.459  28.227  23.595  1.00  0.00    -0.354 N 
BRANCH   7  12
ATOM     12  C   UNL A   1      34.033  26.916  25.535  1.00  0.00     0.018 C 
BRANCH  12  13
ATOM     13  C   UNL A   1      33.439  27.765  26.669  1.00  0.00    -0.002 C 
ATOM     14  C   UNL A   1      34.231  29.009  27.037  1.00  0.00     0.004 C 
ENDBRANCH  12  13
ENDBRANCH   7  12
BRANCH  11  15
ATOM     15  C   UNL A   1      30.174  28.642  23.373  1.00  0.00     0.148 A 
ATOM     16  C   UNL A   1      29.118  27.720  23.321  1.00  0.00     0.157 A 
ATOM     17  N   UNL A   1      29.919  29.960  23.225  1.00  0.00    -0.221 NA
ATOM     18  N   UNL A   1      27.817  28.046  23.123  1.00  0.00    -0.258 NA
ATOM     19  C   UNL A   1      28.620  30.298  22.976  1.00  0.00     0.169 A 
ATOM     20  C   UNL A   1      27.595  29.364  22.942  1.00  0.00     0.147 A 
BRANCH  19  21
ATOM     21  C   UNL A   1      28.269  31.704  22.657  1.00  0.00     0.358 C 
ATOM     22  O   UNL A   1      27.523  32.382  23.354  1.00  0.00    -0.244 OA
BRANCH  21  23
ATOM     23  O   UNL A   1      28.828  32.107  21.487  1.00  0.00    -0.464 OA
ATOM     24  C   UNL A   1      27.903  32.156  20.401  1.00  0.00     0.282 C 
ENDBRANCH  21  23
ENDBRANCH  19  21
ENDBRANCH  11  15
ENDBRANCH   4   7
ENDBRANCH   2   3
ENDBRANCH   1   2
BRANCH   1  25
ATOM     25  C   UNL A   1      36.310  23.629  25.907  1.00  0.00     0.118 C 
BRANCH  25  26
ATOM     26  N   UNL A   1      37.331  22.595  26.020  1.00  0.00    -0.352 N 
ATOM     27  C   UNL A   1      38.672  22.706  26.295  1.00  0.00     0.251 C 
ATOM     28  H   UNL A   1      37.010  21.676  25.878  1.00  0.00     0.163 HD
ATOM     29  O   UNL A   1      39.404  21.732  26.139  1.00  0.00    -0.269 OA
BRANCH  27  30
ATOM     30  C   UNL A   1      39.230  23.993  26.759  1.00  0.00     0.039 A 
ATOM     31  C   UNL A   1      39.170  24.314  28.117  1.00  0.00     0.014 A 
ATOM     32  C   UNL A   1      39.807  24.887  25.855  1.00  0.00     0.014 A 
ATOM     33  C   UNL A   1      39.745  25.503  28.571  1.00  0.00     0.010 A 
ATOM     34  C   UNL A   1      40.480  26.008  26.322  1.00  0.00     0.010 A 
ATOM     35  C   UNL A   1      40.436  26.343  27.682  1.00  0.00    -0.014 A 
BRANCH  35  36
ATOM     36  C   UNL A   1      41.087  27.595  28.143  1.00  0.00     0.031 A 
ATOM     37  C   UNL A   1      42.584  27.735  28.065  1.00  0.00     0.074 A 
ATOM     38  C   UNL A   1      40.340  28.577  28.687  1.00  0.00     0.049 A 
ATOM     39  N   UNL A   1      43.346  28.718  28.471  1.00  0.00    -0.248 NA
ATOM     40  C   UNL A   1      43.329  26.605  27.484  1.00  0.00     0.031 C 
ATOM     41  C   UNL A   1      38.887  28.536  28.867  1.00  0.00     0.029 A 
ATOM     42  N   UNL A   1      40.702  29.800  29.193  1.00  0.00    -0.354 N 
ATOM     43  C   UNL A   1      44.651  28.319  28.207  1.00  0.00     0.074 A 
ATOM     44  C   UNL A   1      44.585  26.976  27.677  1.00  0.00     0.031 C 
ATOM     45  C   UNL A   1      38.478  29.695  29.407  1.00  0.00     0.029 A 
ATOM     46  C   UNL A   1      39.640  30.542  29.653  1.00  0.00     0.049 A 
ATOM     47  H   UNL A   1      41.634  30.116  29.224  1.00  0.00     0.167 HD
ATOM     48  C   UNL A   1      45.801  29.020  28.362  1.00  0.00     0.037 A 
ATOM     49  C   UNL A   1      39.608  31.769  30.211  1.00  0.00     0.037 A 
ATOM     50  C   UNL A   1      45.854  30.365  28.868  1.00  0.00     0.049 A 
ATOM     51  C   UNL A   1      40.897  32.528  30.379  1.00  0.00     0.074 A 
ATOM     52  C   UNL A   1      46.958  31.185  29.020  1.00  0.00     0.029 A 
ATOM     53  N   UNL A   1      44.756  31.090  29.310  1.00  0.00    -0.354 N 
ATOM     54  N   UNL A   1      42.117  32.159  30.069  1.00  0.00    -0.248 NA
ATOM     55  C   UNL A   1      40.803  33.872  30.962  1.00  0.00     0.031 C 
ATOM     56  C   UNL A   1      46.535  32.385  29.599  1.00  0.00     0.029 A 
ATOM     57  C   UNL A   1      45.159  32.339  29.751  1.00  0.00     0.049 A 
ATOM     58  H   UNL A   1      43.827  30.764  29.308  1.00  0.00     0.167 HD
ATOM     59  C   UNL A   1      42.933  33.240  30.387  1.00  0.00     0.074 A 
ATOM     60  C   UNL A   1      42.064  34.278  30.904  1.00  0.00     0.031 C 
ATOM     61  C   UNL A   1      44.278  33.364  30.258  1.00  0.00     0.037 A 
BRANCH  48  62
ATOM     62  C   UNL A   1      47.087  28.339  27.975  1.00  0.00     0.058 A 
ATOM     63  C   UNL A   1      47.848  27.611  28.906  1.00  0.00     0.135 A 
ATOM     64  C   UNL A   1      47.563  28.404  26.655  1.00  0.00     0.135 A 
ATOM     65  F   UNL A   1      47.452  27.527  30.186  1.00  0.00    -0.206 F 
ATOM     66  C   UNL A   1      49.051  27.010  28.554  1.00  0.00     0.059 A 
ATOM     67  C   UNL A   1      48.746  27.779  26.272  1.00  0.00     0.059 A 
ATOM     68  F   UNL A   1      46.879  29.084  25.723  1.00  0.00    -0.206 F 
ATOM     69  C   UNL A   1      49.493  27.101  27.233  1.00  0.00     0.060 A 
BRANCH  69  70
ATOM     70  S   UNL A   1      51.062  26.323  26.795  1.00  0.00     0.124 S 
ATOM     71  O   UNL A   1      51.122  26.576  25.359  1.00  0.00    -0.237 OA
ATOM     72  O   UNL A   1      52.017  27.066  27.611  1.00  0.00    -0.237 OA
ATOM     73  O   UNL A   1      50.869  24.927  27.178  1.00  0.00    -0.744 OA
ENDBRANCH  69  70
ENDBRANCH  48  62
BRANCH  49  74
ATOM     74  C   UNL A   1      38.306  32.367  30.614  1.00  0.00     0.058 A 
ATOM     75  C   UNL A   1      37.799  32.184  31.909  1.00  0.00     0.135 A 
ATOM     76  C   UNL A   1      37.556  33.153  29.725  1.00  0.00     0.135 A 
ATOM     77  F   UNL A   1      38.475  31.437  32.795  1.00  0.00    -0.206 F 
ATOM     78  C   UNL A   1      36.588  32.742  32.304  1.00  0.00     0.059 A 
ATOM     79  C   UNL A   1      36.356  33.745  30.105  1.00  0.00     0.059 A 
ATOM     80  F   UNL A   1      38.007  33.376  28.480  1.00  0.00    -0.206 F 
ATOM     81  C   UNL A   1      35.876  33.527  31.395  1.00  0.00     0.060 A 
BRANCH  81  82
ATOM     82  S   UNL A   1      34.333  34.292  31.937  1.00  0.00     0.124 S 
ATOM     83  O   UNL A   1      33.770  33.250  32.788  1.00  0.00    -0.237 OA
ATOM     84  O   UNL A   1      34.809  35.489  32.621  1.00  0.00    -0.237 OA
ATOM     85  O   UNL A   1      33.621  34.535  30.685  1.00  0.00    -0.744 OA
ENDBRANCH  81  82
ENDBRANCH  49  74
BRANCH  61  86
ATOM     86  C   UNL A   1      44.891  34.686  30.637  1.00  0.00     0.058 A 
ATOM     87  C   UNL A   1      45.011  35.740  29.718  1.00  0.00     0.135 A 
ATOM     88  C   UNL A   1      45.322  34.912  31.954  1.00  0.00     0.135 A 
ATOM     89  F   UNL A   1      44.619  35.576  28.445  1.00  0.00    -0.206 F 
ATOM     90  C   UNL A   1      45.568  36.962  30.084  1.00  0.00     0.059 A 
ATOM     91  C   UNL A   1      45.850  36.136  32.350  1.00  0.00     0.059 A 
ATOM     92  F   UNL A   1      45.218  33.942  32.876  1.00  0.00    -0.206 F 
ATOM     93  C   UNL A   1      45.984  37.150  31.403  1.00  0.00     0.060 A 
BRANCH  93  94
ATOM     94  S   UNL A   1      46.684  38.746  31.870  1.00  0.00     0.124 S 
ATOM     95  O   UNL A   1      45.967  39.653  30.979  1.00  0.00    -0.237 OA
ATOM     96  O   UNL A   1      46.334  38.839  33.284  1.00  0.00    -0.237 OA
ATOM     97  O   UNL A   1      48.108  38.588  31.592  1.00  0.00    -0.744 OA
ENDBRANCH  93  94
ENDBRANCH  61  86
ENDBRANCH  35  36
ENDBRANCH  27  30
ENDBRANCH  25  26
ENDBRANCH   1  25
TORSDOF 18
ENDMDL
MODEL 3
REMARK VINA RESULT:     -10.8      2.956      4.180
REMARK SMILES CCC[C@]1(C(=O)NCCCNC(=O)c2ccc(-c3c4nc(c(-c5c(F)cc(S(=O)(=O)[O-])cc5F)c5ccc([nH]5)c(-c5c(F)cc(S(=O)(=O)[O-])cc5F)c5nc(c(-c6c(F)cc(S(=O)(=O)[O-])cc6F)c6ccc3[nH]6)C=C5)C=C4)cc2)CCN(c2cncc(C(=O)OC)n2)C1
REMARK SMILES IDX 9 1 8 2 7 3 5 4 6 5 4 7 80 8 93 9 81 10 82 11 3 12 2 13 1 14
REMARK SMILES IDX 83 15 84 16 92 17 85 18 87 19 86 20 88 21 89 22 90 23 91 24
REMARK SMILES IDX 10 25 11 26 12 27 13 29 14 30 15 31 79 32 16 33 78 34 17 35
REMARK SMILES IDX 18 36 19 37 72 38 20 39 77 40 71 41 73 42 21 43 76 44 70 45
REMARK SMILES IDX 69 46 22 48 56 49 35 50 55 51 36 52 39 53 54 54 74 55 37 56
REMARK SMILES IDX 38 57 53 59 75 60 40 61 23 62 24 63 33 64 25 65 26 66 32 67
REMARK SMILES IDX 34 68 27 69 28 70 29 71 30 72 31 73 57 74 58 75 67 76 59 77
REMARK SMILES IDX 60 78 66 79 68 80 61 81 62 82 63 83 64 84 65 85 41 86 42 87
REMARK SMILES IDX 51 88 43 89 44 90 50 91 52 92 45 93 46 94 47 95 48 96 49 97
REMARK H PARENT 7 6 11 28 73 47 39 58
REMARK Flexibility Score: inf
ROOT
ATOM      1  C   UNL A   1      34.265  31.311  27.854  1.00  0.00     0.042 C 
ENDROOT
BRANCH   1   2
ATOM      2  C   UNL A   1      33.473  30.459  26.881  1.00  0.00     0.117 C 
BRANCH   2   3
ATOM      3  N   UNL A   1      32.539  29.562  27.543  1.00  0.00    -0.355 N 
ATOM      4  C   UNL A   1      32.039  28.345  27.189  1.00  0.00     0.228 C 
ATOM      5  O   UNL A   1      31.298  27.810  28.020  1.00  0.00    -0.274 OA
ATOM      6  H   UNL A   1      32.206  29.896  28.407  1.00  0.00     0.163 HD
BRANCH   4   7
ATOM      7  C   UNL A   1      32.340  27.676  25.827  1.00  0.00     0.068 C 
ATOM      8  C   UNL A   1      33.851  27.368  25.728  1.00  0.00     0.040 C 
ATOM      9  C   UNL A   1      31.616  26.315  25.729  1.00  0.00     0.135 C 
ATOM     10  C   UNL A   1      33.944  25.978  25.117  1.00  0.00     0.119 C 
ATOM     11  N   UNL A   1      32.684  25.359  25.472  1.00  0.00    -0.354 N 
BRANCH   7  12
ATOM     12  C   UNL A   1      31.910  28.663  24.700  1.00  0.00     0.018 C 
BRANCH  12  13
ATOM     13  C   UNL A   1      30.635  28.384  23.890  1.00  0.00    -0.002 C 
ATOM     14  C   UNL A   1      29.828  29.611  23.498  1.00  0.00     0.004 C 
ENDBRANCH  12  13
ENDBRANCH   7  12
BRANCH  11  15
ATOM     15  C   UNL A   1      32.481  24.007  25.434  1.00  0.00     0.148 A 
ATOM     16  C   UNL A   1      31.213  23.461  25.688  1.00  0.00     0.157 A 
ATOM     17  N   UNL A   1      33.511  23.189  25.126  1.00  0.00    -0.221 NA
ATOM     18  N   UNL A   1      30.921  22.138  25.656  1.00  0.00    -0.258 NA
ATOM     19  C   UNL A   1      33.242  21.850  25.137  1.00  0.00     0.169 A 
ATOM     20  C   UNL A   1      31.974  21.342  25.381  1.00  0.00     0.147 A 
BRANCH  19  21
ATOM     21  C   UNL A   1      34.342  20.873  24.953  1.00  0.00     0.358 C 
ATOM     22  O   UNL A   1      34.167  19.659  24.957  1.00  0.00    -0.244 OA
BRANCH  21  23
ATOM     23  O   UNL A   1      35.546  21.489  24.839  1.00  0.00    -0.464 OA
ATOM     24  C   UNL A   1      36.655  20.598  24.954  1.00  0.00     0.282 C 
ENDBRANCH  21  23
ENDBRANCH  19  21
ENDBRANCH  11  15
ENDBRANCH   4   7
ENDBRANCH   2   3
ENDBRANCH   1   2
BRANCH   1  25
ATOM     25  C   UNL A   1      35.390  30.559  28.539  1.00  0.00     0.118 C 
BRANCH  25  26
ATOM     26  N   UNL A   1      35.514  30.903  29.951  1.00  0.00    -0.352 N 
ATOM     27  C   UNL A   1      36.541  30.664  30.831  1.00  0.00     0.251 C 
ATOM     28  H   UNL A   1      34.742  31.380  30.331  1.00  0.00     0.163 HD
ATOM     29  O   UNL A   1      36.364  30.848  32.031  1.00  0.00    -0.269 OA
BRANCH  27  30
ATOM     30  C   UNL A   1      37.843  30.173  30.334  1.00  0.00     0.039 A 
ATOM     31  C   UNL A   1      38.161  30.325  28.983  1.00  0.00     0.014 A 
ATOM     32  C   UNL A   1      38.749  29.556  31.200  1.00  0.00     0.014 A 
ATOM     33  C   UNL A   1      39.412  29.913  28.518  1.00  0.00     0.010 A 
ATOM     34  C   UNL A   1      40.032  29.256  30.762  1.00  0.00     0.010 A 
ATOM     35  C   UNL A   1      40.372  29.408  29.412  1.00  0.00    -0.014 A 
BRANCH  35  36
ATOM     36  C   UNL A   1      41.722  28.997  28.951  1.00  0.00     0.031 A 
ATOM     37  C   UNL A   1      42.836  30.008  28.897  1.00  0.00     0.074 A 
ATOM     38  C   UNL A   1      41.927  27.734  28.525  1.00  0.00     0.049 A 
ATOM     39  N   UNL A   1      44.064  29.864  28.469  1.00  0.00    -0.248 NA
ATOM     40  C   UNL A   1      42.521  31.372  29.353  1.00  0.00     0.031 C 
ATOM     41  C   UNL A   1      40.913  26.679  28.478  1.00  0.00     0.029 A 
ATOM     42  N   UNL A   1      43.060  27.126  28.045  1.00  0.00    -0.354 N 
ATOM     43  C   UNL A   1      44.657  31.115  28.591  1.00  0.00     0.074 A 
ATOM     44  C   UNL A   1      43.636  32.024  29.062  1.00  0.00     0.031 C 
ATOM     45  C   UNL A   1      41.477  25.545  28.033  1.00  0.00     0.029 A 
ATOM     46  C   UNL A   1      42.879  25.802  27.720  1.00  0.00     0.049 A 
ATOM     47  H   UNL A   1      43.921  27.594  27.943  1.00  0.00     0.167 HD
ATOM     48  C   UNL A   1      45.944  31.471  28.364  1.00  0.00     0.037 A 
ATOM     49  C   UNL A   1      43.747  24.898  27.225  1.00  0.00     0.037 A 
ATOM     50  C   UNL A   1      46.960  30.554  27.918  1.00  0.00     0.049 A 
ATOM     51  C   UNL A   1      45.172  25.315  26.975  1.00  0.00     0.074 A 
ATOM     52  C   UNL A   1      48.304  30.796  27.703  1.00  0.00     0.029 A 
ATOM     53  N   UNL A   1      46.742  29.217  27.614  1.00  0.00    -0.354 N 
ATOM     54  N   UNL A   1      45.731  26.488  27.153  1.00  0.00    -0.248 NA
ATOM     55  C   UNL A   1      46.085  24.283  26.466  1.00  0.00     0.031 C 
ATOM     56  C   UNL A   1      48.889  29.620  27.222  1.00  0.00     0.029 A 
ATOM     57  C   UNL A   1      47.923  28.628  27.197  1.00  0.00     0.049 A 
ATOM     58  H   UNL A   1      45.875  28.756  27.687  1.00  0.00     0.167 HD
ATOM     59  C   UNL A   1      47.070  26.327  26.812  1.00  0.00     0.074 A 
ATOM     60  C   UNL A   1      47.235  24.940  26.426  1.00  0.00     0.031 C 
ATOM     61  C   UNL A   1      48.072  27.242  26.822  1.00  0.00     0.037 A 
BRANCH  48  62
ATOM     62  C   UNL A   1      46.320  32.910  28.598  1.00  0.00     0.058 A 
ATOM     63  C   UNL A   1      46.764  33.366  29.851  1.00  0.00     0.135 A 
ATOM     64  C   UNL A   1      46.245  33.848  27.554  1.00  0.00     0.135 A 
ATOM     65  F   UNL A   1      46.840  32.520  30.890  1.00  0.00    -0.206 F 
ATOM     66  C   UNL A   1      47.080  34.702  30.071  1.00  0.00     0.059 A 
ATOM     67  C   UNL A   1      46.591  35.183  27.743  1.00  0.00     0.059 A 
ATOM     68  F   UNL A   1      45.828  33.471  26.336  1.00  0.00    -0.206 F 
ATOM     69  C   UNL A   1      46.989  35.604  29.011  1.00  0.00     0.060 A 
BRANCH  69  70
ATOM     70  S   UNL A   1      47.393  37.336  29.317  1.00  0.00     0.124 S 
ATOM     71  O   UNL A   1      46.104  37.864  29.751  1.00  0.00    -0.237 OA
ATOM     72  O   UNL A   1      48.419  37.238  30.351  1.00  0.00    -0.237 OA
ATOM     73  O   UNL A   1      47.860  37.811  28.019  1.00  0.00    -0.744 OA
ENDBRANCH  69  70
ENDBRANCH  48  62
BRANCH  49  74
ATOM     74  C   UNL A   1      43.300  23.501  26.973  1.00  0.00     0.058 A 
ATOM     75  C   UNL A   1      43.087  23.038  25.666  1.00  0.00     0.135 A 
ATOM     76  C   UNL A   1      43.102  22.595  28.027  1.00  0.00     0.135 A 
ATOM     77  F   UNL A   1      43.258  23.866  24.625  1.00  0.00    -0.206 F 
ATOM     78  C   UNL A   1      42.676  21.733  25.413  1.00  0.00     0.059 A 
ATOM     79  C   UNL A   1      42.718  21.278  27.797  1.00  0.00     0.059 A 
ATOM     80  F   UNL A   1      43.311  22.982  29.295  1.00  0.00    -0.206 F 
ATOM     81  C   UNL A   1      42.500  20.859  26.486  1.00  0.00     0.060 A 
BRANCH  81  82
ATOM     82  S   UNL A   1      42.021  19.152  26.140  1.00  0.00     0.124 S 
ATOM     83  O   UNL A   1      42.346  18.494  27.400  1.00  0.00    -0.237 OA
ATOM     84  O   UNL A   1      40.600  19.289  25.837  1.00  0.00    -0.237 OA
ATOM     85  O   UNL A   1      42.864  18.790  25.004  1.00  0.00    -0.744 OA
ENDBRANCH  81  82
ENDBRANCH  49  74
BRANCH  61  86
ATOM     86  C   UNL A   1      49.450  26.763  26.450  1.00  0.00     0.058 A 
ATOM     87  C   UNL A   1      50.287  26.120  27.373  1.00  0.00     0.135 A 
ATOM     88  C   UNL A   1      49.917  26.913  25.134  1.00  0.00     0.135 A 
ATOM     89  F   UNL A   1      49.892  25.955  28.646  1.00  0.00    -0.206 F 
ATOM     90  C   UNL A   1      51.555  25.671  27.014  1.00  0.00     0.059 A 
ATOM     91  C   UNL A   1      51.167  26.442  24.744  1.00  0.00     0.059 A 
ATOM     92  F   UNL A   1      49.151  27.510  24.207  1.00  0.00    -0.206 F 
ATOM     93  C   UNL A   1      51.984  25.836  25.696  1.00  0.00     0.060 A 
BRANCH  93  94
ATOM     94  S   UNL A   1      53.621  25.229  25.238  1.00  0.00     0.124 S 
ATOM     95  O   UNL A   1      53.738  25.708  23.865  1.00  0.00    -0.237 OA
ATOM     96  O   UNL A   1      54.483  25.888  26.215  1.00  0.00    -0.237 OA
ATOM     97  O   UNL A   1      53.503  23.782  25.390  1.00  0.00    -0.744 OA
ENDBRANCH  93  94
ENDBRANCH  61  86
ENDBRANCH  35  36
ENDBRANCH  27  30
ENDBRANCH  25  26
ENDBRANCH   1  25
TORSDOF 18
ENDMDL
