MODEL 1
REMARK VINA RESULT:     -12.4      0.000      0.000
REMARK SMILES C[C@@H]1CN(C(=O)C[NH+]2CCC(CC(=O)NCCCNC(=O)c3ccc(-c4c5nc(c(-c6c(F)cc(S(=O)(=O)[O-])cc6F)c6ccc([nH]6)c(-c6c(F)cc(S(=O)(=O)[O-])cc6F)c6nc(c(-c7c(F)cc(S(=O)(=O)[O-])cc7F)c7ccc4[nH]7)C=C6)C=C5)cc3)CC2)C[C@@H](C)O1
REMARK SMILES IDX 17 1 16 2 15 3 13 4 14 5 12 7 11 8 8 9 9 10 89 11 10 13
REMARK SMILES IDX 88 14 7 15 5 16 1 17 2 18 3 19 93 20 4 21 91 22 90 23 92 24
REMARK SMILES IDX 6 25 18 26 19 27 20 28 21 30 22 31 23 32 87 33 24 34 86 35
REMARK SMILES IDX 25 36 26 37 27 38 80 39 28 40 85 41 79 42 81 43 29 44 84 45
REMARK SMILES IDX 78 46 77 47 30 49 64 50 43 51 63 52 44 53 47 54 62 55 82 56
REMARK SMILES IDX 45 57 46 58 61 60 83 61 48 62 31 63 32 64 41 65 33 66 34 67
REMARK SMILES IDX 40 68 42 69 35 70 36 71 37 72 38 73 39 74 65 75 66 76 75 77
REMARK SMILES IDX 67 78 68 79 74 80 76 81 69 82 70 83 71 84 72 85 73 86 49 87
REMARK SMILES IDX 50 88 59 89 51 90 52 91 58 92 60 93 53 94 54 95 55 96 56 97
REMARK SMILES IDX 57 98
REMARK H PARENT 15 6 8 12 19 29 81 48 47 59
REMARK Flexibility Score: inf
ROOT
ATOM      1  C   UNL A   1      34.279  30.859  27.571  1.00  0.00     0.042 C 
ENDROOT
BRANCH   1   2
ATOM      2  C   UNL A   1      34.313  29.354  27.348  1.00  0.00     0.117 C 
BRANCH   2   3
ATOM      3  N   UNL A   1      33.153  28.712  27.935  1.00  0.00    -0.356 N 
ATOM      4  C   UNL A   1      31.961  28.434  27.336  1.00  0.00     0.220 C 
ATOM      5  O   UNL A   1      31.044  27.958  28.004  1.00  0.00    -0.275 OA
ATOM      6  H   UNL A   1      33.236  28.446  28.879  1.00  0.00     0.163 HD
BRANCH   4   7
ATOM      7  C   UNL A   1      31.787  28.750  25.863  1.00  0.00     0.104 C 
BRANCH   7   8
ATOM      8  C   UNL A   1      31.057  27.610  25.125  1.00  0.00     0.009 C 
ATOM      9  N   UNL A   1      31.584  25.417  23.111  1.00  0.00    -0.327 N 
ATOM     10  C   UNL A   1      31.176  25.237  24.488  1.00  0.00     0.262 C 
ATOM     11  C   UNL A   1      30.937  26.657  22.631  1.00  0.00     0.262 C 
ATOM     12  H   UNL A   1      31.284  24.581  22.609  1.00  0.00     0.348 HD
ATOM     13  C   UNL A   1      31.785  26.309  25.379  1.00  0.00     0.066 C 
ATOM     14  C   UNL A   1      30.839  27.859  23.612  1.00  0.00     0.066 C 
BRANCH   9  15
ATOM     15  C   UNL A   1      33.041  25.449  22.839  1.00  0.00     0.363 C 
BRANCH  15  16
ATOM     16  C   UNL A   1      33.958  24.202  22.983  1.00  0.00     0.277 C 
ATOM     17  C   UNL A   1      33.223  23.038  26.641  1.00  0.00     0.040 C 
ATOM     18  C   UNL A   1      34.694  23.435  26.494  1.00  0.00     0.135 C 
ATOM     19  C   UNL A   1      35.035  24.429  25.357  1.00  0.00     0.151 C 
ATOM     20  O   UNL A   1      35.510  22.260  26.338  1.00  0.00    -0.372 OA
ATOM     21  N   UNL A   1      34.779  23.843  24.041  1.00  0.00    -0.333 N 
ATOM     22  C   UNL A   1      35.375  21.645  25.043  1.00  0.00     0.135 C 
ATOM     23  C   UNL A   1      35.611  22.641  23.889  1.00  0.00     0.151 C 
ATOM     24  C   UNL A   1      36.417  20.538  24.996  1.00  0.00     0.040 C 
ATOM     25  O   UNL A   1      34.063  23.527  21.937  1.00  0.00    -0.268 OA
ENDBRANCH  15  16
ENDBRANCH   9  15
ENDBRANCH   7   8
ENDBRANCH   4   7
ENDBRANCH   2   3
ENDBRANCH   1   2
BRANCH   1  26
ATOM     26  C   UNL A   1      35.563  31.405  28.162  1.00  0.00     0.118 C 
BRANCH  26  27
ATOM     27  N   UNL A   1      35.578  31.253  29.606  1.00  0.00    -0.352 N 
ATOM     28  C   UNL A   1      36.388  30.497  30.414  1.00  0.00     0.251 C 
ATOM     29  H   UNL A   1      34.895  31.778  30.084  1.00  0.00     0.163 HD
ATOM     30  O   UNL A   1      36.015  30.268  31.564  1.00  0.00    -0.269 OA
BRANCH  28  31
ATOM     31  C   UNL A   1      37.687  29.961  29.937  1.00  0.00     0.039 A 
ATOM     32  C   UNL A   1      38.611  29.506  30.885  1.00  0.00     0.014 A 
ATOM     33  C   UNL A   1      38.052  29.989  28.589  1.00  0.00     0.014 A 
ATOM     34  C   UNL A   1      39.880  29.079  30.480  1.00  0.00     0.010 A 
ATOM     35  C   UNL A   1      39.271  29.458  28.175  1.00  0.00     0.010 A 
ATOM     36  C   UNL A   1      40.218  29.044  29.119  1.00  0.00    -0.014 A 
BRANCH  36  37
ATOM     37  C   UNL A   1      41.585  28.664  28.674  1.00  0.00     0.031 A 
ATOM     38  C   UNL A   1      42.676  29.708  28.636  1.00  0.00     0.074 A 
ATOM     39  C   UNL A   1      41.839  27.401  28.279  1.00  0.00     0.049 A 
ATOM     40  N   UNL A   1      43.919  29.589  28.244  1.00  0.00    -0.248 NA
ATOM     41  C   UNL A   1      42.319  31.073  29.064  1.00  0.00     0.031 C 
ATOM     42  C   UNL A   1      40.855  26.317  28.220  1.00  0.00     0.029 A 
ATOM     43  N   UNL A   1      43.002  26.813  27.852  1.00  0.00    -0.354 N 
ATOM     44  C   UNL A   1      44.475  30.860  28.348  1.00  0.00     0.074 A 
ATOM     45  C   UNL A   1      43.426  31.748  28.792  1.00  0.00     0.031 C 
ATOM     46  C   UNL A   1      41.463  25.192  27.812  1.00  0.00     0.029 A 
ATOM     47  C   UNL A   1      42.871  25.479  27.551  1.00  0.00     0.049 A 
ATOM     48  H   UNL A   1      43.853  27.303  27.769  1.00  0.00     0.167 HD
ATOM     49  C   UNL A   1      45.752  31.248  28.122  1.00  0.00     0.037 A 
ATOM     50  C   UNL A   1      43.782  24.588  27.116  1.00  0.00     0.037 A 
ATOM     51  C   UNL A   1      46.810  30.346  27.754  1.00  0.00     0.049 A 
ATOM     52  C   UNL A   1      45.205  25.037  26.916  1.00  0.00     0.074 A 
ATOM     53  C   UNL A   1      48.157  30.621  27.596  1.00  0.00     0.029 A 
ATOM     54  N   UNL A   1      46.642  28.994  27.497  1.00  0.00    -0.354 N 
ATOM     55  N   UNL A   1      45.727  26.228  27.096  1.00  0.00    -0.248 NA
ATOM     56  C   UNL A   1      46.167  24.022  26.462  1.00  0.00     0.031 C 
ATOM     57  C   UNL A   1      48.799  29.441  27.207  1.00  0.00     0.029 A 
ATOM     58  C   UNL A   1      47.858  28.425  27.163  1.00  0.00     0.049 A 
ATOM     59  H   UNL A   1      45.785  28.512  27.543  1.00  0.00     0.167 HD
ATOM     60  C   UNL A   1      47.081  26.096  26.809  1.00  0.00     0.074 A 
ATOM     61  C   UNL A   1      47.301  24.710  26.454  1.00  0.00     0.031 C 
ATOM     62  C   UNL A   1      48.056  27.037  26.836  1.00  0.00     0.037 A 
BRANCH  49  63
ATOM     63  C   UNL A   1      46.092  32.703  28.289  1.00  0.00     0.058 A 
ATOM     64  C   UNL A   1      46.000  33.610  27.222  1.00  0.00     0.135 A 
ATOM     65  C   UNL A   1      46.445  33.210  29.550  1.00  0.00     0.135 A 
ATOM     66  F   UNL A   1      45.685  33.176  25.991  1.00  0.00    -0.206 F 
ATOM     67  C   UNL A   1      46.254  34.966  27.395  1.00  0.00     0.059 A 
ATOM     68  C   UNL A   1      46.680  34.567  29.754  1.00  0.00     0.059 A 
ATOM     69  F   UNL A   1      46.552  32.385  30.604  1.00  0.00    -0.206 F 
ATOM     70  C   UNL A   1      46.589  35.436  28.666  1.00  0.00     0.060 A 
BRANCH  70  71
ATOM     71  S   UNL A   1      46.875  37.205  28.891  1.00  0.00     0.124 S 
ATOM     72  O   UNL A   1      46.012  37.494  30.038  1.00  0.00    -0.237 OA
ATOM     73  O   UNL A   1      48.315  37.253  29.163  1.00  0.00    -0.237 OA
ATOM     74  O   UNL A   1      46.459  37.785  27.629  1.00  0.00    -0.744 OA
ENDBRANCH  70  71
ENDBRANCH  49  63
BRANCH  50  75
ATOM     75  C   UNL A   1      43.393  23.175  26.859  1.00  0.00     0.058 A 
ATOM     76  C   UNL A   1      43.116  22.299  27.919  1.00  0.00     0.135 A 
ATOM     77  C   UNL A   1      43.314  22.667  25.553  1.00  0.00     0.135 A 
ATOM     78  F   UNL A   1      43.180  22.739  29.185  1.00  0.00    -0.206 F 
ATOM     79  C   UNL A   1      42.811  20.960  27.698  1.00  0.00     0.059 A 
ATOM     80  C   UNL A   1      42.985  21.338  25.305  1.00  0.00     0.059 A 
ATOM     81  F   UNL A   1      43.549  23.469  24.503  1.00  0.00    -0.206 F 
ATOM     82  C   UNL A   1      42.755  20.487  26.386  1.00  0.00     0.060 A 
BRANCH  82  83
ATOM     83  S   UNL A   1      42.352  18.749  26.106  1.00  0.00     0.124 S 
ATOM     84  O   UNL A   1      42.597  18.177  27.425  1.00  0.00    -0.237 OA
ATOM     85  O   UNL A   1      40.955  18.819  25.689  1.00  0.00    -0.237 OA
ATOM     86  O   UNL A   1      43.291  18.354  25.060  1.00  0.00    -0.744 OA
ENDBRANCH  82  83
ENDBRANCH  50  75
BRANCH  62  87
ATOM     87  C   UNL A   1      49.455  26.593  26.515  1.00  0.00     0.058 A 
ATOM     88  C   UNL A   1      50.311  26.091  27.506  1.00  0.00     0.135 A 
ATOM     89  C   UNL A   1      49.920  26.617  25.191  1.00  0.00     0.135 A 
ATOM     90  F   UNL A   1      49.914  26.051  28.787  1.00  0.00    -0.206 F 
ATOM     91  C   UNL A   1      51.593  25.647  27.197  1.00  0.00     0.059 A 
ATOM     92  C   UNL A   1      51.187  26.155  24.856  1.00  0.00     0.059 A 
ATOM     93  F   UNL A   1      49.132  27.077  24.206  1.00  0.00    -0.206 F 
ATOM     94  C   UNL A   1      52.021  25.682  25.869  1.00  0.00     0.060 A 
BRANCH  94  95
ATOM     95  S   UNL A   1      53.673  25.071  25.475  1.00  0.00     0.124 S 
ATOM     96  O   UNL A   1      54.424  25.469  26.661  1.00  0.00    -0.237 OA
ATOM     97  O   UNL A   1      53.449  23.637  25.317  1.00  0.00    -0.237 OA
ATOM     98  O   UNL A   1      54.014  25.784  24.246  1.00  0.00    -0.744 OA
ENDBRANCH  94  95
ENDBRANCH  62  87
ENDBRANCH  36  37
ENDBRANCH  28  31
ENDBRANCH  26  27
ENDBRANCH   1  26
TORSDOF 16
ENDMDL
MODEL 2
REMARK VINA RESULT:     -12.2      2.881      3.616
REMARK SMILES C[C@@H]1CN(C(=O)C[NH+]2CCC(CC(=O)NCCCNC(=O)c3ccc(-c4c5nc(c(-c6c(F)cc(S(=O)(=O)[O-])cc6F)c6ccc([nH]6)c(-c6c(F)cc(S(=O)(=O)[O-])cc6F)c6nc(c(-c7c(F)cc(S(=O)(=O)[O-])cc7F)c7ccc4[nH]7)C=C6)C=C5)cc3)CC2)C[C@@H](C)O1
REMARK SMILES IDX 17 1 16 2 15 3 13 4 14 5 12 7 11 8 8 9 9 10 89 11 10 13
REMARK SMILES IDX 88 14 7 15 5 16 1 17 2 18 3 19 93 20 4 21 91 22 90 23 92 24
REMARK SMILES IDX 6 25 18 26 19 27 20 28 21 30 22 31 23 32 87 33 24 34 86 35
REMARK SMILES IDX 25 36 26 37 27 38 80 39 28 40 85 41 79 42 81 43 29 44 84 45
REMARK SMILES IDX 78 46 77 47 30 49 64 50 43 51 63 52 44 53 47 54 62 55 82 56
REMARK SMILES IDX 45 57 46 58 61 60 83 61 48 62 31 63 32 64 41 65 33 66 34 67
REMARK SMILES IDX 40 68 42 69 35 70 36 71 37 72 38 73 39 74 65 75 66 76 75 77
REMARK SMILES IDX 67 78 68 79 74 80 76 81 69 82 70 83 71 84 72 85 73 86 49 87
REMARK SMILES IDX 50 88 59 89 51 90 52 91 58 92 60 93 53 94 54 95 55 96 56 97
REMARK SMILES IDX 57 98
REMARK H PARENT 15 6 8 12 19 29 81 48 47 59
REMARK Flexibility Score: inf
ROOT
ATOM      1  C   UNL A   1      33.883  28.120  26.135  1.00  0.00     0.042 C 
ENDROOT
BRANCH   1   2
ATOM      2  C   UNL A   1      33.586  29.094  25.004  1.00  0.00     0.117 C 
BRANCH   2   3
ATOM      3  N   UNL A   1      34.146  28.627  23.751  1.00  0.00    -0.356 N 
ATOM      4  C   UNL A   1      33.489  28.390  22.581  1.00  0.00     0.220 C 
ATOM      5  O   UNL A   1      34.104  27.912  21.628  1.00  0.00    -0.275 OA
ATOM      6  H   UNL A   1      35.116  28.460  23.746  1.00  0.00     0.163 HD
BRANCH   4   7
ATOM      7  C   UNL A   1      32.006  28.695  22.496  1.00  0.00     0.104 C 
BRANCH   7   8
ATOM      8  C   UNL A   1      31.161  27.412  22.623  1.00  0.00     0.009 C 
ATOM      9  N   UNL A   1      30.963  24.901  24.297  1.00  0.00    -0.327 N 
ATOM     10  C   UNL A   1      29.968  25.947  24.199  1.00  0.00     0.262 C 
ATOM     11  C   UNL A   1      31.611  24.801  22.972  1.00  0.00     0.262 C 
ATOM     12  H   UNL A   1      30.467  24.053  24.572  1.00  0.00     0.348 HD
ATOM     13  C   UNL A   1      30.625  27.308  24.034  1.00  0.00     0.066 C 
ATOM     14  C   UNL A   1      31.890  26.116  22.191  1.00  0.00     0.066 C 
BRANCH   9  15
ATOM     15  C   UNL A   1      31.981  25.038  25.367  1.00  0.00     0.363 C 
BRANCH  15  16
ATOM     16  C   UNL A   1      33.290  24.201  25.404  1.00  0.00     0.277 C 
ATOM     17  C   UNL A   1      32.302  21.006  23.383  1.00  0.00     0.040 C 
ATOM     18  C   UNL A   1      32.659  20.635  24.824  1.00  0.00     0.135 C 
ATOM     19  C   UNL A   1      32.510  21.751  25.886  1.00  0.00     0.151 C 
ATOM     20  O   UNL A   1      34.002  20.120  24.883  1.00  0.00    -0.372 OA
ATOM     21  N   UNL A   1      33.450  22.846  25.647  1.00  0.00    -0.333 N 
ATOM     22  C   UNL A   1      35.007  21.139  24.721  1.00  0.00     0.135 C 
ATOM     23  C   UNL A   1      34.820  22.314  25.703  1.00  0.00     0.151 C 
ATOM     24  C   UNL A   1      36.340  20.455  24.977  1.00  0.00     0.040 C 
ATOM     25  O   UNL A   1      34.332  24.889  25.350  1.00  0.00    -0.268 OA
ENDBRANCH  15  16
ENDBRANCH   9  15
ENDBRANCH   7   8
ENDBRANCH   4   7
ENDBRANCH   2   3
ENDBRANCH   1   2
BRANCH   1  26
ATOM     26  C   UNL A   1      33.272  28.536  27.458  1.00  0.00     0.118 C 
BRANCH  26  27
ATOM     27  N   UNL A   1      33.362  29.974  27.644  1.00  0.00    -0.352 N 
ATOM     28  C   UNL A   1      34.354  30.739  28.202  1.00  0.00     0.251 C 
ATOM     29  H   UNL A   1      32.584  30.482  27.316  1.00  0.00     0.163 HD
ATOM     30  O   UNL A   1      34.079  31.887  28.548  1.00  0.00    -0.269 OA
BRANCH  28  31
ATOM     31  C   UNL A   1      35.731  30.220  28.389  1.00  0.00     0.039 A 
ATOM     32  C   UNL A   1      36.093  29.725  29.647  1.00  0.00     0.014 A 
ATOM     33  C   UNL A   1      36.698  30.301  27.384  1.00  0.00     0.014 A 
ATOM     34  C   UNL A   1      37.407  29.311  29.887  1.00  0.00     0.010 A 
ATOM     35  C   UNL A   1      37.975  29.783  27.588  1.00  0.00     0.010 A 
ATOM     36  C   UNL A   1      38.358  29.329  28.855  1.00  0.00    -0.014 A 
BRANCH  36  37
ATOM     37  C   UNL A   1      39.777  28.964  29.109  1.00  0.00     0.031 A 
ATOM     38  C   UNL A   1      40.706  29.969  29.750  1.00  0.00     0.074 A 
ATOM     39  C   UNL A   1      40.237  27.752  28.741  1.00  0.00     0.049 A 
ATOM     40  N   UNL A   1      41.981  29.860  30.018  1.00  0.00    -0.248 NA
ATOM     41  C   UNL A   1      40.136  31.281  30.106  1.00  0.00     0.031 C 
ATOM     42  C   UNL A   1      39.452  26.716  28.065  1.00  0.00     0.029 A 
ATOM     43  N   UNL A   1      41.479  27.185  28.882  1.00  0.00    -0.354 N 
ATOM     44  C   UNL A   1      42.367  31.090  30.542  1.00  0.00     0.074 A 
ATOM     45  C   UNL A   1      41.207  31.949  30.509  1.00  0.00     0.031 C 
ATOM     46  C   UNL A   1      40.221  25.631  27.880  1.00  0.00     0.029 A 
ATOM     47  C   UNL A   1      41.561  25.903  28.394  1.00  0.00     0.049 A 
ATOM     48  H   UNL A   1      42.240  27.653  29.296  1.00  0.00     0.167 HD
ATOM     49  C   UNL A   1      43.573  31.462  31.033  1.00  0.00     0.037 A 
ATOM     50  C   UNL A   1      42.598  25.044  28.365  1.00  0.00     0.037 A 
ATOM     51  C   UNL A   1      44.703  30.579  31.134  1.00  0.00     0.049 A 
ATOM     52  C   UNL A   1      43.914  25.469  28.959  1.00  0.00     0.074 A 
ATOM     53  C   UNL A   1      45.940  30.828  31.704  1.00  0.00     0.029 A 
ATOM     54  N   UNL A   1      44.733  29.276  30.662  1.00  0.00    -0.354 N 
ATOM     55  N   UNL A   1      44.236  26.611  29.522  1.00  0.00    -0.248 NA
ATOM     56  C   UNL A   1      45.009  24.488  28.925  1.00  0.00     0.031 C 
ATOM     57  C   UNL A   1      46.730  29.685  31.545  1.00  0.00     0.029 A 
ATOM     58  C   UNL A   1      45.972  28.713  30.913  1.00  0.00     0.049 A 
ATOM     59  H   UNL A   1      43.985  28.819  30.215  1.00  0.00     0.167 HD
ATOM     60  C   UNL A   1      45.556  26.472  29.934  1.00  0.00     0.074 A 
ATOM     61  C   UNL A   1      45.971  25.134  29.568  1.00  0.00     0.031 C 
ATOM     62  C   UNL A   1      46.355  27.371  30.560  1.00  0.00     0.037 A 
BRANCH  49  63
ATOM     63  C   UNL A   1      43.734  32.873  31.525  1.00  0.00     0.058 A 
ATOM     64  C   UNL A   1      44.139  33.911  30.672  1.00  0.00     0.135 A 
ATOM     65  C   UNL A   1      43.409  33.205  32.850  1.00  0.00     0.135 A 
ATOM     66  F   UNL A   1      44.480  33.647  29.400  1.00  0.00    -0.206 F 
ATOM     67  C   UNL A   1      44.226  35.226  31.116  1.00  0.00     0.059 A 
ATOM     68  C   UNL A   1      43.465  34.518  33.311  1.00  0.00     0.059 A 
ATOM     69  F   UNL A   1      43.021  32.249  33.710  1.00  0.00    -0.206 F 
ATOM     70  C   UNL A   1      43.882  35.520  32.436  1.00  0.00     0.060 A 
BRANCH  70  71
ATOM     71  S   UNL A   1      43.956  37.237  32.992  1.00  0.00     0.124 S 
ATOM     72  O   UNL A   1      42.800  37.301  33.887  1.00  0.00    -0.237 OA
ATOM     73  O   UNL A   1      45.263  37.292  33.653  1.00  0.00    -0.237 OA
ATOM     74  O   UNL A   1      43.846  38.002  31.765  1.00  0.00    -0.744 OA
ENDBRANCH  70  71
ENDBRANCH  49  63
BRANCH  50  75
ATOM     75  C   UNL A   1      42.438  23.688  27.776  1.00  0.00     0.058 A 
ATOM     76  C   UNL A   1      42.343  22.552  28.595  1.00  0.00     0.135 A 
ATOM     77  C   UNL A   1      42.400  23.496  26.387  1.00  0.00     0.135 A 
ATOM     78  F   UNL A   1      42.375  22.685  29.930  1.00  0.00    -0.206 F 
ATOM     79  C   UNL A   1      42.255  21.272  28.060  1.00  0.00     0.059 A 
ATOM     80  C   UNL A   1      42.286  22.227  25.827  1.00  0.00     0.059 A 
ATOM     81  F   UNL A   1      42.465  24.551  25.560  1.00  0.00    -0.206 F 
ATOM     82  C   UNL A   1      42.234  21.119  26.672  1.00  0.00     0.060 A 
BRANCH  82  83
ATOM     83  S   UNL A   1      42.113  19.454  25.983  1.00  0.00     0.124 S 
ATOM     84  O   UNL A   1      42.600  18.644  27.093  1.00  0.00    -0.237 OA
ATOM     85  O   UNL A   1      40.687  19.344  25.689  1.00  0.00    -0.237 OA
ATOM     86  O   UNL A   1      42.983  19.514  24.813  1.00  0.00    -0.744 OA
ENDBRANCH  82  83
ENDBRANCH  50  75
BRANCH  62  87
ATOM     87  C   UNL A   1      47.741  26.925  30.928  1.00  0.00     0.058 A 
ATOM     88  C   UNL A   1      48.015  26.323  32.164  1.00  0.00     0.135 A 
ATOM     89  C   UNL A   1      48.794  27.051  30.007  1.00  0.00     0.135 A 
ATOM     90  F   UNL A   1      47.044  26.185  33.080  1.00  0.00    -0.206 F 
ATOM     91  C   UNL A   1      49.294  25.880  32.486  1.00  0.00     0.059 A 
ATOM     92  C   UNL A   1      50.073  26.591  30.297  1.00  0.00     0.059 A 
ATOM     93  F   UNL A   1      48.578  27.608  28.805  1.00  0.00    -0.206 F 
ATOM     94  C   UNL A   1      50.316  26.017  31.544  1.00  0.00     0.060 A 
BRANCH  94  95
ATOM     95  S   UNL A   1      51.963  25.406  31.959  1.00  0.00     0.124 S 
ATOM     96  O   UNL A   1      52.230  26.107  33.210  1.00  0.00    -0.237 OA
ATOM     97  O   UNL A   1      51.745  23.967  32.070  1.00  0.00    -0.237 OA
ATOM     98  O   UNL A   1      52.776  25.823  30.819  1.00  0.00    -0.744 OA
ENDBRANCH  94  95
ENDBRANCH  62  87
ENDBRANCH  36  37
ENDBRANCH  28  31
ENDBRANCH  26  27
ENDBRANCH   1  26
TORSDOF 16
ENDMDL
MODEL 3
REMARK VINA RESULT:     -12.2      1.004      1.916
REMARK SMILES C[C@@H]1CN(C(=O)C[NH+]2CCC(CC(=O)NCCCNC(=O)c3ccc(-c4c5nc(c(-c6c(F)cc(S(=O)(=O)[O-])cc6F)c6ccc([nH]6)c(-c6c(F)cc(S(=O)(=O)[O-])cc6F)c6nc(c(-c7c(F)cc(S(=O)(=O)[O-])cc7F)c7ccc4[nH]7)C=C6)C=C5)cc3)CC2)C[C@@H](C)O1
REMARK SMILES IDX 17 1 16 2 15 3 13 4 14 5 12 7 11 8 8 9 9 10 89 11 10 13
REMARK SMILES IDX 88 14 7 15 5 16 1 17 2 18 3 19 93 20 4 21 91 22 90 23 92 24
REMARK SMILES IDX 6 25 18 26 19 27 20 28 21 30 22 31 23 32 87 33 24 34 86 35
REMARK SMILES IDX 25 36 26 37 27 38 80 39 28 40 85 41 79 42 81 43 29 44 84 45
REMARK SMILES IDX 78 46 77 47 30 49 64 50 43 51 63 52 44 53 47 54 62 55 82 56
REMARK SMILES IDX 45 57 46 58 61 60 83 61 48 62 31 63 32 64 41 65 33 66 34 67
REMARK SMILES IDX 40 68 42 69 35 70 36 71 37 72 38 73 39 74 65 75 66 76 75 77
REMARK SMILES IDX 67 78 68 79 74 80 76 81 69 82 70 83 71 84 72 85 73 86 49 87
REMARK SMILES IDX 50 88 59 89 51 90 52 91 58 92 60 93 53 94 54 95 55 96 56 97
REMARK SMILES IDX 57 98
REMARK H PARENT 15 6 8 12 19 29 81 48 47 59
REMARK Flexibility Score: inf
ROOT
ATOM      1  C   UNL A   1      34.435  31.571  28.057  1.00  0.00     0.042 C 
ENDROOT
BRANCH   1   2
ATOM      2  C   UNL A   1      34.533  30.248  27.313  1.00  0.00     0.117 C 
BRANCH   2   3
ATOM      3  N   UNL A   1      33.451  29.357  27.682  1.00  0.00    -0.356 N 
ATOM      4  C   UNL A   1      32.220  29.256  27.106  1.00  0.00     0.220 C 
ATOM      5  O   UNL A   1      31.381  28.503  27.599  1.00  0.00    -0.275 OA
ATOM      6  H   UNL A   1      33.625  28.754  28.441  1.00  0.00     0.163 HD
BRANCH   4   7
ATOM      7  C   UNL A   1      31.908  30.102  25.887  1.00  0.00     0.104 C 
BRANCH   7   8
ATOM      8  C   UNL A   1      32.041  29.285  24.586  1.00  0.00     0.009 C 
ATOM      9  N   UNL A   1      31.344  26.570  23.452  1.00  0.00    -0.327 N 
ATOM     10  C   UNL A   1      30.839  27.846  22.993  1.00  0.00     0.262 C 
ATOM     11  C   UNL A   1      32.733  26.796  23.904  1.00  0.00     0.262 C 
ATOM     12  H   UNL A   1      31.272  25.929  22.662  1.00  0.00     0.348 HD
ATOM     13  C   UNL A   1      30.670  28.813  24.155  1.00  0.00     0.066 C 
ATOM     14  C   UNL A   1      33.052  28.115  24.663  1.00  0.00     0.066 C 
BRANCH   9  15
ATOM     15  C   UNL A   1      30.560  25.874  24.501  1.00  0.00     0.363 C 
BRANCH  15  16
ATOM     16  C   UNL A   1      31.208  24.944  25.566  1.00  0.00     0.277 C 
ATOM     17  C   UNL A   1      34.330  23.549  23.675  1.00  0.00     0.040 C 
ATOM     18  C   UNL A   1      33.376  22.409  24.041  1.00  0.00     0.135 C 
ATOM     19  C   UNL A   1      31.890  22.788  24.251  1.00  0.00     0.151 C 
ATOM     20  O   UNL A   1      33.849  21.729  25.218  1.00  0.00    -0.372 OA
ATOM     21  N   UNL A   1      31.721  23.666  25.409  1.00  0.00    -0.333 N 
ATOM     22  C   UNL A   1      33.665  22.492  26.426  1.00  0.00     0.135 C 
ATOM     23  C   UNL A   1      32.209  22.969  26.607  1.00  0.00     0.151 C 
ATOM     24  C   UNL A   1      34.056  21.567  27.568  1.00  0.00     0.040 C 
ATOM     25  O   UNL A   1      31.108  25.369  26.737  1.00  0.00    -0.268 OA
ENDBRANCH  15  16
ENDBRANCH   9  15
ENDBRANCH   7   8
ENDBRANCH   4   7
ENDBRANCH   2   3
ENDBRANCH   1   2
BRANCH   1  26
ATOM     26  C   UNL A   1      35.677  31.900  28.859  1.00  0.00     0.118 C 
BRANCH  26  27
ATOM     27  N   UNL A   1      35.617  31.302  30.182  1.00  0.00    -0.352 N 
ATOM     28  C   UNL A   1      36.450  30.396  30.788  1.00  0.00     0.251 C 
ATOM     29  H   UNL A   1      34.854  31.594  30.732  1.00  0.00     0.163 HD
ATOM     30  O   UNL A   1      36.030  29.788  31.772  1.00  0.00    -0.269 OA
BRANCH  28  31
ATOM     31  C   UNL A   1      37.824  30.143  30.291  1.00  0.00     0.039 A 
ATOM     32  C   UNL A   1      38.009  29.917  28.922  1.00  0.00     0.014 A 
ATOM     33  C   UNL A   1      38.916  30.025  31.154  1.00  0.00     0.014 A 
ATOM     34  C   UNL A   1      39.275  29.585  28.429  1.00  0.00     0.010 A 
ATOM     35  C   UNL A   1      40.196  29.808  30.650  1.00  0.00     0.010 A 
ATOM     36  C   UNL A   1      40.382  29.536  29.290  1.00  0.00    -0.014 A 
BRANCH  36  37
ATOM     37  C   UNL A   1      41.721  29.113  28.799  1.00  0.00     0.031 A 
ATOM     38  C   UNL A   1      42.842  30.122  28.719  1.00  0.00     0.074 A 
ATOM     39  C   UNL A   1      41.921  27.842  28.399  1.00  0.00     0.049 A 
ATOM     40  N   UNL A   1      44.066  29.963  28.285  1.00  0.00    -0.248 NA
ATOM     41  C   UNL A   1      42.542  31.498  29.155  1.00  0.00     0.031 C 
ATOM     42  C   UNL A   1      40.902  26.789  28.378  1.00  0.00     0.029 A 
ATOM     43  N   UNL A   1      43.050  27.217  27.934  1.00  0.00    -0.354 N 
ATOM     44  C   UNL A   1      44.664  31.217  28.366  1.00  0.00     0.074 A 
ATOM     45  C   UNL A   1      43.660  32.139  28.843  1.00  0.00     0.031 C 
ATOM     46  C   UNL A   1      41.461  25.644  27.953  1.00  0.00     0.029 A 
ATOM     47  C   UNL A   1      42.867  25.887  27.642  1.00  0.00     0.049 A 
ATOM     48  H   UNL A   1      43.913  27.679  27.820  1.00  0.00     0.167 HD
ATOM     49  C   UNL A   1      45.944  31.565  28.094  1.00  0.00     0.037 A 
ATOM     50  C   UNL A   1      43.735  24.967  27.178  1.00  0.00     0.037 A 
ATOM     51  C   UNL A   1      46.960  30.630  27.692  1.00  0.00     0.049 A 
ATOM     52  C   UNL A   1      45.163  25.371  26.928  1.00  0.00     0.074 A 
ATOM     53  C   UNL A   1      48.309  30.862  27.487  1.00  0.00     0.029 A 
ATOM     54  N   UNL A   1      46.742  29.283  27.445  1.00  0.00    -0.354 N 
ATOM     55  N   UNL A   1      45.728  26.545  27.086  1.00  0.00    -0.248 NA
ATOM     56  C   UNL A   1      46.077  24.326  26.444  1.00  0.00     0.031 C 
ATOM     57  C   UNL A   1      48.900  29.661  27.079  1.00  0.00     0.029 A 
ATOM     58  C   UNL A   1      47.927  28.675  27.072  1.00  0.00     0.049 A 
ATOM     59  H   UNL A   1      45.872  28.827  27.523  1.00  0.00     0.167 HD
ATOM     60  C   UNL A   1      47.066  26.370  26.753  1.00  0.00     0.074 A 
ATOM     61  C   UNL A   1      47.230  24.977  26.395  1.00  0.00     0.031 C 
ATOM     62  C   UNL A   1      48.071  27.280  26.742  1.00  0.00     0.037 A 
BRANCH  49  63
ATOM     63  C   UNL A   1      46.335  33.009  28.244  1.00  0.00     0.058 A 
ATOM     64  C   UNL A   1      46.859  33.512  29.445  1.00  0.00     0.135 A 
ATOM     65  C   UNL A   1      46.253  33.883  27.148  1.00  0.00     0.135 A 
ATOM     66  F   UNL A   1      46.942  32.724  30.529  1.00  0.00    -0.206 F 
ATOM     67  C   UNL A   1      47.278  34.833  29.559  1.00  0.00     0.059 A 
ATOM     68  C   UNL A   1      46.690  35.203  27.231  1.00  0.00     0.059 A 
ATOM     69  F   UNL A   1      45.756  33.455  25.977  1.00  0.00    -0.206 F 
ATOM     70  C   UNL A   1      47.194  35.670  28.445  1.00  0.00     0.060 A 
BRANCH  70  71
ATOM     71  S   UNL A   1      47.781  37.371  28.591  1.00  0.00     0.124 S 
ATOM     72  O   UNL A   1      47.043  38.025  27.508  1.00  0.00    -0.237 OA
ATOM     73  O   UNL A   1      47.352  37.731  29.946  1.00  0.00    -0.237 OA
ATOM     74  O   UNL A   1      49.213  37.260  28.399  1.00  0.00    -0.744 OA
ENDBRANCH  70  71
ENDBRANCH  49  63
BRANCH  50  75
ATOM     75  C   UNL A   1      43.293  23.566  26.940  1.00  0.00     0.058 A 
ATOM     76  C   UNL A   1      43.081  22.684  28.010  1.00  0.00     0.135 A 
ATOM     77  C   UNL A   1      43.098  23.075  25.640  1.00  0.00     0.135 A 
ATOM     78  F   UNL A   1      43.256  23.108  29.271  1.00  0.00    -0.206 F 
ATOM     79  C   UNL A   1      42.728  21.356  27.802  1.00  0.00     0.059 A 
ATOM     80  C   UNL A   1      42.719  21.757  25.406  1.00  0.00     0.059 A 
ATOM     81  F   UNL A   1      43.267  23.884  24.582  1.00  0.00    -0.206 F 
ATOM     82  C   UNL A   1      42.556  20.899  26.494  1.00  0.00     0.060 A 
BRANCH  82  83
ATOM     83  S   UNL A   1      42.092  19.174  26.230  1.00  0.00     0.124 S 
ATOM     84  O   UNL A   1      40.686  19.303  25.866  1.00  0.00    -0.237 OA
ATOM     85  O   UNL A   1      42.995  18.772  25.156  1.00  0.00    -0.237 OA
ATOM     86  O   UNL A   1      42.357  18.555  27.525  1.00  0.00    -0.744 OA
ENDBRANCH  82  83
ENDBRANCH  50  75
BRANCH  62  87
ATOM     87  C   UNL A   1      49.442  26.793  26.375  1.00  0.00     0.058 A 
ATOM     88  C   UNL A   1      50.258  26.127  27.302  1.00  0.00     0.135 A 
ATOM     89  C   UNL A   1      49.920  26.943  25.063  1.00  0.00     0.135 A 
ATOM     90  F   UNL A   1      49.848  25.964  28.569  1.00  0.00    -0.206 F 
ATOM     91  C   UNL A   1      51.514  25.646  26.946  1.00  0.00     0.059 A 
ATOM     92  C   UNL A   1      51.160  26.446  24.679  1.00  0.00     0.059 A 
ATOM     93  F   UNL A   1      49.171  27.561  24.137  1.00  0.00    -0.206 F 
ATOM     94  C   UNL A   1      51.955  25.808  25.631  1.00  0.00     0.060 A 
BRANCH  94  95
ATOM     95  S   UNL A   1      53.571  25.148  25.172  1.00  0.00     0.124 S 
ATOM     96  O   UNL A   1      53.375  23.718  25.385  1.00  0.00    -0.237 OA
ATOM     97  O   UNL A   1      53.700  25.571  23.782  1.00  0.00    -0.237 OA
ATOM     98  O   UNL A   1      54.483  25.803  26.107  1.00  0.00    -0.744 OA
ENDBRANCH  94  95
ENDBRANCH  62  87
ENDBRANCH  36  37
ENDBRANCH  28  31
ENDBRANCH  26  27
ENDBRANCH   1  26
TORSDOF 16
ENDMDL
