MODEL 1
REMARK VINA RESULT:     -12.5      0.000      0.000
REMARK SMILES C[C@H](NC(=O)CCN1C(=O)/C(=C/c2ccc([N+](=O)[O-])cc2)SC1=S)C(=O)NCCCNC(=O)c1ccc(-c2c3nc(c(-c4c(F)cc(S(=O)(=O)[O-])cc4F)c4ccc([nH]4)c(-c4c(F)cc(S(=O)(=O)[O-])cc4F)c4nc(c(-c5c(F)cc(S(=O)(=O)[O-])cc5F)c5ccc2[nH]5)C=C4)C=C3)cc1
REMARK SMILES IDX 25 1 26 2 27 3 2 5 1 6 3 7 4 8 5 10 6 11 7 12 8 13 9 14
REMARK SMILES IDX 23 15 10 16 11 17 22 18 24 19 12 20 13 21 14 22 21 23 15 24
REMARK SMILES IDX 20 25 16 26 17 27 18 28 19 29 28 30 29 31 30 32 31 33 32 34
REMARK SMILES IDX 33 36 34 37 35 38 99 39 36 40 98 41 37 42 38 43 39 44 92 45
REMARK SMILES IDX 40 46 97 47 91 48 93 49 41 50 96 51 90 52 89 53 42 55 76 56
REMARK SMILES IDX 55 57 75 58 56 59 59 60 74 61 94 62 57 63 58 64 73 66 95 67
REMARK SMILES IDX 60 68 43 69 44 70 53 71 45 72 46 73 52 74 54 75 47 76 48 77
REMARK SMILES IDX 49 78 50 79 51 80 77 81 78 82 87 83 79 84 80 85 86 86 88 87
REMARK SMILES IDX 81 88 82 89 83 90 84 91 85 92 61 93 62 94 71 95 63 96 64 97
REMARK SMILES IDX 70 98 72 99 65 100 66 101 67 102 68 103 69 104
REMARK H PARENT 27 4 3 9 31 35 93 54 59 65
REMARK Flexibility Score: inf
ROOT
ATOM      1  C   UNL A   1      33.047  30.708  26.785  1.00  0.00     0.242 C 
ATOM      2  O   UNL A   1      32.338  30.651  25.778  1.00  0.00    -0.273 OA
ATOM      3  N   UNL A   1      33.169  31.923  27.398  1.00  0.00    -0.354 N 
ATOM      4  H   UNL A   1      32.596  32.627  27.018  1.00  0.00     0.163 HD
ENDROOT
BRANCH   1   5
ATOM      5  C   UNL A   1      33.500  29.422  27.505  1.00  0.00     0.168 C 
ATOM      6  C   UNL A   1      34.686  28.965  26.679  1.00  0.00     0.041 C 
BRANCH   5   7
ATOM      7  N   UNL A   1      32.422  28.436  27.646  1.00  0.00    -0.345 N 
ATOM      8  C   UNL A   1      31.835  27.545  26.807  1.00  0.00     0.222 C 
ATOM      9  H   UNL A   1      32.038  28.416  28.551  1.00  0.00     0.164 HD
ATOM     10  O   UNL A   1      30.929  26.845  27.264  1.00  0.00    -0.275 OA
BRANCH   8  11
ATOM     11  C   UNL A   1      32.245  27.393  25.359  1.00  0.00     0.122 C 
BRANCH  11  12
ATOM     12  C   UNL A   1      31.577  26.192  24.658  1.00  0.00     0.137 C 
BRANCH  12  13
ATOM     13  N   UNL A   1      32.498  25.087  24.322  1.00  0.00    -0.292 N 
ATOM     14  C   UNL A   1      32.951  24.249  25.334  1.00  0.00     0.266 C 
ATOM     15  C   UNL A   1      32.987  24.815  23.061  1.00  0.00     0.148 C 
ATOM     16  O   UNL A   1      32.814  24.421  26.529  1.00  0.00    -0.268 OA
ATOM     17  C   UNL A   1      33.544  23.009  24.734  1.00  0.00     0.081 C 
ATOM     18  S   UNL A   1      33.840  23.269  23.070  1.00  0.00    -0.054 SA
ATOM     19  S   UNL A   1      32.814  25.717  21.667  1.00  0.00    -0.052 S 
ATOM     20  C   UNL A   1      33.542  21.887  25.473  1.00  0.00     0.029 C 
BRANCH  20  21
ATOM     21  C   UNL A   1      33.696  20.446  25.162  1.00  0.00    -0.024 A 
ATOM     22  C   UNL A   1      32.508  19.708  24.982  1.00  0.00     0.015 A 
ATOM     23  C   UNL A   1      34.910  19.795  24.911  1.00  0.00     0.015 A 
ATOM     24  C   UNL A   1      32.523  18.380  24.535  1.00  0.00     0.086 A 
ATOM     25  C   UNL A   1      34.941  18.462  24.465  1.00  0.00     0.086 A 
ATOM     26  C   UNL A   1      33.746  17.764  24.266  1.00  0.00     0.269 A 
BRANCH  26  27
ATOM     27  N   UNL A   1      33.774  16.386  23.759  1.00  0.00     0.062 N 
ATOM     28  O   UNL A   1      34.263  16.193  22.638  1.00  0.00    -0.258 OA
ATOM     29  O   UNL A   1      33.301  15.497  24.484  1.00  0.00    -0.258 OA
ENDBRANCH  26  27
ENDBRANCH  20  21
ENDBRANCH  12  13
ENDBRANCH  11  12
ENDBRANCH   8  11
ENDBRANCH   5   7
ENDBRANCH   1   5
BRANCH   3  30
ATOM     30  C   UNL A   1      33.997  32.359  28.513  1.00  0.00     0.117 C 
BRANCH  30  31
ATOM     31  C   UNL A   1      35.418  32.615  28.031  1.00  0.00     0.042 C 
BRANCH  31  32
ATOM     32  C   UNL A   1      36.442  32.483  29.150  1.00  0.00     0.118 C 
BRANCH  32  33
ATOM     33  N   UNL A   1      36.050  31.502  30.154  1.00  0.00    -0.352 N 
ATOM     34  C   UNL A   1      36.728  30.372  30.546  1.00  0.00     0.251 C 
ATOM     35  H   UNL A   1      35.192  31.669  30.608  1.00  0.00     0.163 HD
ATOM     36  O   UNL A   1      36.196  29.554  31.286  1.00  0.00    -0.269 OA
BRANCH  34  37
ATOM     37  C   UNL A   1      38.094  30.160  30.033  1.00  0.00     0.039 A 
ATOM     38  C   UNL A   1      39.160  30.115  30.931  1.00  0.00     0.014 A 
ATOM     39  C   UNL A   1      38.296  29.923  28.669  1.00  0.00     0.014 A 
ATOM     40  C   UNL A   1      40.429  29.773  30.463  1.00  0.00     0.010 A 
ATOM     41  C   UNL A   1      39.537  29.487  28.226  1.00  0.00     0.010 A 
ATOM     42  C   UNL A   1      40.620  29.420  29.115  1.00  0.00    -0.014 A 
BRANCH  42  43
ATOM     43  C   UNL A   1      41.950  28.994  28.616  1.00  0.00     0.031 A 
ATOM     44  C   UNL A   1      43.066  29.998  28.504  1.00  0.00     0.074 A 
ATOM     45  C   UNL A   1      42.134  27.720  28.216  1.00  0.00     0.049 A 
ATOM     46  N   UNL A   1      44.289  29.828  28.074  1.00  0.00    -0.248 NA
ATOM     47  C   UNL A   1      42.756  31.386  28.888  1.00  0.00     0.031 C 
ATOM     48  C   UNL A   1      41.102  26.680  28.198  1.00  0.00     0.029 A 
ATOM     49  N   UNL A   1      43.254  27.082  27.748  1.00  0.00    -0.354 N 
ATOM     50  C   UNL A   1      44.883  31.084  28.119  1.00  0.00     0.074 A 
ATOM     51  C   UNL A   1      43.869  32.019  28.551  1.00  0.00     0.031 C 
ATOM     52  C   UNL A   1      41.648  25.525  27.783  1.00  0.00     0.029 A 
ATOM     53  C   UNL A   1      43.058  25.747  27.482  1.00  0.00     0.049 A 
ATOM     54  H   UNL A   1      44.117  27.537  27.615  1.00  0.00     0.167 HD
ATOM     55  C   UNL A   1      46.168  31.423  27.859  1.00  0.00     0.037 A 
ATOM     56  C   UNL A   1      43.925  24.808  27.056  1.00  0.00     0.037 A 
ATOM     57  C   UNL A   1      47.182  30.477  27.473  1.00  0.00     0.049 A 
ATOM     58  C   UNL A   1      45.362  25.195  26.835  1.00  0.00     0.074 A 
ATOM     59  C   UNL A   1      48.528  30.698  27.250  1.00  0.00     0.029 A 
ATOM     60  N   UNL A   1      46.958  29.124  27.264  1.00  0.00    -0.354 N 
ATOM     61  N   UNL A   1      45.925  26.374  26.952  1.00  0.00    -0.248 NA
ATOM     62  C   UNL A   1      46.284  24.121  26.443  1.00  0.00     0.031 C 
ATOM     63  C   UNL A   1      49.113  29.483  26.876  1.00  0.00     0.029 A 
ATOM     64  C   UNL A   1      48.139  28.497  26.908  1.00  0.00     0.049 A 
ATOM     65  H   UNL A   1      46.086  28.675  27.355  1.00  0.00     0.167 HD
ATOM     66  C   UNL A   1      47.273  26.181  26.672  1.00  0.00     0.074 A 
ATOM     67  C   UNL A   1      47.441  24.767  26.398  1.00  0.00     0.031 C 
ATOM     68  C   UNL A   1      48.281  27.088  26.642  1.00  0.00     0.037 A 
BRANCH  55  69
ATOM     69  C   UNL A   1      46.547  32.871  28.005  1.00  0.00     0.058 A 
ATOM     70  C   UNL A   1      46.377  33.786  26.953  1.00  0.00     0.135 A 
ATOM     71  C   UNL A   1      47.073  33.356  29.213  1.00  0.00     0.135 A 
ATOM     72  F   UNL A   1      45.897  33.374  25.769  1.00  0.00    -0.206 F 
ATOM     73  C   UNL A   1      46.748  35.121  27.081  1.00  0.00     0.059 A 
ATOM     74  C   UNL A   1      47.423  34.695  29.373  1.00  0.00     0.059 A 
ATOM     75  F   UNL A   1      47.260  32.527  30.251  1.00  0.00    -0.206 F 
ATOM     76  C   UNL A   1      47.271  35.566  28.294  1.00  0.00     0.060 A 
BRANCH  76  77
ATOM     77  S   UNL A   1      47.744  37.301  28.445  1.00  0.00     0.124 S 
ATOM     78  O   UNL A   1      47.327  37.829  27.150  1.00  0.00    -0.237 OA
ATOM     79  O   UNL A   1      46.955  37.742  29.591  1.00  0.00    -0.237 OA
ATOM     80  O   UNL A   1      49.185  37.242  28.667  1.00  0.00    -0.744 OA
ENDBRANCH  76  77
ENDBRANCH  55  69
BRANCH  56  81
ATOM     81  C   UNL A   1      43.469  23.405  26.869  1.00  0.00     0.058 A 
ATOM     82  C   UNL A   1      43.325  22.861  25.583  1.00  0.00     0.135 A 
ATOM     83  C   UNL A   1      43.188  22.575  27.964  1.00  0.00     0.135 A 
ATOM     84  F   UNL A   1      43.580  23.615  24.504  1.00  0.00    -0.206 F 
ATOM     85  C   UNL A   1      42.899  21.551  25.388  1.00  0.00     0.059 A 
ATOM     86  C   UNL A   1      42.784  21.254  27.797  1.00  0.00     0.059 A 
ATOM     87  F   UNL A   1      43.331  23.041  29.215  1.00  0.00    -0.206 F 
ATOM     88  C   UNL A   1      42.633  20.754  26.504  1.00  0.00     0.060 A 
BRANCH  88  89
ATOM     89  S   UNL A   1      42.130  19.038  26.242  1.00  0.00     0.124 S 
ATOM     90  O   UNL A   1      42.415  18.447  27.544  1.00  0.00    -0.237 OA
ATOM     91  O   UNL A   1      40.718  19.180  25.901  1.00  0.00    -0.237 OA
ATOM     92  O   UNL A   1      42.990  18.602  25.148  1.00  0.00    -0.744 OA
ENDBRANCH  88  89
ENDBRANCH  56  81
BRANCH  68  93
ATOM     93  C   UNL A   1      49.656  26.568  26.333  1.00  0.00     0.058 A 
ATOM     94  C   UNL A   1      50.197  26.638  25.040  1.00  0.00     0.135 A 
ATOM     95  C   UNL A   1      50.448  26.010  27.348  1.00  0.00     0.135 A 
ATOM     96  F   UNL A   1      49.478  27.161  24.034  1.00  0.00    -0.206 F 
ATOM     97  C   UNL A   1      51.462  26.135  24.755  1.00  0.00     0.059 A 
ATOM     98  C   UNL A   1      51.727  25.526  27.093  1.00  0.00     0.059 A 
ATOM     99  F   UNL A   1      49.982  25.933  28.605  1.00  0.00    -0.206 F 
ATOM    100  C   UNL A   1      52.216  25.576  25.788  1.00  0.00     0.060 A 
BRANCH 100 101
ATOM    101  S   UNL A   1      53.857  24.924  25.409  1.00  0.00     0.124 S 
ATOM    102  O   UNL A   1      53.557  23.522  25.137  1.00  0.00    -0.237 OA
ATOM    103  O   UNL A   1      54.254  25.723  24.254  1.00  0.00    -0.237 OA
ATOM    104  O   UNL A   1      54.613  25.181  26.631  1.00  0.00    -0.744 OA
ENDBRANCH 100 101
ENDBRANCH  68  93
ENDBRANCH  42  43
ENDBRANCH  34  37
ENDBRANCH  32  33
ENDBRANCH  31  32
ENDBRANCH  30  31
ENDBRANCH   3  30
TORSDOF 19
ENDMDL
MODEL 2
REMARK VINA RESULT:     -12.4      3.116      5.467
REMARK SMILES C[C@H](NC(=O)CCN1C(=O)/C(=C/c2ccc([N+](=O)[O-])cc2)SC1=S)C(=O)NCCCNC(=O)c1ccc(-c2c3nc(c(-c4c(F)cc(S(=O)(=O)[O-])cc4F)c4ccc([nH]4)c(-c4c(F)cc(S(=O)(=O)[O-])cc4F)c4nc(c(-c5c(F)cc(S(=O)(=O)[O-])cc5F)c5ccc2[nH]5)C=C4)C=C3)cc1
REMARK SMILES IDX 25 1 26 2 27 3 2 5 1 6 3 7 4 8 5 10 6 11 7 12 8 13 9 14
REMARK SMILES IDX 23 15 10 16 11 17 22 18 24 19 12 20 13 21 14 22 21 23 15 24
REMARK SMILES IDX 20 25 16 26 17 27 18 28 19 29 28 30 29 31 30 32 31 33 32 34
REMARK SMILES IDX 33 36 34 37 35 38 99 39 36 40 98 41 37 42 38 43 39 44 92 45
REMARK SMILES IDX 40 46 97 47 91 48 93 49 41 50 96 51 90 52 89 53 42 55 76 56
REMARK SMILES IDX 55 57 75 58 56 59 59 60 74 61 94 62 57 63 58 64 73 66 95 67
REMARK SMILES IDX 60 68 43 69 44 70 53 71 45 72 46 73 52 74 54 75 47 76 48 77
REMARK SMILES IDX 49 78 50 79 51 80 77 81 78 82 87 83 79 84 80 85 86 86 88 87
REMARK SMILES IDX 81 88 82 89 83 90 84 91 85 92 61 93 62 94 71 95 63 96 64 97
REMARK SMILES IDX 70 98 72 99 65 100 66 101 67 102 68 103 69 104
REMARK H PARENT 27 4 3 9 31 35 93 54 59 65
REMARK Flexibility Score: inf
ROOT
ATOM      1  C   UNL A   1      30.822  24.342  26.634  1.00  0.00     0.242 C 
ATOM      2  O   UNL A   1      29.748  24.118  27.200  1.00  0.00    -0.273 OA
ATOM      3  N   UNL A   1      31.377  25.578  26.812  1.00  0.00    -0.354 N 
ATOM      4  H   UNL A   1      30.900  26.148  27.458  1.00  0.00     0.163 HD
ENDROOT
BRANCH   1   5
ATOM      5  C   UNL A   1      31.654  23.190  26.038  1.00  0.00     0.168 C 
ATOM      6  C   UNL A   1      30.608  22.139  25.722  1.00  0.00     0.041 C 
BRANCH   5   7
ATOM      7  N   UNL A   1      32.736  22.747  26.925  1.00  0.00    -0.345 N 
ATOM      8  C   UNL A   1      33.588  21.692  26.928  1.00  0.00     0.222 C 
ATOM      9  H   UNL A   1      32.873  23.350  27.690  1.00  0.00     0.164 HD
ATOM     10  O   UNL A   1      34.402  21.620  27.851  1.00  0.00    -0.275 OA
BRANCH   8  11
ATOM     11  C   UNL A   1      33.567  20.621  25.861  1.00  0.00     0.122 C 
BRANCH  11  12
ATOM     12  C   UNL A   1      34.555  20.887  24.707  1.00  0.00     0.137 C 
BRANCH  12  13
ATOM     13  N   UNL A   1      34.414  22.212  24.070  1.00  0.00    -0.292 N 
ATOM     14  C   UNL A   1      33.340  22.445  23.220  1.00  0.00     0.266 C 
ATOM     15  C   UNL A   1      35.290  23.267  24.225  1.00  0.00     0.148 C 
ATOM     16  O   UNL A   1      32.569  21.612  22.785  1.00  0.00    -0.268 OA
ATOM     17  C   UNL A   1      33.183  23.921  22.998  1.00  0.00     0.081 C 
ATOM     18  S   UNL A   1      34.607  24.724  23.499  1.00  0.00    -0.054 SA
ATOM     19  S   UNL A   1      36.766  23.280  25.004  1.00  0.00    -0.052 S 
ATOM     20  C   UNL A   1      31.963  24.385  22.683  1.00  0.00     0.029 C 
BRANCH  20  21
ATOM     21  C   UNL A   1      31.326  25.723  22.721  1.00  0.00    -0.024 A 
ATOM     22  C   UNL A   1      30.111  25.825  23.431  1.00  0.00     0.015 A 
ATOM     23  C   UNL A   1      31.889  26.905  22.224  1.00  0.00     0.015 A 
ATOM     24  C   UNL A   1      29.495  27.060  23.668  1.00  0.00     0.086 A 
ATOM     25  C   UNL A   1      31.280  28.151  22.452  1.00  0.00     0.086 A 
ATOM     26  C   UNL A   1      30.092  28.225  23.185  1.00  0.00     0.269 A 
BRANCH  26  27
ATOM     27  N   UNL A   1      29.477  29.530  23.462  1.00  0.00     0.062 N 
ATOM     28  O   UNL A   1      28.347  29.745  22.999  1.00  0.00    -0.258 OA
ATOM     29  O   UNL A   1      30.126  30.340  24.138  1.00  0.00    -0.258 OA
ENDBRANCH  26  27
ENDBRANCH  20  21
ENDBRANCH  12  13
ENDBRANCH  11  12
ENDBRANCH   8  11
ENDBRANCH   5   7
ENDBRANCH   1   5
BRANCH   3  30
ATOM     30  C   UNL A   1      32.549  26.200  26.214  1.00  0.00     0.117 C 
BRANCH  30  31
ATOM     31  C   UNL A   1      32.498  27.708  26.425  1.00  0.00     0.042 C 
BRANCH  31  32
ATOM     32  C   UNL A   1      33.745  28.238  27.120  1.00  0.00     0.118 C 
BRANCH  32  33
ATOM     33  N   UNL A   1      33.607  29.629  27.533  1.00  0.00    -0.352 N 
ATOM     34  C   UNL A   1      34.540  30.426  28.152  1.00  0.00     0.251 C 
ATOM     35  H   UNL A   1      32.737  30.050  27.344  1.00  0.00     0.163 HD
ATOM     36  O   UNL A   1      34.225  31.527  28.587  1.00  0.00    -0.269 OA
BRANCH  34  37
ATOM     37  C   UNL A   1      35.914  29.911  28.303  1.00  0.00     0.039 A 
ATOM     38  C   UNL A   1      36.807  30.033  27.239  1.00  0.00     0.014 A 
ATOM     39  C   UNL A   1      36.329  29.386  29.530  1.00  0.00     0.014 A 
ATOM     40  C   UNL A   1      38.143  29.678  27.429  1.00  0.00     0.010 A 
ATOM     41  C   UNL A   1      37.676  29.128  29.744  1.00  0.00     0.010 A 
ATOM     42  C   UNL A   1      38.595  29.258  28.693  1.00  0.00    -0.014 A 
BRANCH  42  43
ATOM     43  C   UNL A   1      40.024  28.936  28.926  1.00  0.00     0.031 A 
ATOM     44  C   UNL A   1      40.939  29.973  29.522  1.00  0.00     0.074 A 
ATOM     45  C   UNL A   1      40.506  27.735  28.550  1.00  0.00     0.049 A 
ATOM     46  N   UNL A   1      42.217  29.893  29.783  1.00  0.00    -0.248 NA
ATOM     47  C   UNL A   1      40.348  31.287  29.830  1.00  0.00     0.031 C 
ATOM     48  C   UNL A   1      39.733  26.683  27.884  1.00  0.00     0.029 A 
ATOM     49  N   UNL A   1      41.759  27.194  28.676  1.00  0.00    -0.354 N 
ATOM     50  C   UNL A   1      42.584  31.144  30.264  1.00  0.00     0.074 A 
ATOM     51  C   UNL A   1      41.411  31.986  30.195  1.00  0.00     0.031 C 
ATOM     52  C   UNL A   1      40.519  25.610  27.698  1.00  0.00     0.029 A 
ATOM     53  C   UNL A   1      41.854  25.905  28.207  1.00  0.00     0.049 A 
ATOM     54  H   UNL A   1      42.521  27.683  29.064  1.00  0.00     0.167 HD
ATOM     55  C   UNL A   1      43.780  31.546  30.755  1.00  0.00     0.037 A 
ATOM     56  C   UNL A   1      42.899  25.054  28.204  1.00  0.00     0.037 A 
ATOM     57  C   UNL A   1      44.930  30.687  30.861  1.00  0.00     0.049 A 
ATOM     58  C   UNL A   1      44.199  25.502  28.812  1.00  0.00     0.074 A 
ATOM     59  C   UNL A   1      46.170  30.968  31.403  1.00  0.00     0.029 A 
ATOM     60  N   UNL A   1      44.972  29.370  30.425  1.00  0.00    -0.354 N 
ATOM     61  N   UNL A   1      44.509  26.667  29.330  1.00  0.00    -0.248 NA
ATOM     62  C   UNL A   1      45.286  24.514  28.852  1.00  0.00     0.031 C 
ATOM     63  C   UNL A   1      46.974  29.830  31.267  1.00  0.00     0.029 A 
ATOM     64  C   UNL A   1      46.220  28.827  30.679  1.00  0.00     0.049 A 
ATOM     65  H   UNL A   1      44.225  28.893  29.997  1.00  0.00     0.167 HD
ATOM     66  C   UNL A   1      45.819  26.546  29.781  1.00  0.00     0.074 A 
ATOM     67  C   UNL A   1      46.234  25.188  29.489  1.00  0.00     0.031 C 
ATOM     68  C   UNL A   1      46.608  27.472  30.380  1.00  0.00     0.037 A 
BRANCH  55  69
ATOM     69  C   UNL A   1      43.893  32.969  31.230  1.00  0.00     0.058 A 
ATOM     70  C   UNL A   1      43.519  33.342  32.531  1.00  0.00     0.135 A 
ATOM     71  C   UNL A   1      44.393  33.970  30.382  1.00  0.00     0.135 A 
ATOM     72  F   UNL A   1      43.016  32.430  33.378  1.00  0.00    -0.206 F 
ATOM     73  C   UNL A   1      43.603  34.662  32.964  1.00  0.00     0.059 A 
ATOM     74  C   UNL A   1      44.513  35.292  30.804  1.00  0.00     0.059 A 
ATOM     75  F   UNL A   1      44.763  33.672  29.127  1.00  0.00    -0.206 F 
ATOM     76  C   UNL A   1      44.100  35.630  32.092  1.00  0.00     0.060 A 
BRANCH  76  77
ATOM     77  S   UNL A   1      44.205  37.337  32.669  1.00  0.00     0.124 S 
ATOM     78  O   UNL A   1      43.906  38.076  31.447  1.00  0.00    -0.237 OA
ATOM     79  O   UNL A   1      43.176  37.381  33.704  1.00  0.00    -0.237 OA
ATOM     80  O   UNL A   1      45.578  37.448  33.151  1.00  0.00    -0.744 OA
ENDBRANCH  76  77
ENDBRANCH  55  69
BRANCH  56  81
ATOM     81  C   UNL A   1      42.737  23.680  27.659  1.00  0.00     0.058 A 
ATOM     82  C   UNL A   1      42.372  22.613  28.496  1.00  0.00     0.135 A 
ATOM     83  C   UNL A   1      42.922  23.407  26.297  1.00  0.00     0.135 A 
ATOM     84  F   UNL A   1      42.186  22.823  29.807  1.00  0.00    -0.206 F 
ATOM     85  C   UNL A   1      42.216  21.321  28.005  1.00  0.00     0.059 A 
ATOM     86  C   UNL A   1      42.748  22.128  25.776  1.00  0.00     0.059 A 
ATOM     87  F   UNL A   1      43.250  24.396  25.451  1.00  0.00    -0.206 F 
ATOM     88  C   UNL A   1      42.405  21.088  26.641  1.00  0.00     0.060 A 
BRANCH  88  89
ATOM     89  S   UNL A   1      42.151  19.417  26.003  1.00  0.00     0.124 S 
ATOM     90  O   UNL A   1      40.698  19.365  25.890  1.00  0.00    -0.237 OA
ATOM     91  O   UNL A   1      42.888  19.454  24.743  1.00  0.00    -0.237 OA
ATOM     92  O   UNL A   1      42.736  18.572  27.038  1.00  0.00    -0.744 OA
ENDBRANCH  88  89
ENDBRANCH  56  81
BRANCH  68  93
ATOM     93  C   UNL A   1      47.986  27.032  30.786  1.00  0.00     0.058 A 
ATOM     94  C   UNL A   1      49.093  27.206  29.942  1.00  0.00     0.135 A 
ATOM     95  C   UNL A   1      48.202  26.448  32.044  1.00  0.00     0.135 A 
ATOM     96  F   UNL A   1      48.938  27.758  28.728  1.00  0.00    -0.206 F 
ATOM     97  C   UNL A   1      50.363  26.777  30.314  1.00  0.00     0.059 A 
ATOM     98  C   UNL A   1      49.468  26.037  32.449  1.00  0.00     0.059 A 
ATOM     99  F   UNL A   1      47.178  26.273  32.894  1.00  0.00    -0.206 F 
ATOM    100  C   UNL A   1      50.539  26.188  31.568  1.00  0.00     0.060 A 
BRANCH 100 101
ATOM    101  S   UNL A   1      52.189  25.634  32.043  1.00  0.00     0.124 S 
ATOM    102  O   UNL A   1      51.959  24.214  32.292  1.00  0.00    -0.237 OA
ATOM    103  O   UNL A   1      52.980  25.949  30.858  1.00  0.00    -0.237 OA
ATOM    104  O   UNL A   1      52.491  26.438  33.222  1.00  0.00    -0.744 OA
ENDBRANCH 100 101
ENDBRANCH  68  93
ENDBRANCH  42  43
ENDBRANCH  34  37
ENDBRANCH  32  33
ENDBRANCH  31  32
ENDBRANCH  30  31
ENDBRANCH   3  30
TORSDOF 19
ENDMDL
MODEL 3
REMARK VINA RESULT:     -12.3      5.106      7.493
REMARK SMILES C[C@H](NC(=O)CCN1C(=O)/C(=C/c2ccc([N+](=O)[O-])cc2)SC1=S)C(=O)NCCCNC(=O)c1ccc(-c2c3nc(c(-c4c(F)cc(S(=O)(=O)[O-])cc4F)c4ccc([nH]4)c(-c4c(F)cc(S(=O)(=O)[O-])cc4F)c4nc(c(-c5c(F)cc(S(=O)(=O)[O-])cc5F)c5ccc2[nH]5)C=C4)C=C3)cc1
REMARK SMILES IDX 25 1 26 2 27 3 2 5 1 6 3 7 4 8 5 10 6 11 7 12 8 13 9 14
REMARK SMILES IDX 23 15 10 16 11 17 22 18 24 19 12 20 13 21 14 22 21 23 15 24
REMARK SMILES IDX 20 25 16 26 17 27 18 28 19 29 28 30 29 31 30 32 31 33 32 34
REMARK SMILES IDX 33 36 34 37 35 38 99 39 36 40 98 41 37 42 38 43 39 44 92 45
REMARK SMILES IDX 40 46 97 47 91 48 93 49 41 50 96 51 90 52 89 53 42 55 76 56
REMARK SMILES IDX 55 57 75 58 56 59 59 60 74 61 94 62 57 63 58 64 73 66 95 67
REMARK SMILES IDX 60 68 43 69 44 70 53 71 45 72 46 73 52 74 54 75 47 76 48 77
REMARK SMILES IDX 49 78 50 79 51 80 77 81 78 82 87 83 79 84 80 85 86 86 88 87
REMARK SMILES IDX 81 88 82 89 83 90 84 91 85 92 61 93 62 94 71 95 63 96 64 97
REMARK SMILES IDX 70 98 72 99 65 100 66 101 67 102 68 103 69 104
REMARK H PARENT 27 4 3 9 31 35 93 54 59 65
REMARK Flexibility Score: inf
ROOT
ATOM      1  C   UNL A   1      30.843  24.323  26.655  1.00  0.00     0.242 C 
ATOM      2  O   UNL A   1      29.790  24.082  27.251  1.00  0.00    -0.273 OA
ATOM      3  N   UNL A   1      31.390  25.563  26.826  1.00  0.00    -0.354 N 
ATOM      4  H   UNL A   1      30.927  26.122  27.491  1.00  0.00     0.163 HD
ENDROOT
BRANCH   1   5
ATOM      5  C   UNL A   1      31.669  23.185  26.023  1.00  0.00     0.168 C 
ATOM      6  C   UNL A   1      30.616  22.153  25.667  1.00  0.00     0.041 C 
BRANCH   5   7
ATOM      7  N   UNL A   1      32.743  22.703  26.900  1.00  0.00    -0.345 N 
ATOM      8  C   UNL A   1      33.598  21.651  26.861  1.00  0.00     0.222 C 
ATOM      9  H   UNL A   1      32.871  23.270  27.693  1.00  0.00     0.164 HD
ATOM     10  O   UNL A   1      34.403  21.538  27.789  1.00  0.00    -0.275 OA
BRANCH   8  11
ATOM     11  C   UNL A   1      33.590  20.631  25.745  1.00  0.00     0.122 C 
BRANCH  11  12
ATOM     12  C   UNL A   1      34.614  20.934  24.633  1.00  0.00     0.137 C 
BRANCH  12  13
ATOM     13  N   UNL A   1      34.479  22.272  24.021  1.00  0.00    -0.292 N 
ATOM     14  C   UNL A   1      33.413  22.522  23.165  1.00  0.00     0.266 C 
ATOM     15  C   UNL A   1      35.353  23.324  24.205  1.00  0.00     0.148 C 
ATOM     16  O   UNL A   1      32.646  21.697  22.707  1.00  0.00    -0.268 OA
ATOM     17  C   UNL A   1      33.258  24.001  22.971  1.00  0.00     0.081 C 
ATOM     18  S   UNL A   1      34.677  24.794  23.501  1.00  0.00    -0.054 SA
ATOM     19  S   UNL A   1      36.822  23.320  24.997  1.00  0.00    -0.052 S 
ATOM     20  C   UNL A   1      32.041  24.472  22.653  1.00  0.00     0.029 C 
BRANCH  20  21
ATOM     21  C   UNL A   1      31.403  25.809  22.712  1.00  0.00    -0.024 A 
ATOM     22  C   UNL A   1      30.172  25.893  23.395  1.00  0.00     0.015 A 
ATOM     23  C   UNL A   1      31.978  27.003  22.260  1.00  0.00     0.015 A 
ATOM     24  C   UNL A   1      29.551  27.122  23.651  1.00  0.00     0.086 A 
ATOM     25  C   UNL A   1      31.365  28.243  22.507  1.00  0.00     0.086 A 
ATOM     26  C   UNL A   1      30.159  28.299  23.213  1.00  0.00     0.269 A 
BRANCH  26  27
ATOM     27  N   UNL A   1      29.538  29.596  23.510  1.00  0.00     0.062 N 
ATOM     28  O   UNL A   1      28.435  29.838  22.998  1.00  0.00    -0.258 OA
ATOM     29  O   UNL A   1      30.156  30.374  24.251  1.00  0.00    -0.258 OA
ENDBRANCH  26  27
ENDBRANCH  20  21
ENDBRANCH  12  13
ENDBRANCH  11  12
ENDBRANCH   8  11
ENDBRANCH   5   7
ENDBRANCH   1   5
BRANCH   3  30
ATOM     30  C   UNL A   1      32.537  26.202  26.197  1.00  0.00     0.117 C 
BRANCH  30  31
ATOM     31  C   UNL A   1      32.391  27.716  26.277  1.00  0.00     0.042 C 
BRANCH  31  32
ATOM     32  C   UNL A   1      33.733  28.420  26.424  1.00  0.00     0.118 C 
BRANCH  32  33
ATOM     33  N   UNL A   1      33.593  29.859  26.613  1.00  0.00    -0.352 N 
ATOM     34  C   UNL A   1      34.379  30.695  27.370  1.00  0.00     0.251 C 
ATOM     35  H   UNL A   1      32.842  30.285  26.139  1.00  0.00     0.163 HD
ATOM     36  O   UNL A   1      34.041  31.856  27.565  1.00  0.00    -0.269 OA
BRANCH  34  37
ATOM     37  C   UNL A   1      35.617  30.152  27.960  1.00  0.00     0.039 A 
ATOM     38  C   UNL A   1      36.813  30.258  27.251  1.00  0.00     0.014 A 
ATOM     39  C   UNL A   1      35.594  29.615  29.251  1.00  0.00     0.014 A 
ATOM     40  C   UNL A   1      38.004  29.875  27.867  1.00  0.00     0.010 A 
ATOM     41  C   UNL A   1      36.791  29.328  29.894  1.00  0.00     0.010 A 
ATOM     42  C   UNL A   1      38.007  29.442  29.206  1.00  0.00    -0.014 A 
BRANCH  42  43
ATOM     43  C   UNL A   1      39.273  29.091  29.894  1.00  0.00     0.031 A 
ATOM     44  C   UNL A   1      39.674  29.822  31.147  1.00  0.00     0.074 A 
ATOM     45  C   UNL A   1      40.083  28.155  29.359  1.00  0.00     0.049 A 
ATOM     46  N   UNL A   1      40.747  29.676  31.879  1.00  0.00    -0.248 NA
ATOM     47  C   UNL A   1      38.770  30.885  31.618  1.00  0.00     0.031 C 
ATOM     48  C   UNL A   1      39.841  27.442  28.102  1.00  0.00     0.029 A 
ATOM     49  N   UNL A   1      41.274  27.642  29.805  1.00  0.00    -0.354 N 
ATOM     50  C   UNL A   1      40.654  30.636  32.881  1.00  0.00     0.074 A 
ATOM     51  C   UNL A   1      39.457  31.404  32.623  1.00  0.00     0.031 C 
ATOM     52  C   UNL A   1      40.829  26.555  27.902  1.00  0.00     0.029 A 
ATOM     53  C   UNL A   1      41.786  26.654  28.998  1.00  0.00     0.049 A 
ATOM     54  H   UNL A   1      41.720  27.952  30.626  1.00  0.00     0.167 HD
ATOM     55  C   UNL A   1      41.473  30.837  33.941  1.00  0.00     0.037 A 
ATOM     56  C   UNL A   1      42.896  25.903  29.138  1.00  0.00     0.037 A 
ATOM     57  C   UNL A   1      42.638  30.037  34.213  1.00  0.00     0.049 A 
ATOM     58  C   UNL A   1      43.755  26.101  30.356  1.00  0.00     0.074 A 
ATOM     59  C   UNL A   1      43.500  30.107  35.292  1.00  0.00     0.029 A 
ATOM     60  N   UNL A   1      43.096  29.010  33.401  1.00  0.00    -0.354 N 
ATOM     61  N   UNL A   1      43.614  26.966  31.333  1.00  0.00    -0.248 NA
ATOM     62  C   UNL A   1      44.914  25.209  30.501  1.00  0.00     0.031 C 
ATOM     63  C   UNL A   1      44.497  29.142  35.117  1.00  0.00     0.029 A 
ATOM     64  C   UNL A   1      44.233  28.442  33.950  1.00  0.00     0.049 A 
ATOM     65  H   UNL A   1      42.675  28.726  32.557  1.00  0.00     0.167 HD
ATOM     66  C   UNL A   1      44.651  26.707  32.222  1.00  0.00     0.074 A 
ATOM     67  C   UNL A   1      45.400  25.593  31.674  1.00  0.00     0.031 C 
ATOM     68  C   UNL A   1      44.959  27.332  33.386  1.00  0.00     0.037 A 
BRANCH  55  69
ATOM     69  C   UNL A   1      41.120  31.950  34.889  1.00  0.00     0.058 A 
ATOM     70  C   UNL A   1      40.230  31.751  35.957  1.00  0.00     0.135 A 
ATOM     71  C   UNL A   1      41.686  33.226  34.739  1.00  0.00     0.135 A 
ATOM     72  F   UNL A   1      39.643  30.557  36.137  1.00  0.00    -0.206 F 
ATOM     73  C   UNL A   1      39.887  32.786  36.821  1.00  0.00     0.059 A 
ATOM     74  C   UNL A   1      41.380  34.268  35.611  1.00  0.00     0.059 A 
ATOM     75  F   UNL A   1      42.541  33.473  33.734  1.00  0.00    -0.206 F 
ATOM     76  C   UNL A   1      40.466  34.042  36.639  1.00  0.00     0.060 A 
BRANCH  76  77
ATOM     77  S   UNL A   1      40.013  35.373  37.771  1.00  0.00     0.124 S 
ATOM     78  O   UNL A   1      41.255  35.558  38.514  1.00  0.00    -0.237 OA
ATOM     79  O   UNL A   1      39.655  36.453  36.856  1.00  0.00    -0.237 OA
ATOM     80  O   UNL A   1      38.903  34.808  38.531  1.00  0.00    -0.744 OA
ENDBRANCH  76  77
ENDBRANCH  55  69
BRANCH  56  81
ATOM     81  C   UNL A   1      43.222  24.861  28.128  1.00  0.00     0.058 A 
ATOM     82  C   UNL A   1      43.888  25.197  26.938  1.00  0.00     0.135 A 
ATOM     83  C   UNL A   1      42.896  23.514  28.335  1.00  0.00     0.135 A 
ATOM     84  F   UNL A   1      44.219  26.473  26.693  1.00  0.00    -0.206 F 
ATOM     85  C   UNL A   1      44.201  24.236  25.981  1.00  0.00     0.059 A 
ATOM     86  C   UNL A   1      43.219  22.530  27.405  1.00  0.00     0.059 A 
ATOM     87  F   UNL A   1      42.278  23.138  29.466  1.00  0.00    -0.206 F 
ATOM     88  C   UNL A   1      43.863  22.904  26.226  1.00  0.00     0.060 A 
BRANCH  88  89
ATOM     89  S   UNL A   1      44.319  21.656  25.001  1.00  0.00     0.124 S 
ATOM     90  O   UNL A   1      45.694  21.359  25.383  1.00  0.00    -0.237 OA
ATOM     91  O   UNL A   1      43.343  20.601  25.259  1.00  0.00    -0.237 OA
ATOM     92  O   UNL A   1      44.152  22.357  23.733  1.00  0.00    -0.744 OA
ENDBRANCH  88  89
ENDBRANCH  56  81
BRANCH  68  93
ATOM     93  C   UNL A   1      46.135  26.802  34.154  1.00  0.00     0.058 A 
ATOM     94  C   UNL A   1      47.431  27.302  33.954  1.00  0.00     0.135 A 
ATOM     95  C   UNL A   1      45.959  25.795  35.115  1.00  0.00     0.135 A 
ATOM     96  F   UNL A   1      47.652  28.263  33.044  1.00  0.00    -0.206 F 
ATOM     97  C   UNL A   1      48.521  26.791  34.652  1.00  0.00     0.059 A 
ATOM     98  C   UNL A   1      47.029  25.289  35.845  1.00  0.00     0.059 A 
ATOM     99  F   UNL A   1      44.736  25.294  35.354  1.00  0.00    -0.206 F 
ATOM    100  C   UNL A   1      48.310  25.780  35.592  1.00  0.00     0.060 A 
BRANCH 100 101
ATOM    101  S   UNL A   1      49.729  25.123  36.493  1.00  0.00     0.124 S 
ATOM    102  O   UNL A   1      49.383  25.465  37.869  1.00  0.00    -0.237 OA
ATOM    103  O   UNL A   1      49.681  23.703  36.162  1.00  0.00    -0.237 OA
ATOM    104  O   UNL A   1      50.858  25.855  35.928  1.00  0.00    -0.744 OA
ENDBRANCH 100 101
ENDBRANCH  68  93
ENDBRANCH  42  43
ENDBRANCH  34  37
ENDBRANCH  32  33
ENDBRANCH  31  32
ENDBRANCH  30  31
ENDBRANCH   3  30
TORSDOF 19
ENDMDL
