MODEL 1
REMARK VINA RESULT:     -11.0      0.000      0.000
REMARK SMILES C[C@@H]1[C@@H](C(=O)NCCCNC(=O)c2ccc(-c3c4nc(c(-c5c(F)cc(S(=O)(=O)[O-])cc5F)c5ccc([nH]5)c(-c5c(F)cc(S(=O)(=O)[O-])cc5F)c5nc(c(-c6c(F)cc(S(=O)(=O)[O-])cc6F)c6ccc3[nH]6)C=C5)C=C4)cc2)CCN1C(=O)N(C)Cc1ccsc1
REMARK SMILES IDX 7 1 6 2 4 3 5 4 3 6 1 7 2 8 81 9 79 10 80 11 82 12 83 13
REMARK SMILES IDX 84 14 85 15 86 16 87 17 88 18 91 19 89 20 90 21 8 22 9 23
REMARK SMILES IDX 10 24 11 25 12 27 13 28 14 29 78 30 15 31 77 32 16 33 17 34
REMARK SMILES IDX 18 35 71 36 19 37 76 38 70 39 72 40 20 41 75 42 69 43 68 44
REMARK SMILES IDX 21 46 55 47 34 48 54 49 35 50 38 51 53 52 73 53 36 54 37 55
REMARK SMILES IDX 52 57 74 58 39 59 22 60 23 61 32 62 24 63 25 64 31 65 33 66
REMARK SMILES IDX 26 67 27 68 28 69 29 70 30 71 56 72 57 73 66 74 58 75 59 76
REMARK SMILES IDX 65 77 67 78 60 79 61 80 62 81 63 82 64 83 40 84 41 85 50 86
REMARK SMILES IDX 42 87 43 88 49 89 51 90 44 91 45 92 46 93 47 94 48 95
REMARK H PARENT 6 5 10 26 72 45 38 56
REMARK Flexibility Score: inf
ROOT
ATOM      1  C   UNL A   1      40.120  21.855  26.583  1.00  0.00     0.117 C 
ENDROOT
BRANCH   1   2
ATOM      2  N   UNL A   1      39.056  22.797  26.873  1.00  0.00    -0.356 N 
ATOM      3  C   UNL A   1      37.943  23.110  26.158  1.00  0.00     0.225 C 
ATOM      4  O   UNL A   1      37.217  23.992  26.618  1.00  0.00    -0.275 OA
ATOM      5  H   UNL A   1      39.156  23.287  27.721  1.00  0.00     0.163 HD
BRANCH   3   6
ATOM      6  C   UNL A   1      37.682  22.436  24.815  1.00  0.00     0.102 C 
ATOM      7  C   UNL A   1      36.447  22.877  22.649  1.00  0.00     0.032 C 
ATOM      8  C   UNL A   1      36.382  22.990  24.178  1.00  0.00     0.096 C 
ATOM      9  N   UNL A   1      35.320  22.142  24.745  1.00  0.00    -0.321 N 
ATOM     10  C   UNL A   1      37.361  20.945  24.923  1.00  0.00     0.037 C 
ATOM     11  C   UNL A   1      35.906  20.946  25.333  1.00  0.00     0.122 C 
BRANCH   9  12
ATOM     12  C   UNL A   1      33.982  22.309  24.969  1.00  0.00     0.320 C 
ATOM     13  O   UNL A   1      33.628  22.691  26.095  1.00  0.00    -0.248 OA
BRANCH  12  14
ATOM     14  N   UNL A   1      33.016  22.005  24.039  1.00  0.00    -0.323 N 
ATOM     15  C   UNL A   1      32.812  22.472  22.679  1.00  0.00     0.149 C 
BRANCH  14  16
ATOM     16  C   UNL A   1      31.995  21.062  24.498  1.00  0.00     0.157 C 
BRANCH  16  17
ATOM     17  C   UNL A   1      32.441  19.621  24.360  1.00  0.00    -0.018 A 
ATOM     18  C   UNL A   1      32.856  18.824  25.483  1.00  0.00     0.017 A 
ATOM     19  C   UNL A   1      32.565  18.891  23.189  1.00  0.00     0.070 A 
ATOM     20  C   UNL A   1      33.281  17.566  25.121  1.00  0.00     0.065 A 
ATOM     21  S   UNL A   1      33.171  17.313  23.437  1.00  0.00    -0.152 S 
ENDBRANCH  16  17
ENDBRANCH  14  16
ENDBRANCH  12  14
ENDBRANCH   9  12
ENDBRANCH   3   6
ENDBRANCH   1   2
BRANCH   1  22
ATOM     22  C   UNL A   1      41.156  21.777  27.689  1.00  0.00     0.042 C 
BRANCH  22  23
ATOM     23  C   UNL A   1      42.092  22.973  27.765  1.00  0.00     0.118 C 
BRANCH  23  24
ATOM     24  N   UNL A   1      42.316  23.618  26.479  1.00  0.00    -0.352 N 
ATOM     25  C   UNL A   1      42.140  24.931  26.100  1.00  0.00     0.251 C 
ATOM     26  H   UNL A   1      42.645  23.023  25.767  1.00  0.00     0.163 HD
ATOM     27  O   UNL A   1      42.247  25.242  24.921  1.00  0.00    -0.269 OA
BRANCH  25  28
ATOM     28  C   UNL A   1      41.781  25.952  27.112  1.00  0.00     0.039 A 
ATOM     29  C   UNL A   1      40.744  25.684  28.007  1.00  0.00     0.014 A 
ATOM     30  C   UNL A   1      42.477  27.158  27.194  1.00  0.00     0.014 A 
ATOM     31  C   UNL A   1      40.472  26.583  29.042  1.00  0.00     0.010 A 
ATOM     32  C   UNL A   1      42.285  27.993  28.288  1.00  0.00     0.010 A 
ATOM     33  C   UNL A   1      41.277  27.720  29.224  1.00  0.00    -0.014 A 
BRANCH  33  34
ATOM     34  C   UNL A   1      41.082  28.642  30.373  1.00  0.00     0.031 A 
ATOM     35  C   UNL A   1      41.947  28.510  31.600  1.00  0.00     0.074 A 
ATOM     36  C   UNL A   1      40.078  29.543  30.349  1.00  0.00     0.049 A 
ATOM     37  N   UNL A   1      41.865  29.142  32.741  1.00  0.00    -0.248 NA
ATOM     38  C   UNL A   1      43.023  27.506  31.548  1.00  0.00     0.031 C 
ATOM     39  C   UNL A   1      39.133  29.732  29.245  1.00  0.00     0.029 A 
ATOM     40  N   UNL A   1      39.676  30.462  31.285  1.00  0.00    -0.354 N 
ATOM     41  C   UNL A   1      42.859  28.599  33.547  1.00  0.00     0.074 A 
ATOM     42  C   UNL A   1      43.490  27.544  32.787  1.00  0.00     0.031 C 
ATOM     43  C   UNL A   1      38.284  30.725  29.555  1.00  0.00     0.029 A 
ATOM     44  C   UNL A   1      38.593  31.215  30.894  1.00  0.00     0.049 A 
ATOM     45  H   UNL A   1      40.121  30.572  32.157  1.00  0.00     0.167 HD
ATOM     46  C   UNL A   1      43.234  28.966  34.796  1.00  0.00     0.037 A 
ATOM     47  C   UNL A   1      37.922  32.186  31.542  1.00  0.00     0.037 A 
ATOM     48  C   UNL A   1      42.630  30.045  35.531  1.00  0.00     0.049 A 
ATOM     49  C   UNL A   1      38.365  32.588  32.923  1.00  0.00     0.074 A 
ATOM     50  C   UNL A   1      42.978  30.537  36.778  1.00  0.00     0.029 A 
ATOM     51  N   UNL A   1      41.558  30.805  35.086  1.00  0.00    -0.354 N 
ATOM     52  N   UNL A   1      39.344  32.100  33.647  1.00  0.00    -0.248 NA
ATOM     53  C   UNL A   1      37.619  33.673  33.573  1.00  0.00     0.031 C 
ATOM     54  C   UNL A   1      42.092  31.570  37.102  1.00  0.00     0.029 A 
ATOM     55  C   UNL A   1      41.223  31.753  36.038  1.00  0.00     0.049 A 
ATOM     56  H   UNL A   1      41.104  30.688  34.221  1.00  0.00     0.167 HD
ATOM     57  C   UNL A   1      39.349  32.838  34.826  1.00  0.00     0.074 A 
ATOM     58  C   UNL A   1      38.282  33.811  34.712  1.00  0.00     0.031 C 
ATOM     59  C   UNL A   1      40.163  32.721  35.903  1.00  0.00     0.037 A 
BRANCH  46  60
ATOM     60  C   UNL A   1      44.358  28.201  35.438  1.00  0.00     0.058 A 
ATOM     61  C   UNL A   1      44.119  27.066  36.230  1.00  0.00     0.135 A 
ATOM     62  C   UNL A   1      45.694  28.591  35.241  1.00  0.00     0.135 A 
ATOM     63  F   UNL A   1      42.861  26.659  36.466  1.00  0.00    -0.206 F 
ATOM     64  C   UNL A   1      45.159  26.363  36.829  1.00  0.00     0.059 A 
ATOM     65  C   UNL A   1      46.752  27.884  35.806  1.00  0.00     0.059 A 
ATOM     66  F   UNL A   1      45.980  29.669  34.494  1.00  0.00    -0.206 F 
ATOM     67  C   UNL A   1      46.473  26.782  36.612  1.00  0.00     0.060 A 
BRANCH  67  68
ATOM     68  S   UNL A   1      47.811  25.857  37.394  1.00  0.00     0.124 S 
ATOM     69  O   UNL A   1      48.176  26.747  38.492  1.00  0.00    -0.237 OA
ATOM     70  O   UNL A   1      47.149  24.615  37.780  1.00  0.00    -0.237 OA
ATOM     71  O   UNL A   1      48.804  25.731  36.332  1.00  0.00    -0.744 OA
ENDBRANCH  67  68
ENDBRANCH  46  60
BRANCH  47  72
ATOM     72  C   UNL A   1      36.777  32.869  30.881  1.00  0.00     0.058 A 
ATOM     73  C   UNL A   1      35.454  32.514  31.188  1.00  0.00     0.135 A 
ATOM     74  C   UNL A   1      36.978  33.892  29.942  1.00  0.00     0.135 A 
ATOM     75  F   UNL A   1      35.211  31.538  32.074  1.00  0.00    -0.206 F 
ATOM     76  C   UNL A   1      34.371  33.139  30.577  1.00  0.00     0.059 A 
ATOM     77  C   UNL A   1      35.911  34.549  29.336  1.00  0.00     0.059 A 
ATOM     78  F   UNL A   1      38.224  34.281  29.626  1.00  0.00    -0.206 F 
ATOM     79  C   UNL A   1      34.610  34.157  29.653  1.00  0.00     0.060 A 
BRANCH  79  80
ATOM     80  S   UNL A   1      33.198  34.995  28.902  1.00  0.00     0.124 S 
ATOM     81  O   UNL A   1      32.762  34.012  27.919  1.00  0.00    -0.237 OA
ATOM     82  O   UNL A   1      32.313  35.191  30.048  1.00  0.00    -0.237 OA
ATOM     83  O   UNL A   1      33.783  36.217  28.359  1.00  0.00    -0.744 OA
ENDBRANCH  79  80
ENDBRANCH  47  72
BRANCH  59  84
ATOM     84  C   UNL A   1      39.960  33.692  37.033  1.00  0.00     0.058 A 
ATOM     85  C   UNL A   1      40.595  34.943  37.052  1.00  0.00     0.135 A 
ATOM     86  C   UNL A   1      39.075  33.388  38.079  1.00  0.00     0.135 A 
ATOM     87  F   UNL A   1      41.455  35.281  36.079  1.00  0.00    -0.206 F 
ATOM     88  C   UNL A   1      40.375  35.852  38.082  1.00  0.00     0.059 A 
ATOM     89  C   UNL A   1      38.819  34.291  39.105  1.00  0.00     0.059 A 
ATOM     90  F   UNL A   1      38.434  32.207  38.101  1.00  0.00    -0.206 F 
ATOM     91  C   UNL A   1      39.483  35.517  39.104  1.00  0.00     0.060 A 
BRANCH  91  92
ATOM     92  S   UNL A   1      39.178  36.719  40.415  1.00  0.00     0.124 S 
ATOM     93  O   UNL A   1      38.256  35.986  41.277  1.00  0.00    -0.237 OA
ATOM     94  O   UNL A   1      40.516  36.937  40.957  1.00  0.00    -0.237 OA
ATOM     95  O   UNL A   1      38.603  37.857  39.705  1.00  0.00    -0.744 OA
ENDBRANCH  91  92
ENDBRANCH  59  84
ENDBRANCH  33  34
ENDBRANCH  25  28
ENDBRANCH  23  24
ENDBRANCH  22  23
ENDBRANCH   1  22
TORSDOF 17
ENDMDL
MODEL 2
REMARK VINA RESULT:     -10.9      1.334      2.021
REMARK SMILES C[C@@H]1[C@@H](C(=O)NCCCNC(=O)c2ccc(-c3c4nc(c(-c5c(F)cc(S(=O)(=O)[O-])cc5F)c5ccc([nH]5)c(-c5c(F)cc(S(=O)(=O)[O-])cc5F)c5nc(c(-c6c(F)cc(S(=O)(=O)[O-])cc6F)c6ccc3[nH]6)C=C5)C=C4)cc2)CCN1C(=O)N(C)Cc1ccsc1
REMARK SMILES IDX 7 1 6 2 4 3 5 4 3 6 1 7 2 8 81 9 79 10 80 11 82 12 83 13
REMARK SMILES IDX 84 14 85 15 86 16 87 17 88 18 91 19 89 20 90 21 8 22 9 23
REMARK SMILES IDX 10 24 11 25 12 27 13 28 14 29 78 30 15 31 77 32 16 33 17 34
REMARK SMILES IDX 18 35 71 36 19 37 76 38 70 39 72 40 20 41 75 42 69 43 68 44
REMARK SMILES IDX 21 46 55 47 34 48 54 49 35 50 38 51 53 52 73 53 36 54 37 55
REMARK SMILES IDX 52 57 74 58 39 59 22 60 23 61 32 62 24 63 25 64 31 65 33 66
REMARK SMILES IDX 26 67 27 68 28 69 29 70 30 71 56 72 57 73 66 74 58 75 59 76
REMARK SMILES IDX 65 77 67 78 60 79 61 80 62 81 63 82 64 83 40 84 41 85 50 86
REMARK SMILES IDX 42 87 43 88 49 89 51 90 44 91 45 92 46 93 47 94 48 95
REMARK H PARENT 6 5 10 26 72 45 38 56
REMARK Flexibility Score: inf
ROOT
ATOM      1  C   UNL A   1      39.860  21.948  26.489  1.00  0.00     0.117 C 
ENDROOT
BRANCH   1   2
ATOM      2  N   UNL A   1      38.701  22.752  26.826  1.00  0.00    -0.356 N 
ATOM      3  C   UNL A   1      37.587  23.032  26.100  1.00  0.00     0.225 C 
ATOM      4  O   UNL A   1      36.763  23.790  26.614  1.00  0.00    -0.275 OA
ATOM      5  H   UNL A   1      38.724  23.158  27.723  1.00  0.00     0.163 HD
BRANCH   3   6
ATOM      6  C   UNL A   1      37.437  22.479  24.686  1.00  0.00     0.102 C 
ATOM      7  C   UNL A   1      36.186  22.990  22.544  1.00  0.00     0.032 C 
ATOM      8  C   UNL A   1      36.084  22.926  24.074  1.00  0.00     0.096 C 
ATOM      9  N   UNL A   1      35.135  21.892  24.517  1.00  0.00    -0.321 N 
ATOM     10  C   UNL A   1      37.312  20.957  24.626  1.00  0.00     0.037 C 
ATOM     11  C   UNL A   1      35.864  20.725  24.992  1.00  0.00     0.122 C 
BRANCH   9  12
ATOM     12  C   UNL A   1      33.783  21.859  24.719  1.00  0.00     0.320 C 
ATOM     13  O   UNL A   1      33.124  21.030  24.074  1.00  0.00    -0.248 OA
BRANCH  12  14
ATOM     14  N   UNL A   1      33.119  22.741  25.537  1.00  0.00    -0.323 N 
ATOM     15  C   UNL A   1      33.267  23.036  26.952  1.00  0.00     0.149 C 
BRANCH  14  16
ATOM     16  C   UNL A   1      32.058  23.509  24.884  1.00  0.00     0.157 C 
BRANCH  16  17
ATOM     17  C   UNL A   1      32.603  24.666  24.072  1.00  0.00    -0.018 A 
ATOM     18  C   UNL A   1      32.997  25.915  24.665  1.00  0.00     0.017 A 
ATOM     19  C   UNL A   1      32.756  24.725  22.697  1.00  0.00     0.070 A 
ATOM     20  C   UNL A   1      33.403  26.847  23.736  1.00  0.00     0.065 A 
ATOM     21  S   UNL A   1      33.338  26.234  22.145  1.00  0.00    -0.152 S 
ENDBRANCH  16  17
ENDBRANCH  14  16
ENDBRANCH  12  14
ENDBRANCH   9  12
ENDBRANCH   3   6
ENDBRANCH   1   2
BRANCH   1  22
ATOM     22  C   UNL A   1      40.932  21.979  27.563  1.00  0.00     0.042 C 
BRANCH  22  23
ATOM     23  C   UNL A   1      42.044  22.986  27.317  1.00  0.00     0.118 C 
BRANCH  23  24
ATOM     24  N   UNL A   1      41.816  23.833  26.156  1.00  0.00    -0.352 N 
ATOM     25  C   UNL A   1      41.487  25.169  26.081  1.00  0.00     0.251 C 
ATOM     26  H   UNL A   1      41.909  23.380  25.287  1.00  0.00     0.163 HD
ATOM     27  O   UNL A   1      41.192  25.662  25.000  1.00  0.00    -0.269 OA
BRANCH  25  28
ATOM     28  C   UNL A   1      41.452  25.993  27.311  1.00  0.00     0.039 A 
ATOM     29  C   UNL A   1      42.413  26.992  27.485  1.00  0.00     0.014 A 
ATOM     30  C   UNL A   1      40.467  25.800  28.278  1.00  0.00     0.014 A 
ATOM     31  C   UNL A   1      42.323  27.856  28.581  1.00  0.00     0.010 A 
ATOM     32  C   UNL A   1      40.310  26.728  29.301  1.00  0.00     0.010 A 
ATOM     33  C   UNL A   1      41.238  27.766  29.468  1.00  0.00    -0.014 A 
BRANCH  33  34
ATOM     34  C   UNL A   1      41.056  28.732  30.583  1.00  0.00     0.031 A 
ATOM     35  C   UNL A   1      41.925  28.637  31.811  1.00  0.00     0.074 A 
ATOM     36  C   UNL A   1      40.061  29.640  30.529  1.00  0.00     0.049 A 
ATOM     37  N   UNL A   1      41.854  29.312  32.928  1.00  0.00    -0.248 NA
ATOM     38  C   UNL A   1      42.991  27.621  31.793  1.00  0.00     0.031 C 
ATOM     39  C   UNL A   1      39.113  29.798  29.422  1.00  0.00     0.029 A 
ATOM     40  N   UNL A   1      39.671  30.598  31.432  1.00  0.00    -0.354 N 
ATOM     41  C   UNL A   1      42.845  28.789  33.750  1.00  0.00     0.074 A 
ATOM     42  C   UNL A   1      43.463  27.701  33.028  1.00  0.00     0.031 C 
ATOM     43  C   UNL A   1      38.275  30.810  29.699  1.00  0.00     0.029 A 
ATOM     44  C   UNL A   1      38.594  31.346  31.017  1.00  0.00     0.049 A 
ATOM     45  H   UNL A   1      40.121  30.736  32.298  1.00  0.00     0.167 HD
ATOM     46  C   UNL A   1      43.228  29.198  34.984  1.00  0.00     0.037 A 
ATOM     47  C   UNL A   1      37.935  32.347  31.631  1.00  0.00     0.037 A 
ATOM     48  C   UNL A   1      42.638  30.310  35.680  1.00  0.00     0.049 A 
ATOM     49  C   UNL A   1      38.388  32.795  32.995  1.00  0.00     0.074 A 
ATOM     50  C   UNL A   1      42.995  30.844  36.906  1.00  0.00     0.029 A 
ATOM     51  N   UNL A   1      41.572  31.063  35.211  1.00  0.00    -0.354 N 
ATOM     52  N   UNL A   1      39.365  32.325  33.732  1.00  0.00    -0.248 NA
ATOM     53  C   UNL A   1      37.654  33.912  33.606  1.00  0.00     0.031 C 
ATOM     54  C   UNL A   1      42.121  31.897  37.195  1.00  0.00     0.029 A 
ATOM     55  C   UNL A   1      41.249  32.049  36.128  1.00  0.00     0.049 A 
ATOM     56  H   UNL A   1      41.114  30.918  34.353  1.00  0.00     0.167 HD
ATOM     57  C   UNL A   1      39.382  33.107  34.883  1.00  0.00     0.074 A 
ATOM     58  C   UNL A   1      38.323  34.085  34.737  1.00  0.00     0.031 C 
ATOM     59  C   UNL A   1      40.199  33.022  35.961  1.00  0.00     0.037 A 
BRANCH  46  60
ATOM     60  C   UNL A   1      44.348  28.447  35.649  1.00  0.00     0.058 A 
ATOM     61  C   UNL A   1      44.100  27.362  36.507  1.00  0.00     0.135 A 
ATOM     62  C   UNL A   1      45.688  28.797  35.410  1.00  0.00     0.135 A 
ATOM     63  F   UNL A   1      42.838  26.996  36.786  1.00  0.00    -0.206 F 
ATOM     64  C   UNL A   1      45.135  26.673  37.128  1.00  0.00     0.059 A 
ATOM     65  C   UNL A   1      46.741  28.101  35.996  1.00  0.00     0.059 A 
ATOM     66  F   UNL A   1      45.983  29.825  34.600  1.00  0.00    -0.206 F 
ATOM     67  C   UNL A   1      46.453  27.051  36.867  1.00  0.00     0.060 A 
BRANCH  67  68
ATOM     68  S   UNL A   1      47.786  26.143  37.678  1.00  0.00     0.124 S 
ATOM     69  O   UNL A   1      48.731  27.216  37.972  1.00  0.00    -0.237 OA
ATOM     70  O   UNL A   1      47.110  25.560  38.833  1.00  0.00    -0.237 OA
ATOM     71  O   UNL A   1      48.216  25.189  36.661  1.00  0.00    -0.744 OA
ENDBRANCH  67  68
ENDBRANCH  46  60
BRANCH  47  72
ATOM     72  C   UNL A   1      36.794  33.016  30.949  1.00  0.00     0.058 A 
ATOM     73  C   UNL A   1      35.474  32.789  31.367  1.00  0.00     0.135 A 
ATOM     74  C   UNL A   1      36.998  33.900  29.878  1.00  0.00     0.135 A 
ATOM     75  F   UNL A   1      35.227  31.948  32.383  1.00  0.00    -0.206 F 
ATOM     76  C   UNL A   1      34.394  33.404  30.740  1.00  0.00     0.059 A 
ATOM     77  C   UNL A   1      35.936  34.545  29.251  1.00  0.00     0.059 A 
ATOM     78  F   UNL A   1      38.243  34.165  29.451  1.00  0.00    -0.206 F 
ATOM     79  C   UNL A   1      34.636  34.281  29.682  1.00  0.00     0.060 A 
BRANCH  79  80
ATOM     80  S   UNL A   1      33.232  35.111  28.906  1.00  0.00     0.124 S 
ATOM     81  O   UNL A   1      32.778  34.097  27.962  1.00  0.00    -0.237 OA
ATOM     82  O   UNL A   1      32.356  35.361  30.046  1.00  0.00    -0.237 OA
ATOM     83  O   UNL A   1      33.833  36.302  28.315  1.00  0.00    -0.744 OA
ENDBRANCH  79  80
ENDBRANCH  47  72
BRANCH  59  84
ATOM     84  C   UNL A   1      40.010  34.036  37.055  1.00  0.00     0.058 A 
ATOM     85  C   UNL A   1      40.613  35.301  36.999  1.00  0.00     0.135 A 
ATOM     86  C   UNL A   1      39.168  33.757  38.143  1.00  0.00     0.135 A 
ATOM     87  F   UNL A   1      41.431  35.616  35.983  1.00  0.00    -0.206 F 
ATOM     88  C   UNL A   1      40.405  36.248  37.996  1.00  0.00     0.059 A 
ATOM     89  C   UNL A   1      38.924  34.697  39.138  1.00  0.00     0.059 A 
ATOM     90  F   UNL A   1      38.558  32.564  38.238  1.00  0.00    -0.206 F 
ATOM     91  C   UNL A   1      39.557  35.937  39.061  1.00  0.00     0.060 A 
BRANCH  91  92
ATOM     92  S   UNL A   1      39.266  37.188  40.330  1.00  0.00     0.124 S 
ATOM     93  O   UNL A   1      40.630  37.542  40.711  1.00  0.00    -0.237 OA
ATOM     94  O   UNL A   1      38.527  38.211  39.597  1.00  0.00    -0.237 OA
ATOM     95  O   UNL A   1      38.498  36.471  41.343  1.00  0.00    -0.744 OA
ENDBRANCH  91  92
ENDBRANCH  59  84
ENDBRANCH  33  34
ENDBRANCH  25  28
ENDBRANCH  23  24
ENDBRANCH  22  23
ENDBRANCH   1  22
TORSDOF 17
ENDMDL
MODEL 3
REMARK VINA RESULT:     -10.8      4.969     10.509
REMARK SMILES C[C@@H]1[C@@H](C(=O)NCCCNC(=O)c2ccc(-c3c4nc(c(-c5c(F)cc(S(=O)(=O)[O-])cc5F)c5ccc([nH]5)c(-c5c(F)cc(S(=O)(=O)[O-])cc5F)c5nc(c(-c6c(F)cc(S(=O)(=O)[O-])cc6F)c6ccc3[nH]6)C=C5)C=C4)cc2)CCN1C(=O)N(C)Cc1ccsc1
REMARK SMILES IDX 7 1 6 2 4 3 5 4 3 6 1 7 2 8 81 9 79 10 80 11 82 12 83 13
REMARK SMILES IDX 84 14 85 15 86 16 87 17 88 18 91 19 89 20 90 21 8 22 9 23
REMARK SMILES IDX 10 24 11 25 12 27 13 28 14 29 78 30 15 31 77 32 16 33 17 34
REMARK SMILES IDX 18 35 71 36 19 37 76 38 70 39 72 40 20 41 75 42 69 43 68 44
REMARK SMILES IDX 21 46 55 47 34 48 54 49 35 50 38 51 53 52 73 53 36 54 37 55
REMARK SMILES IDX 52 57 74 58 39 59 22 60 23 61 32 62 24 63 25 64 31 65 33 66
REMARK SMILES IDX 26 67 27 68 28 69 29 70 30 71 56 72 57 73 66 74 58 75 59 76
REMARK SMILES IDX 65 77 67 78 60 79 61 80 62 81 63 82 64 83 40 84 41 85 50 86
REMARK SMILES IDX 42 87 43 88 49 89 51 90 44 91 45 92 46 93 47 94 48 95
REMARK H PARENT 6 5 10 26 72 45 38 56
REMARK Flexibility Score: inf
ROOT
ATOM      1  C   UNL A   1      32.789  29.311  24.788  1.00  0.00     0.117 C 
ENDROOT
BRANCH   1   2
ATOM      2  N   UNL A   1      32.447  28.669  23.533  1.00  0.00    -0.356 N 
ATOM      3  C   UNL A   1      31.546  27.687  23.268  1.00  0.00     0.225 C 
ATOM      4  O   UNL A   1      31.486  27.286  22.105  1.00  0.00    -0.275 OA
ATOM      5  H   UNL A   1      32.946  28.998  22.750  1.00  0.00     0.163 HD
BRANCH   3   6
ATOM      6  C   UNL A   1      30.723  27.078  24.399  1.00  0.00     0.102 C 
ATOM      7  C   UNL A   1      31.071  25.929  26.629  1.00  0.00     0.032 C 
ATOM      8  C   UNL A   1      31.567  26.039  25.181  1.00  0.00     0.096 C 
ATOM      9  N   UNL A   1      31.366  24.786  24.436  1.00  0.00    -0.321 N 
ATOM     10  C   UNL A   1      29.550  26.222  23.920  1.00  0.00     0.037 C 
ATOM     11  C   UNL A   1      30.217  24.917  23.551  1.00  0.00     0.122 C 
BRANCH   9  12
ATOM     12  C   UNL A   1      32.090  23.635  24.287  1.00  0.00     0.320 C 
ATOM     13  O   UNL A   1      31.788  22.667  25.002  1.00  0.00    -0.248 OA
BRANCH  12  14
ATOM     14  N   UNL A   1      33.171  23.526  23.445  1.00  0.00    -0.323 N 
ATOM     15  C   UNL A   1      33.294  22.974  22.107  1.00  0.00     0.149 C 
BRANCH  14  16
ATOM     16  C   UNL A   1      34.431  24.032  23.992  1.00  0.00     0.157 C 
BRANCH  16  17
ATOM     17  C   UNL A   1      35.400  22.918  24.327  1.00  0.00    -0.018 A 
ATOM     18  C   UNL A   1      34.970  21.628  24.796  1.00  0.00     0.017 A 
ATOM     19  C   UNL A   1      36.783  22.972  24.288  1.00  0.00     0.070 A 
ATOM     20  C   UNL A   1      36.019  20.790  25.100  1.00  0.00     0.065 A 
ATOM     21  S   UNL A   1      37.532  21.527  24.811  1.00  0.00    -0.152 S 
ENDBRANCH  16  17
ENDBRANCH  14  16
ENDBRANCH  12  14
ENDBRANCH   9  12
ENDBRANCH   3   6
ENDBRANCH   1   2
BRANCH   1  22
ATOM     22  C   UNL A   1      33.870  28.571  25.553  1.00  0.00     0.042 C 
BRANCH  22  23
ATOM     23  C   UNL A   1      33.710  28.602  27.065  1.00  0.00     0.118 C 
BRANCH  23  24
ATOM     24  N   UNL A   1      33.670  29.949  27.617  1.00  0.00    -0.352 N 
ATOM     25  C   UNL A   1      34.630  30.654  28.311  1.00  0.00     0.251 C 
ATOM     26  H   UNL A   1      32.825  30.432  27.474  1.00  0.00     0.163 HD
ATOM     27  O   UNL A   1      34.342  31.729  28.821  1.00  0.00    -0.269 OA
BRANCH  25  28
ATOM     28  C   UNL A   1      35.990  30.091  28.472  1.00  0.00     0.039 A 
ATOM     29  C   UNL A   1      36.873  30.132  27.390  1.00  0.00     0.014 A 
ATOM     30  C   UNL A   1      36.403  29.547  29.687  1.00  0.00     0.014 A 
ATOM     31  C   UNL A   1      38.196  29.715  27.561  1.00  0.00     0.010 A 
ATOM     32  C   UNL A   1      37.745  29.242  29.888  1.00  0.00     0.010 A 
ATOM     33  C   UNL A   1      38.658  29.318  28.827  1.00  0.00    -0.014 A 
BRANCH  33  34
ATOM     34  C   UNL A   1      40.083  28.967  29.067  1.00  0.00     0.031 A 
ATOM     35  C   UNL A   1      41.027  29.998  29.630  1.00  0.00     0.074 A 
ATOM     36  C   UNL A   1      40.546  27.753  28.705  1.00  0.00     0.049 A 
ATOM     37  N   UNL A   1      42.320  29.923  29.811  1.00  0.00    -0.248 NA
ATOM     38  C   UNL A   1      40.445  31.298  30.003  1.00  0.00     0.031 C 
ATOM     39  C   UNL A   1      39.747  26.686  28.096  1.00  0.00     0.029 A 
ATOM     40  N   UNL A   1      41.805  27.214  28.786  1.00  0.00    -0.354 N 
ATOM     41  C   UNL A   1      42.707  31.167  30.295  1.00  0.00     0.074 A 
ATOM     42  C   UNL A   1      41.524  31.998  30.321  1.00  0.00     0.031 C 
ATOM     43  C   UNL A   1      40.528  25.614  27.888  1.00  0.00     0.029 A 
ATOM     44  C   UNL A   1      41.889  25.927  28.307  1.00  0.00     0.049 A 
ATOM     45  H   UNL A   1      42.578  27.703  29.152  1.00  0.00     0.167 HD
ATOM     46  C   UNL A   1      43.931  31.573  30.709  1.00  0.00     0.037 A 
ATOM     47  C   UNL A   1      42.945  25.096  28.211  1.00  0.00     0.037 A 
ATOM     48  C   UNL A   1      45.096  30.730  30.721  1.00  0.00     0.049 A 
ATOM     49  C   UNL A   1      44.292  25.563  28.692  1.00  0.00     0.074 A 
ATOM     50  C   UNL A   1      46.367  31.026  31.180  1.00  0.00     0.029 A 
ATOM     51  N   UNL A   1      45.131  29.422  30.260  1.00  0.00    -0.354 N 
ATOM     52  N   UNL A   1      44.626  26.725  29.200  1.00  0.00    -0.248 NA
ATOM     53  C   UNL A   1      45.402  24.606  28.594  1.00  0.00     0.031 C 
ATOM     54  C   UNL A   1      47.181  29.909  30.962  1.00  0.00     0.029 A 
ATOM     55  C   UNL A   1      46.406  28.902  30.410  1.00  0.00     0.049 A 
ATOM     56  H   UNL A   1      44.363  28.936  29.882  1.00  0.00     0.167 HD
ATOM     57  C   UNL A   1      45.980  26.630  29.507  1.00  0.00     0.074 A 
ATOM     58  C   UNL A   1      46.397  25.293  29.137  1.00  0.00     0.031 C 
ATOM     59  C   UNL A   1      46.801  27.564  30.046  1.00  0.00     0.037 A 
BRANCH  46  60
ATOM     60  C   UNL A   1      44.066  32.989  31.198  1.00  0.00     0.058 A 
ATOM     61  C   UNL A   1      44.398  34.041  30.327  1.00  0.00     0.135 A 
ATOM     62  C   UNL A   1      43.836  33.307  32.547  1.00  0.00     0.135 A 
ATOM     63  F   UNL A   1      44.646  33.791  29.031  1.00  0.00    -0.206 F 
ATOM     64  C   UNL A   1      44.530  35.348  30.780  1.00  0.00     0.059 A 
ATOM     65  C   UNL A   1      43.932  34.614  33.016  1.00  0.00     0.059 A 
ATOM     66  F   UNL A   1      43.516  32.342  33.423  1.00  0.00    -0.206 F 
ATOM     67  C   UNL A   1      44.296  35.625  32.128  1.00  0.00     0.060 A 
BRANCH  67  68
ATOM     68  S   UNL A   1      44.467  37.328  32.700  1.00  0.00     0.124 S 
ATOM     69  O   UNL A   1      45.832  37.325  33.217  1.00  0.00    -0.237 OA
ATOM     70  O   UNL A   1      44.257  38.092  31.474  1.00  0.00    -0.237 OA
ATOM     71  O   UNL A   1      43.416  37.458  33.704  1.00  0.00    -0.744 OA
ENDBRANCH  67  68
ENDBRANCH  46  60
BRANCH  47  72
ATOM     72  C   UNL A   1      42.764  23.724  27.663  1.00  0.00     0.058 A 
ATOM     73  C   UNL A   1      42.464  22.646  28.510  1.00  0.00     0.135 A 
ATOM     74  C   UNL A   1      42.876  23.464  26.289  1.00  0.00     0.135 A 
ATOM     75  F   UNL A   1      42.353  22.843  29.832  1.00  0.00    -0.206 F 
ATOM     76  C   UNL A   1      42.295  21.356  28.016  1.00  0.00     0.059 A 
ATOM     77  C   UNL A   1      42.687  22.188  25.768  1.00  0.00     0.059 A 
ATOM     78  F   UNL A   1      43.144  24.465  25.434  1.00  0.00    -0.206 F 
ATOM     79  C   UNL A   1      42.407  21.137  26.642  1.00  0.00     0.060 A 
BRANCH  79  80
ATOM     80  S   UNL A   1      42.138  19.469  26.006  1.00  0.00     0.124 S 
ATOM     81  O   UNL A   1      42.634  18.651  27.107  1.00  0.00    -0.237 OA
ATOM     82  O   UNL A   1      40.693  19.450  25.796  1.00  0.00    -0.237 OA
ATOM     83  O   UNL A   1      42.940  19.442  24.787  1.00  0.00    -0.744 OA
ENDBRANCH  79  80
ENDBRANCH  47  72
BRANCH  59  84
ATOM     84  C   UNL A   1      48.226  27.164  30.307  1.00  0.00     0.058 A 
ATOM     85  C   UNL A   1      49.249  27.439  29.388  1.00  0.00     0.135 A 
ATOM     86  C   UNL A   1      48.579  26.550  31.519  1.00  0.00     0.135 A 
ATOM     87  F   UNL A   1      48.963  28.021  28.213  1.00  0.00    -0.206 F 
ATOM     88  C   UNL A   1      50.572  27.099  29.652  1.00  0.00     0.059 A 
ATOM     89  C   UNL A   1      49.899  26.224  31.816  1.00  0.00     0.059 A 
ATOM     90  F   UNL A   1      47.639  26.274  32.438  1.00  0.00    -0.206 F 
ATOM     91  C   UNL A   1      50.887  26.494  30.870  1.00  0.00     0.060 A 
BRANCH  91  92
ATOM     92  S   UNL A   1      52.613  26.091  31.215  1.00  0.00     0.124 S 
ATOM     93  O   UNL A   1      52.480  24.831  31.941  1.00  0.00    -0.237 OA
ATOM     94  O   UNL A   1      53.185  25.994  29.876  1.00  0.00    -0.237 OA
ATOM     95  O   UNL A   1      53.074  27.226  32.008  1.00  0.00    -0.744 OA
ENDBRANCH  91  92
ENDBRANCH  59  84
ENDBRANCH  33  34
ENDBRANCH  25  28
ENDBRANCH  23  24
ENDBRANCH  22  23
ENDBRANCH   1  22
TORSDOF 17
ENDMDL
