MODEL 1
REMARK VINA RESULT:     -11.5      0.000      0.000
REMARK SMILES CC(C)[C@@H](NS(=O)(=O)c1ccc(Cl)c([N+](=O)[O-])c1)C(=O)NCCCNC(=O)c1ccc(-c2c3nc(c(-c4c(F)cc(S(=O)(=O)[O-])cc4F)c4ccc([nH]4)c(-c4c(F)cc(S(=O)(=O)[O-])cc4F)c4nc(c(-c5c(F)cc(S(=O)(=O)[O-])cc5F)c5ccc2[nH]5)C=C4)C=C3)cc1
REMARK SMILES IDX 22 1 21 2 19 3 20 4 4 6 2 7 1 8 3 9 5 10 6 12 7 13 8 14 9 15
REMARK SMILES IDX 10 16 18 17 11 18 14 19 12 20 13 21 15 22 16 23 17 24 23 25
REMARK SMILES IDX 24 26 25 27 26 28 27 30 28 31 29 32 93 33 30 34 92 35 31 36
REMARK SMILES IDX 32 37 33 38 86 39 34 40 91 41 85 42 87 43 35 44 90 45 84 46
REMARK SMILES IDX 83 47 36 49 70 50 49 51 69 52 50 53 53 54 68 55 88 56 51 57
REMARK SMILES IDX 52 58 67 60 89 61 54 62 37 63 38 64 47 65 39 66 40 67 46 68
REMARK SMILES IDX 48 69 41 70 42 71 43 72 44 73 45 74 71 75 72 76 81 77 73 78
REMARK SMILES IDX 74 79 80 80 82 81 75 82 76 83 77 84 78 85 79 86 55 87 56 88
REMARK SMILES IDX 65 89 57 90 58 91 64 92 66 93 59 94 60 95 61 96 62 97 63 98
REMARK H PARENT 21 5 5 11 25 29 87 48 53 59
REMARK Flexibility Score: inf
ROOT
ATOM      1  C   UNL A   1      32.941  29.133  24.607  1.00  0.00     0.117 C 
ENDROOT
BRANCH   1   2
ATOM      2  N   UNL A   1      32.627  28.404  23.388  1.00  0.00    -0.355 N 
ATOM      3  C   UNL A   1      31.511  27.695  23.053  1.00  0.00     0.238 C 
ATOM      4  O   UNL A   1      31.555  27.009  22.030  1.00  0.00    -0.273 OA
ATOM      5  H   UNL A   1      33.328  28.427  22.698  1.00  0.00     0.163 HD
BRANCH   3   6
ATOM      6  C   UNL A   1      30.232  27.781  23.895  1.00  0.00     0.161 C 
BRANCH   6   7
ATOM      7  C   UNL A   1      29.104  28.436  23.060  1.00  0.00     0.010 C 
ATOM      8  C   UNL A   1      27.708  27.969  23.475  1.00  0.00     0.009 C 
ATOM      9  C   UNL A   1      29.169  29.969  23.182  1.00  0.00     0.009 C 
ENDBRANCH   6   7
BRANCH   6  10
ATOM     10  N   UNL A   1      29.890  26.422  24.391  1.00  0.00    -0.198 NA
ATOM     11  H   UNL A   1      30.205  25.765  23.677  1.00  0.00     0.142 HD
BRANCH  10  12
ATOM     12  S   UNL A   1      30.493  25.865  25.858  1.00  0.00     0.241 S 
ATOM     13  O   UNL A   1      30.967  27.000  26.613  1.00  0.00    -0.207 OA
ATOM     14  O   UNL A   1      29.474  24.982  26.386  1.00  0.00    -0.207 OA
BRANCH  12  15
ATOM     15  C   UNL A   1      31.894  24.852  25.434  1.00  0.00     0.089 A 
ATOM     16  C   UNL A   1      32.857  24.519  26.391  1.00  0.00     0.024 A 
ATOM     17  C   UNL A   1      32.008  24.374  24.125  1.00  0.00     0.109 A 
ATOM     18  C   UNL A   1      33.898  23.646  26.048  1.00  0.00     0.029 A 
ATOM     19  C   UNL A   1      33.005  23.434  23.818  1.00  0.00     0.289 A 
ATOM     20  C   UNL A   1      33.969  23.080  24.766  1.00  0.00     0.118 A 
ATOM     21  Cl  UNL A   1      35.294  22.017  24.454  1.00  0.00    -0.077 Cl
BRANCH  19  22
ATOM     22  N   UNL A   1      32.928  22.781  22.517  1.00  0.00     0.064 N 
ATOM     23  O   UNL A   1      33.459  23.367  21.563  1.00  0.00    -0.258 OA
ATOM     24  O   UNL A   1      32.305  21.713  22.441  1.00  0.00    -0.258 OA
ENDBRANCH  19  22
ENDBRANCH  12  15
ENDBRANCH  10  12
ENDBRANCH   6  10
ENDBRANCH   3   6
ENDBRANCH   1   2
BRANCH   1  25
ATOM     25  C   UNL A   1      33.996  28.389  25.410  1.00  0.00     0.042 C 
BRANCH  25  26
ATOM     26  C   UNL A   1      33.773  28.487  26.913  1.00  0.00     0.118 C 
BRANCH  26  27
ATOM     27  N   UNL A   1      33.666  29.867  27.361  1.00  0.00    -0.352 N 
ATOM     28  C   UNL A   1      34.556  30.607  28.099  1.00  0.00     0.251 C 
ATOM     29  H   UNL A   1      32.840  30.336  27.099  1.00  0.00     0.163 HD
ATOM     30  O   UNL A   1      34.204  31.680  28.578  1.00  0.00    -0.269 OA
BRANCH  28  31
ATOM     31  C   UNL A   1      35.920  30.090  28.328  1.00  0.00     0.039 A 
ATOM     32  C   UNL A   1      36.850  30.147  27.290  1.00  0.00     0.014 A 
ATOM     33  C   UNL A   1      36.285  29.564  29.573  1.00  0.00     0.014 A 
ATOM     34  C   UNL A   1      38.163  29.735  27.519  1.00  0.00     0.010 A 
ATOM     35  C   UNL A   1      37.612  29.237  29.823  1.00  0.00     0.010 A 
ATOM     36  C   UNL A   1      38.566  29.314  28.798  1.00  0.00    -0.014 A 
BRANCH  36  37
ATOM     37  C   UNL A   1      39.980  28.960  29.080  1.00  0.00     0.031 A 
ATOM     38  C   UNL A   1      40.920  29.991  29.647  1.00  0.00     0.074 A 
ATOM     39  C   UNL A   1      40.431  27.728  28.766  1.00  0.00     0.049 A 
ATOM     40  N   UNL A   1      42.199  29.888  29.898  1.00  0.00    -0.248 NA
ATOM     41  C   UNL A   1      40.356  31.318  29.950  1.00  0.00     0.031 C 
ATOM     42  C   UNL A   1      39.628  26.662  28.161  1.00  0.00     0.029 A 
ATOM     43  N   UNL A   1      41.677  27.167  28.897  1.00  0.00    -0.354 N 
ATOM     44  C   UNL A   1      42.595  31.134  30.370  1.00  0.00     0.074 A 
ATOM     45  C   UNL A   1      41.432  31.992  30.329  1.00  0.00     0.031 C 
ATOM     46  C   UNL A   1      40.396  25.574  27.988  1.00  0.00     0.029 A 
ATOM     47  C   UNL A   1      41.754  25.876  28.427  1.00  0.00     0.049 A 
ATOM     48  H   UNL A   1      42.443  27.643  29.291  1.00  0.00     0.167 HD
ATOM     49  C   UNL A   1      43.814  31.520  30.813  1.00  0.00     0.037 A 
ATOM     50  C   UNL A   1      42.805  25.036  28.338  1.00  0.00     0.037 A 
ATOM     51  C   UNL A   1      44.958  30.649  30.880  1.00  0.00     0.049 A 
ATOM     52  C   UNL A   1      44.149  25.494  28.840  1.00  0.00     0.074 A 
ATOM     53  C   UNL A   1      46.216  30.924  31.390  1.00  0.00     0.029 A 
ATOM     54  N   UNL A   1      44.992  29.341  30.421  1.00  0.00    -0.354 N 
ATOM     55  N   UNL A   1      44.483  26.649  29.366  1.00  0.00    -0.248 NA
ATOM     56  C   UNL A   1      45.259  24.536  28.745  1.00  0.00     0.031 C 
ATOM     57  C   UNL A   1      47.027  29.805  31.181  1.00  0.00     0.029 A 
ATOM     58  C   UNL A   1      46.257  28.809  30.604  1.00  0.00     0.049 A 
ATOM     59  H   UNL A   1      44.229  28.862  30.023  1.00  0.00     0.167 HD
ATOM     60  C   UNL A   1      45.832  26.544  29.691  1.00  0.00     0.074 A 
ATOM     61  C   UNL A   1      46.247  25.208  29.320  1.00  0.00     0.031 C 
ATOM     62  C   UNL A   1      46.653  27.471  30.244  1.00  0.00     0.037 A 
BRANCH  49  63
ATOM     63  C   UNL A   1      43.990  32.943  31.270  1.00  0.00     0.058 A 
ATOM     64  C   UNL A   1      43.815  33.316  32.611  1.00  0.00     0.135 A 
ATOM     65  C   UNL A   1      44.436  33.925  30.370  1.00  0.00     0.135 A 
ATOM     66  F   UNL A   1      43.372  32.423  33.511  1.00  0.00    -0.206 F 
ATOM     67  C   UNL A   1      44.071  34.614  33.043  1.00  0.00     0.059 A 
ATOM     68  C   UNL A   1      44.727  35.220  30.786  1.00  0.00     0.059 A 
ATOM     69  F   UNL A   1      44.616  33.622  29.074  1.00  0.00    -0.206 F 
ATOM     70  C   UNL A   1      44.538  35.556  32.125  1.00  0.00     0.060 A 
BRANCH  70  71
ATOM     71  S   UNL A   1      44.924  37.216  32.718  1.00  0.00     0.124 S 
ATOM     72  O   UNL A   1      44.740  38.008  31.506  1.00  0.00    -0.237 OA
ATOM     73  O   UNL A   1      43.923  37.413  33.761  1.00  0.00    -0.237 OA
ATOM     74  O   UNL A   1      46.301  37.100  33.187  1.00  0.00    -0.744 OA
ENDBRANCH  70  71
ENDBRANCH  49  63
BRANCH  50  75
ATOM     75  C   UNL A   1      42.640  23.682  27.739  1.00  0.00     0.058 A 
ATOM     76  C   UNL A   1      42.425  22.551  28.541  1.00  0.00     0.135 A 
ATOM     77  C   UNL A   1      42.723  23.489  26.351  1.00  0.00     0.135 A 
ATOM     78  F   UNL A   1      42.341  22.681  29.873  1.00  0.00    -0.206 F 
ATOM     79  C   UNL A   1      42.338  21.275  27.994  1.00  0.00     0.059 A 
ATOM     80  C   UNL A   1      42.605  22.228  25.777  1.00  0.00     0.059 A 
ATOM     81  F   UNL A   1      42.906  24.539  25.534  1.00  0.00    -0.206 F 
ATOM     82  C   UNL A   1      42.434  21.123  26.610  1.00  0.00     0.060 A 
BRANCH  82  83
ATOM     83  S   UNL A   1      42.311  19.464  25.908  1.00  0.00     0.124 S 
ATOM     84  O   UNL A   1      40.880  19.362  25.647  1.00  0.00    -0.237 OA
ATOM     85  O   UNL A   1      43.171  19.564  24.733  1.00  0.00    -0.237 OA
ATOM     86  O   UNL A   1      42.820  18.610  26.977  1.00  0.00    -0.744 OA
ENDBRANCH  82  83
ENDBRANCH  50  75
BRANCH  62  87
ATOM     87  C   UNL A   1      48.073  27.062  30.526  1.00  0.00     0.058 A 
ATOM     88  C   UNL A   1      49.105  27.278  29.599  1.00  0.00     0.135 A 
ATOM     89  C   UNL A   1      48.415  26.500  31.767  1.00  0.00     0.135 A 
ATOM     90  F   UNL A   1      48.833  27.806  28.395  1.00  0.00    -0.206 F 
ATOM     91  C   UNL A   1      50.421  26.926  29.882  1.00  0.00     0.059 A 
ATOM     92  C   UNL A   1      49.729  26.173  32.085  1.00  0.00     0.059 A 
ATOM     93  F   UNL A   1      47.469  26.282  32.695  1.00  0.00    -0.206 F 
ATOM     94  C   UNL A   1      50.723  26.378  31.131  1.00  0.00     0.060 A 
BRANCH  94  95
ATOM     95  S   UNL A   1      52.440  25.961  31.497  1.00  0.00     0.124 S 
ATOM     96  O   UNL A   1      52.795  26.997  32.461  1.00  0.00    -0.237 OA
ATOM     97  O   UNL A   1      52.323  24.608  32.035  1.00  0.00    -0.237 OA
ATOM     98  O   UNL A   1      53.100  26.059  30.199  1.00  0.00    -0.744 OA
ENDBRANCH  94  95
ENDBRANCH  62  87
ENDBRANCH  36  37
ENDBRANCH  28  31
ENDBRANCH  26  27
ENDBRANCH  25  26
ENDBRANCH   1  25
TORSDOF 18
ENDMDL
MODEL 2
REMARK VINA RESULT:     -11.5      3.030      8.890
REMARK SMILES CC(C)[C@@H](NS(=O)(=O)c1ccc(Cl)c([N+](=O)[O-])c1)C(=O)NCCCNC(=O)c1ccc(-c2c3nc(c(-c4c(F)cc(S(=O)(=O)[O-])cc4F)c4ccc([nH]4)c(-c4c(F)cc(S(=O)(=O)[O-])cc4F)c4nc(c(-c5c(F)cc(S(=O)(=O)[O-])cc5F)c5ccc2[nH]5)C=C4)C=C3)cc1
REMARK SMILES IDX 22 1 21 2 19 3 20 4 4 6 2 7 1 8 3 9 5 10 6 12 7 13 8 14 9 15
REMARK SMILES IDX 10 16 18 17 11 18 14 19 12 20 13 21 15 22 16 23 17 24 23 25
REMARK SMILES IDX 24 26 25 27 26 28 27 30 28 31 29 32 93 33 30 34 92 35 31 36
REMARK SMILES IDX 32 37 33 38 86 39 34 40 91 41 85 42 87 43 35 44 90 45 84 46
REMARK SMILES IDX 83 47 36 49 70 50 49 51 69 52 50 53 53 54 68 55 88 56 51 57
REMARK SMILES IDX 52 58 67 60 89 61 54 62 37 63 38 64 47 65 39 66 40 67 46 68
REMARK SMILES IDX 48 69 41 70 42 71 43 72 44 73 45 74 71 75 72 76 81 77 73 78
REMARK SMILES IDX 74 79 80 80 82 81 75 82 76 83 77 84 78 85 79 86 55 87 56 88
REMARK SMILES IDX 65 89 57 90 58 91 64 92 66 93 59 94 60 95 61 96 62 97 63 98
REMARK H PARENT 21 5 5 11 25 29 87 48 53 59
REMARK Flexibility Score: inf
ROOT
ATOM      1  C   UNL A   1      34.146  28.880  25.674  1.00  0.00     0.117 C 
ENDROOT
BRANCH   1   2
ATOM      2  N   UNL A   1      32.889  29.460  25.229  1.00  0.00    -0.355 N 
ATOM      3  C   UNL A   1      31.866  28.901  24.520  1.00  0.00     0.238 C 
ATOM      4  O   UNL A   1      30.982  29.651  24.104  1.00  0.00    -0.273 OA
ATOM      5  H   UNL A   1      32.755  30.403  25.478  1.00  0.00     0.163 HD
BRANCH   3   6
ATOM      6  C   UNL A   1      31.797  27.387  24.286  1.00  0.00     0.161 C 
BRANCH   6   7
ATOM      7  C   UNL A   1      30.867  26.741  25.342  1.00  0.00     0.010 C 
ATOM      8  C   UNL A   1      29.639  26.070  24.724  1.00  0.00     0.009 C 
ATOM      9  C   UNL A   1      31.638  25.695  26.168  1.00  0.00     0.009 C 
ENDBRANCH   6   7
BRANCH   6  10
ATOM     10  N   UNL A   1      31.368  27.135  22.886  1.00  0.00    -0.198 NA
ATOM     11  H   UNL A   1      31.192  28.048  22.468  1.00  0.00     0.142 HD
BRANCH  10  12
ATOM     12  S   UNL A   1      32.364  26.302  21.818  1.00  0.00     0.241 S 
ATOM     13  O   UNL A   1      31.584  25.939  20.660  1.00  0.00    -0.207 OA
ATOM     14  O   UNL A   1      33.562  27.107  21.696  1.00  0.00    -0.207 OA
BRANCH  12  15
ATOM     15  C   UNL A   1      32.822  24.809  22.673  1.00  0.00     0.089 A 
ATOM     16  C   UNL A   1      31.876  23.817  22.943  1.00  0.00     0.024 A 
ATOM     17  C   UNL A   1      34.156  24.632  23.054  1.00  0.00     0.109 A 
ATOM     18  C   UNL A   1      32.287  22.615  23.537  1.00  0.00     0.029 A 
ATOM     19  C   UNL A   1      34.569  23.393  23.567  1.00  0.00     0.289 A 
ATOM     20  C   UNL A   1      33.639  22.385  23.833  1.00  0.00     0.118 A 
ATOM     21  Cl  UNL A   1      34.030  20.869  24.561  1.00  0.00    -0.077 Cl
BRANCH  19  22
ATOM     22  N   UNL A   1      36.003  23.175  23.713  1.00  0.00     0.064 N 
ATOM     23  O   UNL A   1      36.644  22.949  22.676  1.00  0.00    -0.258 OA
ATOM     24  O   UNL A   1      36.477  23.186  24.856  1.00  0.00    -0.258 OA
ENDBRANCH  19  22
ENDBRANCH  12  15
ENDBRANCH  10  12
ENDBRANCH   6  10
ENDBRANCH   3   6
ENDBRANCH   1   2
BRANCH   1  25
ATOM     25  C   UNL A   1      34.233  28.908  27.192  1.00  0.00     0.042 C 
BRANCH  25  26
ATOM     26  C   UNL A   1      35.437  29.687  27.702  1.00  0.00     0.118 C 
BRANCH  26  27
ATOM     27  N   UNL A   1      35.374  29.912  29.139  1.00  0.00    -0.352 N 
ATOM     28  C   UNL A   1      36.372  29.802  30.074  1.00  0.00     0.251 C 
ATOM     29  H   UNL A   1      34.493  30.181  29.488  1.00  0.00     0.163 HD
ATOM     30  O   UNL A   1      36.089  29.809  31.268  1.00  0.00    -0.269 OA
BRANCH  28  31
ATOM     31  C   UNL A   1      37.773  29.652  29.632  1.00  0.00     0.039 A 
ATOM     32  C   UNL A   1      38.759  29.388  30.583  1.00  0.00     0.014 A 
ATOM     33  C   UNL A   1      38.109  29.757  28.277  1.00  0.00     0.014 A 
ATOM     34  C   UNL A   1      40.072  29.165  30.167  1.00  0.00     0.010 A 
ATOM     35  C   UNL A   1      39.398  29.450  27.860  1.00  0.00     0.010 A 
ATOM     36  C   UNL A   1      40.396  29.155  28.800  1.00  0.00    -0.014 A 
BRANCH  36  37
ATOM     37  C   UNL A   1      41.770  28.829  28.338  1.00  0.00     0.031 A 
ATOM     38  C   UNL A   1      42.114  27.425  27.916  1.00  0.00     0.074 A 
ATOM     39  C   UNL A   1      42.720  29.785  28.361  1.00  0.00     0.049 A 
ATOM     40  N   UNL A   1      43.269  26.937  27.546  1.00  0.00    -0.248 NA
ATOM     41  C   UNL A   1      41.024  26.434  27.933  1.00  0.00     0.031 C 
ATOM     42  C   UNL A   1      42.521  31.168  28.802  1.00  0.00     0.029 A 
ATOM     43  N   UNL A   1      44.050  29.740  28.019  1.00  0.00    -0.354 N 
ATOM     44  C   UNL A   1      43.051  25.586  27.304  1.00  0.00     0.074 A 
ATOM     45  C   UNL A   1      41.664  25.319  27.611  1.00  0.00     0.031 C 
ATOM     46  C   UNL A   1      43.678  31.841  28.689  1.00  0.00     0.029 A 
ATOM     47  C   UNL A   1      44.713  30.930  28.212  1.00  0.00     0.049 A 
ATOM     48  H   UNL A   1      44.488  28.930  27.667  1.00  0.00     0.167 HD
ATOM     49  C   UNL A   1      43.926  24.658  26.850  1.00  0.00     0.037 A 
ATOM     50  C   UNL A   1      46.012  31.247  28.044  1.00  0.00     0.037 A 
ATOM     51  C   UNL A   1      45.298  24.942  26.517  1.00  0.00     0.049 A 
ATOM     52  C   UNL A   1      46.961  30.194  27.537  1.00  0.00     0.074 A 
ATOM     53  C   UNL A   1      46.241  24.087  25.972  1.00  0.00     0.029 A 
ATOM     54  N   UNL A   1      45.926  26.164  26.699  1.00  0.00    -0.354 N 
ATOM     55  N   UNL A   1      46.715  28.942  27.229  1.00  0.00    -0.248 NA
ATOM     56  C   UNL A   1      48.362  30.593  27.347  1.00  0.00     0.031 C 
ATOM     57  C   UNL A   1      47.455  24.774  25.885  1.00  0.00     0.029 A 
ATOM     58  C   UNL A   1      47.252  26.076  26.311  1.00  0.00     0.049 A 
ATOM     59  H   UNL A   1      45.493  26.975  27.053  1.00  0.00     0.167 HD
ATOM     60  C   UNL A   1      47.922  28.416  26.781  1.00  0.00     0.074 A 
ATOM     61  C   UNL A   1      48.892  29.488  26.840  1.00  0.00     0.031 C 
ATOM     62  C   UNL A   1      48.203  27.158  26.361  1.00  0.00     0.037 A 
BRANCH  49  63
ATOM     63  C   UNL A   1      43.441  23.245  26.676  1.00  0.00     0.058 A 
ATOM     64  C   UNL A   1      43.297  22.664  25.408  1.00  0.00     0.135 A 
ATOM     65  C   UNL A   1      43.212  22.432  27.799  1.00  0.00     0.135 A 
ATOM     66  F   UNL A   1      43.484  23.398  24.300  1.00  0.00    -0.206 F 
ATOM     67  C   UNL A   1      42.939  21.327  25.258  1.00  0.00     0.059 A 
ATOM     68  C   UNL A   1      42.883  21.087  27.673  1.00  0.00     0.059 A 
ATOM     69  F   UNL A   1      43.332  22.940  29.036  1.00  0.00    -0.206 F 
ATOM     70  C   UNL A   1      42.745  20.544  26.397  1.00  0.00     0.060 A 
BRANCH  70  71
ATOM     71  S   UNL A   1      42.343  18.798  26.182  1.00  0.00     0.124 S 
ATOM     72  O   UNL A   1      43.269  18.414  25.121  1.00  0.00    -0.237 OA
ATOM     73  O   UNL A   1      42.631  18.248  27.503  1.00  0.00    -0.237 OA
ATOM     74  O   UNL A   1      40.932  18.816  25.807  1.00  0.00    -0.744 OA
ENDBRANCH  70  71
ENDBRANCH  49  63
BRANCH  50  75
ATOM     75  C   UNL A   1      46.502  32.616  28.369  1.00  0.00     0.058 A 
ATOM     76  C   UNL A   1      46.906  32.957  29.669  1.00  0.00     0.135 A 
ATOM     77  C   UNL A   1      46.549  33.621  27.389  1.00  0.00     0.135 A 
ATOM     78  F   UNL A   1      46.877  32.035  30.643  1.00  0.00    -0.206 F 
ATOM     79  C   UNL A   1      47.299  34.251  29.995  1.00  0.00     0.059 A 
ATOM     80  C   UNL A   1      46.971  34.912  27.682  1.00  0.00     0.059 A 
ATOM     81  F   UNL A   1      46.195  33.344  26.124  1.00  0.00    -0.206 F 
ATOM     82  C   UNL A   1      47.324  35.224  28.994  1.00  0.00     0.060 A 
BRANCH  82  83
ATOM     83  S   UNL A   1      47.845  36.898  29.424  1.00  0.00     0.124 S 
ATOM     84  O   UNL A   1      46.752  37.694  28.878  1.00  0.00    -0.237 OA
ATOM     85  O   UNL A   1      47.922  36.831  30.880  1.00  0.00    -0.237 OA
ATOM     86  O   UNL A   1      49.128  37.035  28.742  1.00  0.00    -0.744 OA
ENDBRANCH  82  83
ENDBRANCH  50  75
BRANCH  62  87
ATOM     87  C   UNL A   1      49.604  26.878  25.888  1.00  0.00     0.058 A 
ATOM     88  C   UNL A   1      50.591  26.375  26.750  1.00  0.00     0.135 A 
ATOM     89  C   UNL A   1      49.945  27.063  24.538  1.00  0.00     0.135 A 
ATOM     90  F   UNL A   1      50.320  26.186  28.051  1.00  0.00    -0.206 F 
ATOM     91  C   UNL A   1      51.875  26.089  26.295  1.00  0.00     0.059 A 
ATOM     92  C   UNL A   1      51.212  26.751  24.055  1.00  0.00     0.059 A 
ATOM     93  F   UNL A   1      49.036  27.531  23.668  1.00  0.00    -0.206 F 
ATOM     94  C   UNL A   1      52.173  26.276  24.944  1.00  0.00     0.060 A 
BRANCH  94  95
ATOM     95  S   UNL A   1      53.832  25.867  24.362  1.00  0.00     0.124 S 
ATOM     96  O   UNL A   1      54.641  26.864  25.055  1.00  0.00    -0.237 OA
ATOM     97  O   UNL A   1      53.992  24.490  24.822  1.00  0.00    -0.237 OA
ATOM     98  O   UNL A   1      53.736  26.031  22.915  1.00  0.00    -0.744 OA
ENDBRANCH  94  95
ENDBRANCH  62  87
ENDBRANCH  36  37
ENDBRANCH  28  31
ENDBRANCH  26  27
ENDBRANCH  25  26
ENDBRANCH   1  25
TORSDOF 18
ENDMDL
MODEL 3
REMARK VINA RESULT:     -11.5      2.660      3.253
REMARK SMILES CC(C)[C@@H](NS(=O)(=O)c1ccc(Cl)c([N+](=O)[O-])c1)C(=O)NCCCNC(=O)c1ccc(-c2c3nc(c(-c4c(F)cc(S(=O)(=O)[O-])cc4F)c4ccc([nH]4)c(-c4c(F)cc(S(=O)(=O)[O-])cc4F)c4nc(c(-c5c(F)cc(S(=O)(=O)[O-])cc5F)c5ccc2[nH]5)C=C4)C=C3)cc1
REMARK SMILES IDX 22 1 21 2 19 3 20 4 4 6 2 7 1 8 3 9 5 10 6 12 7 13 8 14 9 15
REMARK SMILES IDX 10 16 18 17 11 18 14 19 12 20 13 21 15 22 16 23 17 24 23 25
REMARK SMILES IDX 24 26 25 27 26 28 27 30 28 31 29 32 93 33 30 34 92 35 31 36
REMARK SMILES IDX 32 37 33 38 86 39 34 40 91 41 85 42 87 43 35 44 90 45 84 46
REMARK SMILES IDX 83 47 36 49 70 50 49 51 69 52 50 53 53 54 68 55 88 56 51 57
REMARK SMILES IDX 52 58 67 60 89 61 54 62 37 63 38 64 47 65 39 66 40 67 46 68
REMARK SMILES IDX 48 69 41 70 42 71 43 72 44 73 45 74 71 75 72 76 81 77 73 78
REMARK SMILES IDX 74 79 80 80 82 81 75 82 76 83 77 84 78 85 79 86 55 87 56 88
REMARK SMILES IDX 65 89 57 90 58 91 64 92 66 93 59 94 60 95 61 96 62 97 63 98
REMARK H PARENT 21 5 5 11 25 29 87 48 53 59
REMARK Flexibility Score: inf
ROOT
ATOM      1  C   UNL A   1      33.198  28.067  24.412  1.00  0.00     0.117 C 
ENDROOT
BRANCH   1   2
ATOM      2  N   UNL A   1      32.940  26.939  23.530  1.00  0.00    -0.355 N 
ATOM      3  C   UNL A   1      31.898  26.059  23.513  1.00  0.00     0.238 C 
ATOM      4  O   UNL A   1      31.996  25.072  22.782  1.00  0.00    -0.273 OA
ATOM      5  H   UNL A   1      33.624  26.788  22.839  1.00  0.00     0.163 HD
BRANCH   3   6
ATOM      6  C   UNL A   1      30.632  26.311  24.341  1.00  0.00     0.161 C 
BRANCH   6   7
ATOM      7  C   UNL A   1      29.541  26.942  23.441  1.00  0.00     0.010 C 
ATOM      8  C   UNL A   1      28.122  26.637  23.923  1.00  0.00     0.009 C 
ATOM      9  C   UNL A   1      29.722  28.469  23.370  1.00  0.00     0.009 C 
ENDBRANCH   6   7
BRANCH   6  10
ATOM     10  N   UNL A   1      30.211  25.035  24.976  1.00  0.00    -0.198 NA
ATOM     11  H   UNL A   1      30.389  24.298  24.294  1.00  0.00     0.142 HD
BRANCH  10  12
ATOM     12  S   UNL A   1      30.899  24.527  26.424  1.00  0.00     0.241 S 
ATOM     13  O   UNL A   1      31.510  25.669  27.059  1.00  0.00    -0.207 OA
ATOM     14  O   UNL A   1      29.873  23.754  27.092  1.00  0.00    -0.207 OA
BRANCH  12  15
ATOM     15  C   UNL A   1      32.188  23.392  25.957  1.00  0.00     0.089 A 
ATOM     16  C   UNL A   1      33.510  23.599  26.362  1.00  0.00     0.024 A 
ATOM     17  C   UNL A   1      31.854  22.271  25.190  1.00  0.00     0.109 A 
ATOM     18  C   UNL A   1      34.484  22.640  26.054  1.00  0.00     0.029 A 
ATOM     19  C   UNL A   1      32.819  21.278  24.963  1.00  0.00     0.289 A 
ATOM     20  C   UNL A   1      34.143  21.462  25.372  1.00  0.00     0.118 A 
ATOM     21  Cl  UNL A   1      35.424  20.350  25.047  1.00  0.00    -0.077 Cl
BRANCH  19  22
ATOM     22  N   UNL A   1      32.361  20.023  24.381  1.00  0.00     0.064 N 
ATOM     23  O   UNL A   1      32.183  19.075  25.159  1.00  0.00    -0.258 OA
ATOM     24  O   UNL A   1      32.223  19.972  23.151  1.00  0.00    -0.258 OA
ENDBRANCH  19  22
ENDBRANCH  12  15
ENDBRANCH  10  12
ENDBRANCH   6  10
ENDBRANCH   3   6
ENDBRANCH   1   2
BRANCH   1  25
ATOM     25  C   UNL A   1      34.044  27.628  25.598  1.00  0.00     0.042 C 
BRANCH  25  26
ATOM     26  C   UNL A   1      33.592  28.251  26.910  1.00  0.00     0.118 C 
BRANCH  26  27
ATOM     27  N   UNL A   1      33.593  29.706  26.853  1.00  0.00    -0.352 N 
ATOM     28  C   UNL A   1      34.458  30.593  27.442  1.00  0.00     0.251 C 
ATOM     29  H   UNL A   1      32.871  30.110  26.317  1.00  0.00     0.163 HD
ATOM     30  O   UNL A   1      34.176  31.787  27.474  1.00  0.00    -0.269 OA
BRANCH  28  31
ATOM     31  C   UNL A   1      35.707  30.097  28.054  1.00  0.00     0.039 A 
ATOM     32  C   UNL A   1      36.888  30.140  27.312  1.00  0.00     0.014 A 
ATOM     33  C   UNL A   1      35.714  29.604  29.364  1.00  0.00     0.014 A 
ATOM     34  C   UNL A   1      38.088  29.748  27.907  1.00  0.00     0.010 A 
ATOM     35  C   UNL A   1      36.921  29.298  29.980  1.00  0.00     0.010 A 
ATOM     36  C   UNL A   1      38.122  29.362  29.257  1.00  0.00    -0.014 A 
BRANCH  36  37
ATOM     37  C   UNL A   1      39.404  29.030  29.930  1.00  0.00     0.031 A 
ATOM     38  C   UNL A   1      39.871  29.838  31.111  1.00  0.00     0.074 A 
ATOM     39  C   UNL A   1      40.175  28.041  29.435  1.00  0.00     0.049 A 
ATOM     40  N   UNL A   1      40.987  29.741  31.785  1.00  0.00    -0.248 NA
ATOM     41  C   UNL A   1      38.978  30.912  31.584  1.00  0.00     0.031 C 
ATOM     42  C   UNL A   1      39.856  27.224  28.261  1.00  0.00     0.029 A 
ATOM     43  N   UNL A   1      41.396  27.562  29.844  1.00  0.00    -0.354 N 
ATOM     44  C   UNL A   1      40.939  30.745  32.745  1.00  0.00     0.074 A 
ATOM     45  C   UNL A   1      39.706  31.471  32.540  1.00  0.00     0.031 C 
ATOM     46  C   UNL A   1      40.843  26.337  28.056  1.00  0.00     0.029 A 
ATOM     47  C   UNL A   1      41.888  26.550  29.052  1.00  0.00     0.049 A 
ATOM     48  H   UNL A   1      41.874  27.910  30.632  1.00  0.00     0.167 HD
ATOM     49  C   UNL A   1      41.837  31.024  33.720  1.00  0.00     0.037 A 
ATOM     50  C   UNL A   1      43.057  25.883  29.108  1.00  0.00     0.037 A 
ATOM     51  C   UNL A   1      43.047  30.275  33.936  1.00  0.00     0.049 A 
ATOM     52  C   UNL A   1      44.035  26.214  30.204  1.00  0.00     0.074 A 
ATOM     53  C   UNL A   1      43.980  30.429  34.947  1.00  0.00     0.029 A 
ATOM     54  N   UNL A   1      43.499  29.240  33.131  1.00  0.00    -0.354 N 
ATOM     55  N   UNL A   1      43.931  27.109  31.158  1.00  0.00    -0.248 NA
ATOM     56  C   UNL A   1      45.286  25.443  30.239  1.00  0.00     0.031 C 
ATOM     57  C   UNL A   1      45.026  29.531  34.717  1.00  0.00     0.029 A 
ATOM     58  C   UNL A   1      44.713  28.770  33.603  1.00  0.00     0.049 A 
ATOM     59  H   UNL A   1      43.026  28.891  32.341  1.00  0.00     0.167 HD
ATOM     60  C   UNL A   1      45.088  26.988  31.922  1.00  0.00     0.074 A 
ATOM     61  C   UNL A   1      45.867  25.921  31.331  1.00  0.00     0.031 C 
ATOM     62  C   UNL A   1      45.471  27.696  33.013  1.00  0.00     0.037 A 
BRANCH  49  63
ATOM     63  C   UNL A   1      41.556  32.180  34.639  1.00  0.00     0.058 A 
ATOM     64  C   UNL A   1      42.030  33.473  34.369  1.00  0.00     0.135 A 
ATOM     65  C   UNL A   1      40.718  32.010  35.754  1.00  0.00     0.135 A 
ATOM     66  F   UNL A   1      42.848  33.690  33.328  1.00  0.00    -0.206 F 
ATOM     67  C   UNL A   1      41.687  34.556  35.173  1.00  0.00     0.059 A 
ATOM     68  C   UNL A   1      40.339  33.083  36.554  1.00  0.00     0.059 A 
ATOM     69  F   UNL A   1      40.241  30.793  36.061  1.00  0.00    -0.206 F 
ATOM     70  C   UNL A   1      40.831  34.352  36.257  1.00  0.00     0.060 A 
BRANCH  70  71
ATOM     71  S   UNL A   1      40.348  35.779  37.251  1.00  0.00     0.124 S 
ATOM     72  O   UNL A   1      41.627  36.178  37.829  1.00  0.00    -0.237 OA
ATOM     73  O   UNL A   1      39.798  36.684  36.246  1.00  0.00    -0.237 OA
ATOM     74  O   UNL A   1      39.379  35.228  38.193  1.00  0.00    -0.744 OA
ENDBRANCH  70  71
ENDBRANCH  49  63
BRANCH  50  75
ATOM     75  C   UNL A   1      43.381  24.843  28.092  1.00  0.00     0.058 A 
ATOM     76  C   UNL A   1      42.986  23.507  28.262  1.00  0.00     0.135 A 
ATOM     77  C   UNL A   1      44.119  25.161  26.940  1.00  0.00     0.135 A 
ATOM     78  F   UNL A   1      42.282  23.150  29.347  1.00  0.00    -0.206 F 
ATOM     79  C   UNL A   1      43.344  22.518  27.351  1.00  0.00     0.059 A 
ATOM     80  C   UNL A   1      44.460  24.197  25.998  1.00  0.00     0.059 A 
ATOM     81  F   UNL A   1      44.504  26.427  26.715  1.00  0.00    -0.206 F 
ATOM     82  C   UNL A   1      44.085  22.873  26.223  1.00  0.00     0.060 A 
BRANCH  82  83
ATOM     83  S   UNL A   1      44.537  21.584  25.042  1.00  0.00     0.124 S 
ATOM     84  O   UNL A   1      43.579  20.536  25.372  1.00  0.00    -0.237 OA
ATOM     85  O   UNL A   1      44.334  22.257  23.762  1.00  0.00    -0.237 OA
ATOM     86  O   UNL A   1      45.929  21.297  25.377  1.00  0.00    -0.744 OA
ENDBRANCH  82  83
ENDBRANCH  50  75
BRANCH  62  87
ATOM     87  C   UNL A   1      46.770  27.315  33.670  1.00  0.00     0.058 A 
ATOM     88  C   UNL A   1      47.982  27.939  33.334  1.00  0.00     0.135 A 
ATOM     89  C   UNL A   1      46.790  26.351  34.692  1.00  0.00     0.135 A 
ATOM     90  F   UNL A   1      48.020  28.862  32.359  1.00  0.00    -0.206 F 
ATOM     91  C   UNL A   1      49.172  27.601  33.970  1.00  0.00     0.059 A 
ATOM     92  C   UNL A   1      47.963  26.024  35.365  1.00  0.00     0.059 A 
ATOM     93  F   UNL A   1      45.657  25.732  35.060  1.00  0.00    -0.206 F 
ATOM     94  C   UNL A   1      49.151  26.646  34.988  1.00  0.00     0.060 A 
BRANCH  94  95
ATOM     95  S   UNL A   1      50.697  26.246  35.829  1.00  0.00     0.124 S 
ATOM     96  O   UNL A   1      51.261  27.573  36.055  1.00  0.00    -0.237 OA
ATOM     97  O   UNL A   1      50.230  25.544  37.021  1.00  0.00    -0.237 OA
ATOM     98  O   UNL A   1      51.408  25.418  34.860  1.00  0.00    -0.744 OA
ENDBRANCH  94  95
ENDBRANCH  62  87
ENDBRANCH  36  37
ENDBRANCH  28  31
ENDBRANCH  26  27
ENDBRANCH  25  26
ENDBRANCH   1  25
TORSDOF 18
ENDMDL
