MODEL 1
REMARK VINA RESULT:     -12.3      0.000      0.000
REMARK SMILES CCCc1cc(OC(F)(F)F)cc2c1O[C@H](C(F)(F)F)C(C(=O)NCCCNC(=O)c1ccc(-c3c4nc(c(-c5c(F)cc(S(=O)(=O)[O-])cc5F)c5ccc([nH]5)c(-c5c(F)cc(S(=O)(=O)[O-])cc5F)c5nc(c(-c6c(F)cc(S(=O)(=O)[O-])cc6F)c6ccc3[nH]6)C=C5)C=C4)cc1)=C2
REMARK SMILES IDX 26 1 25 2 24 3 22 4 23 5 21 7 4 8 5 9 14 10 6 11 13 12 15 13
REMARK SMILES IDX 12 14 97 15 16 16 3 17 2 18 1 19 7 20 8 21 9 22 10 23 11 24
REMARK SMILES IDX 17 25 18 26 19 27 20 28 27 29 28 30 29 31 30 33 31 34 32 35
REMARK SMILES IDX 96 36 33 37 95 38 34 39 35 40 36 41 89 42 37 43 94 44 88 45
REMARK SMILES IDX 90 46 38 47 93 48 87 49 86 50 39 52 73 53 52 54 72 55 53 56
REMARK SMILES IDX 56 57 71 58 91 59 54 60 55 61 70 63 92 64 57 65 40 66 41 67
REMARK SMILES IDX 50 68 42 69 43 70 49 71 51 72 44 73 45 74 46 75 47 76 48 77
REMARK SMILES IDX 74 78 75 79 84 80 76 81 77 82 83 83 85 84 78 85 79 86 80 87
REMARK SMILES IDX 81 88 82 89 58 90 59 91 68 92 60 93 61 94 67 95 69 96 62 97
REMARK SMILES IDX 63 98 64 99 65 100 66 101
REMARK H PARENT 24 6 28 32 90 51 56 62
REMARK Flexibility Score: inf
ROOT
ATOM      1  C   UNL A   1      37.371  23.246  25.680  1.00  0.00     0.042 C 
ENDROOT
BRANCH   1   2
ATOM      2  C   UNL A   1      35.922  23.224  26.168  1.00  0.00     0.118 C 
BRANCH   2   3
ATOM      3  N   UNL A   1      35.078  22.422  25.302  1.00  0.00    -0.352 N 
ATOM      4  C   UNL A   1      33.918  22.685  24.649  1.00  0.00     0.251 C 
ATOM      5  O   UNL A   1      33.499  21.828  23.871  1.00  0.00    -0.270 OA
ATOM      6  H   UNL A   1      35.413  21.507  25.160  1.00  0.00     0.163 HD
BRANCH   4   7
ATOM      7  C   UNL A   1      33.197  23.987  24.748  1.00  0.00     0.067 C 
ATOM      8  C   UNL A   1      30.732  27.380  24.381  1.00  0.00    -0.002 A 
ATOM      9  C   UNL A   1      31.262  28.625  24.770  1.00  0.00     0.054 A 
ATOM     10  C   UNL A   1      31.562  26.248  24.480  1.00  0.00     0.131 A 
ATOM     11  C   UNL A   1      32.589  28.754  25.189  1.00  0.00     0.130 A 
ATOM     12  C   UNL A   1      32.878  26.361  24.943  1.00  0.00     0.021 A 
ATOM     13  O   UNL A   1      31.052  25.042  24.063  1.00  0.00    -0.475 OA
ATOM     14  C   UNL A   1      33.387  27.615  25.286  1.00  0.00     0.058 A 
ATOM     15  C   UNL A   1      33.742  25.188  24.981  1.00  0.00     0.025 C 
ATOM     16  C   UNL A   1      31.689  23.855  24.621  1.00  0.00     0.314 C 
BRANCH   8  17
ATOM     17  C   UNL A   1      29.313  27.214  23.871  1.00  0.00     0.039 C 
BRANCH  17  18
ATOM     18  C   UNL A   1      28.762  28.246  22.877  1.00  0.00     0.001 C 
ATOM     19  C   UNL A   1      27.332  28.683  23.174  1.00  0.00     0.004 C 
ENDBRANCH  17  18
ENDBRANCH   8  17
BRANCH  11  20
ATOM     20  O   UNL A   1      33.222  29.918  25.521  1.00  0.00    -0.406 OA
BRANCH  20  21
ATOM     21  C   UNL A   1      32.821  30.567  26.716  1.00  0.00     0.573 C 
ATOM     22  F   UNL A   1      31.822  31.448  26.488  1.00  0.00    -0.132 F 
ATOM     23  F   UNL A   1      32.422  29.670  27.642  1.00  0.00    -0.132 F 
ATOM     24  F   UNL A   1      33.872  31.252  27.217  1.00  0.00    -0.132 F 
ENDBRANCH  20  21
ENDBRANCH  11  20
BRANCH  16  25
ATOM     25  C   UNL A   1      31.002  23.451  25.943  1.00  0.00     0.429 C 
ATOM     26  F   UNL A   1      29.917  24.222  26.209  1.00  0.00    -0.167 F 
ATOM     27  F   UNL A   1      30.564  22.167  25.881  1.00  0.00    -0.167 F 
ATOM     28  F   UNL A   1      31.807  23.541  27.024  1.00  0.00    -0.167 F 
ENDBRANCH  16  25
ENDBRANCH   4   7
ENDBRANCH   2   3
ENDBRANCH   1   2
BRANCH   1  29
ATOM     29  C   UNL A   1      38.273  24.159  26.505  1.00  0.00     0.118 C 
BRANCH  29  30
ATOM     30  N   UNL A   1      39.676  23.984  26.159  1.00  0.00    -0.352 N 
ATOM     31  C   UNL A   1      40.772  24.729  26.513  1.00  0.00     0.251 C 
ATOM     32  H   UNL A   1      39.868  23.210  25.580  1.00  0.00     0.163 HD
ATOM     33  O   UNL A   1      41.831  24.552  25.916  1.00  0.00    -0.269 OA
BRANCH  31  34
ATOM     34  C   UNL A   1      40.690  25.736  27.594  1.00  0.00     0.039 A 
ATOM     35  C   UNL A   1      41.676  26.726  27.666  1.00  0.00     0.014 A 
ATOM     36  C   UNL A   1      39.691  25.677  28.570  1.00  0.00     0.014 A 
ATOM     37  C   UNL A   1      41.635  27.677  28.688  1.00  0.00     0.010 A 
ATOM     38  C   UNL A   1      39.613  26.665  29.549  1.00  0.00     0.010 A 
ATOM     39  C   UNL A   1      40.591  27.668  29.625  1.00  0.00    -0.014 A 
BRANCH  39  40
ATOM     40  C   UNL A   1      40.512  28.690  30.701  1.00  0.00     0.031 A 
ATOM     41  C   UNL A   1      41.403  28.586  31.909  1.00  0.00     0.074 A 
ATOM     42  C   UNL A   1      39.593  29.672  30.616  1.00  0.00     0.049 A 
ATOM     43  N   UNL A   1      41.428  29.332  32.983  1.00  0.00    -0.248 NA
ATOM     44  C   UNL A   1      42.376  27.483  31.924  1.00  0.00     0.031 C 
ATOM     45  C   UNL A   1      38.642  29.849  29.516  1.00  0.00     0.029 A 
ATOM     46  N   UNL A   1      39.298  30.700  31.476  1.00  0.00    -0.354 N 
ATOM     47  C   UNL A   1      42.399  28.778  33.808  1.00  0.00     0.074 A 
ATOM     48  C   UNL A   1      42.912  27.608  33.129  1.00  0.00     0.031 C 
ATOM     49  C   UNL A   1      37.881  30.926  29.761  1.00  0.00     0.029 A 
ATOM     50  C   UNL A   1      38.264  31.497  31.048  1.00  0.00     0.049 A 
ATOM     51  H   UNL A   1      39.783  30.851  32.320  1.00  0.00     0.167 HD
ATOM     52  C   UNL A   1      42.838  29.217  35.013  1.00  0.00     0.037 A 
ATOM     53  C   UNL A   1      37.683  32.564  31.633  1.00  0.00     0.037 A 
ATOM     54  C   UNL A   1      42.346  30.402  35.666  1.00  0.00     0.049 A 
ATOM     55  C   UNL A   1      38.201  33.045  32.960  1.00  0.00     0.074 A 
ATOM     56  C   UNL A   1      42.767  30.968  36.856  1.00  0.00     0.029 A 
ATOM     57  N   UNL A   1      41.321  31.204  35.183  1.00  0.00    -0.354 N 
ATOM     58  N   UNL A   1      39.163  32.543  33.698  1.00  0.00    -0.248 NA
ATOM     59  C   UNL A   1      37.565  34.239  33.530  1.00  0.00     0.031 C 
ATOM     60  C   UNL A   1      41.974  32.090  37.113  1.00  0.00     0.029 A 
ATOM     61  C   UNL A   1      41.087  32.251  36.060  1.00  0.00     0.049 A 
ATOM     62  H   UNL A   1      40.833  31.052  34.343  1.00  0.00     0.167 HD
ATOM     63  C   UNL A   1      39.263  33.375  34.808  1.00  0.00     0.074 A 
ATOM     64  C   UNL A   1      38.271  34.418  34.637  1.00  0.00     0.031 C 
ATOM     65  C   UNL A   1      40.101  33.285  35.870  1.00  0.00     0.037 A 
BRANCH  52  66
ATOM     66  C   UNL A   1      43.908  28.414  35.701  1.00  0.00     0.058 A 
ATOM     67  C   UNL A   1      45.272  28.654  35.474  1.00  0.00     0.135 A 
ATOM     68  C   UNL A   1      43.567  27.414  36.626  1.00  0.00     0.135 A 
ATOM     69  F   UNL A   1      45.656  29.589  34.589  1.00  0.00    -0.206 F 
ATOM     70  C   UNL A   1      46.260  27.914  36.114  1.00  0.00     0.059 A 
ATOM     71  C   UNL A   1      44.538  26.678  37.300  1.00  0.00     0.059 A 
ATOM     72  F   UNL A   1      42.277  27.141  36.883  1.00  0.00    -0.206 F 
ATOM     73  C   UNL A   1      45.882  26.925  37.026  1.00  0.00     0.060 A 
BRANCH  73  74
ATOM     74  S   UNL A   1      47.176  25.974  37.852  1.00  0.00     0.124 S 
ATOM     75  O   UNL A   1      47.764  25.249  36.729  1.00  0.00    -0.237 OA
ATOM     76  O   UNL A   1      48.009  27.019  38.436  1.00  0.00    -0.237 OA
ATOM     77  O   UNL A   1      46.437  25.156  38.809  1.00  0.00    -0.744 OA
ENDBRANCH  73  74
ENDBRANCH  52  66
BRANCH  53  78
ATOM     78  C   UNL A   1      36.562  33.261  30.950  1.00  0.00     0.058 A 
ATOM     79  C   UNL A   1      35.244  33.137  31.414  1.00  0.00     0.135 A 
ATOM     80  C   UNL A   1      36.788  34.086  29.836  1.00  0.00     0.135 A 
ATOM     81  F   UNL A   1      34.979  32.356  32.473  1.00  0.00    -0.206 F 
ATOM     82  C   UNL A   1      34.188  33.794  30.793  1.00  0.00     0.059 A 
ATOM     83  C   UNL A   1      35.751  34.773  29.213  1.00  0.00     0.059 A 
ATOM     84  F   UNL A   1      38.033  34.254  29.365  1.00  0.00    -0.206 F 
ATOM     85  C   UNL A   1      34.452  34.613  29.694  1.00  0.00     0.060 A 
BRANCH  85  86
ATOM     86  S   UNL A   1      33.081  35.508  28.932  1.00  0.00     0.124 S 
ATOM     87  O   UNL A   1      32.445  34.457  28.146  1.00  0.00    -0.237 OA
ATOM     88  O   UNL A   1      32.334  35.977  30.096  1.00  0.00    -0.237 OA
ATOM     89  O   UNL A   1      33.750  36.554  28.164  1.00  0.00    -0.744 OA
ENDBRANCH  85  86
ENDBRANCH  53  78
BRANCH  65  90
ATOM     90  C   UNL A   1      40.008  34.360  36.916  1.00  0.00     0.058 A 
ATOM     91  C   UNL A   1      40.782  35.528  36.843  1.00  0.00     0.135 A 
ATOM     92  C   UNL A   1      39.097  34.240  37.977  1.00  0.00     0.135 A 
ATOM     93  F   UNL A   1      41.673  35.688  35.851  1.00  0.00    -0.206 F 
ATOM     94  C   UNL A   1      40.670  36.534  37.798  1.00  0.00     0.059 A 
ATOM     95  C   UNL A   1      38.949  35.244  38.929  1.00  0.00     0.059 A 
ATOM     96  F   UNL A   1      38.326  33.146  38.087  1.00  0.00    -0.206 F 
ATOM     97  C   UNL A   1      39.750  36.382  38.838  1.00  0.00     0.060 A 
BRANCH  97  98
ATOM     98  S   UNL A   1      39.589  37.708  40.053  1.00  0.00     0.124 S 
ATOM     99  O   UNL A   1      39.660  36.967  41.307  1.00  0.00    -0.237 OA
ATOM    100  O   UNL A   1      40.740  38.553  39.749  1.00  0.00    -0.237 OA
ATOM    101  O   UNL A   1      38.289  38.296  39.743  1.00  0.00    -0.744 OA
ENDBRANCH  97  98
ENDBRANCH  65  90
ENDBRANCH  39  40
ENDBRANCH  31  34
ENDBRANCH  29  30
ENDBRANCH   1  29
TORSDOF 18
ENDMDL
MODEL 2
REMARK VINA RESULT:     -12.3      4.797     10.379
REMARK SMILES CCCc1cc(OC(F)(F)F)cc2c1O[C@H](C(F)(F)F)C(C(=O)NCCCNC(=O)c1ccc(-c3c4nc(c(-c5c(F)cc(S(=O)(=O)[O-])cc5F)c5ccc([nH]5)c(-c5c(F)cc(S(=O)(=O)[O-])cc5F)c5nc(c(-c6c(F)cc(S(=O)(=O)[O-])cc6F)c6ccc3[nH]6)C=C5)C=C4)cc1)=C2
REMARK SMILES IDX 26 1 25 2 24 3 22 4 23 5 21 7 4 8 5 9 14 10 6 11 13 12 15 13
REMARK SMILES IDX 12 14 97 15 16 16 3 17 2 18 1 19 7 20 8 21 9 22 10 23 11 24
REMARK SMILES IDX 17 25 18 26 19 27 20 28 27 29 28 30 29 31 30 33 31 34 32 35
REMARK SMILES IDX 96 36 33 37 95 38 34 39 35 40 36 41 89 42 37 43 94 44 88 45
REMARK SMILES IDX 90 46 38 47 93 48 87 49 86 50 39 52 73 53 52 54 72 55 53 56
REMARK SMILES IDX 56 57 71 58 91 59 54 60 55 61 70 63 92 64 57 65 40 66 41 67
REMARK SMILES IDX 50 68 42 69 43 70 49 71 51 72 44 73 45 74 46 75 47 76 48 77
REMARK SMILES IDX 74 78 75 79 84 80 76 81 77 82 83 83 85 84 78 85 79 86 80 87
REMARK SMILES IDX 81 88 82 89 58 90 59 91 68 92 60 93 61 94 67 95 69 96 62 97
REMARK SMILES IDX 63 98 64 99 65 100 66 101
REMARK H PARENT 24 6 28 32 90 51 56 62
REMARK Flexibility Score: inf
ROOT
ATOM      1  C   UNL A   1      33.893  28.292  24.851  1.00  0.00     0.042 C 
ENDROOT
BRANCH   1   2
ATOM      2  C   UNL A   1      32.565  27.823  24.256  1.00  0.00     0.118 C 
BRANCH   2   3
ATOM      3  N   UNL A   1      31.603  27.492  25.291  1.00  0.00    -0.352 N 
ATOM      4  C   UNL A   1      31.358  26.354  25.987  1.00  0.00     0.251 C 
ATOM      5  O   UNL A   1      30.544  26.418  26.910  1.00  0.00    -0.270 OA
ATOM      6  H   UNL A   1      31.012  28.240  25.535  1.00  0.00     0.163 HD
BRANCH   4   7
ATOM      7  C   UNL A   1      32.094  25.077  25.761  1.00  0.00     0.067 C 
ATOM      8  C   UNL A   1      33.480  21.119  25.396  1.00  0.00    -0.002 A 
ATOM      9  C   UNL A   1      34.859  20.886  25.554  1.00  0.00     0.054 A 
ATOM     10  C   UNL A   1      33.011  22.437  25.541  1.00  0.00     0.131 A 
ATOM     11  C   UNL A   1      35.738  21.916  25.902  1.00  0.00     0.130 A 
ATOM     12  C   UNL A   1      33.890  23.483  25.843  1.00  0.00     0.021 A 
ATOM     13  O   UNL A   1      31.658  22.652  25.424  1.00  0.00    -0.475 OA
ATOM     14  C   UNL A   1      35.248  23.215  26.030  1.00  0.00     0.058 A 
ATOM     15  C   UNL A   1      33.378  24.832  26.049  1.00  0.00     0.025 C 
ATOM     16  C   UNL A   1      31.258  24.009  25.075  1.00  0.00     0.314 C 
BRANCH   8  17
ATOM     17  C   UNL A   1      32.492  20.014  25.072  1.00  0.00     0.039 C 
BRANCH  17  18
ATOM     18  C   UNL A   1      33.032  18.664  24.577  1.00  0.00     0.001 C 
ATOM     19  C   UNL A   1      32.188  17.470  25.007  1.00  0.00     0.004 C 
ENDBRANCH  17  18
ENDBRANCH   8  17
BRANCH  11  20
ATOM     20  O   UNL A   1      37.076  21.789  26.145  1.00  0.00    -0.406 OA
BRANCH  20  21
ATOM     21  C   UNL A   1      37.926  21.547  25.038  1.00  0.00     0.573 C 
ATOM     22  F   UNL A   1      37.951  20.235  24.713  1.00  0.00    -0.132 F 
ATOM     23  F   UNL A   1      37.537  22.265  23.964  1.00  0.00    -0.132 F 
ATOM     24  F   UNL A   1      39.184  21.918  25.361  1.00  0.00    -0.132 F 
ENDBRANCH  20  21
ENDBRANCH  11  20
BRANCH  16  25
ATOM     25  C   UNL A   1      31.206  24.173  23.540  1.00  0.00     0.429 C 
ATOM     26  F   UNL A   1      31.000  22.990  22.909  1.00  0.00    -0.167 F 
ATOM     27  F   UNL A   1      30.183  24.991  23.182  1.00  0.00    -0.167 F 
ATOM     28  F   UNL A   1      32.332  24.697  23.010  1.00  0.00    -0.167 F 
ENDBRANCH  16  25
ENDBRANCH   4   7
ENDBRANCH   2   3
ENDBRANCH   1   2
BRANCH   1  29
ATOM     29  C   UNL A   1      33.902  28.300  26.377  1.00  0.00     0.118 C 
BRANCH  29  30
ATOM     30  N   UNL A   1      33.634  29.628  26.909  1.00  0.00    -0.352 N 
ATOM     31  C   UNL A   1      34.362  30.391  27.787  1.00  0.00     0.251 C 
ATOM     32  H   UNL A   1      32.799  30.043  26.590  1.00  0.00     0.163 HD
ATOM     33  O   UNL A   1      33.837  31.380  28.293  1.00  0.00    -0.269 OA
BRANCH  31  34
ATOM     34  C   UNL A   1      35.757  30.037  28.127  1.00  0.00     0.039 A 
ATOM     35  C   UNL A   1      36.735  30.129  27.132  1.00  0.00     0.014 A 
ATOM     36  C   UNL A   1      36.097  29.557  29.396  1.00  0.00     0.014 A 
ATOM     37  C   UNL A   1      38.058  29.781  27.420  1.00  0.00     0.010 A 
ATOM     38  C   UNL A   1      37.427  29.274  29.700  1.00  0.00     0.010 A 
ATOM     39  C   UNL A   1      38.419  29.371  28.713  1.00  0.00    -0.014 A 
BRANCH  39  40
ATOM     40  C   UNL A   1      39.824  29.027  29.047  1.00  0.00     0.031 A 
ATOM     41  C   UNL A   1      40.723  30.055  29.682  1.00  0.00     0.074 A 
ATOM     42  C   UNL A   1      40.306  27.812  28.721  1.00  0.00     0.049 A 
ATOM     43  N   UNL A   1      41.995  29.970  29.976  1.00  0.00    -0.248 NA
ATOM     44  C   UNL A   1      40.119  31.357  30.004  1.00  0.00     0.031 C 
ATOM     45  C   UNL A   1      39.544  26.750  28.060  1.00  0.00     0.029 A 
ATOM     46  N   UNL A   1      41.555  27.269  28.886  1.00  0.00    -0.354 N 
ATOM     47  C   UNL A   1      42.348  31.209  30.496  1.00  0.00     0.074 A 
ATOM     48  C   UNL A   1      41.166  32.043  30.437  1.00  0.00     0.031 C 
ATOM     49  C   UNL A   1      40.336  25.680  27.890  1.00  0.00     0.029 A 
ATOM     50  C   UNL A   1      41.670  25.990  28.396  1.00  0.00     0.049 A 
ATOM     51  H   UNL A   1      42.299  27.751  29.316  1.00  0.00     0.167 HD
ATOM     52  C   UNL A   1      43.543  31.610  30.994  1.00  0.00     0.037 A 
ATOM     53  C   UNL A   1      42.732  25.163  28.353  1.00  0.00     0.037 A 
ATOM     54  C   UNL A   1      44.704  30.763  31.078  1.00  0.00     0.049 A 
ATOM     55  C   UNL A   1      44.043  25.621  28.930  1.00  0.00     0.074 A 
ATOM     56  C   UNL A   1      45.943  31.051  31.624  1.00  0.00     0.029 A 
ATOM     57  N   UNL A   1      44.770  29.460  30.604  1.00  0.00    -0.354 N 
ATOM     58  N   UNL A   1      44.342  26.778  29.475  1.00  0.00    -0.248 NA
ATOM     59  C   UNL A   1      45.156  24.664  28.900  1.00  0.00     0.031 C 
ATOM     60  C   UNL A   1      46.769  29.938  31.447  1.00  0.00     0.029 A 
ATOM     61  C   UNL A   1      46.033  28.938  30.831  1.00  0.00     0.049 A 
ATOM     62  H   UNL A   1      44.030  28.979  30.170  1.00  0.00     0.167 HD
ATOM     63  C   UNL A   1      45.670  26.677  29.872  1.00  0.00     0.074 A 
ATOM     64  C   UNL A   1      46.112  25.344  29.517  1.00  0.00     0.031 C 
ATOM     65  C   UNL A   1      46.453  27.604  30.478  1.00  0.00     0.037 A 
BRANCH  52  66
ATOM     66  C   UNL A   1      43.653  33.026  31.492  1.00  0.00     0.058 A 
ATOM     67  C   UNL A   1      43.261  33.384  32.791  1.00  0.00     0.135 A 
ATOM     68  C   UNL A   1      44.190  34.032  30.672  1.00  0.00     0.135 A 
ATOM     69  F   UNL A   1      42.727  32.466  33.614  1.00  0.00    -0.206 F 
ATOM     70  C   UNL A   1      43.367  34.692  33.250  1.00  0.00     0.059 A 
ATOM     71  C   UNL A   1      44.332  35.342  31.119  1.00  0.00     0.059 A 
ATOM     72  F   UNL A   1      44.582  33.745  29.419  1.00  0.00    -0.206 F 
ATOM     73  C   UNL A   1      43.903  35.666  32.405  1.00  0.00     0.060 A 
BRANCH  73  74
ATOM     74  S   UNL A   1      44.038  37.359  33.016  1.00  0.00     0.124 S 
ATOM     75  O   UNL A   1      45.348  37.331  33.662  1.00  0.00    -0.237 OA
ATOM     76  O   UNL A   1      43.956  38.143  31.788  1.00  0.00    -0.237 OA
ATOM     77  O   UNL A   1      42.897  37.488  33.917  1.00  0.00    -0.744 OA
ENDBRANCH  73  74
ENDBRANCH  52  66
BRANCH  53  78
ATOM     78  C   UNL A   1      42.590  23.807  27.760  1.00  0.00     0.058 A 
ATOM     79  C   UNL A   1      42.682  23.612  26.374  1.00  0.00     0.135 A 
ATOM     80  C   UNL A   1      42.385  22.677  28.567  1.00  0.00     0.135 A 
ATOM     81  F   UNL A   1      42.874  24.663  25.561  1.00  0.00    -0.206 F 
ATOM     82  C   UNL A   1      42.564  22.348  25.806  1.00  0.00     0.059 A 
ATOM     83  C   UNL A   1      42.287  21.399  28.024  1.00  0.00     0.059 A 
ATOM     84  F   UNL A   1      42.309  22.807  29.900  1.00  0.00    -0.206 F 
ATOM     85  C   UNL A   1      42.369  21.246  26.641  1.00  0.00     0.060 A 
BRANCH  85  86
ATOM     86  S   UNL A   1      42.276  19.603  25.898  1.00  0.00     0.124 S 
ATOM     87  O   UNL A   1      42.604  18.749  27.033  1.00  0.00    -0.237 OA
ATOM     88  O   UNL A   1      40.892  19.551  25.437  1.00  0.00    -0.237 OA
ATOM     89  O   UNL A   1      43.278  19.659  24.838  1.00  0.00    -0.744 OA
ENDBRANCH  85  86
ENDBRANCH  53  78
BRANCH  65  90
ATOM     90  C   UNL A   1      47.858  27.200  30.828  1.00  0.00     0.058 A 
ATOM     91  C   UNL A   1      48.151  26.502  32.009  1.00  0.00     0.135 A 
ATOM     92  C   UNL A   1      48.915  27.473  29.946  1.00  0.00     0.135 A 
ATOM     93  F   UNL A   1      47.175  26.223  32.889  1.00  0.00    -0.206 F 
ATOM     94  C   UNL A   1      49.448  26.104  32.314  1.00  0.00     0.059 A 
ATOM     95  C   UNL A   1      50.216  27.062  30.218  1.00  0.00     0.059 A 
ATOM     96  F   UNL A   1      48.686  28.131  28.798  1.00  0.00    -0.206 F 
ATOM     97  C   UNL A   1      50.474  26.389  31.411  1.00  0.00     0.060 A 
BRANCH  97  98
ATOM     98  S   UNL A   1      52.149  25.839  31.801  1.00  0.00     0.124 S 
ATOM     99  O   UNL A   1      52.812  25.978  30.510  1.00  0.00    -0.237 OA
ATOM    100  O   UNL A   1      52.560  26.789  32.831  1.00  0.00    -0.237 OA
ATOM    101  O   UNL A   1      51.957  24.468  32.265  1.00  0.00    -0.744 OA
ENDBRANCH  97  98
ENDBRANCH  65  90
ENDBRANCH  39  40
ENDBRANCH  31  34
ENDBRANCH  29  30
ENDBRANCH   1  29
TORSDOF 18
ENDMDL
MODEL 3
REMARK VINA RESULT:     -12.0      6.491     11.803
REMARK SMILES CCCc1cc(OC(F)(F)F)cc2c1O[C@H](C(F)(F)F)C(C(=O)NCCCNC(=O)c1ccc(-c3c4nc(c(-c5c(F)cc(S(=O)(=O)[O-])cc5F)c5ccc([nH]5)c(-c5c(F)cc(S(=O)(=O)[O-])cc5F)c5nc(c(-c6c(F)cc(S(=O)(=O)[O-])cc6F)c6ccc3[nH]6)C=C5)C=C4)cc1)=C2
REMARK SMILES IDX 26 1 25 2 24 3 22 4 23 5 21 7 4 8 5 9 14 10 6 11 13 12 15 13
REMARK SMILES IDX 12 14 97 15 16 16 3 17 2 18 1 19 7 20 8 21 9 22 10 23 11 24
REMARK SMILES IDX 17 25 18 26 19 27 20 28 27 29 28 30 29 31 30 33 31 34 32 35
REMARK SMILES IDX 96 36 33 37 95 38 34 39 35 40 36 41 89 42 37 43 94 44 88 45
REMARK SMILES IDX 90 46 38 47 93 48 87 49 86 50 39 52 73 53 52 54 72 55 53 56
REMARK SMILES IDX 56 57 71 58 91 59 54 60 55 61 70 63 92 64 57 65 40 66 41 67
REMARK SMILES IDX 50 68 42 69 43 70 49 71 51 72 44 73 45 74 46 75 47 76 48 77
REMARK SMILES IDX 74 78 75 79 84 80 76 81 77 82 83 83 85 84 78 85 79 86 80 87
REMARK SMILES IDX 81 88 82 89 58 90 59 91 68 92 60 93 61 94 67 95 69 96 62 97
REMARK SMILES IDX 63 98 64 99 65 100 66 101
REMARK H PARENT 24 6 28 32 90 51 56 62
REMARK Flexibility Score: inf
ROOT
ATOM      1  C   UNL A   1      33.878  29.040  27.379  1.00  0.00     0.042 C 
ENDROOT
BRANCH   1   2
ATOM      2  C   UNL A   1      32.774  29.996  26.924  1.00  0.00     0.118 C 
BRANCH   2   3
ATOM      3  N   UNL A   1      32.628  29.995  25.480  1.00  0.00    -0.352 N 
ATOM      4  C   UNL A   1      32.614  29.001  24.558  1.00  0.00     0.251 C 
ATOM      5  O   UNL A   1      32.339  29.308  23.397  1.00  0.00    -0.270 OA
ATOM      6  H   UNL A   1      32.518  30.895  25.094  1.00  0.00     0.163 HD
BRANCH   4   7
ATOM      7  C   UNL A   1      32.808  27.562  24.898  1.00  0.00     0.067 C 
ATOM      8  C   UNL A   1      32.906  23.680  26.523  1.00  0.00    -0.002 A 
ATOM      9  C   UNL A   1      34.036  22.883  26.261  1.00  0.00     0.054 A 
ATOM     10  C   UNL A   1      32.881  24.986  26.001  1.00  0.00     0.131 A 
ATOM     11  C   UNL A   1      35.133  23.384  25.553  1.00  0.00     0.130 A 
ATOM     12  C   UNL A   1      33.955  25.480  25.251  1.00  0.00     0.021 A 
ATOM     13  O   UNL A   1      31.793  25.772  26.293  1.00  0.00    -0.475 OA
ATOM     14  C   UNL A   1      35.079  24.679  25.039  1.00  0.00     0.058 A 
ATOM     15  C   UNL A   1      33.939  26.856  24.770  1.00  0.00     0.025 C 
ATOM     16  C   UNL A   1      31.540  26.875  25.375  1.00  0.00     0.314 C 
BRANCH   8  17
ATOM     17  C   UNL A   1      31.723  23.185  27.334  1.00  0.00     0.039 C 
BRANCH  17  18
ATOM     18  C   UNL A   1      30.527  22.570  26.593  1.00  0.00     0.001 C 
ATOM     19  C   UNL A   1      29.185  22.831  27.269  1.00  0.00     0.004 C 
ENDBRANCH  17  18
ENDBRANCH   8  17
BRANCH  11  20
ATOM     20  O   UNL A   1      36.302  22.724  25.302  1.00  0.00    -0.406 OA
BRANCH  20  21
ATOM     21  C   UNL A   1      36.590  22.383  23.956  1.00  0.00     0.573 C 
ATOM     22  F   UNL A   1      35.458  22.170  23.249  1.00  0.00    -0.132 F 
ATOM     23  F   UNL A   1      37.315  23.351  23.358  1.00  0.00    -0.132 F 
ATOM     24  F   UNL A   1      37.311  21.241  23.938  1.00  0.00    -0.132 F 
ENDBRANCH  20  21
ENDBRANCH  11  20
BRANCH  16  25
ATOM     25  C   UNL A   1      30.631  26.409  24.217  1.00  0.00     0.429 C 
ATOM     26  F   UNL A   1      31.338  26.143  23.090  1.00  0.00    -0.167 F 
ATOM     27  F   UNL A   1      29.981  25.265  24.550  1.00  0.00    -0.167 F 
ATOM     28  F   UNL A   1      29.687  27.311  23.870  1.00  0.00    -0.167 F 
ENDBRANCH  16  25
ENDBRANCH   4   7
ENDBRANCH   2   3
ENDBRANCH   1   2
BRANCH   1  29
ATOM     29  C   UNL A   1      35.210  29.737  27.641  1.00  0.00     0.118 C 
BRANCH  29  30
ATOM     30  N   UNL A   1      35.227  30.392  28.941  1.00  0.00    -0.352 N 
ATOM     31  C   UNL A   1      36.222  30.459  29.883  1.00  0.00     0.251 C 
ATOM     32  H   UNL A   1      34.394  30.860  29.181  1.00  0.00     0.163 HD
ATOM     33  O   UNL A   1      35.947  30.855  31.013  1.00  0.00    -0.269 OA
BRANCH  31  34
ATOM     34  C   UNL A   1      37.608  30.060  29.555  1.00  0.00     0.039 A 
ATOM     35  C   UNL A   1      38.468  29.700  30.597  1.00  0.00     0.014 A 
ATOM     36  C   UNL A   1      38.084  30.097  28.241  1.00  0.00     0.014 A 
ATOM     37  C   UNL A   1      39.789  29.338  30.318  1.00  0.00     0.010 A 
ATOM     38  C   UNL A   1      39.381  29.672  27.957  1.00  0.00     0.010 A 
ATOM     39  C   UNL A   1      40.250  29.300  28.993  1.00  0.00    -0.014 A 
BRANCH  39  40
ATOM     40  C   UNL A   1      41.640  28.888  28.673  1.00  0.00     0.031 A 
ATOM     41  C   UNL A   1      42.747  29.908  28.658  1.00  0.00     0.074 A 
ATOM     42  C   UNL A   1      41.891  27.608  28.334  1.00  0.00     0.049 A 
ATOM     43  N   UNL A   1      44.004  29.758  28.329  1.00  0.00    -0.248 NA
ATOM     44  C   UNL A   1      42.387  31.283  29.039  1.00  0.00     0.031 C 
ATOM     45  C   UNL A   1      40.891  26.539  28.267  1.00  0.00     0.029 A 
ATOM     46  N   UNL A   1      43.061  26.991  27.968  1.00  0.00    -0.354 N 
ATOM     47  C   UNL A   1      44.579  31.018  28.441  1.00  0.00     0.074 A 
ATOM     48  C   UNL A   1      43.524  31.930  28.827  1.00  0.00     0.031 C 
ATOM     49  C   UNL A   1      41.493  25.398  27.897  1.00  0.00     0.029 A 
ATOM     50  C   UNL A   1      42.910  25.658  27.668  1.00  0.00     0.049 A 
ATOM     51  H   UNL A   1      43.926  27.460  27.925  1.00  0.00     0.167 HD
ATOM     52  C   UNL A   1      45.872  31.379  28.257  1.00  0.00     0.037 A 
ATOM     53  C   UNL A   1      43.813  24.750  27.247  1.00  0.00     0.037 A 
ATOM     54  C   UNL A   1      46.921  30.458  27.905  1.00  0.00     0.049 A 
ATOM     55  C   UNL A   1      45.246  25.168  27.071  1.00  0.00     0.074 A 
ATOM     56  C   UNL A   1      48.274  30.709  27.757  1.00  0.00     0.029 A 
ATOM     57  N   UNL A   1      46.736  29.107  27.644  1.00  0.00    -0.354 N 
ATOM     58  N   UNL A   1      45.784  26.353  27.241  1.00  0.00    -0.248 NA
ATOM     59  C   UNL A   1      46.197  24.128  26.657  1.00  0.00     0.031 C 
ATOM     60  C   UNL A   1      48.901  29.520  27.372  1.00  0.00     0.029 A 
ATOM     61  C   UNL A   1      47.947  28.516  27.323  1.00  0.00     0.049 A 
ATOM     62  H   UNL A   1      45.872  28.639  27.682  1.00  0.00     0.167 HD
ATOM     63  C   UNL A   1      47.140  26.194  26.977  1.00  0.00     0.074 A 
ATOM     64  C   UNL A   1      47.341  24.798  26.649  1.00  0.00     0.031 C 
ATOM     65  C   UNL A   1      48.129  27.121  27.006  1.00  0.00     0.037 A 
BRANCH  52  66
ATOM     66  C   UNL A   1      46.226  32.829  28.439  1.00  0.00     0.058 A 
ATOM     67  C   UNL A   1      46.607  33.345  29.687  1.00  0.00     0.135 A 
ATOM     68  C   UNL A   1      46.216  33.710  27.344  1.00  0.00     0.135 A 
ATOM     69  F   UNL A   1      46.620  32.552  30.771  1.00  0.00    -0.206 F 
ATOM     70  C   UNL A   1      46.938  34.686  29.852  1.00  0.00     0.059 A 
ATOM     71  C   UNL A   1      46.569  35.049  27.479  1.00  0.00     0.059 A 
ATOM     72  F   UNL A   1      45.860  33.270  26.126  1.00  0.00    -0.206 F 
ATOM     73  C   UNL A   1      46.914  35.532  28.741  1.00  0.00     0.060 A 
BRANCH  73  74
ATOM     74  S   UNL A   1      47.348  37.269  28.970  1.00  0.00     0.124 S 
ATOM     75  O   UNL A   1      48.725  37.290  28.483  1.00  0.00    -0.237 OA
ATOM     76  O   UNL A   1      46.369  37.950  28.129  1.00  0.00    -0.237 OA
ATOM     77  O   UNL A   1      47.188  37.474  30.406  1.00  0.00    -0.744 OA
ENDBRANCH  73  74
ENDBRANCH  52  66
BRANCH  53  78
ATOM     78  C   UNL A   1      43.386  23.349  26.990  1.00  0.00     0.058 A 
ATOM     79  C   UNL A   1      43.244  22.867  25.680  1.00  0.00     0.135 A 
ATOM     80  C   UNL A   1      43.137  22.457  28.045  1.00  0.00     0.135 A 
ATOM     81  F   UNL A   1      43.467  23.684  24.639  1.00  0.00    -0.206 F 
ATOM     82  C   UNL A   1      42.859  21.557  25.424  1.00  0.00     0.059 A 
ATOM     83  C   UNL A   1      42.774  21.134  27.813  1.00  0.00     0.059 A 
ATOM     84  F   UNL A   1      43.278  22.863  29.316  1.00  0.00    -0.206 F 
ATOM     85  C   UNL A   1      42.628  20.695  26.498  1.00  0.00     0.060 A 
BRANCH  85  86
ATOM     86  S   UNL A   1      42.186  18.979  26.153  1.00  0.00     0.124 S 
ATOM     87  O   UNL A   1      43.097  18.655  25.062  1.00  0.00    -0.237 OA
ATOM     88  O   UNL A   1      42.459  18.327  27.431  1.00  0.00    -0.237 OA
ATOM     89  O   UNL A   1      40.773  19.064  25.793  1.00  0.00    -0.744 OA
ENDBRANCH  85  86
ENDBRANCH  53  78
BRANCH  65  90
ATOM     90  C   UNL A   1      49.526  26.652  26.708  1.00  0.00     0.058 A 
ATOM     91  C   UNL A   1      50.380  26.192  27.722  1.00  0.00     0.135 A 
ATOM     92  C   UNL A   1      49.995  26.615  25.386  1.00  0.00     0.135 A 
ATOM     93  F   UNL A   1      49.980  26.212  29.004  1.00  0.00    -0.206 F 
ATOM     94  C   UNL A   1      51.661  25.729  27.437  1.00  0.00     0.059 A 
ATOM     95  C   UNL A   1      51.262  26.133  25.075  1.00  0.00     0.059 A 
ATOM     96  F   UNL A   1      49.213  27.035  24.379  1.00  0.00    -0.206 F 
ATOM     97  C   UNL A   1      52.093  25.704  26.109  1.00  0.00     0.060 A 
BRANCH  97  98
ATOM     98  S   UNL A   1      53.744  25.071  25.748  1.00  0.00     0.124 S 
ATOM     99  O   UNL A   1      54.200  26.006  24.725  1.00  0.00    -0.237 OA
ATOM    100  O   UNL A   1      54.410  25.173  27.043  1.00  0.00    -0.237 OA
ATOM    101  O   UNL A   1      53.492  23.709  25.286  1.00  0.00    -0.744 OA
ENDBRANCH  97  98
ENDBRANCH  65  90
ENDBRANCH  39  40
ENDBRANCH  31  34
ENDBRANCH  29  30
ENDBRANCH   1  29
TORSDOF 18
ENDMDL
