MODEL 1
REMARK VINA RESULT:     -10.4      0.000      0.000
REMARK SMILES [NH3+][C@@H](CCCCC(=O)NCCCNC(=O)c1ccc(-c2c3nc(c(-c4c(F)cc(S(=O)(=O)[O-])cc4F)c4ccc([nH]4)c(-c4c(F)cc(S(=O)(=O)[O-])cc4F)c4nc(c(-c5c(F)cc(S(=O)(=O)[O-])cc5F)c5ccc2[nH]5)C=C4)C=C3)cc1)c1ccc(-c2ccccc2)cc1
REMARK SMILES IDX 7 1 8 2 9 3 6 5 5 6 4 7 3 8 2 9 1 10 82 14 83 15 93 16 84 17
REMARK SMILES IDX 92 18 85 19 86 20 87 21 91 22 88 23 90 24 89 25 10 26 11 27
REMARK SMILES IDX 12 28 13 29 14 30 15 32 16 33 17 34 81 35 18 36 80 37 19 38
REMARK SMILES IDX 20 39 21 40 74 41 22 42 79 43 73 44 75 45 23 46 78 47 72 48
REMARK SMILES IDX 71 49 24 51 58 52 37 53 57 54 38 55 41 56 56 57 76 58 39 59
REMARK SMILES IDX 40 60 55 62 77 63 42 64 25 65 26 66 35 67 27 68 28 69 34 70
REMARK SMILES IDX 36 71 29 72 30 73 31 74 32 75 33 76 59 77 60 78 69 79 61 80
REMARK SMILES IDX 62 81 68 82 70 83 63 84 64 85 65 86 66 87 67 88 43 89 44 90
REMARK SMILES IDX 53 91 45 92 46 93 52 94 54 95 47 96 48 97 49 98 50 99 51 100
REMARK H PARENT 9 4 1 11 1 12 1 13 13 31 75 50 41 61
REMARK Flexibility Score: inf
ROOT
ATOM      1  C   UNL A   1      32.466  21.117  25.389  1.00  0.00     0.219 C 
ATOM      2  O   UNL A   1      32.174  20.003  24.952  1.00  0.00    -0.275 OA
ATOM      3  N   UNL A   1      33.687  21.282  25.967  1.00  0.00    -0.356 N 
ATOM      4  H   UNL A   1      34.270  20.489  25.956  1.00  0.00     0.163 HD
ENDROOT
BRANCH   1   5
ATOM      5  C   UNL A   1      31.511  22.288  25.262  1.00  0.00     0.100 C 
BRANCH   5   6
ATOM      6  C   UNL A   1      31.338  22.809  23.834  1.00  0.00     0.010 C 
BRANCH   6   7
ATOM      7  C   UNL A   1      32.511  22.722  22.836  1.00  0.00     0.007 C 
BRANCH   7   8
ATOM      8  C   UNL A   1      33.103  24.022  22.255  1.00  0.00     0.070 C 
BRANCH   8   9
ATOM      9  C   UNL A   1      32.247  25.298  22.394  1.00  0.00     0.211 C 
BRANCH   9  10
ATOM     10  N   UNL A   1      32.015  25.943  21.102  1.00  0.00    -0.351 N 
ATOM     11  H   UNL A   1      32.231  25.288  20.351  1.00  0.00     0.345 HD
ATOM     12  H   UNL A   1      32.614  26.765  21.020  1.00  0.00     0.345 HD
ATOM     13  H   UNL A   1      31.038  26.227  21.035  1.00  0.00     0.345 HD
ENDBRANCH   9  10
BRANCH   9  14
ATOM     14  C   UNL A   1      32.845  26.211  23.442  1.00  0.00     0.009 A 
ATOM     15  C   UNL A   1      33.493  27.387  23.038  1.00  0.00     0.010 A 
ATOM     16  C   UNL A   1      32.639  26.003  24.811  1.00  0.00     0.010 A 
ATOM     17  C   UNL A   1      33.874  28.351  23.975  1.00  0.00     0.009 A 
ATOM     18  C   UNL A   1      32.996  26.980  25.741  1.00  0.00     0.009 A 
ATOM     19  C   UNL A   1      33.608  28.179  25.342  1.00  0.00    -0.018 A 
BRANCH  19  20
ATOM     20  C   UNL A   1      33.950  29.217  26.332  1.00  0.00    -0.018 A 
ATOM     21  C   UNL A   1      35.176  29.203  27.019  1.00  0.00     0.009 A 
ATOM     22  C   UNL A   1      33.058  30.267  26.609  1.00  0.00     0.009 A 
ATOM     23  C   UNL A   1      35.490  30.191  27.956  1.00  0.00     0.001 A 
ATOM     24  C   UNL A   1      33.372  31.260  27.539  1.00  0.00     0.001 A 
ATOM     25  C   UNL A   1      34.586  31.218  28.216  1.00  0.00     0.000 A 
ENDBRANCH  19  20
ENDBRANCH   9  14
ENDBRANCH   8   9
ENDBRANCH   7   8
ENDBRANCH   6   7
ENDBRANCH   5   6
ENDBRANCH   1   5
BRANCH   3  26
ATOM     26  C   UNL A   1      34.250  22.458  26.596  1.00  0.00     0.117 C 
BRANCH  26  27
ATOM     27  C   UNL A   1      35.021  23.300  25.592  1.00  0.00     0.042 C 
BRANCH  27  28
ATOM     28  C   UNL A   1      36.397  23.721  26.068  1.00  0.00     0.118 C 
BRANCH  28  29
ATOM     29  N   UNL A   1      37.345  22.621  26.060  1.00  0.00    -0.352 N 
ATOM     30  C   UNL A   1      38.705  22.624  26.252  1.00  0.00     0.251 C 
ATOM     31  H   UNL A   1      36.951  21.735  25.891  1.00  0.00     0.163 HD
ATOM     32  O   UNL A   1      39.342  21.604  26.007  1.00  0.00    -0.269 OA
BRANCH  30  33
ATOM     33  C   UNL A   1      39.403  23.843  26.723  1.00  0.00     0.039 A 
ATOM     34  C   UNL A   1      39.838  24.776  25.777  1.00  0.00     0.014 A 
ATOM     35  C   UNL A   1      39.659  24.066  28.079  1.00  0.00     0.014 A 
ATOM     36  C   UNL A   1      40.475  25.947  26.195  1.00  0.00     0.010 A 
ATOM     37  C   UNL A   1      40.191  25.281  28.500  1.00  0.00     0.010 A 
ATOM     38  C   UNL A   1      40.628  26.226  27.563  1.00  0.00    -0.014 A 
BRANCH  38  39
ATOM     39  C   UNL A   1      41.270  27.481  28.030  1.00  0.00     0.031 A 
ATOM     40  C   UNL A   1      42.768  27.635  27.955  1.00  0.00     0.074 A 
ATOM     41  C   UNL A   1      40.514  28.460  28.566  1.00  0.00     0.049 A 
ATOM     42  N   UNL A   1      43.518  28.624  28.365  1.00  0.00    -0.248 NA
ATOM     43  C   UNL A   1      43.526  26.514  27.372  1.00  0.00     0.031 C 
ATOM     44  C   UNL A   1      39.059  28.406  28.743  1.00  0.00     0.029 A 
ATOM     45  N   UNL A   1      40.860  29.688  29.069  1.00  0.00    -0.354 N 
ATOM     46  C   UNL A   1      44.829  28.240  28.104  1.00  0.00     0.074 A 
ATOM     47  C   UNL A   1      44.778  26.902  27.560  1.00  0.00     0.031 C 
ATOM     48  C   UNL A   1      38.638  29.560  29.283  1.00  0.00     0.029 A 
ATOM     49  C   UNL A   1      39.791  30.419  29.532  1.00  0.00     0.049 A 
ATOM     50  H   UNL A   1      41.788  30.017  29.094  1.00  0.00     0.167 HD
ATOM     51  C   UNL A   1      45.971  28.949  28.274  1.00  0.00     0.037 A 
ATOM     52  C   UNL A   1      39.745  31.640  30.101  1.00  0.00     0.037 A 
ATOM     53  C   UNL A   1      46.009  30.294  28.785  1.00  0.00     0.049 A 
ATOM     54  C   UNL A   1      41.027  32.409  30.275  1.00  0.00     0.074 A 
ATOM     55  C   UNL A   1      47.105  31.124  28.940  1.00  0.00     0.029 A 
ATOM     56  N   UNL A   1      44.902  31.008  29.222  1.00  0.00    -0.354 N 
ATOM     57  N   UNL A   1      42.251  32.056  29.960  1.00  0.00    -0.248 NA
ATOM     58  C   UNL A   1      40.923  33.747  30.875  1.00  0.00     0.031 C 
ATOM     59  C   UNL A   1      46.668  32.321  29.515  1.00  0.00     0.029 A 
ATOM     60  C   UNL A   1      45.292  32.259  29.667  1.00  0.00     0.049 A 
ATOM     61  H   UNL A   1      43.976  30.673  29.217  1.00  0.00     0.167 HD
ATOM     62  C   UNL A   1      43.058  33.137  30.297  1.00  0.00     0.074 A 
ATOM     63  C   UNL A   1      42.182  34.162  30.826  1.00  0.00     0.031 C 
ATOM     64  C   UNL A   1      44.403  33.271  30.180  1.00  0.00     0.037 A 
BRANCH  51  65
ATOM     65  C   UNL A   1      47.269  28.292  27.892  1.00  0.00     0.058 A 
ATOM     66  C   UNL A   1      48.025  27.556  28.819  1.00  0.00     0.135 A 
ATOM     67  C   UNL A   1      47.744  28.360  26.571  1.00  0.00     0.135 A 
ATOM     68  F   UNL A   1      47.629  27.471  30.099  1.00  0.00    -0.206 F 
ATOM     69  C   UNL A   1      49.216  26.933  28.459  1.00  0.00     0.059 A 
ATOM     70  C   UNL A   1      48.916  27.718  26.181  1.00  0.00     0.059 A 
ATOM     71  F   UNL A   1      47.063  29.051  25.644  1.00  0.00    -0.206 F 
ATOM     72  C   UNL A   1      49.652  27.018  27.135  1.00  0.00     0.060 A 
BRANCH  72  73
ATOM     73  S   UNL A   1      51.189  26.187  26.683  1.00  0.00     0.124 S 
ATOM     74  O   UNL A   1      51.186  26.340  25.231  1.00  0.00    -0.237 OA
ATOM     75  O   UNL A   1      52.189  26.972  27.400  1.00  0.00    -0.237 OA
ATOM     76  O   UNL A   1      50.997  24.825  27.169  1.00  0.00    -0.744 OA
ENDBRANCH  72  73
ENDBRANCH  51  65
BRANCH  52  77
ATOM     77  C   UNL A   1      38.442  32.217  30.528  1.00  0.00     0.058 A 
ATOM     78  C   UNL A   1      37.756  33.133  29.718  1.00  0.00     0.135 A 
ATOM     79  C   UNL A   1      37.855  31.863  31.753  1.00  0.00     0.135 A 
ATOM     80  F   UNL A   1      38.276  33.507  28.538  1.00  0.00    -0.206 F 
ATOM     81  C   UNL A   1      36.547  33.696  30.114  1.00  0.00     0.059 A 
ATOM     82  C   UNL A   1      36.634  32.391  32.159  1.00  0.00     0.059 A 
ATOM     83  F   UNL A   1      38.461  30.976  32.559  1.00  0.00    -0.206 F 
ATOM     84  C   UNL A   1      35.993  33.317  31.339  1.00  0.00     0.060 A 
BRANCH  84  85
ATOM     85  S   UNL A   1      34.406  34.028  31.828  1.00  0.00     0.124 S 
ATOM     86  O   UNL A   1      33.886  32.999  32.720  1.00  0.00    -0.237 OA
ATOM     87  O   UNL A   1      34.813  35.278  32.460  1.00  0.00    -0.237 OA
ATOM     88  O   UNL A   1      33.702  34.178  30.558  1.00  0.00    -0.744 OA
ENDBRANCH  84  85
ENDBRANCH  52  77
BRANCH  64  89
ATOM     89  C   UNL A   1      45.006  34.584  30.595  1.00  0.00     0.058 A 
ATOM     90  C   UNL A   1      45.500  34.795  31.892  1.00  0.00     0.135 A 
ATOM     91  C   UNL A   1      45.142  35.627  29.664  1.00  0.00     0.135 A 
ATOM     92  F   UNL A   1      45.390  33.832  32.821  1.00  0.00    -0.206 F 
ATOM     93  C   UNL A   1      46.084  36.003  32.258  1.00  0.00     0.059 A 
ATOM     94  C   UNL A   1      45.750  36.832  29.999  1.00  0.00     0.059 A 
ATOM     95  F   UNL A   1      44.697  35.474  28.406  1.00  0.00    -0.206 F 
ATOM     96  C   UNL A   1      46.206  37.014  31.304  1.00  0.00     0.060 A 
BRANCH  96  97
ATOM     97  S   UNL A   1      46.997  38.564  31.784  1.00  0.00     0.124 S 
ATOM     98  O   UNL A   1      45.869  39.490  31.757  1.00  0.00    -0.237 OA
ATOM     99  O   UNL A   1      47.524  38.248  33.108  1.00  0.00    -0.237 OA
ATOM    100  O   UNL A   1      48.002  38.770  30.748  1.00  0.00    -0.744 OA
ENDBRANCH  96  97
ENDBRANCH  64  89
ENDBRANCH  38  39
ENDBRANCH  30  33
ENDBRANCH  28  29
ENDBRANCH  27  28
ENDBRANCH  26  27
ENDBRANCH   3  26
TORSDOF 20
ENDMDL
MODEL 2
REMARK VINA RESULT:     -10.3      2.680      5.122
REMARK SMILES [NH3+][C@@H](CCCCC(=O)NCCCNC(=O)c1ccc(-c2c3nc(c(-c4c(F)cc(S(=O)(=O)[O-])cc4F)c4ccc([nH]4)c(-c4c(F)cc(S(=O)(=O)[O-])cc4F)c4nc(c(-c5c(F)cc(S(=O)(=O)[O-])cc5F)c5ccc2[nH]5)C=C4)C=C3)cc1)c1ccc(-c2ccccc2)cc1
REMARK SMILES IDX 7 1 8 2 9 3 6 5 5 6 4 7 3 8 2 9 1 10 82 14 83 15 93 16 84 17
REMARK SMILES IDX 92 18 85 19 86 20 87 21 91 22 88 23 90 24 89 25 10 26 11 27
REMARK SMILES IDX 12 28 13 29 14 30 15 32 16 33 17 34 81 35 18 36 80 37 19 38
REMARK SMILES IDX 20 39 21 40 74 41 22 42 79 43 73 44 75 45 23 46 78 47 72 48
REMARK SMILES IDX 71 49 24 51 58 52 37 53 57 54 38 55 41 56 56 57 76 58 39 59
REMARK SMILES IDX 40 60 55 62 77 63 42 64 25 65 26 66 35 67 27 68 28 69 34 70
REMARK SMILES IDX 36 71 29 72 30 73 31 74 32 75 33 76 59 77 60 78 69 79 61 80
REMARK SMILES IDX 62 81 68 82 70 83 63 84 64 85 65 86 66 87 67 88 43 89 44 90
REMARK SMILES IDX 53 91 45 92 46 93 52 94 54 95 47 96 48 97 49 98 50 99 51 100
REMARK H PARENT 9 4 1 11 1 12 1 13 13 31 75 50 41 61
REMARK Flexibility Score: inf
ROOT
ATOM      1  C   UNL A   1      35.515  22.239  26.215  1.00  0.00     0.219 C 
ATOM      2  O   UNL A   1      34.540  21.981  26.923  1.00  0.00    -0.275 OA
ATOM      3  N   UNL A   1      36.106  21.219  25.536  1.00  0.00    -0.356 N 
ATOM      4  H   UNL A   1      35.675  20.340  25.636  1.00  0.00     0.163 HD
ENDROOT
BRANCH   1   5
ATOM      5  C   UNL A   1      36.029  23.658  26.073  1.00  0.00     0.100 C 
BRANCH   5   6
ATOM      6  C   UNL A   1      35.369  24.460  24.949  1.00  0.00     0.010 C 
BRANCH   6   7
ATOM      7  C   UNL A   1      34.376  25.589  25.292  1.00  0.00     0.007 C 
BRANCH   7   8
ATOM      8  C   UNL A   1      32.958  25.223  25.776  1.00  0.00     0.070 C 
BRANCH   8   9
ATOM      9  C   UNL A   1      31.948  24.779  24.698  1.00  0.00     0.211 C 
BRANCH   9  10
ATOM     10  N   UNL A   1      30.611  25.315  24.950  1.00  0.00    -0.351 N 
ATOM     11  H   UNL A   1      29.987  24.558  25.227  1.00  0.00     0.345 HD
ATOM     12  H   UNL A   1      30.256  25.755  24.101  1.00  0.00     0.345 HD
ATOM     13  H   UNL A   1      30.658  26.008  25.697  1.00  0.00     0.345 HD
ENDBRANCH   9  10
BRANCH   9  14
ATOM     14  C   UNL A   1      31.991  23.274  24.537  1.00  0.00     0.009 A 
ATOM     15  C   UNL A   1      32.771  22.717  23.514  1.00  0.00     0.010 A 
ATOM     16  C   UNL A   1      31.403  22.413  25.470  1.00  0.00     0.010 A 
ATOM     17  C   UNL A   1      33.000  21.339  23.462  1.00  0.00     0.009 A 
ATOM     18  C   UNL A   1      31.656  21.041  25.430  1.00  0.00     0.009 A 
ATOM     19  C   UNL A   1      32.470  20.477  24.434  1.00  0.00    -0.018 A 
BRANCH  19  20
ATOM     20  C   UNL A   1      32.755  19.032  24.423  1.00  0.00    -0.018 A 
ATOM     21  C   UNL A   1      32.843  18.289  25.614  1.00  0.00     0.009 A 
ATOM     22  C   UNL A   1      32.936  18.344  23.211  1.00  0.00     0.009 A 
ATOM     23  C   UNL A   1      33.115  16.919  25.592  1.00  0.00     0.001 A 
ATOM     24  C   UNL A   1      33.200  16.973  23.186  1.00  0.00     0.001 A 
ATOM     25  C   UNL A   1      33.296  16.263  24.377  1.00  0.00     0.000 A 
ENDBRANCH  19  20
ENDBRANCH   9  14
ENDBRANCH   8   9
ENDBRANCH   7   8
ENDBRANCH   6   7
ENDBRANCH   5   6
ENDBRANCH   1   5
BRANCH   3  26
ATOM     26  C   UNL A   1      37.279  21.244  24.689  1.00  0.00     0.117 C 
BRANCH  26  27
ATOM     27  C   UNL A   1      38.206  20.080  25.003  1.00  0.00     0.042 C 
BRANCH  27  28
ATOM     28  C   UNL A   1      39.250  20.389  26.058  1.00  0.00     0.118 C 
BRANCH  28  29
ATOM     29  N   UNL A   1      40.328  19.416  26.072  1.00  0.00    -0.352 N 
ATOM     30  C   UNL A   1      41.687  19.602  26.139  1.00  0.00     0.251 C 
ATOM     31  H   UNL A   1      40.039  18.476  26.026  1.00  0.00     0.163 HD
ATOM     32  O   UNL A   1      42.428  18.645  25.937  1.00  0.00    -0.269 OA
BRANCH  30  33
ATOM     33  C   UNL A   1      42.258  20.939  26.424  1.00  0.00     0.039 A 
ATOM     34  C   UNL A   1      42.566  21.781  25.352  1.00  0.00     0.014 A 
ATOM     35  C   UNL A   1      42.518  21.363  27.730  1.00  0.00     0.014 A 
ATOM     36  C   UNL A   1      43.080  23.057  25.593  1.00  0.00     0.010 A 
ATOM     37  C   UNL A   1      42.924  22.672  27.973  1.00  0.00     0.010 A 
ATOM     38  C   UNL A   1      43.232  23.527  26.907  1.00  0.00    -0.014 A 
BRANCH  38  39
ATOM     39  C   UNL A   1      43.743  24.894  27.187  1.00  0.00     0.031 A 
ATOM     40  C   UNL A   1      45.207  25.203  27.004  1.00  0.00     0.074 A 
ATOM     41  C   UNL A   1      42.903  25.840  27.651  1.00  0.00     0.049 A 
ATOM     42  N   UNL A   1      45.854  26.313  27.250  1.00  0.00    -0.248 NA
ATOM     43  C   UNL A   1      46.064  24.112  26.508  1.00  0.00     0.031 C 
ATOM     44  C   UNL A   1      41.475  25.647  27.921  1.00  0.00     0.029 A 
ATOM     45  N   UNL A   1      43.126  27.151  27.987  1.00  0.00    -0.354 N 
ATOM     46  C   UNL A   1      47.187  26.048  26.956  1.00  0.00     0.074 A 
ATOM     47  C   UNL A   1      47.269  24.656  26.574  1.00  0.00     0.031 C 
ATOM     48  C   UNL A   1      40.947  26.804  28.349  1.00  0.00     0.029 A 
ATOM     49  C   UNL A   1      42.001  27.810  28.427  1.00  0.00     0.049 A 
ATOM     50  H   UNL A   1      44.008  27.582  27.917  1.00  0.00     0.167 HD
ATOM     51  C   UNL A   1      48.244  26.895  26.972  1.00  0.00     0.037 A 
ATOM     52  C   UNL A   1      41.838  29.077  28.853  1.00  0.00     0.037 A 
ATOM     53  C   UNL A   1      48.148  28.288  27.321  1.00  0.00     0.049 A 
ATOM     54  C   UNL A   1      43.027  30.001  28.859  1.00  0.00     0.074 A 
ATOM     55  C   UNL A   1      49.145  29.248  27.313  1.00  0.00     0.029 A 
ATOM     56  N   UNL A   1      46.986  28.922  27.740  1.00  0.00    -0.354 N 
ATOM     57  N   UNL A   1      44.268  29.750  28.513  1.00  0.00    -0.248 NA
ATOM     58  C   UNL A   1      42.794  31.381  29.306  1.00  0.00     0.031 C 
ATOM     59  C   UNL A   1      48.597  30.449  27.772  1.00  0.00     0.029 A 
ATOM     60  C   UNL A   1      47.246  30.254  28.013  1.00  0.00     0.049 A 
ATOM     61  H   UNL A   1      46.107  28.488  27.831  1.00  0.00     0.167 HD
ATOM     62  C   UNL A   1      44.957  30.947  28.673  1.00  0.00     0.074 A 
ATOM     63  C   UNL A   1      43.992  31.925  29.132  1.00  0.00     0.031 C 
ATOM     64  C   UNL A   1      46.269  31.215  28.459  1.00  0.00     0.037 A 
BRANCH  51  65
ATOM     65  C   UNL A   1      49.592  26.345  26.590  1.00  0.00     0.058 A 
ATOM     66  C   UNL A   1      50.020  26.302  25.253  1.00  0.00     0.135 A 
ATOM     67  C   UNL A   1      50.486  25.897  27.576  1.00  0.00     0.135 A 
ATOM     68  F   UNL A   1      49.200  26.700  24.267  1.00  0.00    -0.206 F 
ATOM     69  C   UNL A   1      51.273  25.810  24.904  1.00  0.00     0.059 A 
ATOM     70  C   UNL A   1      51.757  25.430  27.253  1.00  0.00     0.059 A 
ATOM     71  F   UNL A   1      50.130  25.914  28.870  1.00  0.00    -0.206 F 
ATOM     72  C   UNL A   1      52.137  25.379  25.913  1.00  0.00     0.060 A 
BRANCH  72  73
ATOM     73  S   UNL A   1      53.767  24.762  25.443  1.00  0.00     0.124 S 
ATOM     74  O   UNL A   1      53.444  23.421  24.964  1.00  0.00    -0.237 OA
ATOM     75  O   UNL A   1      54.178  25.717  24.419  1.00  0.00    -0.237 OA
ATOM     76  O   UNL A   1      54.525  24.816  26.688  1.00  0.00    -0.744 OA
ENDBRANCH  72  73
ENDBRANCH  51  65
BRANCH  52  77
ATOM     77  C   UNL A   1      40.498  29.553  29.289  1.00  0.00     0.058 A 
ATOM     78  C   UNL A   1      40.214  29.773  30.645  1.00  0.00     0.135 A 
ATOM     79  C   UNL A   1      39.474  29.802  28.361  1.00  0.00     0.135 A 
ATOM     80  F   UNL A   1      41.157  29.548  31.573  1.00  0.00    -0.206 F 
ATOM     81  C   UNL A   1      38.959  30.198  31.069  1.00  0.00     0.059 A 
ATOM     82  C   UNL A   1      38.220  30.254  28.757  1.00  0.00     0.059 A 
ATOM     83  F   UNL A   1      39.698  29.625  27.049  1.00  0.00    -0.206 F 
ATOM     84  C   UNL A   1      37.967  30.436  30.115  1.00  0.00     0.060 A 
BRANCH  84  85
ATOM     85  S   UNL A   1      36.352  31.022  30.674  1.00  0.00     0.124 S 
ATOM     86  O   UNL A   1      35.576  30.961  29.442  1.00  0.00    -0.237 OA
ATOM     87  O   UNL A   1      36.008  30.040  31.697  1.00  0.00    -0.237 OA
ATOM     88  O   UNL A   1      36.638  32.363  31.175  1.00  0.00    -0.744 OA
ENDBRANCH  84  85
ENDBRANCH  52  77
BRANCH  64  89
ATOM     89  C   UNL A   1      46.733  32.628  28.682  1.00  0.00     0.058 A 
ATOM     90  C   UNL A   1      47.247  33.052  29.918  1.00  0.00     0.135 A 
ATOM     91  C   UNL A   1      46.712  33.555  27.627  1.00  0.00     0.135 A 
ATOM     92  F   UNL A   1      47.283  32.206  30.960  1.00  0.00    -0.206 F 
ATOM     93  C   UNL A   1      47.702  34.352  30.106  1.00  0.00     0.059 A 
ATOM     94  C   UNL A   1      47.190  34.852  27.784  1.00  0.00     0.059 A 
ATOM     95  F   UNL A   1      46.241  33.198  26.421  1.00  0.00    -0.206 F 
ATOM     96  C   UNL A   1      47.671  35.244  29.033  1.00  0.00     0.060 A 
BRANCH  96  97
ATOM     97  S   UNL A   1      48.295  36.920  29.283  1.00  0.00     0.124 S 
ATOM     98  O   UNL A   1      48.304  37.016  30.739  1.00  0.00    -0.237 OA
ATOM     99  O   UNL A   1      49.605  36.863  28.643  1.00  0.00    -0.237 OA
ATOM    100  O   UNL A   1      47.309  37.755  28.605  1.00  0.00    -0.744 OA
ENDBRANCH  96  97
ENDBRANCH  64  89
ENDBRANCH  38  39
ENDBRANCH  30  33
ENDBRANCH  28  29
ENDBRANCH  27  28
ENDBRANCH  26  27
ENDBRANCH   3  26
TORSDOF 20
ENDMDL
MODEL 3
REMARK VINA RESULT:     -10.2      2.860      3.884
REMARK SMILES [NH3+][C@@H](CCCCC(=O)NCCCNC(=O)c1ccc(-c2c3nc(c(-c4c(F)cc(S(=O)(=O)[O-])cc4F)c4ccc([nH]4)c(-c4c(F)cc(S(=O)(=O)[O-])cc4F)c4nc(c(-c5c(F)cc(S(=O)(=O)[O-])cc5F)c5ccc2[nH]5)C=C4)C=C3)cc1)c1ccc(-c2ccccc2)cc1
REMARK SMILES IDX 7 1 8 2 9 3 6 5 5 6 4 7 3 8 2 9 1 10 82 14 83 15 93 16 84 17
REMARK SMILES IDX 92 18 85 19 86 20 87 21 91 22 88 23 90 24 89 25 10 26 11 27
REMARK SMILES IDX 12 28 13 29 14 30 15 32 16 33 17 34 81 35 18 36 80 37 19 38
REMARK SMILES IDX 20 39 21 40 74 41 22 42 79 43 73 44 75 45 23 46 78 47 72 48
REMARK SMILES IDX 71 49 24 51 58 52 37 53 57 54 38 55 41 56 56 57 76 58 39 59
REMARK SMILES IDX 40 60 55 62 77 63 42 64 25 65 26 66 35 67 27 68 28 69 34 70
REMARK SMILES IDX 36 71 29 72 30 73 31 74 32 75 33 76 59 77 60 78 69 79 61 80
REMARK SMILES IDX 62 81 68 82 70 83 63 84 64 85 65 86 66 87 67 88 43 89 44 90
REMARK SMILES IDX 53 91 45 92 46 93 52 94 54 95 47 96 48 97 49 98 50 99 51 100
REMARK H PARENT 9 4 1 11 1 12 1 13 13 31 75 50 41 61
REMARK Flexibility Score: inf
ROOT
ATOM      1  C   UNL A   1      35.312  21.811  26.195  1.00  0.00     0.219 C 
ATOM      2  O   UNL A   1      34.404  21.493  26.964  1.00  0.00    -0.275 OA
ATOM      3  N   UNL A   1      35.989  20.820  25.553  1.00  0.00    -0.356 N 
ATOM      4  H   UNL A   1      35.666  19.907  25.728  1.00  0.00     0.163 HD
ENDROOT
BRANCH   1   5
ATOM      5  C   UNL A   1      35.654  23.266  25.940  1.00  0.00     0.100 C 
BRANCH   5   6
ATOM      6  C   UNL A   1      34.763  23.951  24.902  1.00  0.00     0.010 C 
BRANCH   6   7
ATOM      7  C   UNL A   1      33.254  24.117  25.172  1.00  0.00     0.007 C 
BRANCH   7   8
ATOM      8  C   UNL A   1      32.249  23.243  24.395  1.00  0.00     0.070 C 
BRANCH   8   9
ATOM      9  C   UNL A   1      31.745  23.796  23.045  1.00  0.00     0.211 C 
BRANCH   9  10
ATOM     10  N   UNL A   1      32.745  23.648  21.988  1.00  0.00    -0.351 N 
ATOM     11  H   UNL A   1      32.411  22.979  21.295  1.00  0.00     0.345 HD
ATOM     12  H   UNL A   1      33.619  23.313  22.392  1.00  0.00     0.345 HD
ATOM     13  H   UNL A   1      32.902  24.552  21.541  1.00  0.00     0.345 HD
ENDBRANCH   9  10
BRANCH   9  14
ATOM     14  C   UNL A   1      31.237  25.211  23.222  1.00  0.00     0.009 A 
ATOM     15  C   UNL A   1      31.780  26.237  22.437  1.00  0.00     0.010 A 
ATOM     16  C   UNL A   1      30.135  25.505  24.033  1.00  0.00     0.010 A 
ATOM     17  C   UNL A   1      31.198  27.508  22.423  1.00  0.00     0.009 A 
ATOM     18  C   UNL A   1      29.541  26.768  23.996  1.00  0.00     0.009 A 
ATOM     19  C   UNL A   1      30.052  27.791  23.181  1.00  0.00    -0.018 A 
BRANCH  19  20
ATOM     20  C   UNL A   1      29.396  29.109  23.126  1.00  0.00    -0.018 A 
ATOM     21  C   UNL A   1      28.267  29.337  22.320  1.00  0.00     0.009 A 
ATOM     22  C   UNL A   1      29.876  30.183  23.896  1.00  0.00     0.009 A 
ATOM     23  C   UNL A   1      27.654  30.592  22.274  1.00  0.00     0.001 A 
ATOM     24  C   UNL A   1      29.259  31.435  23.859  1.00  0.00     0.001 A 
ATOM     25  C   UNL A   1      28.152  31.640  23.043  1.00  0.00     0.000 A 
ENDBRANCH  19  20
ENDBRANCH   9  14
ENDBRANCH   8   9
ENDBRANCH   7   8
ENDBRANCH   6   7
ENDBRANCH   5   6
ENDBRANCH   1   5
BRANCH   3  26
ATOM     26  C   UNL A   1      37.116  20.919  24.650  1.00  0.00     0.117 C 
BRANCH  26  27
ATOM     27  C   UNL A   1      38.189  19.900  25.000  1.00  0.00     0.042 C 
BRANCH  27  28
ATOM     28  C   UNL A   1      39.307  20.453  25.861  1.00  0.00     0.118 C 
BRANCH  28  29
ATOM     29  N   UNL A   1      40.352  19.474  26.105  1.00  0.00    -0.352 N 
ATOM     30  C   UNL A   1      41.694  19.651  26.335  1.00  0.00     0.251 C 
ATOM     31  H   UNL A   1      40.051  18.536  26.107  1.00  0.00     0.163 HD
ATOM     32  O   UNL A   1      42.434  18.672  26.320  1.00  0.00    -0.269 OA
BRANCH  30  33
ATOM     33  C   UNL A   1      42.253  21.003  26.572  1.00  0.00     0.039 A 
ATOM     34  C   UNL A   1      42.454  21.848  25.476  1.00  0.00     0.014 A 
ATOM     35  C   UNL A   1      42.605  21.438  27.852  1.00  0.00     0.014 A 
ATOM     36  C   UNL A   1      42.954  23.137  25.674  1.00  0.00     0.010 A 
ATOM     37  C   UNL A   1      42.996  22.758  28.059  1.00  0.00     0.010 A 
ATOM     38  C   UNL A   1      43.198  23.616  26.971  1.00  0.00    -0.014 A 
BRANCH  38  39
ATOM     39  C   UNL A   1      43.695  24.996  27.206  1.00  0.00     0.031 A 
ATOM     40  C   UNL A   1      45.153  25.318  26.994  1.00  0.00     0.074 A 
ATOM     41  C   UNL A   1      42.850  25.944  27.657  1.00  0.00     0.049 A 
ATOM     42  N   UNL A   1      45.789  26.442  27.201  1.00  0.00    -0.248 NA
ATOM     43  C   UNL A   1      46.016  24.224  26.515  1.00  0.00     0.031 C 
ATOM     44  C   UNL A   1      41.428  25.740  27.953  1.00  0.00     0.029 A 
ATOM     45  N   UNL A   1      43.060  27.266  27.955  1.00  0.00    -0.354 N 
ATOM     46  C   UNL A   1      47.120  26.186  26.894  1.00  0.00     0.074 A 
ATOM     47  C   UNL A   1      47.215  24.785  26.548  1.00  0.00     0.031 C 
ATOM     48  C   UNL A   1      40.891  26.902  28.358  1.00  0.00     0.029 A 
ATOM     49  C   UNL A   1      41.934  27.922  28.394  1.00  0.00     0.049 A 
ATOM     50  H   UNL A   1      43.936  27.706  27.861  1.00  0.00     0.167 HD
ATOM     51  C   UNL A   1      48.167  27.046  26.873  1.00  0.00     0.037 A 
ATOM     52  C   UNL A   1      41.761  29.199  28.787  1.00  0.00     0.037 A 
ATOM     53  C   UNL A   1      48.058  28.447  27.186  1.00  0.00     0.049 A 
ATOM     54  C   UNL A   1      42.938  30.136  28.752  1.00  0.00     0.074 A 
ATOM     55  C   UNL A   1      49.042  29.418  27.137  1.00  0.00     0.029 A 
ATOM     56  N   UNL A   1      46.894  29.077  27.605  1.00  0.00    -0.354 N 
ATOM     57  N   UNL A   1      44.177  29.892  28.394  1.00  0.00    -0.248 NA
ATOM     58  C   UNL A   1      42.694  31.526  29.165  1.00  0.00     0.031 C 
ATOM     59  C   UNL A   1      48.486  30.625  27.572  1.00  0.00     0.029 A 
ATOM     60  C   UNL A   1      47.141  30.419  27.838  1.00  0.00     0.049 A 
ATOM     61  H   UNL A   1      46.022  28.635  27.719  1.00  0.00     0.167 HD
ATOM     62  C   UNL A   1      44.853  31.101  28.512  1.00  0.00     0.074 A 
ATOM     63  C   UNL A   1      43.882  32.079  28.959  1.00  0.00     0.031 C 
ATOM     64  C   UNL A   1      46.158  31.380  28.273  1.00  0.00     0.037 A 
BRANCH  51  65
ATOM     65  C   UNL A   1      49.516  26.503  26.486  1.00  0.00     0.058 A 
ATOM     66  C   UNL A   1      50.316  25.796  27.399  1.00  0.00     0.135 A 
ATOM     67  C   UNL A   1      49.997  26.651  25.174  1.00  0.00     0.135 A 
ATOM     68  F   UNL A   1      49.915  25.639  28.671  1.00  0.00    -0.206 F 
ATOM     69  C   UNL A   1      51.555  25.278  27.034  1.00  0.00     0.059 A 
ATOM     70  C   UNL A   1      51.219  26.114  24.779  1.00  0.00     0.059 A 
ATOM     71  F   UNL A   1      49.275  27.318  24.262  1.00  0.00    -0.206 F 
ATOM     72  C   UNL A   1      51.996  25.440  25.719  1.00  0.00     0.060 A 
BRANCH  72  73
ATOM     73  S   UNL A   1      53.598  24.745  25.259  1.00  0.00     0.124 S 
ATOM     74  O   UNL A   1      53.932  25.539  24.080  1.00  0.00    -0.237 OA
ATOM     75  O   UNL A   1      54.403  25.005  26.447  1.00  0.00    -0.237 OA
ATOM     76  O   UNL A   1      53.298  23.340  25.002  1.00  0.00    -0.744 OA
ENDBRANCH  72  73
ENDBRANCH  51  65
BRANCH  52  77
ATOM     77  C   UNL A   1      40.421  29.670  29.231  1.00  0.00     0.058 A 
ATOM     78  C   UNL A   1      40.152  29.918  30.584  1.00  0.00     0.135 A 
ATOM     79  C   UNL A   1      39.382  29.884  28.310  1.00  0.00     0.135 A 
ATOM     80  F   UNL A   1      41.110  29.725  31.505  1.00  0.00    -0.206 F 
ATOM     81  C   UNL A   1      38.898  30.338  31.016  1.00  0.00     0.059 A 
ATOM     82  C   UNL A   1      38.129  30.332  28.713  1.00  0.00     0.059 A 
ATOM     83  F   UNL A   1      39.592  29.680  27.000  1.00  0.00    -0.206 F 
ATOM     84  C   UNL A   1      37.891  30.543  30.070  1.00  0.00     0.060 A 
BRANCH  84  85
ATOM     85  S   UNL A   1      36.277  31.123  30.635  1.00  0.00     0.124 S 
ATOM     86  O   UNL A   1      35.901  30.075  31.575  1.00  0.00    -0.237 OA
ATOM     87  O   UNL A   1      36.605  32.420  31.219  1.00  0.00    -0.237 OA
ATOM     88  O   UNL A   1      35.493  31.179  29.405  1.00  0.00    -0.744 OA
ENDBRANCH  84  85
ENDBRANCH  52  77
BRANCH  64  89
ATOM     89  C   UNL A   1      46.607  32.804  28.451  1.00  0.00     0.058 A 
ATOM     90  C   UNL A   1      47.100  33.276  29.677  1.00  0.00     0.135 A 
ATOM     91  C   UNL A   1      46.594  33.692  27.363  1.00  0.00     0.135 A 
ATOM     92  F   UNL A   1      47.128  32.469  30.750  1.00  0.00    -0.206 F 
ATOM     93  C   UNL A   1      47.541  34.587  29.826  1.00  0.00     0.059 A 
ATOM     94  C   UNL A   1      47.058  34.998  27.480  1.00  0.00     0.059 A 
ATOM     95  F   UNL A   1      46.143  33.288  26.164  1.00  0.00    -0.206 F 
ATOM     96  C   UNL A   1      47.518  35.439  28.720  1.00  0.00     0.060 A 
BRANCH  96  97
ATOM     97  S   UNL A   1      48.125  37.128  28.918  1.00  0.00     0.124 S 
ATOM     98  O   UNL A   1      47.997  37.319  30.360  1.00  0.00    -0.237 OA
ATOM     99  O   UNL A   1      49.490  37.030  28.411  1.00  0.00    -0.237 OA
ATOM    100  O   UNL A   1      47.211  37.916  28.098  1.00  0.00    -0.744 OA
ENDBRANCH  96  97
ENDBRANCH  64  89
ENDBRANCH  38  39
ENDBRANCH  30  33
ENDBRANCH  28  29
ENDBRANCH  27  28
ENDBRANCH  26  27
ENDBRANCH   3  26
TORSDOF 20
ENDMDL
