MODEL 1
REMARK VINA RESULT:     -13.0      0.000      0.000
REMARK SMILES Cc1c(NS(=O)(=O)c2ccc3c(c2)COC3)cccc1C(=O)NCCCNC(=O)c1ccc(-c2c3nc(c(-c4c(F)cc(S(=O)(=O)[O-])cc4F)c4ccc([nH]4)c(-c4c(F)cc(S(=O)(=O)[O-])cc4F)c4nc(c(-c5c(F)cc(S(=O)(=O)[O-])cc5F)c5ccc2[nH]5)C=C4)C=C3)cc1
REMARK SMILES IDX 25 1 24 2 23 3 21 4 22 5 20 7 1 8 2 9 3 10 17 11 19 12 18 13
REMARK SMILES IDX 4 14 5 16 6 17 7 18 8 19 9 20 13 21 10 22 12 23 11 24 14 25
REMARK SMILES IDX 16 26 15 27 26 28 27 29 28 30 29 32 30 33 31 34 95 35 32 36
REMARK SMILES IDX 94 37 33 38 34 39 35 40 88 41 36 42 93 43 87 44 89 45 37 46
REMARK SMILES IDX 92 47 86 48 85 49 38 51 72 52 51 53 71 54 52 55 55 56 70 57
REMARK SMILES IDX 90 58 53 59 54 60 69 62 91 63 56 64 39 65 40 66 49 67 41 68
REMARK SMILES IDX 42 69 48 70 50 71 43 72 44 73 45 74 46 75 47 76 73 77 74 78
REMARK SMILES IDX 83 79 75 80 76 81 82 82 84 83 77 84 78 85 79 86 80 87 81 88
REMARK SMILES IDX 57 89 58 90 67 91 59 92 60 93 66 94 68 95 61 96 62 97 63 98
REMARK SMILES IDX 64 99 65 100
REMARK H PARENT 23 6 4 15 27 31 89 50 55 61
REMARK Flexibility Score: inf
ROOT
ATOM      1  C   UNL A   1      31.652  30.095  26.218  1.00  0.00     0.042 C 
ENDROOT
BRANCH   1   2
ATOM      2  C   UNL A   1      32.361  29.657  24.808  1.00  0.00     0.118 C 
BRANCH   2   3
ATOM      3  N   UNL A   1      31.495  29.412  23.626  1.00  0.00    -0.352 N 
ATOM      4  C   UNL A   1      31.127  28.319  22.871  1.00  0.00     0.251 C 
ATOM      5  O   UNL A   1      30.279  28.352  21.982  1.00  0.00    -0.269 OA
ATOM      6  H   UNL A   1      31.076  30.240  23.299  1.00  0.00     0.163 HD
BRANCH   4   7
ATOM      7  C   UNL A   1      31.720  27.016  23.192  1.00  0.00     0.044 A 
ATOM      8  C   UNL A   1      30.242  26.706  25.218  1.00  0.00     0.047 C 
ATOM      9  C   UNL A   1      31.119  26.159  24.124  1.00  0.00    -0.014 A 
ATOM     10  C   UNL A   1      31.359  24.795  23.958  1.00  0.00     0.053 A 
ATOM     11  C   UNL A   1      32.342  24.353  23.056  1.00  0.00     0.027 A 
ATOM     12  C   UNL A   1      32.796  26.607  22.392  1.00  0.00     0.014 A 
ATOM     13  C   UNL A   1      33.123  25.262  22.343  1.00  0.00     0.003 A 
BRANCH  10  14
ATOM     14  N   UNL A   1      30.550  23.809  24.612  1.00  0.00    -0.279 N 
ATOM     15  H   UNL A   1      29.677  23.576  24.223  1.00  0.00     0.180 HD
BRANCH  14  16
ATOM     16  S   UNL A   1      31.046  23.029  26.037  1.00  0.00     0.261 S 
ATOM     17  O   UNL A   1      31.030  24.020  27.114  1.00  0.00    -0.201 OA
ATOM     18  O   UNL A   1      30.227  21.856  26.125  1.00  0.00    -0.201 OA
BRANCH  16  19
ATOM     19  C   UNL A   1      32.731  22.515  25.818  1.00  0.00     0.088 A 
ATOM     20  C   UNL A   1      32.975  21.321  25.112  1.00  0.00     0.022 A 
ATOM     21  C   UNL A   1      33.782  23.342  26.224  1.00  0.00     0.028 A 
ATOM     22  C   UNL A   1      34.262  21.031  24.659  1.00  0.00     0.008 A 
ATOM     23  C   UNL A   1      35.025  23.093  25.672  1.00  0.00    -0.015 A 
ATOM     24  C   UNL A   1      35.249  21.974  24.881  1.00  0.00    -0.017 A 
ATOM     25  C   UNL A   1      36.248  23.934  25.686  1.00  0.00     0.196 C 
ATOM     26  C   UNL A   1      36.622  22.046  24.323  1.00  0.00     0.196 C 
ATOM     27  O   UNL A   1      37.031  23.410  24.585  1.00  0.00    -0.372 OA
ENDBRANCH  16  19
ENDBRANCH  14  16
ENDBRANCH  10  14
ENDBRANCH   4   7
ENDBRANCH   2   3
ENDBRANCH   1   2
BRANCH   1  28
ATOM     28  C   UNL A   1      32.080  31.530  26.780  1.00  0.00     0.118 C 
BRANCH  28  29
ATOM     29  N   UNL A   1      33.353  32.008  27.638  1.00  0.00    -0.352 N 
ATOM     30  C   UNL A   1      34.808  31.739  27.822  1.00  0.00     0.251 C 
ATOM     31  H   UNL A   1      33.078  32.725  28.252  1.00  0.00     0.163 HD
ATOM     32  O   UNL A   1      35.487  32.765  27.613  1.00  0.00    -0.269 OA
BRANCH  30  33
ATOM     33  C   UNL A   1      35.753  30.480  28.240  1.00  0.00     0.039 A 
ATOM     34  C   UNL A   1      35.950  30.102  29.614  1.00  0.00     0.014 A 
ATOM     35  C   UNL A   1      36.564  29.729  27.408  1.00  0.00     0.014 A 
ATOM     36  C   UNL A   1      37.267  29.675  30.083  1.00  0.00     0.010 A 
ATOM     37  C   UNL A   1      37.857  29.317  27.857  1.00  0.00     0.010 A 
ATOM     38  C   UNL A   1      38.314  29.568  29.156  1.00  0.00    -0.014 A 
BRANCH  38  39
ATOM     39  C   UNL A   1      39.796  29.884  29.403  1.00  0.00     0.031 A 
ATOM     40  C   UNL A   1      40.802  29.058  28.753  1.00  0.00     0.074 A 
ATOM     41  C   UNL A   1      40.400  30.951  30.024  1.00  0.00     0.049 A 
ATOM     42  N   UNL A   1      41.786  28.464  29.342  1.00  0.00    -0.248 NA
ATOM     43  C   UNL A   1      40.766  28.901  27.311  1.00  0.00     0.031 C 
ATOM     44  C   UNL A   1      41.807  31.387  30.166  1.00  0.00     0.029 A 
ATOM     45  N   UNL A   1      39.811  32.007  30.693  1.00  0.00    -0.354 N 
ATOM     46  C   UNL A   1      42.663  28.142  28.327  1.00  0.00     0.074 A 
ATOM     47  C   UNL A   1      41.870  28.183  27.116  1.00  0.00     0.031 C 
ATOM     48  C   UNL A   1      41.907  32.287  31.178  1.00  0.00     0.029 A 
ATOM     49  C   UNL A   1      40.590  32.445  31.760  1.00  0.00     0.049 A 
ATOM     50  H   UNL A   1      38.945  32.402  30.444  1.00  0.00     0.167 HD
ATOM     51  C   UNL A   1      44.018  28.204  28.505  1.00  0.00     0.037 A 
ATOM     52  C   UNL A   1      40.140  32.205  33.036  1.00  0.00     0.037 A 
ATOM     53  C   UNL A   1      44.370  28.854  29.783  1.00  0.00     0.049 A 
ATOM     54  C   UNL A   1      40.949  31.097  33.664  1.00  0.00     0.074 A 
ATOM     55  C   UNL A   1      44.965  30.064  30.123  1.00  0.00     0.029 A 
ATOM     56  N   UNL A   1      43.826  28.384  30.966  1.00  0.00    -0.354 N 
ATOM     57  N   UNL A   1      42.064  30.667  33.151  1.00  0.00    -0.248 NA
ATOM     58  C   UNL A   1      40.555  30.329  34.843  1.00  0.00     0.031 C 
ATOM     59  C   UNL A   1      44.771  30.296  31.520  1.00  0.00     0.029 A 
ATOM     60  C   UNL A   1      44.083  29.217  32.041  1.00  0.00     0.049 A 
ATOM     61  H   UNL A   1      43.312  27.547  31.036  1.00  0.00     0.167 HD
ATOM     62  C   UNL A   1      42.474  29.541  33.793  1.00  0.00     0.074 A 
ATOM     63  C   UNL A   1      41.514  29.383  34.874  1.00  0.00     0.031 C 
ATOM     64  C   UNL A   1      43.555  28.836  33.347  1.00  0.00     0.037 A 
BRANCH  51  65
ATOM     65  C   UNL A   1      45.019  27.957  27.379  1.00  0.00     0.058 A 
ATOM     66  C   UNL A   1      45.550  29.018  26.616  1.00  0.00     0.135 A 
ATOM     67  C   UNL A   1      45.550  26.690  27.041  1.00  0.00     0.135 A 
ATOM     68  F   UNL A   1      45.269  30.296  26.902  1.00  0.00    -0.206 F 
ATOM     69  C   UNL A   1      46.439  28.827  25.553  1.00  0.00     0.059 A 
ATOM     70  C   UNL A   1      46.371  26.461  25.934  1.00  0.00     0.059 A 
ATOM     71  F   UNL A   1      45.385  25.622  27.833  1.00  0.00    -0.206 F 
ATOM     72  C   UNL A   1      46.825  27.541  25.200  1.00  0.00     0.060 A 
BRANCH  72  73
ATOM     73  S   UNL A   1      48.009  27.307  23.862  1.00  0.00     0.124 S 
ATOM     74  O   UNL A   1      49.219  27.914  24.408  1.00  0.00    -0.237 OA
ATOM     75  O   UNL A   1      48.030  25.854  23.728  1.00  0.00    -0.237 OA
ATOM     76  O   UNL A   1      47.407  28.026  22.742  1.00  0.00    -0.744 OA
ENDBRANCH  72  73
ENDBRANCH  51  65
BRANCH  52  77
ATOM     77  C   UNL A   1      38.623  32.402  33.258  1.00  0.00     0.058 A 
ATOM     78  C   UNL A   1      38.022  31.407  34.046  1.00  0.00     0.135 A 
ATOM     79  C   UNL A   1      38.302  33.668  33.701  1.00  0.00     0.135 A 
ATOM     80  F   UNL A   1      37.586  30.279  33.472  1.00  0.00    -0.206 F 
ATOM     81  C   UNL A   1      37.858  31.562  35.426  1.00  0.00     0.059 A 
ATOM     82  C   UNL A   1      38.160  33.832  35.081  1.00  0.00     0.059 A 
ATOM     83  F   UNL A   1      38.550  34.747  32.941  1.00  0.00    -0.206 F 
ATOM     84  C   UNL A   1      38.178  32.790  35.978  1.00  0.00     0.060 A 
BRANCH  84  85
ATOM     85  S   UNL A   1      39.010  32.919  37.838  1.00  0.00     0.124 S 
ATOM     86  O   UNL A   1      40.323  32.393  37.533  1.00  0.00    -0.237 OA
ATOM     87  O   UNL A   1      39.074  34.321  38.187  1.00  0.00    -0.237 OA
ATOM     88  O   UNL A   1      38.239  32.082  38.740  1.00  0.00    -0.744 OA
ENDBRANCH  84  85
ENDBRANCH  52  77
BRANCH  64  89
ATOM     89  C   UNL A   1      44.173  27.685  34.089  1.00  0.00     0.058 A 
ATOM     90  C   UNL A   1      43.483  26.490  34.341  1.00  0.00     0.135 A 
ATOM     91  C   UNL A   1      45.452  27.788  34.686  1.00  0.00     0.135 A 
ATOM     92  F   UNL A   1      42.197  26.338  33.988  1.00  0.00    -0.206 F 
ATOM     93  C   UNL A   1      44.073  25.419  35.008  1.00  0.00     0.059 A 
ATOM     94  C   UNL A   1      46.040  26.754  35.395  1.00  0.00     0.059 A 
ATOM     95  F   UNL A   1      46.195  28.897  34.616  1.00  0.00    -0.206 F 
ATOM     96  C   UNL A   1      45.361  25.557  35.515  1.00  0.00     0.060 A 
BRANCH  96  97
ATOM     97  S   UNL A   1      46.127  24.175  36.364  1.00  0.00     0.124 S 
ATOM     98  O   UNL A   1      45.842  23.062  35.463  1.00  0.00    -0.237 OA
ATOM     99  O   UNL A   1      47.520  24.605  36.419  1.00  0.00    -0.237 OA
ATOM    100  O   UNL A   1      45.432  24.130  37.646  1.00  0.00    -0.744 OA
ENDBRANCH  96  97
ENDBRANCH  64  89
ENDBRANCH  38  39
ENDBRANCH  30  33
ENDBRANCH  28  29
ENDBRANCH   1  28
TORSDOF 16
ENDMDL
MODEL 2
REMARK VINA RESULT:     -13.0      4.827      9.028
REMARK SMILES Cc1c(NS(=O)(=O)c2ccc3c(c2)COC3)cccc1C(=O)NCCCNC(=O)c1ccc(-c2c3nc(c(-c4c(F)cc(S(=O)(=O)[O-])cc4F)c4ccc([nH]4)c(-c4c(F)cc(S(=O)(=O)[O-])cc4F)c4nc(c(-c5c(F)cc(S(=O)(=O)[O-])cc5F)c5ccc2[nH]5)C=C4)C=C3)cc1
REMARK SMILES IDX 25 1 24 2 23 3 21 4 22 5 20 7 1 8 2 9 3 10 17 11 19 12 18 13
REMARK SMILES IDX 4 14 5 16 6 17 7 18 8 19 9 20 13 21 10 22 12 23 11 24 14 25
REMARK SMILES IDX 16 26 15 27 26 28 27 29 28 30 29 32 30 33 31 34 95 35 32 36
REMARK SMILES IDX 94 37 33 38 34 39 35 40 88 41 36 42 93 43 87 44 89 45 37 46
REMARK SMILES IDX 92 47 86 48 85 49 38 51 72 52 51 53 71 54 52 55 55 56 70 57
REMARK SMILES IDX 90 58 53 59 54 60 69 62 91 63 56 64 39 65 40 66 49 67 41 68
REMARK SMILES IDX 42 69 48 70 50 71 43 72 44 73 45 74 46 75 47 76 73 77 74 78
REMARK SMILES IDX 83 79 75 80 76 81 82 82 84 83 77 84 78 85 79 86 80 87 81 88
REMARK SMILES IDX 57 89 58 90 67 91 59 92 60 93 66 94 68 95 61 96 62 97 63 98
REMARK SMILES IDX 64 99 65 100
REMARK H PARENT 23 6 4 15 27 31 89 50 55 61
REMARK Flexibility Score: inf
ROOT
ATOM      1  C   UNL A   1      33.615  30.579  27.260  1.00  0.00     0.042 C 
ENDROOT
BRANCH   1   2
ATOM      2  C   UNL A   1      33.723  29.712  25.874  1.00  0.00     0.118 C 
BRANCH   2   3
ATOM      3  N   UNL A   1      32.568  29.724  24.940  1.00  0.00    -0.352 N 
ATOM      4  C   UNL A   1      31.890  28.792  24.184  1.00  0.00     0.251 C 
ATOM      5  O   UNL A   1      30.860  29.033  23.559  1.00  0.00    -0.269 OA
ATOM      6  H   UNL A   1      32.189  30.626  24.835  1.00  0.00     0.163 HD
BRANCH   4   7
ATOM      7  C   UNL A   1      32.376  27.408  24.182  1.00  0.00     0.044 A 
ATOM      8  C   UNL A   1      30.949  26.776  26.170  1.00  0.00     0.047 C 
ATOM      9  C   UNL A   1      31.734  26.417  24.937  1.00  0.00    -0.014 A 
ATOM     10  C   UNL A   1      31.845  25.108  24.466  1.00  0.00     0.053 A 
ATOM     11  C   UNL A   1      32.751  24.800  23.437  1.00  0.00     0.027 A 
ATOM     12  C   UNL A   1      33.381  27.101  23.254  1.00  0.00     0.014 A 
ATOM     13  C   UNL A   1      33.584  25.779  22.897  1.00  0.00     0.003 A 
BRANCH  10  14
ATOM     14  N   UNL A   1      30.975  24.069  24.934  1.00  0.00    -0.279 N 
ATOM     15  H   UNL A   1      30.094  23.960  24.510  1.00  0.00     0.180 HD
BRANCH  14  16
ATOM     16  S   UNL A   1      31.412  23.021  26.197  1.00  0.00     0.261 S 
ATOM     17  O   UNL A   1      31.458  23.807  27.430  1.00  0.00    -0.201 OA
ATOM     18  O   UNL A   1      30.516  21.907  26.085  1.00  0.00    -0.201 OA
BRANCH  16  19
ATOM     19  C   UNL A   1      33.060  22.442  25.879  1.00  0.00     0.088 A 
ATOM     20  C   UNL A   1      33.233  21.420  24.925  1.00  0.00     0.022 A 
ATOM     21  C   UNL A   1      34.159  23.077  26.464  1.00  0.00     0.028 A 
ATOM     22  C   UNL A   1      34.505  21.142  24.427  1.00  0.00     0.008 A 
ATOM     23  C   UNL A   1      35.392  22.864  25.878  1.00  0.00    -0.015 A 
ATOM     24  C   UNL A   1      35.553  21.934  24.859  1.00  0.00    -0.017 A 
ATOM     25  C   UNL A   1      36.673  23.587  26.085  1.00  0.00     0.196 C 
ATOM     26  C   UNL A   1      36.939  22.025  24.338  1.00  0.00     0.196 C 
ATOM     27  O   UNL A   1      37.439  23.262  24.899  1.00  0.00    -0.372 OA
ENDBRANCH  16  19
ENDBRANCH  14  16
ENDBRANCH  10  14
ENDBRANCH   4   7
ENDBRANCH   2   3
ENDBRANCH   1   2
BRANCH   1  28
ATOM     28  C   UNL A   1      34.997  31.179  27.800  1.00  0.00     0.118 C 
BRANCH  28  29
ATOM     29  N   UNL A   1      36.143  30.551  28.737  1.00  0.00    -0.352 N 
ATOM     30  C   UNL A   1      37.579  30.150  28.722  1.00  0.00     0.251 C 
ATOM     31  H   UNL A   1      35.767  30.369  29.627  1.00  0.00     0.163 HD
ATOM     32  O   UNL A   1      38.228  30.764  29.593  1.00  0.00    -0.269 OA
BRANCH  30  33
ATOM     33  C   UNL A   1      38.528  29.119  27.894  1.00  0.00     0.039 A 
ATOM     34  C   UNL A   1      38.748  27.768  28.337  1.00  0.00     0.014 A 
ATOM     35  C   UNL A   1      39.324  29.407  26.799  1.00  0.00     0.014 A 
ATOM     36  C   UNL A   1      40.072  27.158  28.226  1.00  0.00     0.010 A 
ATOM     37  C   UNL A   1      40.623  28.822  26.690  1.00  0.00     0.010 A 
ATOM     38  C   UNL A   1      41.103  27.885  27.613  1.00  0.00    -0.014 A 
BRANCH  38  39
ATOM     39  C   UNL A   1      42.589  27.874  27.997  1.00  0.00     0.031 A 
ATOM     40  C   UNL A   1      43.331  29.125  27.946  1.00  0.00     0.074 A 
ATOM     41  C   UNL A   1      43.368  26.893  28.564  1.00  0.00     0.049 A 
ATOM     42  N   UNL A   1      44.445  29.316  27.323  1.00  0.00    -0.248 NA
ATOM     43  C   UNL A   1      42.839  30.270  28.689  1.00  0.00     0.031 C 
ATOM     44  C   UNL A   1      44.752  26.864  29.088  1.00  0.00     0.029 A 
ATOM     45  N   UNL A   1      43.031  25.588  28.861  1.00  0.00    -0.354 N 
ATOM     46  C   UNL A   1      44.954  30.482  27.857  1.00  0.00     0.074 A 
ATOM     47  C   UNL A   1      43.818  31.144  28.466  1.00  0.00     0.031 C 
ATOM     48  C   UNL A   1      45.174  25.579  29.193  1.00  0.00     0.029 A 
ATOM     49  C   UNL A   1      44.111  24.724  28.707  1.00  0.00     0.049 A 
ATOM     50  H   UNL A   1      42.133  25.302  29.148  1.00  0.00     0.167 HD
ATOM     51  C   UNL A   1      46.296  30.652  28.061  1.00  0.00     0.037 A 
ATOM     52  C   UNL A   1      44.085  23.830  27.663  1.00  0.00     0.037 A 
ATOM     53  C   UNL A   1      47.040  29.392  27.860  1.00  0.00     0.049 A 
ATOM     54  C   UNL A   1      45.042  24.276  26.585  1.00  0.00     0.074 A 
ATOM     55  C   UNL A   1      47.722  28.525  28.706  1.00  0.00     0.029 A 
ATOM     56  N   UNL A   1      46.894  28.689  26.676  1.00  0.00    -0.354 N 
ATOM     57  N   UNL A   1      45.934  25.202  26.780  1.00  0.00    -0.248 NA
ATOM     58  C   UNL A   1      45.035  23.802  25.202  1.00  0.00     0.031 C 
ATOM     59  C   UNL A   1      47.982  27.307  28.004  1.00  0.00     0.029 A 
ATOM     60  C   UNL A   1      47.485  27.439  26.722  1.00  0.00     0.049 A 
ATOM     61  H   UNL A   1      46.421  29.040  25.888  1.00  0.00     0.167 HD
ATOM     62  C   UNL A   1      46.516  25.549  25.601  1.00  0.00     0.074 A 
ATOM     63  C   UNL A   1      45.946  24.619  24.640  1.00  0.00     0.031 C 
ATOM     64  C   UNL A   1      47.394  26.593  25.535  1.00  0.00     0.037 A 
BRANCH  51  65
ATOM     65  C   UNL A   1      46.887  31.882  28.745  1.00  0.00     0.058 A 
ATOM     66  C   UNL A   1      47.073  33.096  28.050  1.00  0.00     0.135 A 
ATOM     67  C   UNL A   1      47.234  31.949  30.114  1.00  0.00     0.135 A 
ATOM     68  F   UNL A   1      46.658  33.251  26.786  1.00  0.00    -0.206 F 
ATOM     69  C   UNL A   1      47.645  34.231  28.633  1.00  0.00     0.059 A 
ATOM     70  C   UNL A   1      47.884  33.039  30.699  1.00  0.00     0.059 A 
ATOM     71  F   UNL A   1      46.863  31.000  30.984  1.00  0.00    -0.206 F 
ATOM     72  C   UNL A   1      48.074  34.187  29.953  1.00  0.00     0.060 A 
BRANCH  72  73
ATOM     73  S   UNL A   1      48.764  35.669  30.710  1.00  0.00     0.124 S 
ATOM     74  O   UNL A   1      48.561  35.416  32.132  1.00  0.00    -0.237 OA
ATOM     75  O   UNL A   1      50.148  35.628  30.247  1.00  0.00    -0.237 OA
ATOM     76  O   UNL A   1      47.955  36.748  30.151  1.00  0.00    -0.744 OA
ENDBRANCH  72  73
ENDBRANCH  51  65
BRANCH  52  77
ATOM     77  C   UNL A   1      42.718  23.163  27.386  1.00  0.00     0.058 A 
ATOM     78  C   UNL A   1      42.364  23.120  26.029  1.00  0.00     0.135 A 
ATOM     79  C   UNL A   1      42.588  21.930  27.989  1.00  0.00     0.135 A 
ATOM     80  F   UNL A   1      41.739  24.165  25.472  1.00  0.00    -0.206 F 
ATOM     81  C   UNL A   1      42.640  22.004  25.232  1.00  0.00     0.059 A 
ATOM     82  C   UNL A   1      42.885  20.813  27.204  1.00  0.00     0.059 A 
ATOM     83  F   UNL A   1      42.618  21.810  29.326  1.00  0.00    -0.206 F 
ATOM     84  C   UNL A   1      43.150  20.878  25.856  1.00  0.00     0.060 A 
BRANCH  84  85
ATOM     85  S   UNL A   1      44.522  19.691  24.919  1.00  0.00     0.124 S 
ATOM     86  O   UNL A   1      45.724  20.207  25.537  1.00  0.00    -0.237 OA
ATOM     87  O   UNL A   1      44.264  18.328  25.327  1.00  0.00    -0.237 OA
ATOM     88  O   UNL A   1      44.442  19.945  23.491  1.00  0.00    -0.744 OA
ENDBRANCH  84  85
ENDBRANCH  52  77
BRANCH  64  89
ATOM     89  C   UNL A   1      48.205  26.935  24.318  1.00  0.00     0.058 A 
ATOM     90  C   UNL A   1      49.564  26.608  24.198  1.00  0.00     0.135 A 
ATOM     91  C   UNL A   1      47.671  27.718  23.267  1.00  0.00     0.135 A 
ATOM     92  F   UNL A   1      50.235  26.028  25.205  1.00  0.00    -0.206 F 
ATOM     93  C   UNL A   1      50.301  26.908  23.054  1.00  0.00     0.059 A 
ATOM     94  C   UNL A   1      48.398  28.070  22.142  1.00  0.00     0.059 A 
ATOM     95  F   UNL A   1      46.419  28.186  23.279  1.00  0.00    -0.206 F 
ATOM     96  C   UNL A   1      49.700  27.625  22.024  1.00  0.00     0.060 A 
BRANCH  96  97
ATOM     97  S   UNL A   1      50.644  28.001  20.546  1.00  0.00     0.124 S 
ATOM     98  O   UNL A   1      50.579  29.459  20.500  1.00  0.00    -0.237 OA
ATOM     99  O   UNL A   1      51.946  27.435  20.881  1.00  0.00    -0.237 OA
ATOM    100  O   UNL A   1      49.913  27.313  19.486  1.00  0.00    -0.744 OA
ENDBRANCH  96  97
ENDBRANCH  64  89
ENDBRANCH  38  39
ENDBRANCH  30  33
ENDBRANCH  28  29
ENDBRANCH   1  28
TORSDOF 16
ENDMDL
MODEL 3
REMARK VINA RESULT:     -12.9      3.337      8.475
REMARK SMILES Cc1c(NS(=O)(=O)c2ccc3c(c2)COC3)cccc1C(=O)NCCCNC(=O)c1ccc(-c2c3nc(c(-c4c(F)cc(S(=O)(=O)[O-])cc4F)c4ccc([nH]4)c(-c4c(F)cc(S(=O)(=O)[O-])cc4F)c4nc(c(-c5c(F)cc(S(=O)(=O)[O-])cc5F)c5ccc2[nH]5)C=C4)C=C3)cc1
REMARK SMILES IDX 25 1 24 2 23 3 21 4 22 5 20 7 1 8 2 9 3 10 17 11 19 12 18 13
REMARK SMILES IDX 4 14 5 16 6 17 7 18 8 19 9 20 13 21 10 22 12 23 11 24 14 25
REMARK SMILES IDX 16 26 15 27 26 28 27 29 28 30 29 32 30 33 31 34 95 35 32 36
REMARK SMILES IDX 94 37 33 38 34 39 35 40 88 41 36 42 93 43 87 44 89 45 37 46
REMARK SMILES IDX 92 47 86 48 85 49 38 51 72 52 51 53 71 54 52 55 55 56 70 57
REMARK SMILES IDX 90 58 53 59 54 60 69 62 91 63 56 64 39 65 40 66 49 67 41 68
REMARK SMILES IDX 42 69 48 70 50 71 43 72 44 73 45 74 46 75 47 76 73 77 74 78
REMARK SMILES IDX 83 79 75 80 76 81 82 82 84 83 77 84 78 85 79 86 80 87 81 88
REMARK SMILES IDX 57 89 58 90 67 91 59 92 60 93 66 94 68 95 61 96 62 97 63 98
REMARK SMILES IDX 64 99 65 100
REMARK H PARENT 23 6 4 15 27 31 89 50 55 61
REMARK Flexibility Score: inf
ROOT
ATOM      1  C   UNL A   1      33.233  27.316  25.033  1.00  0.00     0.042 C 
ENDROOT
BRANCH   1   2
ATOM      2  C   UNL A   1      34.297  26.355  24.240  1.00  0.00     0.118 C 
BRANCH   2   3
ATOM      3  N   UNL A   1      34.139  26.185  22.773  1.00  0.00    -0.352 N 
ATOM      4  C   UNL A   1      33.094  25.953  21.904  1.00  0.00     0.251 C 
ATOM      5  O   UNL A   1      33.202  25.966  20.681  1.00  0.00    -0.269 OA
ATOM      6  H   UNL A   1      34.999  26.257  22.300  1.00  0.00     0.163 HD
BRANCH   4   7
ATOM      7  C   UNL A   1      31.751  25.756  22.464  1.00  0.00     0.044 A 
ATOM      8  C   UNL A   1      32.160  23.301  22.903  1.00  0.00     0.047 C 
ATOM      9  C   UNL A   1      31.426  24.588  23.166  1.00  0.00    -0.014 A 
ATOM     10  C   UNL A   1      30.418  24.701  24.124  1.00  0.00     0.053 A 
ATOM     11  C   UNL A   1      29.628  25.862  24.189  1.00  0.00     0.027 A 
ATOM     12  C   UNL A   1      30.890  26.861  22.419  1.00  0.00     0.014 A 
ATOM     13  C   UNL A   1      29.803  26.901  23.276  1.00  0.00     0.003 A 
BRANCH  10  14
ATOM     14  N   UNL A   1      30.227  23.697  25.130  1.00  0.00    -0.279 N 
ATOM     15  H   UNL A   1      29.616  22.948  24.943  1.00  0.00     0.180 HD
BRANCH  14  16
ATOM     16  S   UNL A   1      31.019  23.755  26.631  1.00  0.00     0.261 S 
ATOM     17  O   UNL A   1      31.329  25.157  26.914  1.00  0.00    -0.201 OA
ATOM     18  O   UNL A   1      30.182  23.008  27.523  1.00  0.00    -0.201 OA
BRANCH  16  19
ATOM     19  C   UNL A   1      32.563  22.895  26.467  1.00  0.00     0.088 A 
ATOM     20  C   UNL A   1      32.533  21.547  26.059  1.00  0.00     0.022 A 
ATOM     21  C   UNL A   1      33.773  23.579  26.613  1.00  0.00     0.028 A 
ATOM     22  C   UNL A   1      33.705  20.924  25.632  1.00  0.00     0.008 A 
ATOM     23  C   UNL A   1      34.900  22.980  26.081  1.00  0.00    -0.015 A 
ATOM     24  C   UNL A   1      34.856  21.688  25.575  1.00  0.00    -0.017 A 
ATOM     25  C   UNL A   1      36.247  23.555  25.835  1.00  0.00     0.196 C 
ATOM     26  C   UNL A   1      36.165  21.370  24.953  1.00  0.00     0.196 C 
ATOM     27  O   UNL A   1      36.825  22.654  24.859  1.00  0.00    -0.372 OA
ENDBRANCH  16  19
ENDBRANCH  14  16
ENDBRANCH  10  14
ENDBRANCH   4   7
ENDBRANCH   2   3
ENDBRANCH   1   2
BRANCH   1  28
ATOM     28  C   UNL A   1      33.853  28.176  26.233  1.00  0.00     0.118 C 
BRANCH  28  29
ATOM     29  N   UNL A   1      33.226  29.334  27.155  1.00  0.00    -0.352 N 
ATOM     30  C   UNL A   1      33.429  30.758  27.546  1.00  0.00     0.251 C 
ATOM     31  H   UNL A   1      32.435  28.981  27.622  1.00  0.00     0.163 HD
ATOM     32  O   UNL A   1      32.426  31.449  27.271  1.00  0.00    -0.269 OA
BRANCH  30  33
ATOM     33  C   UNL A   1      34.590  31.656  28.250  1.00  0.00     0.039 A 
ATOM     34  C   UNL A   1      35.960  31.604  27.812  1.00  0.00     0.014 A 
ATOM     35  C   UNL A   1      34.472  32.437  29.386  1.00  0.00     0.014 A 
ATOM     36  C   UNL A   1      37.050  31.632  28.785  1.00  0.00     0.010 A 
ATOM     37  C   UNL A   1      35.531  32.461  30.346  1.00  0.00     0.010 A 
ATOM     38  C   UNL A   1      36.741  31.786  30.144  1.00  0.00    -0.014 A 
BRANCH  38  39
ATOM     39  C   UNL A   1      37.470  31.142  31.332  1.00  0.00     0.031 A 
ATOM     40  C   UNL A   1      37.654  31.925  32.545  1.00  0.00     0.074 A 
ATOM     41  C   UNL A   1      37.869  29.844  31.550  1.00  0.00     0.049 A 
ATOM     42  N   UNL A   1      38.776  32.120  33.154  1.00  0.00    -0.248 NA
ATOM     43  C   UNL A   1      36.496  32.514  33.189  1.00  0.00     0.031 C 
ATOM     44  C   UNL A   1      38.437  29.134  32.717  1.00  0.00     0.029 A 
ATOM     45  N   UNL A   1      37.799  28.765  30.692  1.00  0.00    -0.354 N 
ATOM     46  C   UNL A   1      38.423  32.565  34.411  1.00  0.00     0.074 A 
ATOM     47  C   UNL A   1      37.061  33.040  34.274  1.00  0.00     0.031 C 
ATOM     48  C   UNL A   1      39.002  27.968  32.312  1.00  0.00     0.029 A 
ATOM     49  C   UNL A   1      38.865  27.888  30.872  1.00  0.00     0.049 A 
ATOM     50  H   UNL A   1      37.081  28.630  30.032  1.00  0.00     0.167 HD
ATOM     51  C   UNL A   1      39.130  32.203  35.525  1.00  0.00     0.037 A 
ATOM     52  C   UNL A   1      39.817  27.811  29.884  1.00  0.00     0.037 A 
ATOM     53  C   UNL A   1      40.114  31.143  35.223  1.00  0.00     0.049 A 
ATOM     54  C   UNL A   1      41.078  28.507  30.333  1.00  0.00     0.074 A 
ATOM     55  C   UNL A   1      40.224  29.800  35.561  1.00  0.00     0.029 A 
ATOM     56  N   UNL A   1      41.030  31.326  34.201  1.00  0.00    -0.354 N 
ATOM     57  N   UNL A   1      41.282  28.858  31.569  1.00  0.00    -0.248 NA
ATOM     58  C   UNL A   1      42.161  28.942  29.453  1.00  0.00     0.031 C 
ATOM     59  C   UNL A   1      41.219  29.197  34.732  1.00  0.00     0.029 A 
ATOM     60  C   UNL A   1      41.739  30.175  33.907  1.00  0.00     0.049 A 
ATOM     61  H   UNL A   1      41.163  32.183  33.735  1.00  0.00     0.167 HD
ATOM     62  C   UNL A   1      42.390  29.640  31.659  1.00  0.00     0.074 A 
ATOM     63  C   UNL A   1      42.932  29.639  30.310  1.00  0.00     0.031 C 
ATOM     64  C   UNL A   1      42.733  30.234  32.840  1.00  0.00     0.037 A 
BRANCH  51  65
ATOM     65  C   UNL A   1      38.711  32.589  36.941  1.00  0.00     0.058 A 
ATOM     66  C   UNL A   1      37.867  31.763  37.713  1.00  0.00     0.135 A 
ATOM     67  C   UNL A   1      39.163  33.741  37.625  1.00  0.00     0.135 A 
ATOM     68  F   UNL A   1      37.469  30.562  37.274  1.00  0.00    -0.206 F 
ATOM     69  C   UNL A   1      37.433  32.102  38.999  1.00  0.00     0.059 A 
ATOM     70  C   UNL A   1      38.680  34.145  38.872  1.00  0.00     0.059 A 
ATOM     71  F   UNL A   1      40.180  34.482  37.164  1.00  0.00    -0.206 F 
ATOM     72  C   UNL A   1      37.822  33.309  39.563  1.00  0.00     0.060 A 
BRANCH  72  73
ATOM     73  S   UNL A   1      37.298  33.714  41.238  1.00  0.00     0.124 S 
ATOM     74  O   UNL A   1      35.874  33.395  41.205  1.00  0.00    -0.237 OA
ATOM     75  O   UNL A   1      38.131  32.823  42.038  1.00  0.00    -0.237 OA
ATOM     76  O   UNL A   1      37.611  35.135  41.361  1.00  0.00    -0.744 OA
ENDBRANCH  72  73
ENDBRANCH  51  65
BRANCH  52  77
ATOM     77  C   UNL A   1      39.282  27.840  28.435  1.00  0.00     0.058 A 
ATOM     78  C   UNL A   1      39.817  28.869  27.644  1.00  0.00     0.135 A 
ATOM     79  C   UNL A   1      39.362  26.615  27.805  1.00  0.00     0.135 A 
ATOM     80  F   UNL A   1      39.252  30.082  27.662  1.00  0.00    -0.206 F 
ATOM     81  C   UNL A   1      40.930  28.661  26.823  1.00  0.00     0.059 A 
ATOM     82  C   UNL A   1      40.485  26.396  27.002  1.00  0.00     0.059 A 
ATOM     83  F   UNL A   1      38.676  25.557  28.266  1.00  0.00    -0.206 F 
ATOM     84  C   UNL A   1      41.409  27.368  26.703  1.00  0.00     0.060 A 
BRANCH  84  85
ATOM     85  S   UNL A   1      43.410  27.004  26.524  1.00  0.00     0.124 S 
ATOM     86  O   UNL A   1      43.627  26.321  27.781  1.00  0.00    -0.237 OA
ATOM     87  O   UNL A   1      43.588  26.109  25.402  1.00  0.00    -0.237 OA
ATOM     88  O   UNL A   1      44.097  28.279  26.425  1.00  0.00    -0.744 OA
ENDBRANCH  84  85
ENDBRANCH  52  77
BRANCH  64  89
ATOM     89  C   UNL A   1      44.021  30.972  33.068  1.00  0.00     0.058 A 
ATOM     90  C   UNL A   1      44.309  32.200  32.454  1.00  0.00     0.135 A 
ATOM     91  C   UNL A   1      45.076  30.407  33.824  1.00  0.00     0.135 A 
ATOM     92  F   UNL A   1      43.465  32.752  31.567  1.00  0.00    -0.206 F 
ATOM     93  C   UNL A   1      45.496  32.888  32.691  1.00  0.00     0.059 A 
ATOM     94  C   UNL A   1      46.284  31.051  34.034  1.00  0.00     0.059 A 
ATOM     95  F   UNL A   1      44.991  29.201  34.394  1.00  0.00    -0.206 F 
ATOM     96  C   UNL A   1      46.470  32.311  33.499  1.00  0.00     0.060 A 
BRANCH  96  97
ATOM     97  S   UNL A   1      47.995  33.201  33.815  1.00  0.00     0.124 S 
ATOM     98  O   UNL A   1      48.253  33.840  32.528  1.00  0.00    -0.237 OA
ATOM     99  O   UNL A   1      47.590  34.093  34.896  1.00  0.00    -0.237 OA
ATOM    100  O   UNL A   1      48.937  32.150  34.186  1.00  0.00    -0.744 OA
ENDBRANCH  96  97
ENDBRANCH  64  89
ENDBRANCH  38  39
ENDBRANCH  30  33
ENDBRANCH  28  29
ENDBRANCH   1  28
TORSDOF 16
ENDMDL
