MODEL 1
REMARK VINA RESULT:     -13.2      0.000      0.000
REMARK SMILES CC(C)Cc1ccc(-c2cc(Cl)cc3c2O[C@H](C(F)(F)F)C(C(=O)NCCCNC(=O)c2ccc(-c4c5nc(c(-c6c(F)cc(S(=O)(=O)[O-])cc6F)c6ccc([nH]6)c(-c6c(F)cc(S(=O)(=O)[O-])cc6F)c6nc(c(-c7c(F)cc(S(=O)(=O)[O-])cc7F)c7ccc4[nH]7)C=C6)C=C5)cc2)=C3)cc1
REMARK SMILES IDX 27 1 26 2 25 3 23 4 24 5 22 7 9 8 10 9 15 10 11 11 14 12
REMARK SMILES IDX 16 13 12 14 13 15 98 16 17 17 8 18 5 19 6 20 100 21 7 22
REMARK SMILES IDX 99 23 4 24 2 25 1 26 3 27 18 28 19 29 20 30 21 31 28 32
REMARK SMILES IDX 29 33 30 34 31 36 32 37 33 38 97 39 34 40 96 41 35 42 36 43
REMARK SMILES IDX 37 44 90 45 38 46 95 47 89 48 91 49 39 50 94 51 88 52 87 53
REMARK SMILES IDX 40 55 74 56 53 57 73 58 54 59 57 60 72 61 92 62 55 63 56 64
REMARK SMILES IDX 71 66 93 67 58 68 41 69 42 70 51 71 43 72 44 73 50 74 52 75
REMARK SMILES IDX 45 76 46 77 47 78 48 79 49 80 75 81 76 82 85 83 77 84 78 85
REMARK SMILES IDX 84 86 86 87 79 88 80 89 81 90 82 91 83 92 59 93 60 94 69 95
REMARK SMILES IDX 61 96 62 97 68 98 70 99 63 100 64 101 65 102 66 103 67 104
REMARK H PARENT 25 6 29 35 91 54 57 65
REMARK Flexibility Score: inf
ROOT
ATOM      1  C   UNL A   1      34.045  30.322  27.002  1.00  0.00     0.042 C 
ENDROOT
BRANCH   1   2
ATOM      2  C   UNL A   1      33.490  29.296  26.012  1.00  0.00     0.118 C 
BRANCH   2   3
ATOM      3  N   UNL A   1      33.381  27.998  26.647  1.00  0.00    -0.352 N 
ATOM      4  C   UNL A   1      32.383  27.095  26.485  1.00  0.00     0.251 C 
ATOM      5  O   UNL A   1      31.971  26.462  27.450  1.00  0.00    -0.270 OA
ATOM      6  H   UNL A   1      34.108  27.745  27.261  1.00  0.00     0.163 HD
BRANCH   4   7
ATOM      7  C   UNL A   1      31.945  26.809  25.087  1.00  0.00     0.067 C 
ATOM      8  C   UNL A   1      33.032  22.894  24.825  1.00  0.00     0.026 A 
ATOM      9  C   UNL A   1      34.340  22.786  25.369  1.00  0.00     0.033 A 
ATOM     10  C   UNL A   1      32.580  24.197  24.557  1.00  0.00     0.135 A 
ATOM     11  C   UNL A   1      35.203  23.876  25.475  1.00  0.00     0.042 A 
ATOM     12  C   UNL A   1      33.507  25.270  24.559  1.00  0.00     0.019 A 
ATOM     13  O   UNL A   1      31.245  24.502  24.332  1.00  0.00    -0.475 OA
ATOM     14  Cl  UNL A   1      36.767  23.663  26.156  1.00  0.00    -0.084 Cl
ATOM     15  C   UNL A   1      34.817  25.114  25.002  1.00  0.00     0.032 A 
ATOM     16  C   UNL A   1      32.993  26.625  24.260  1.00  0.00     0.025 C 
ATOM     17  C   UNL A   1      30.819  25.789  24.961  1.00  0.00     0.314 C 
BRANCH   8  18
ATOM     18  C   UNL A   1      32.418  21.606  24.392  1.00  0.00    -0.015 A 
ATOM     19  C   UNL A   1      32.463  18.929  23.379  1.00  0.00    -0.048 A 
ATOM     20  C   UNL A   1      32.455  19.185  24.759  1.00  0.00     0.004 A 
ATOM     21  C   UNL A   1      32.283  20.021  22.525  1.00  0.00     0.004 A 
ATOM     22  C   UNL A   1      32.401  20.496  25.257  1.00  0.00     0.009 A 
ATOM     23  C   UNL A   1      32.255  21.339  23.024  1.00  0.00     0.009 A 
BRANCH  19  24
ATOM     24  C   UNL A   1      32.792  17.517  22.920  1.00  0.00     0.038 C 
BRANCH  24  25
ATOM     25  C   UNL A   1      33.934  16.741  23.615  1.00  0.00    -0.013 C 
ATOM     26  C   UNL A   1      34.989  17.668  24.229  1.00  0.00     0.008 C 
ATOM     27  C   UNL A   1      33.364  15.862  24.739  1.00  0.00     0.008 C 
ENDBRANCH  24  25
ENDBRANCH  19  24
ENDBRANCH   8  18
BRANCH  17  28
ATOM     28  C   UNL A   1      29.656  26.443  24.181  1.00  0.00     0.429 C 
ATOM     29  F   UNL A   1      29.843  27.767  23.982  1.00  0.00    -0.167 F 
ATOM     30  F   UNL A   1      29.490  25.865  22.968  1.00  0.00    -0.167 F 
ATOM     31  F   UNL A   1      28.464  26.321  24.825  1.00  0.00    -0.167 F 
ENDBRANCH  17  28
ENDBRANCH   4   7
ENDBRANCH   2   3
ENDBRANCH   1   2
BRANCH   1  32
ATOM     32  C   UNL A   1      35.246  29.844  27.815  1.00  0.00     0.118 C 
BRANCH  32  33
ATOM     33  N   UNL A   1      35.309  30.429  29.146  1.00  0.00    -0.352 N 
ATOM     34  C   UNL A   1      36.342  30.407  30.052  1.00  0.00     0.251 C 
ATOM     35  H   UNL A   1      34.498  30.905  29.438  1.00  0.00     0.163 HD
ATOM     36  O   UNL A   1      36.165  30.828  31.193  1.00  0.00    -0.269 OA
BRANCH  34  37
ATOM     37  C   UNL A   1      37.651  29.846  29.657  1.00  0.00     0.039 A 
ATOM     38  C   UNL A   1      38.058  29.952  28.325  1.00  0.00     0.014 A 
ATOM     39  C   UNL A   1      38.486  29.244  30.602  1.00  0.00     0.014 A 
ATOM     40  C   UNL A   1      39.333  29.517  27.956  1.00  0.00     0.010 A 
ATOM     41  C   UNL A   1      39.785  28.887  30.249  1.00  0.00     0.010 A 
ATOM     42  C   UNL A   1      40.223  29.020  28.923  1.00  0.00    -0.014 A 
BRANCH  42  43
ATOM     43  C   UNL A   1      41.616  28.639  28.567  1.00  0.00     0.031 A 
ATOM     44  C   UNL A   1      42.700  29.683  28.530  1.00  0.00     0.074 A 
ATOM     45  C   UNL A   1      41.891  27.367  28.211  1.00  0.00     0.049 A 
ATOM     46  N   UNL A   1      43.952  29.563  28.172  1.00  0.00    -0.248 NA
ATOM     47  C   UNL A   1      42.318  31.052  28.917  1.00  0.00     0.031 C 
ATOM     48  C   UNL A   1      40.917  26.274  28.154  1.00  0.00     0.029 A 
ATOM     49  N   UNL A   1      43.068  26.780  27.819  1.00  0.00    -0.354 N 
ATOM     50  C   UNL A   1      44.501  30.836  28.275  1.00  0.00     0.074 A 
ATOM     51  C   UNL A   1      43.432  31.725  28.672  1.00  0.00     0.031 C 
ATOM     52  C   UNL A   1      41.540  25.147  27.776  1.00  0.00     0.029 A 
ATOM     53  C   UNL A   1      42.947  25.441  27.524  1.00  0.00     0.049 A 
ATOM     54  H   UNL A   1      43.919  27.270  27.755  1.00  0.00     0.167 HD
ATOM     55  C   UNL A   1      45.784  31.225  28.081  1.00  0.00     0.037 A 
ATOM     56  C   UNL A   1      43.864  24.552  27.091  1.00  0.00     0.037 A 
ATOM     57  C   UNL A   1      46.849  30.328  27.714  1.00  0.00     0.049 A 
ATOM     58  C   UNL A   1      45.284  25.006  26.887  1.00  0.00     0.074 A 
ATOM     59  C   UNL A   1      48.195  30.611  27.552  1.00  0.00     0.029 A 
ATOM     60  N   UNL A   1      46.691  28.975  27.448  1.00  0.00    -0.354 N 
ATOM     61  N   UNL A   1      45.798  26.203  27.053  1.00  0.00    -0.248 NA
ATOM     62  C   UNL A   1      46.250  23.993  26.444  1.00  0.00     0.031 C 
ATOM     63  C   UNL A   1      48.842  29.441  27.145  1.00  0.00     0.029 A 
ATOM     64  C   UNL A   1      47.911  28.415  27.105  1.00  0.00     0.049 A 
ATOM     65  H   UNL A   1      45.838  28.486  27.496  1.00  0.00     0.167 HD
ATOM     66  C   UNL A   1      47.153  26.077  26.763  1.00  0.00     0.074 A 
ATOM     67  C   UNL A   1      47.379  24.687  26.424  1.00  0.00     0.031 C 
ATOM     68  C   UNL A   1      48.122  27.026  26.778  1.00  0.00     0.037 A 
BRANCH  55  69
ATOM     69  C   UNL A   1      46.109  32.682  28.270  1.00  0.00     0.058 A 
ATOM     70  C   UNL A   1      46.040  33.597  27.206  1.00  0.00     0.135 A 
ATOM     71  C   UNL A   1      46.460  33.179  29.536  1.00  0.00     0.135 A 
ATOM     72  F   UNL A   1      45.724  33.176  25.971  1.00  0.00    -0.206 F 
ATOM     73  C   UNL A   1      46.337  34.943  27.382  1.00  0.00     0.059 A 
ATOM     74  C   UNL A   1      46.733  34.529  29.742  1.00  0.00     0.059 A 
ATOM     75  F   UNL A   1      46.542  32.350  30.589  1.00  0.00    -0.206 F 
ATOM     76  C   UNL A   1      46.684  35.400  28.655  1.00  0.00     0.060 A 
BRANCH  76  77
ATOM     77  S   UNL A   1      47.062  37.153  28.866  1.00  0.00     0.124 S 
ATOM     78  O   UNL A   1      48.016  37.113  29.969  1.00  0.00    -0.237 OA
ATOM     79  O   UNL A   1      47.612  37.512  27.564  1.00  0.00    -0.237 OA
ATOM     80  O   UNL A   1      45.765  37.745  29.180  1.00  0.00    -0.744 OA
ENDBRANCH  76  77
ENDBRANCH  55  69
BRANCH  56  81
ATOM     81  C   UNL A   1      43.471  23.138  26.844  1.00  0.00     0.058 A 
ATOM     82  C   UNL A   1      43.208  22.266  27.911  1.00  0.00     0.135 A 
ATOM     83  C   UNL A   1      43.340  22.634  25.541  1.00  0.00     0.135 A 
ATOM     84  F   UNL A   1      43.325  22.698  29.175  1.00  0.00    -0.206 F 
ATOM     85  C   UNL A   1      42.847  20.938  27.696  1.00  0.00     0.059 A 
ATOM     86  C   UNL A   1      42.955  21.319  25.300  1.00  0.00     0.059 A 
ATOM     87  F   UNL A   1      43.563  23.432  24.484  1.00  0.00    -0.206 F 
ATOM     88  C   UNL A   1      42.720  20.475  26.385  1.00  0.00     0.060 A 
BRANCH  88  89
ATOM     89  S   UNL A   1      42.204  18.765  26.118  1.00  0.00     0.124 S 
ATOM     90  O   UNL A   1      43.138  18.335  25.083  1.00  0.00    -0.237 OA
ATOM     91  O   UNL A   1      42.399  18.176  27.439  1.00  0.00    -0.237 OA
ATOM     92  O   UNL A   1      40.813  18.897  25.699  1.00  0.00    -0.744 OA
ENDBRANCH  88  89
ENDBRANCH  56  81
BRANCH  68  93
ATOM     93  C   UNL A   1      49.525  26.590  26.455  1.00  0.00     0.058 A 
ATOM     94  C   UNL A   1      50.347  25.977  27.412  1.00  0.00     0.135 A 
ATOM     95  C   UNL A   1      50.032  26.740  25.154  1.00  0.00     0.135 A 
ATOM     96  F   UNL A   1      49.914  25.815  28.673  1.00  0.00    -0.206 F 
ATOM     97  C   UNL A   1      51.634  25.550  27.098  1.00  0.00     0.059 A 
ATOM     98  C   UNL A   1      51.304  26.294  24.809  1.00  0.00     0.059 A 
ATOM     99  F   UNL A   1      49.283  27.310  24.198  1.00  0.00    -0.206 F 
ATOM    100  C   UNL A   1      52.102  25.710  25.792  1.00  0.00     0.060 A 
BRANCH 100 101
ATOM    101  S   UNL A   1      53.759  25.122  25.389  1.00  0.00     0.124 S 
ATOM    102  O   UNL A   1      53.941  25.653  24.042  1.00  0.00    -0.237 OA
ATOM    103  O   UNL A   1      54.573  25.742  26.430  1.00  0.00    -0.237 OA
ATOM    104  O   UNL A   1      53.638  23.670  25.479  1.00  0.00    -0.744 OA
ENDBRANCH 100 101
ENDBRANCH  68  93
ENDBRANCH  42  43
ENDBRANCH  34  37
ENDBRANCH  32  33
ENDBRANCH   1  32
TORSDOF 17
ENDMDL
MODEL 2
REMARK VINA RESULT:     -13.1      6.478     12.094
REMARK SMILES CC(C)Cc1ccc(-c2cc(Cl)cc3c2O[C@H](C(F)(F)F)C(C(=O)NCCCNC(=O)c2ccc(-c4c5nc(c(-c6c(F)cc(S(=O)(=O)[O-])cc6F)c6ccc([nH]6)c(-c6c(F)cc(S(=O)(=O)[O-])cc6F)c6nc(c(-c7c(F)cc(S(=O)(=O)[O-])cc7F)c7ccc4[nH]7)C=C6)C=C5)cc2)=C3)cc1
REMARK SMILES IDX 27 1 26 2 25 3 23 4 24 5 22 7 9 8 10 9 15 10 11 11 14 12
REMARK SMILES IDX 16 13 12 14 13 15 98 16 17 17 8 18 5 19 6 20 100 21 7 22
REMARK SMILES IDX 99 23 4 24 2 25 1 26 3 27 18 28 19 29 20 30 21 31 28 32
REMARK SMILES IDX 29 33 30 34 31 36 32 37 33 38 97 39 34 40 96 41 35 42 36 43
REMARK SMILES IDX 37 44 90 45 38 46 95 47 89 48 91 49 39 50 94 51 88 52 87 53
REMARK SMILES IDX 40 55 74 56 53 57 73 58 54 59 57 60 72 61 92 62 55 63 56 64
REMARK SMILES IDX 71 66 93 67 58 68 41 69 42 70 51 71 43 72 44 73 50 74 52 75
REMARK SMILES IDX 45 76 46 77 47 78 48 79 49 80 75 81 76 82 85 83 77 84 78 85
REMARK SMILES IDX 84 86 86 87 79 88 80 89 81 90 82 91 83 92 59 93 60 94 69 95
REMARK SMILES IDX 61 96 62 97 68 98 70 99 63 100 64 101 65 102 66 103 67 104
REMARK H PARENT 25 6 29 35 91 54 57 65
REMARK Flexibility Score: inf
ROOT
ATOM      1  C   UNL A   1      38.098  22.556  26.318  1.00  0.00     0.042 C 
ENDROOT
BRANCH   1   2
ATOM      2  C   UNL A   1      36.598  22.661  26.031  1.00  0.00     0.118 C 
BRANCH   2   3
ATOM      3  N   UNL A   1      36.339  23.764  25.128  1.00  0.00    -0.352 N 
ATOM      4  C   UNL A   1      35.413  23.805  24.139  1.00  0.00     0.251 C 
ATOM      5  O   UNL A   1      35.687  24.334  23.068  1.00  0.00    -0.270 OA
ATOM      6  H   UNL A   1      36.895  24.569  25.245  1.00  0.00     0.163 HD
BRANCH   4   7
ATOM      7  C   UNL A   1      34.037  23.332  24.476  1.00  0.00     0.067 C 
ATOM      8  C   UNL A   1      31.975  26.797  23.912  1.00  0.00     0.026 A 
ATOM      9  C   UNL A   1      32.719  27.833  24.538  1.00  0.00     0.033 A 
ATOM     10  C   UNL A   1      32.359  25.483  24.229  1.00  0.00     0.135 A 
ATOM     11  C   UNL A   1      33.658  27.586  25.538  1.00  0.00     0.042 A 
ATOM     12  C   UNL A   1      33.225  25.257  25.327  1.00  0.00     0.019 A 
ATOM     13  O   UNL A   1      31.965  24.381  23.484  1.00  0.00    -0.475 OA
ATOM     14  Cl  UNL A   1      34.525  28.896  26.237  1.00  0.00    -0.084 Cl
ATOM     15  C   UNL A   1      33.864  26.299  25.992  1.00  0.00     0.032 A 
ATOM     16  C   UNL A   1      33.596  23.857  25.636  1.00  0.00     0.025 C 
ATOM     17  C   UNL A   1      33.045  23.362  23.319  1.00  0.00     0.314 C 
BRANCH   8  18
ATOM     18  C   UNL A   1      30.744  27.243  23.199  1.00  0.00    -0.015 A 
ATOM     19  C   UNL A   1      28.522  28.982  22.711  1.00  0.00    -0.048 A 
ATOM     20  C   UNL A   1      29.730  29.130  22.012  1.00  0.00     0.004 A 
ATOM     21  C   UNL A   1      28.391  27.857  23.531  1.00  0.00     0.004 A 
ATOM     22  C   UNL A   1      30.809  28.259  22.227  1.00  0.00     0.009 A 
ATOM     23  C   UNL A   1      29.483  26.997  23.767  1.00  0.00     0.009 A 
BRANCH  19  24
ATOM     24  C   UNL A   1      27.507  30.111  22.625  1.00  0.00     0.038 C 
BRANCH  24  25
ATOM     25  C   UNL A   1      27.881  31.510  23.166  1.00  0.00    -0.013 C 
ATOM     26  C   UNL A   1      29.093  31.474  24.105  1.00  0.00     0.008 C 
ATOM     27  C   UNL A   1      28.212  32.454  22.000  1.00  0.00     0.008 C 
ENDBRANCH  24  25
ENDBRANCH  19  24
ENDBRANCH   8  18
BRANCH  17  28
ATOM     28  C   UNL A   1      32.463  21.941  23.142  1.00  0.00     0.429 C 
ATOM     29  F   UNL A   1      33.264  20.983  23.658  1.00  0.00    -0.167 F 
ATOM     30  F   UNL A   1      31.252  21.828  23.736  1.00  0.00    -0.167 F 
ATOM     31  F   UNL A   1      32.275  21.616  21.834  1.00  0.00    -0.167 F 
ENDBRANCH  17  28
ENDBRANCH   4   7
ENDBRANCH   2   3
ENDBRANCH   1   2
BRANCH   1  32
ATOM     32  C   UNL A   1      38.806  23.893  26.523  1.00  0.00     0.118 C 
BRANCH  32  33
ATOM     33  N   UNL A   1      40.204  23.870  26.120  1.00  0.00    -0.352 N 
ATOM     34  C   UNL A   1      41.212  24.746  26.443  1.00  0.00     0.251 C 
ATOM     35  H   UNL A   1      40.464  23.123  25.534  1.00  0.00     0.163 HD
ATOM     36  O   UNL A   1      42.306  24.653  25.890  1.00  0.00    -0.269 OA
BRANCH  34  37
ATOM     37  C   UNL A   1      40.963  25.816  27.433  1.00  0.00     0.039 A 
ATOM     38  C   UNL A   1      40.003  25.608  28.426  1.00  0.00     0.014 A 
ATOM     39  C   UNL A   1      41.692  27.007  27.397  1.00  0.00     0.014 A 
ATOM     40  C   UNL A   1      39.826  26.567  29.427  1.00  0.00     0.010 A 
ATOM     41  C   UNL A   1      41.572  27.922  28.439  1.00  0.00     0.010 A 
ATOM     42  C   UNL A   1      40.639  27.713  29.465  1.00  0.00    -0.014 A 
BRANCH  42  43
ATOM     43  C   UNL A   1      40.530  28.699  30.574  1.00  0.00     0.031 A 
ATOM     44  C   UNL A   1      41.406  28.568  31.791  1.00  0.00     0.074 A 
ATOM     45  C   UNL A   1      39.597  29.670  30.514  1.00  0.00     0.049 A 
ATOM     46  N   UNL A   1      41.407  29.280  32.889  1.00  0.00    -0.248 NA
ATOM     47  C   UNL A   1      42.390  27.472  31.788  1.00  0.00     0.031 C 
ATOM     48  C   UNL A   1      38.651  29.871  29.413  1.00  0.00     0.029 A 
ATOM     49  N   UNL A   1      39.281  30.667  31.404  1.00  0.00    -0.354 N 
ATOM     50  C   UNL A   1      42.375  28.712  33.709  1.00  0.00     0.074 A 
ATOM     51  C   UNL A   1      42.900  27.561  33.007  1.00  0.00     0.031 C 
ATOM     52  C   UNL A   1      37.881  30.936  29.681  1.00  0.00     0.029 A 
ATOM     53  C   UNL A   1      38.246  31.472  30.988  1.00  0.00     0.049 A 
ATOM     54  H   UNL A   1      39.751  30.794  32.259  1.00  0.00     0.167 HD
ATOM     55  C   UNL A   1      42.806  29.125  34.925  1.00  0.00     0.037 A 
ATOM     56  C   UNL A   1      37.652  32.521  31.594  1.00  0.00     0.037 A 
ATOM     57  C   UNL A   1      42.299  30.289  35.604  1.00  0.00     0.049 A 
ATOM     58  C   UNL A   1      38.151  32.965  32.943  1.00  0.00     0.074 A 
ATOM     59  C   UNL A   1      42.711  30.828  36.811  1.00  0.00     0.029 A 
ATOM     60  N   UNL A   1      41.268  31.093  35.140  1.00  0.00    -0.354 N 
ATOM     61  N   UNL A   1      39.113  32.453  33.675  1.00  0.00    -0.248 NA
ATOM     62  C   UNL A   1      37.491  34.129  33.546  1.00  0.00     0.031 C 
ATOM     63  C   UNL A   1      41.900  31.930  37.098  1.00  0.00     0.029 A 
ATOM     64  C   UNL A   1      41.018  32.111  36.044  1.00  0.00     0.049 A 
ATOM     65  H   UNL A   1      40.787  30.959  34.291  1.00  0.00     0.167 HD
ATOM     66  C   UNL A   1      39.192  33.253  34.811  1.00  0.00     0.074 A 
ATOM     67  C   UNL A   1      38.189  34.287  34.662  1.00  0.00     0.031 C 
ATOM     68  C   UNL A   1      40.020  33.140  35.878  1.00  0.00     0.037 A 
BRANCH  55  69
ATOM     69  C   UNL A   1      43.885  28.318  35.596  1.00  0.00     0.058 A 
ATOM     70  C   UNL A   1      43.581  27.315  36.531  1.00  0.00     0.135 A 
ATOM     71  C   UNL A   1      45.237  28.524  35.276  1.00  0.00     0.135 A 
ATOM     72  F   UNL A   1      42.307  27.084  36.886  1.00  0.00    -0.206 F 
ATOM     73  C   UNL A   1      44.578  26.568  37.148  1.00  0.00     0.059 A 
ATOM     74  C   UNL A   1      46.250  27.767  35.859  1.00  0.00     0.059 A 
ATOM     75  F   UNL A   1      45.585  29.469  34.389  1.00  0.00    -0.206 F 
ATOM     76  C   UNL A   1      45.911  26.802  36.806  1.00  0.00     0.060 A 
BRANCH  76  77
ATOM     77  S   UNL A   1      47.192  25.819  37.613  1.00  0.00     0.124 S 
ATOM     78  O   UNL A   1      48.390  26.279  36.920  1.00  0.00    -0.237 OA
ATOM     79  O   UNL A   1      47.068  26.230  39.008  1.00  0.00    -0.237 OA
ATOM     80  O   UNL A   1      46.794  24.443  37.331  1.00  0.00    -0.744 OA
ENDBRANCH  76  77
ENDBRANCH  55  69
BRANCH  56  81
ATOM     81  C   UNL A   1      36.536  33.237  30.919  1.00  0.00     0.058 A 
ATOM     82  C   UNL A   1      36.773  34.061  29.810  1.00  0.00     0.135 A 
ATOM     83  C   UNL A   1      35.210  33.102  31.361  1.00  0.00     0.135 A 
ATOM     84  F   UNL A   1      38.023  34.227  29.353  1.00  0.00    -0.206 F 
ATOM     85  C   UNL A   1      35.740  34.743  29.173  1.00  0.00     0.059 A 
ATOM     86  C   UNL A   1      34.157  33.753  30.725  1.00  0.00     0.059 A 
ATOM     87  F   UNL A   1      34.925  32.311  32.408  1.00  0.00    -0.206 F 
ATOM     88  C   UNL A   1      34.433  34.580  29.637  1.00  0.00     0.060 A 
BRANCH  88  89
ATOM     89  S   UNL A   1      33.095  35.430  28.773  1.00  0.00     0.124 S 
ATOM     90  O   UNL A   1      32.310  35.949  29.887  1.00  0.00    -0.237 OA
ATOM     91  O   UNL A   1      33.821  36.422  27.985  1.00  0.00    -0.237 OA
ATOM     92  O   UNL A   1      32.467  34.365  27.998  1.00  0.00    -0.744 OA
ENDBRANCH  88  89
ENDBRANCH  56  81
BRANCH  68  93
ATOM     93  C   UNL A   1      39.908  34.184  36.956  1.00  0.00     0.058 A 
ATOM     94  C   UNL A   1      40.642  35.379  36.908  1.00  0.00     0.135 A 
ATOM     95  C   UNL A   1      39.013  34.007  38.023  1.00  0.00     0.135 A 
ATOM     96  F   UNL A   1      41.516  35.596  35.912  1.00  0.00    -0.206 F 
ATOM     97  C   UNL A   1      40.510  36.353  37.893  1.00  0.00     0.059 A 
ATOM     98  C   UNL A   1      38.843  34.979  39.004  1.00  0.00     0.059 A 
ATOM     99  F   UNL A   1      38.279  32.887  38.112  1.00  0.00    -0.206 F 
ATOM    100  C   UNL A   1      39.605  36.144  38.936  1.00  0.00     0.060 A 
BRANCH 100 101
ATOM    101  S   UNL A   1      39.419  37.429  40.190  1.00  0.00     0.124 S 
ATOM    102  O   UNL A   1      38.902  36.665  41.321  1.00  0.00    -0.237 OA
ATOM    103  O   UNL A   1      40.784  37.926  40.332  1.00  0.00    -0.237 OA
ATOM    104  O   UNL A   1      38.478  38.365  39.583  1.00  0.00    -0.744 OA
ENDBRANCH 100 101
ENDBRANCH  68  93
ENDBRANCH  42  43
ENDBRANCH  34  37
ENDBRANCH  32  33
ENDBRANCH   1  32
TORSDOF 17
ENDMDL
MODEL 3
REMARK VINA RESULT:     -12.9      3.156      9.101
REMARK SMILES CC(C)Cc1ccc(-c2cc(Cl)cc3c2O[C@H](C(F)(F)F)C(C(=O)NCCCNC(=O)c2ccc(-c4c5nc(c(-c6c(F)cc(S(=O)(=O)[O-])cc6F)c6ccc([nH]6)c(-c6c(F)cc(S(=O)(=O)[O-])cc6F)c6nc(c(-c7c(F)cc(S(=O)(=O)[O-])cc7F)c7ccc4[nH]7)C=C6)C=C5)cc2)=C3)cc1
REMARK SMILES IDX 27 1 26 2 25 3 23 4 24 5 22 7 9 8 10 9 15 10 11 11 14 12
REMARK SMILES IDX 16 13 12 14 13 15 98 16 17 17 8 18 5 19 6 20 100 21 7 22
REMARK SMILES IDX 99 23 4 24 2 25 1 26 3 27 18 28 19 29 20 30 21 31 28 32
REMARK SMILES IDX 29 33 30 34 31 36 32 37 33 38 97 39 34 40 96 41 35 42 36 43
REMARK SMILES IDX 37 44 90 45 38 46 95 47 89 48 91 49 39 50 94 51 88 52 87 53
REMARK SMILES IDX 40 55 74 56 53 57 73 58 54 59 57 60 72 61 92 62 55 63 56 64
REMARK SMILES IDX 71 66 93 67 58 68 41 69 42 70 51 71 43 72 44 73 50 74 52 75
REMARK SMILES IDX 45 76 46 77 47 78 48 79 49 80 75 81 76 82 85 83 77 84 78 85
REMARK SMILES IDX 84 86 86 87 79 88 80 89 81 90 82 91 83 92 59 93 60 94 69 95
REMARK SMILES IDX 61 96 62 97 68 98 70 99 63 100 64 101 65 102 66 103 67 104
REMARK H PARENT 25 6 29 35 91 54 57 65
REMARK Flexibility Score: inf
ROOT
ATOM      1  C   UNL A   1      38.851  20.603  25.321  1.00  0.00     0.042 C 
ENDROOT
BRANCH   1   2
ATOM      2  C   UNL A   1      37.790  19.570  24.934  1.00  0.00     0.118 C 
BRANCH   2   3
ATOM      3  N   UNL A   1      36.463  20.104  25.167  1.00  0.00    -0.352 N 
ATOM      4  C   UNL A   1      36.154  21.301  25.723  1.00  0.00     0.251 C 
ATOM      5  O   UNL A   1      35.211  21.387  26.500  1.00  0.00    -0.270 OA
ATOM      6  H   UNL A   1      35.706  19.537  24.892  1.00  0.00     0.163 HD
BRANCH   4   7
ATOM      7  C   UNL A   1      36.902  22.494  25.226  1.00  0.00     0.067 C 
ATOM      8  C   UNL A   1      33.782  25.039  24.617  1.00  0.00     0.026 A 
ATOM      9  C   UNL A   1      32.767  24.303  23.946  1.00  0.00     0.033 A 
ATOM     10  C   UNL A   1      35.049  24.435  24.670  1.00  0.00     0.135 A 
ATOM     11  C   UNL A   1      33.032  23.137  23.230  1.00  0.00     0.042 A 
ATOM     12  C   UNL A   1      35.324  23.318  23.840  1.00  0.00     0.019 A 
ATOM     13  O   UNL A   1      36.048  24.851  25.538  1.00  0.00    -0.475 OA
ATOM     14  Cl  UNL A   1      31.745  22.300  22.457  1.00  0.00    -0.084 Cl
ATOM     15  C   UNL A   1      34.328  22.676  23.111  1.00  0.00     0.032 A 
ATOM     16  C   UNL A   1      36.675  22.719  23.917  1.00  0.00     0.025 C 
ATOM     17  C   UNL A   1      36.827  23.721  26.128  1.00  0.00     0.314 C 
BRANCH   8  18
ATOM     18  C   UNL A   1      33.424  26.445  24.958  1.00  0.00    -0.015 A 
ATOM     19  C   UNL A   1      31.822  28.814  24.820  1.00  0.00    -0.048 A 
ATOM     20  C   UNL A   1      31.631  27.864  25.835  1.00  0.00     0.004 A 
ATOM     21  C   UNL A   1      32.927  28.640  23.981  1.00  0.00     0.004 A 
ATOM     22  C   UNL A   1      32.436  26.718  25.922  1.00  0.00     0.009 A 
ATOM     23  C   UNL A   1      33.719  27.477  24.052  1.00  0.00     0.009 A 
BRANCH  19  24
ATOM     24  C   UNL A   1      30.752  29.878  24.631  1.00  0.00     0.038 C 
BRANCH  24  25
ATOM     25  C   UNL A   1      29.880  29.858  23.356  1.00  0.00    -0.013 C 
ATOM     26  C   UNL A   1      29.247  28.486  23.095  1.00  0.00     0.008 C 
ATOM     27  C   UNL A   1      28.745  30.887  23.478  1.00  0.00     0.008 C 
ENDBRANCH  24  25
ENDBRANCH  19  24
ENDBRANCH   8  18
BRANCH  17  28
ATOM     28  C   UNL A   1      38.269  24.150  26.483  1.00  0.00     0.429 C 
ATOM     29  F   UNL A   1      38.307  25.265  27.246  1.00  0.00    -0.167 F 
ATOM     30  F   UNL A   1      38.922  23.172  27.154  1.00  0.00    -0.167 F 
ATOM     31  F   UNL A   1      39.018  24.419  25.380  1.00  0.00    -0.167 F 
ENDBRANCH  17  28
ENDBRANCH   4   7
ENDBRANCH   2   3
ENDBRANCH   1   2
BRANCH   1  32
ATOM     32  C   UNL A   1      39.735  20.202  26.500  1.00  0.00     0.118 C 
BRANCH  32  33
ATOM     33  N   UNL A   1      40.746  19.215  26.149  1.00  0.00    -0.352 N 
ATOM     34  C   UNL A   1      42.088  19.396  25.921  1.00  0.00     0.251 C 
ATOM     35  H   UNL A   1      40.422  18.289  26.063  1.00  0.00     0.163 HD
ATOM     36  O   UNL A   1      42.767  18.468  25.488  1.00  0.00    -0.269 OA
BRANCH  34  37
ATOM     37  C   UNL A   1      42.701  20.719  26.167  1.00  0.00     0.039 A 
ATOM     38  C   UNL A   1      43.085  21.500  25.075  1.00  0.00     0.014 A 
ATOM     39  C   UNL A   1      42.872  21.196  27.469  1.00  0.00     0.014 A 
ATOM     40  C   UNL A   1      43.574  22.792  25.288  1.00  0.00     0.010 A 
ATOM     41  C   UNL A   1      43.281  22.511  27.675  1.00  0.00     0.010 A 
ATOM     42  C   UNL A   1      43.636  23.323  26.588  1.00  0.00    -0.014 A 
BRANCH  42  43
ATOM     43  C   UNL A   1      44.065  24.727  26.827  1.00  0.00     0.031 A 
ATOM     44  C   UNL A   1      45.509  25.118  26.653  1.00  0.00     0.074 A 
ATOM     45  C   UNL A   1      43.169  25.634  27.268  1.00  0.00     0.049 A 
ATOM     46  N   UNL A   1      46.088  26.267  26.887  1.00  0.00    -0.248 NA
ATOM     47  C   UNL A   1      46.429  24.068  26.185  1.00  0.00     0.031 C 
ATOM     48  C   UNL A   1      41.752  25.367  27.528  1.00  0.00     0.029 A 
ATOM     49  N   UNL A   1      43.317  26.961  27.585  1.00  0.00    -0.354 N 
ATOM     50  C   UNL A   1      47.437  26.076  26.609  1.00  0.00     0.074 A 
ATOM     51  C   UNL A   1      47.600  24.685  26.247  1.00  0.00     0.031 C 
ATOM     52  C   UNL A   1      41.158  26.498  27.939  1.00  0.00     0.029 A 
ATOM     53  C   UNL A   1      42.155  27.560  28.014  1.00  0.00     0.049 A 
ATOM     54  H   UNL A   1      44.174  27.439  27.513  1.00  0.00     0.167 HD
ATOM     55  C   UNL A   1      48.445  26.981  26.629  1.00  0.00     0.037 A 
ATOM     56  C   UNL A   1      41.920  28.822  28.427  1.00  0.00     0.037 A 
ATOM     57  C   UNL A   1      48.269  28.371  26.963  1.00  0.00     0.049 A 
ATOM     58  C   UNL A   1      43.054  29.812  28.437  1.00  0.00     0.074 A 
ATOM     59  C   UNL A   1      49.213  29.383  26.955  1.00  0.00     0.029 A 
ATOM     60  N   UNL A   1      47.072  28.945  27.367  1.00  0.00    -0.354 N 
ATOM     61  N   UNL A   1      44.311  29.628  28.108  1.00  0.00    -0.248 NA
ATOM     62  C   UNL A   1      42.739  31.181  28.866  1.00  0.00     0.031 C 
ATOM     63  C   UNL A   1      48.599  30.558  27.397  1.00  0.00     0.029 A 
ATOM     64  C   UNL A   1      47.259  30.292  27.629  1.00  0.00     0.049 A 
ATOM     65  H   UNL A   1      46.217  28.465  27.455  1.00  0.00     0.167 HD
ATOM     66  C   UNL A   1      44.929  30.865  28.263  1.00  0.00     0.074 A 
ATOM     67  C   UNL A   1      43.904  31.790  28.703  1.00  0.00     0.031 C 
ATOM     68  C   UNL A   1      46.226  31.203  28.059  1.00  0.00     0.037 A 
BRANCH  55  69
ATOM     69  C   UNL A   1      49.825  26.499  26.274  1.00  0.00     0.058 A 
ATOM     70  C   UNL A   1      50.351  26.655  24.981  1.00  0.00     0.135 A 
ATOM     71  C   UNL A   1      50.647  25.904  27.245  1.00  0.00     0.135 A 
ATOM     72  F   UNL A   1      49.605  27.204  24.009  1.00  0.00    -0.206 F 
ATOM     73  C   UNL A   1      51.628  26.212  24.655  1.00  0.00     0.059 A 
ATOM     74  C   UNL A   1      51.940  25.480  26.949  1.00  0.00     0.059 A 
ATOM     75  F   UNL A   1      50.197  25.728  28.497  1.00  0.00    -0.206 F 
ATOM     76  C   UNL A   1      52.415  25.624  25.646  1.00  0.00     0.060 A 
BRANCH  76  77
ATOM     77  S   UNL A   1      54.072  25.059  25.206  1.00  0.00     0.124 S 
ATOM     78  O   UNL A   1      53.842  23.637  24.977  1.00  0.00    -0.237 OA
ATOM     79  O   UNL A   1      54.367  25.853  24.018  1.00  0.00    -0.237 OA
ATOM     80  O   UNL A   1      54.867  25.384  26.386  1.00  0.00    -0.744 OA
ENDBRANCH  76  77
ENDBRANCH  55  69
BRANCH  56  81
ATOM     81  C   UNL A   1      40.549  29.227  28.843  1.00  0.00     0.058 A 
ATOM     82  C   UNL A   1      40.229  29.405  30.197  1.00  0.00     0.135 A 
ATOM     83  C   UNL A   1      39.537  29.455  27.897  1.00  0.00     0.135 A 
ATOM     84  F   UNL A   1      41.160  29.194  31.139  1.00  0.00    -0.206 F 
ATOM     85  C   UNL A   1      38.950  29.776  30.601  1.00  0.00     0.059 A 
ATOM     86  C   UNL A   1      38.258  29.852  28.275  1.00  0.00     0.059 A 
ATOM     87  F   UNL A   1      39.795  29.316  26.587  1.00  0.00    -0.206 F 
ATOM     88  C   UNL A   1      37.971  30.000  29.632  1.00  0.00     0.060 A 
BRANCH  88  89
ATOM     89  S   UNL A   1      36.329  30.528  30.165  1.00  0.00     0.124 S 
ATOM     90  O   UNL A   1      35.995  29.502  31.146  1.00  0.00    -0.237 OA
ATOM     91  O   UNL A   1      36.595  31.860  30.700  1.00  0.00    -0.237 OA
ATOM     92  O   UNL A   1      35.551  30.501  28.931  1.00  0.00    -0.744 OA
ENDBRANCH  88  89
ENDBRANCH  56  81
BRANCH  68  93
ATOM     93  C   UNL A   1      46.609  32.643  28.270  1.00  0.00     0.058 A 
ATOM     94  C   UNL A   1      47.147  33.095  29.485  1.00  0.00     0.135 A 
ATOM     95  C   UNL A   1      46.485  33.571  27.223  1.00  0.00     0.135 A 
ATOM     96  F   UNL A   1      47.282  32.251  30.521  1.00  0.00    -0.206 F 
ATOM     97  C   UNL A   1      47.526  34.422  29.663  1.00  0.00     0.059 A 
ATOM     98  C   UNL A   1      46.884  34.895  27.368  1.00  0.00     0.059 A 
ATOM     99  F   UNL A   1      45.986  33.188  26.037  1.00  0.00    -0.206 F 
ATOM    100  C   UNL A   1      47.394  35.313  28.597  1.00  0.00     0.060 A 
BRANCH 100 101
ATOM    101  S   UNL A   1      47.920  37.024  28.829  1.00  0.00     0.124 S 
ATOM    102  O   UNL A   1      48.173  37.062  30.266  1.00  0.00    -0.237 OA
ATOM    103  O   UNL A   1      49.101  37.106  27.976  1.00  0.00    -0.237 OA
ATOM    104  O   UNL A   1      46.771  37.800  28.374  1.00  0.00    -0.744 OA
ENDBRANCH 100 101
ENDBRANCH  68  93
ENDBRANCH  42  43
ENDBRANCH  34  37
ENDBRANCH  32  33
ENDBRANCH   1  32
TORSDOF 17
ENDMDL
