MODEL 1
REMARK VINA RESULT:     -11.5      0.000      0.000
REMARK SMILES O=C(NCCCNC(=O)[C@H]1CCCCN1c1cc(-c2ccccc2)nc(-c2cccc(Cl)c2)n1)c1ccc(-c2c3nc(c(-c4c(F)cc(S(=O)(=O)[O-])cc4F)c4ccc([nH]4)c(-c4c(F)cc(S(=O)(=O)[O-])cc4F)c4nc(c(-c5c(F)cc(S(=O)(=O)[O-])cc5F)c5ccc2[nH]5)C=C4)C=C3)cc1
REMARK SMILES IDX 4 1 3 2 1 3 2 4 35 6 36 7 100 8 37 9 99 10 38 11 39 12 40 13
REMARK SMILES IDX 93 14 41 15 98 16 92 17 94 18 42 19 97 20 91 21 90 22 43 24
REMARK SMILES IDX 77 25 56 26 76 27 57 28 60 29 75 30 95 31 58 32 59 33 74 35
REMARK SMILES IDX 96 36 61 37 44 38 45 39 54 40 46 41 47 42 53 43 55 44 48 45
REMARK SMILES IDX 49 46 50 47 51 48 52 49 78 50 79 51 88 52 80 53 81 54 87 55
REMARK SMILES IDX 89 56 82 57 83 58 84 59 85 60 86 61 62 62 63 63 72 64 64 65
REMARK SMILES IDX 65 66 71 67 73 68 66 69 67 70 68 71 69 72 70 73 5 74 6 75
REMARK SMILES IDX 7 76 8 77 9 79 10 80 11 81 15 82 12 83 14 84 13 85 16 86
REMARK SMILES IDX 17 87 34 88 18 89 26 90 25 91 19 92 20 93 24 94 21 95 23 96
REMARK SMILES IDX 22 97 27 98 28 99 33 100 29 101 31 102 30 103 32 104
REMARK H PARENT 3 5 94 23 60 34 7 78
REMARK Flexibility Score: inf
ROOT
ATOM      1  C   UNL A   1      42.305  25.634  25.715  1.00  0.00     0.118 C 
ENDROOT
BRANCH   1   2
ATOM      2  N   UNL A   1      40.934  25.166  25.532  1.00  0.00    -0.352 N 
ATOM      3  O   UNL A   1      38.889  24.496  26.195  1.00  0.00    -0.269 OA
ATOM      4  C   UNL A   1      39.874  25.193  26.407  1.00  0.00     0.251 C 
ATOM      5  H   UNL A   1      40.740  24.772  24.650  1.00  0.00     0.163 HD
BRANCH   4   6
ATOM      6  C   UNL A   1      39.940  26.063  27.600  1.00  0.00     0.039 A 
ATOM      7  C   UNL A   1      40.597  27.290  27.520  1.00  0.00     0.014 A 
ATOM      8  C   UNL A   1      39.321  25.677  28.792  1.00  0.00     0.014 A 
ATOM      9  C   UNL A   1      40.802  28.041  28.663  1.00  0.00     0.010 A 
ATOM     10  C   UNL A   1      39.399  26.512  29.912  1.00  0.00     0.010 A 
ATOM     11  C   UNL A   1      40.151  27.695  29.855  1.00  0.00    -0.014 A 
BRANCH  11  12
ATOM     12  C   UNL A   1      40.157  28.687  30.955  1.00  0.00     0.031 A 
ATOM     13  C   UNL A   1      41.118  28.588  32.101  1.00  0.00     0.074 A 
ATOM     14  C   UNL A   1      39.287  29.714  30.862  1.00  0.00     0.049 A 
ATOM     15  N   UNL A   1      41.247  29.389  33.126  1.00  0.00    -0.248 NA
ATOM     16  C   UNL A   1      42.048  27.447  32.111  1.00  0.00     0.031 C 
ATOM     17  C   UNL A   1      38.297  29.884  29.789  1.00  0.00     0.029 A 
ATOM     18  N   UNL A   1      39.102  30.819  31.650  1.00  0.00    -0.354 N 
ATOM     19  C   UNL A   1      42.246  28.838  33.919  1.00  0.00     0.074 A 
ATOM     20  C   UNL A   1      42.691  27.630  33.258  1.00  0.00     0.031 C 
ATOM     21  C   UNL A   1      37.657  31.048  29.953  1.00  0.00     0.029 A 
ATOM     22  C   UNL A   1      38.117  31.661  31.190  1.00  0.00     0.049 A 
ATOM     23  H   UNL A   1      39.625  30.994  32.465  1.00  0.00     0.167 HD
ATOM     24  C   UNL A   1      42.735  29.309  35.089  1.00  0.00     0.037 A 
ATOM     25  C   UNL A   1      37.606  32.784  31.724  1.00  0.00     0.037 A 
ATOM     26  C   UNL A   1      42.293  30.533  35.710  1.00  0.00     0.049 A 
ATOM     27  C   UNL A   1      38.163  33.267  33.029  1.00  0.00     0.074 A 
ATOM     28  C   UNL A   1      42.770  31.131  36.864  1.00  0.00     0.029 A 
ATOM     29  N   UNL A   1      41.270  31.342  35.235  1.00  0.00    -0.354 N 
ATOM     30  N   UNL A   1      39.141  32.756  33.740  1.00  0.00    -0.248 NA
ATOM     31  C   UNL A   1      37.544  34.461  33.613  1.00  0.00     0.031 C 
ATOM     32  C   UNL A   1      42.000  32.271  37.115  1.00  0.00     0.029 A 
ATOM     33  C   UNL A   1      41.075  32.412  36.092  1.00  0.00     0.049 A 
ATOM     34  H   UNL A   1      40.758  31.178  34.410  1.00  0.00     0.167 HD
ATOM     35  C   UNL A   1      39.251  33.566  34.861  1.00  0.00     0.074 A 
ATOM     36  C   UNL A   1      38.267  34.620  34.712  1.00  0.00     0.031 C 
ATOM     37  C   UNL A   1      40.083  33.443  35.924  1.00  0.00     0.037 A 
BRANCH  24  38
ATOM     38  C   UNL A   1      43.785  28.505  35.805  1.00  0.00     0.058 A 
ATOM     39  C   UNL A   1      45.153  28.791  35.678  1.00  0.00     0.135 A 
ATOM     40  C   UNL A   1      43.408  27.503  36.714  1.00  0.00     0.135 A 
ATOM     41  F   UNL A   1      45.571  29.726  34.811  1.00  0.00    -0.206 F 
ATOM     42  C   UNL A   1      46.108  28.117  36.433  1.00  0.00     0.059 A 
ATOM     43  C   UNL A   1      44.344  26.830  37.494  1.00  0.00     0.059 A 
ATOM     44  F   UNL A   1      42.112  27.186  36.868  1.00  0.00    -0.206 F 
ATOM     45  C   UNL A   1      45.693  27.144  37.346  1.00  0.00     0.060 A 
BRANCH  45  46
ATOM     46  S   UNL A   1      46.941  26.321  38.358  1.00  0.00     0.124 S 
ATOM     47  O   UNL A   1      47.353  27.401  39.250  1.00  0.00    -0.237 OA
ATOM     48  O   UNL A   1      46.178  25.243  38.979  1.00  0.00    -0.237 OA
ATOM     49  O   UNL A   1      47.944  25.895  37.385  1.00  0.00    -0.744 OA
ENDBRANCH  45  46
ENDBRANCH  24  38
BRANCH  25  50
ATOM     50  C   UNL A   1      36.471  33.476  31.059  1.00  0.00     0.058 A 
ATOM     51  C   UNL A   1      36.652  34.207  29.877  1.00  0.00     0.135 A 
ATOM     52  C   UNL A   1      35.175  33.414  31.598  1.00  0.00     0.135 A 
ATOM     53  F   UNL A   1      37.871  34.296  29.323  1.00  0.00    -0.206 F 
ATOM     54  C   UNL A   1      35.597  34.877  29.268  1.00  0.00     0.059 A 
ATOM     55  C   UNL A   1      34.098  34.046  30.989  1.00  0.00     0.059 A 
ATOM     56  F   UNL A   1      34.942  32.707  32.715  1.00  0.00    -0.206 F 
ATOM     57  C   UNL A   1      34.322  34.792  29.834  1.00  0.00     0.060 A 
BRANCH  57  58
ATOM     58  S   UNL A   1      32.952  35.653  29.033  1.00  0.00     0.124 S 
ATOM     59  O   UNL A   1      32.392  34.594  28.202  1.00  0.00    -0.237 OA
ATOM     60  O   UNL A   1      32.142  36.071  30.172  1.00  0.00    -0.237 OA
ATOM     61  O   UNL A   1      33.615  36.737  28.314  1.00  0.00    -0.744 OA
ENDBRANCH  57  58
ENDBRANCH  25  50
BRANCH  37  62
ATOM     62  C   UNL A   1      39.957  34.479  37.001  1.00  0.00     0.058 A 
ATOM     63  C   UNL A   1      40.645  35.700  36.923  1.00  0.00     0.135 A 
ATOM     64  C   UNL A   1      39.120  34.262  38.107  1.00  0.00     0.135 A 
ATOM     65  F   UNL A   1      41.467  35.947  35.890  1.00  0.00    -0.206 F 
ATOM     66  C   UNL A   1      40.524  36.664  37.916  1.00  0.00     0.059 A 
ATOM     67  C   UNL A   1      38.963  35.223  39.098  1.00  0.00     0.059 A 
ATOM     68  F   UNL A   1      38.438  33.112  38.224  1.00  0.00    -0.206 F 
ATOM     69  C   UNL A   1      39.678  36.416  39.000  1.00  0.00     0.060 A 
BRANCH  69  70
ATOM     70  S   UNL A   1      39.507  37.689  40.267  1.00  0.00     0.124 S 
ATOM     71  O   UNL A   1      38.506  38.566  39.669  1.00  0.00    -0.237 OA
ATOM     72  O   UNL A   1      39.065  36.919  41.425  1.00  0.00    -0.237 OA
ATOM     73  O   UNL A   1      40.851  38.248  40.371  1.00  0.00    -0.744 OA
ENDBRANCH  69  70
ENDBRANCH  37  62
ENDBRANCH  11  12
ENDBRANCH   4   6
ENDBRANCH   1   2
BRANCH   1  74
ATOM     74  C   UNL A   1      42.540  26.963  25.021  1.00  0.00     0.042 C 
BRANCH  74  75
ATOM     75  C   UNL A   1      43.649  27.755  25.683  1.00  0.00     0.117 C 
BRANCH  75  76
ATOM     76  N   UNL A   1      44.835  27.797  24.854  1.00  0.00    -0.354 N 
ATOM     77  C   UNL A   1      45.960  27.055  24.766  1.00  0.00     0.242 C 
ATOM     78  H   UNL A   1      44.817  28.537  24.204  1.00  0.00     0.163 HD
ATOM     79  O   UNL A   1      46.788  27.496  23.950  1.00  0.00    -0.273 OA
BRANCH  77  80
ATOM     80  C   UNL A   1      46.264  25.738  25.544  1.00  0.00     0.173 C 
ATOM     81  C   UNL A   1      47.481  24.868  25.227  1.00  0.00     0.035 C 
ATOM     82  N   UNL A   1      46.339  26.098  26.975  1.00  0.00    -0.344 N 
ATOM     83  C   UNL A   1      48.799  25.528  25.645  1.00  0.00     0.004 C 
ATOM     84  C   UNL A   1      47.537  26.794  27.426  1.00  0.00     0.119 C 
ATOM     85  C   UNL A   1      48.768  25.940  27.116  1.00  0.00     0.022 C 
BRANCH  82  86
ATOM     86  C   UNL A   1      45.621  25.333  27.870  1.00  0.00     0.133 A 
ATOM     87  C   UNL A   1      45.792  25.533  29.220  1.00  0.00     0.076 A 
ATOM     88  N   UNL A   1      44.741  24.437  27.404  1.00  0.00    -0.211 NA
ATOM     89  C   UNL A   1      45.011  24.786  30.077  1.00  0.00     0.076 A 
ATOM     90  C   UNL A   1      44.032  23.740  28.307  1.00  0.00     0.162 A 
ATOM     91  N   UNL A   1      44.128  23.868  29.640  1.00  0.00    -0.228 NA
BRANCH  89  92
ATOM     92  C   UNL A   1      45.108  24.962  31.529  1.00  0.00     0.000 A 
ATOM     93  C   UNL A   1      44.351  24.165  32.400  1.00  0.00     0.010 A 
ATOM     94  C   UNL A   1      45.990  25.905  32.083  1.00  0.00     0.010 A 
ATOM     95  C   UNL A   1      44.488  24.290  33.785  1.00  0.00     0.001 A 
ATOM     96  C   UNL A   1      46.121  26.039  33.466  1.00  0.00     0.001 A 
ATOM     97  C   UNL A   1      45.375  25.226  34.316  1.00  0.00     0.000 A 
ENDBRANCH  89  92
BRANCH  90  98
ATOM     98  C   UNL A   1      43.071  22.767  27.782  1.00  0.00     0.021 A 
ATOM     99  C   UNL A   1      41.729  22.770  28.210  1.00  0.00     0.012 A 
ATOM    100  C   UNL A   1      43.468  21.793  26.852  1.00  0.00     0.032 A 
ATOM    101  C   UNL A   1      40.811  21.838  27.718  1.00  0.00     0.002 A 
ATOM    102  C   UNL A   1      42.553  20.853  26.376  1.00  0.00     0.041 A 
ATOM    103  C   UNL A   1      41.227  20.875  26.801  1.00  0.00     0.020 A 
ATOM    104  Cl  UNL A   1      43.070  19.649  25.259  1.00  0.00    -0.084 Cl
ENDBRANCH  90  98
ENDBRANCH  82  86
ENDBRANCH  77  80
ENDBRANCH  75  76
ENDBRANCH  74  75
ENDBRANCH   1  74
TORSDOF 16
ENDMDL
MODEL 2
REMARK VINA RESULT:     -11.2      1.973      3.291
REMARK SMILES O=C(NCCCNC(=O)[C@H]1CCCCN1c1cc(-c2ccccc2)nc(-c2cccc(Cl)c2)n1)c1ccc(-c2c3nc(c(-c4c(F)cc(S(=O)(=O)[O-])cc4F)c4ccc([nH]4)c(-c4c(F)cc(S(=O)(=O)[O-])cc4F)c4nc(c(-c5c(F)cc(S(=O)(=O)[O-])cc5F)c5ccc2[nH]5)C=C4)C=C3)cc1
REMARK SMILES IDX 4 1 3 2 1 3 2 4 35 6 36 7 100 8 37 9 99 10 38 11 39 12 40 13
REMARK SMILES IDX 93 14 41 15 98 16 92 17 94 18 42 19 97 20 91 21 90 22 43 24
REMARK SMILES IDX 77 25 56 26 76 27 57 28 60 29 75 30 95 31 58 32 59 33 74 35
REMARK SMILES IDX 96 36 61 37 44 38 45 39 54 40 46 41 47 42 53 43 55 44 48 45
REMARK SMILES IDX 49 46 50 47 51 48 52 49 78 50 79 51 88 52 80 53 81 54 87 55
REMARK SMILES IDX 89 56 82 57 83 58 84 59 85 60 86 61 62 62 63 63 72 64 64 65
REMARK SMILES IDX 65 66 71 67 73 68 66 69 67 70 68 71 69 72 70 73 5 74 6 75
REMARK SMILES IDX 7 76 8 77 9 79 10 80 11 81 15 82 12 83 14 84 13 85 16 86
REMARK SMILES IDX 17 87 34 88 18 89 26 90 25 91 19 92 20 93 24 94 21 95 23 96
REMARK SMILES IDX 22 97 27 98 28 99 33 100 29 101 31 102 30 103 32 104
REMARK H PARENT 3 5 94 23 60 34 7 78
REMARK Flexibility Score: inf
ROOT
ATOM      1  C   UNL A   1      42.187  23.429  27.531  1.00  0.00     0.118 C 
ENDROOT
BRANCH   1   2
ATOM      2  N   UNL A   1      41.093  23.663  26.595  1.00  0.00    -0.352 N 
ATOM      3  O   UNL A   1      39.050  24.369  25.960  1.00  0.00    -0.269 OA
ATOM      4  C   UNL A   1      40.019  24.516  26.696  1.00  0.00     0.251 C 
ATOM      5  H   UNL A   1      41.129  23.131  25.767  1.00  0.00     0.163 HD
BRANCH   4   6
ATOM      6  C   UNL A   1      40.046  25.601  27.699  1.00  0.00     0.039 A 
ATOM      7  C   UNL A   1      39.150  25.572  28.766  1.00  0.00     0.014 A 
ATOM      8  C   UNL A   1      40.983  26.633  27.600  1.00  0.00     0.014 A 
ATOM      9  C   UNL A   1      39.059  26.654  29.623  1.00  0.00     0.010 A 
ATOM     10  C   UNL A   1      40.990  27.654  28.556  1.00  0.00     0.010 A 
ATOM     11  C   UNL A   1      40.018  27.674  29.567  1.00  0.00    -0.014 A 
BRANCH  11  12
ATOM     12  C   UNL A   1      40.057  28.644  30.687  1.00  0.00     0.031 A 
ATOM     13  C   UNL A   1      41.031  28.503  31.818  1.00  0.00     0.074 A 
ATOM     14  C   UNL A   1      39.207  29.690  30.626  1.00  0.00     0.049 A 
ATOM     15  N   UNL A   1      41.189  29.281  32.857  1.00  0.00    -0.248 NA
ATOM     16  C   UNL A   1      41.938  27.344  31.793  1.00  0.00     0.031 C 
ATOM     17  C   UNL A   1      38.207  29.900  29.569  1.00  0.00     0.029 A 
ATOM     18  N   UNL A   1      39.054  30.782  31.437  1.00  0.00    -0.354 N 
ATOM     19  C   UNL A   1      42.187  28.696  33.625  1.00  0.00     0.074 A 
ATOM     20  C   UNL A   1      42.600  27.492  32.936  1.00  0.00     0.031 C 
ATOM     21  C   UNL A   1      37.593  31.073  29.764  1.00  0.00     0.029 A 
ATOM     22  C   UNL A   1      38.080  31.652  31.006  1.00  0.00     0.049 A 
ATOM     23  H   UNL A   1      39.591  30.930  32.249  1.00  0.00     0.167 HD
ATOM     24  C   UNL A   1      42.700  29.133  34.798  1.00  0.00     0.037 A 
ATOM     25  C   UNL A   1      37.598  32.774  31.569  1.00  0.00     0.037 A 
ATOM     26  C   UNL A   1      42.290  30.353  35.449  1.00  0.00     0.049 A 
ATOM     27  C   UNL A   1      38.182  33.219  32.876  1.00  0.00     0.074 A 
ATOM     28  C   UNL A   1      42.793  30.919  36.607  1.00  0.00     0.029 A 
ATOM     29  N   UNL A   1      41.278  31.191  35.003  1.00  0.00    -0.354 N 
ATOM     30  N   UNL A   1      39.158  32.676  33.564  1.00  0.00    -0.248 NA
ATOM     31  C   UNL A   1      37.594  34.414  33.492  1.00  0.00     0.031 C 
ATOM     32  C   UNL A   1      42.050  32.069  36.891  1.00  0.00     0.029 A 
ATOM     33  C   UNL A   1      41.115  32.248  35.884  1.00  0.00     0.049 A 
ATOM     34  H   UNL A   1      40.752  31.054  34.182  1.00  0.00     0.167 HD
ATOM     35  C   UNL A   1      39.298  33.461  34.699  1.00  0.00     0.074 A 
ATOM     36  C   UNL A   1      38.334  34.537  34.584  1.00  0.00     0.031 C 
ATOM     37  C   UNL A   1      40.141  33.301  35.749  1.00  0.00     0.037 A 
BRANCH  24  38
ATOM     38  C   UNL A   1      43.743  28.295  35.484  1.00  0.00     0.058 A 
ATOM     39  C   UNL A   1      43.409  27.352  36.467  1.00  0.00     0.135 A 
ATOM     40  C   UNL A   1      45.084  28.362  35.070  1.00  0.00     0.135 A 
ATOM     41  F   UNL A   1      42.146  27.257  36.912  1.00  0.00    -0.206 F 
ATOM     42  C   UNL A   1      44.366  26.500  37.012  1.00  0.00     0.059 A 
ATOM     43  C   UNL A   1      46.054  27.507  35.586  1.00  0.00     0.059 A 
ATOM     44  F   UNL A   1      45.458  29.251  34.137  1.00  0.00    -0.206 F 
ATOM     45  C   UNL A   1      45.685  26.579  36.558  1.00  0.00     0.060 A 
BRANCH  45  46
ATOM     46  S   UNL A   1      46.901  25.428  37.233  1.00  0.00     0.124 S 
ATOM     47  O   UNL A   1      47.766  26.328  37.990  1.00  0.00    -0.237 OA
ATOM     48  O   UNL A   1      46.071  24.529  38.029  1.00  0.00    -0.237 OA
ATOM     49  O   UNL A   1      47.504  24.831  36.045  1.00  0.00    -0.744 OA
ENDBRANCH  45  46
ENDBRANCH  24  38
BRANCH  25  50
ATOM     50  C   UNL A   1      36.469  33.501  30.933  1.00  0.00     0.058 A 
ATOM     51  C   UNL A   1      36.650  34.253  29.764  1.00  0.00     0.135 A 
ATOM     52  C   UNL A   1      35.178  33.453  31.487  1.00  0.00     0.135 A 
ATOM     53  F   UNL A   1      37.863  34.329  29.196  1.00  0.00    -0.206 F 
ATOM     54  C   UNL A   1      35.600  34.954  29.181  1.00  0.00     0.059 A 
ATOM     55  C   UNL A   1      34.106  34.118  30.905  1.00  0.00     0.059 A 
ATOM     56  F   UNL A   1      34.946  32.729  32.592  1.00  0.00    -0.206 F 
ATOM     57  C   UNL A   1      34.331  34.883  29.762  1.00  0.00     0.060 A 
BRANCH  57  58
ATOM     58  S   UNL A   1      32.969  35.786  28.996  1.00  0.00     0.124 S 
ATOM     59  O   UNL A   1      33.682  36.847  28.296  1.00  0.00    -0.237 OA
ATOM     60  O   UNL A   1      32.354  34.764  28.156  1.00  0.00    -0.237 OA
ATOM     61  O   UNL A   1      32.166  36.211  30.140  1.00  0.00    -0.744 OA
ENDBRANCH  57  58
ENDBRANCH  25  50
BRANCH  37  62
ATOM     62  C   UNL A   1      40.049  34.317  36.847  1.00  0.00     0.058 A 
ATOM     63  C   UNL A   1      40.746  35.534  36.776  1.00  0.00     0.135 A 
ATOM     64  C   UNL A   1      39.236  34.087  37.968  1.00  0.00     0.135 A 
ATOM     65  F   UNL A   1      41.548  35.792  35.730  1.00  0.00    -0.206 F 
ATOM     66  C   UNL A   1      40.658  36.479  37.789  1.00  0.00     0.059 A 
ATOM     67  C   UNL A   1      39.110  35.031  38.980  1.00  0.00     0.059 A 
ATOM     68  F   UNL A   1      38.546  32.941  38.079  1.00  0.00    -0.206 F 
ATOM     69  C   UNL A   1      39.834  36.219  38.888  1.00  0.00     0.060 A 
BRANCH  69  70
ATOM     70  S   UNL A   1      39.703  37.469  40.182  1.00  0.00     0.124 S 
ATOM     71  O   UNL A   1      39.915  36.669  41.384  1.00  0.00    -0.237 OA
ATOM     72  O   UNL A   1      40.780  38.392  39.836  1.00  0.00    -0.237 OA
ATOM     73  O   UNL A   1      38.354  37.997  40.009  1.00  0.00    -0.744 OA
ENDBRANCH  69  70
ENDBRANCH  37  62
ENDBRANCH  11  12
ENDBRANCH   4   6
ENDBRANCH   1   2
BRANCH   1  74
ATOM     74  C   UNL A   1      43.514  23.265  26.812  1.00  0.00     0.042 C 
BRANCH  74  75
ATOM     75  C   UNL A   1      43.505  23.937  25.454  1.00  0.00     0.117 C 
BRANCH  75  76
ATOM     76  N   UNL A   1      44.717  23.653  24.715  1.00  0.00    -0.354 N 
ATOM     77  C   UNL A   1      46.003  24.054  24.810  1.00  0.00     0.242 C 
ATOM     78  H   UNL A   1      44.570  23.022  23.974  1.00  0.00     0.163 HD
ATOM     79  O   UNL A   1      46.731  23.623  23.899  1.00  0.00    -0.273 OA
BRANCH  77  80
ATOM     80  C   UNL A   1      46.617  24.940  25.938  1.00  0.00     0.173 C 
ATOM     81  C   UNL A   1      48.103  25.298  25.973  1.00  0.00     0.035 C 
ATOM     82  N   UNL A   1      45.858  26.207  25.942  1.00  0.00    -0.344 N 
ATOM     83  C   UNL A   1      48.499  26.276  24.862  1.00  0.00     0.004 C 
ATOM     84  C   UNL A   1      46.132  27.154  24.870  1.00  0.00     0.119 C 
ATOM     85  C   UNL A   1      47.617  27.524  24.887  1.00  0.00     0.022 C 
BRANCH  82  86
ATOM     86  C   UNL A   1      45.384  26.671  27.152  1.00  0.00     0.133 A 
ATOM     87  C   UNL A   1      45.332  25.818  28.229  1.00  0.00     0.076 A 
ATOM     88  N   UNL A   1      45.021  27.956  27.262  1.00  0.00    -0.211 NA
ATOM     89  C   UNL A   1      44.905  26.341  29.433  1.00  0.00     0.076 A 
ATOM     90  C   UNL A   1      44.603  28.380  28.465  1.00  0.00     0.162 A 
ATOM     91  N   UNL A   1      44.521  27.624  29.571  1.00  0.00    -0.228 NA
BRANCH  89  92
ATOM     92  C   UNL A   1      44.853  25.508  30.638  1.00  0.00     0.000 A 
ATOM     93  C   UNL A   1      44.144  24.296  30.642  1.00  0.00     0.010 A 
ATOM     94  C   UNL A   1      45.542  25.882  31.803  1.00  0.00     0.010 A 
ATOM     95  C   UNL A   1      44.145  23.473  31.770  1.00  0.00     0.001 A 
ATOM     96  C   UNL A   1      45.535  25.065  32.935  1.00  0.00     0.001 A 
ATOM     97  C   UNL A   1      44.842  23.857  32.915  1.00  0.00     0.000 A 
ENDBRANCH  89  92
BRANCH  90  98
ATOM     98  C   UNL A   1      44.213  29.788  28.570  1.00  0.00     0.021 A 
ATOM     99  C   UNL A   1      43.459  30.252  29.665  1.00  0.00     0.012 A 
ATOM    100  C   UNL A   1      44.566  30.709  27.570  1.00  0.00     0.032 A 
ATOM    101  C   UNL A   1      43.078  31.593  29.765  1.00  0.00     0.002 A 
ATOM    102  C   UNL A   1      44.169  32.043  27.664  1.00  0.00     0.041 A 
ATOM    103  C   UNL A   1      43.432  32.489  28.758  1.00  0.00     0.020 A 
ATOM    104  Cl  UNL A   1      44.587  33.148  26.411  1.00  0.00    -0.084 Cl
ENDBRANCH  90  98
ENDBRANCH  82  86
ENDBRANCH  77  80
ENDBRANCH  75  76
ENDBRANCH  74  75
ENDBRANCH   1  74
TORSDOF 16
ENDMDL
MODEL 3
REMARK VINA RESULT:     -11.1      4.434     11.322
REMARK SMILES O=C(NCCCNC(=O)[C@H]1CCCCN1c1cc(-c2ccccc2)nc(-c2cccc(Cl)c2)n1)c1ccc(-c2c3nc(c(-c4c(F)cc(S(=O)(=O)[O-])cc4F)c4ccc([nH]4)c(-c4c(F)cc(S(=O)(=O)[O-])cc4F)c4nc(c(-c5c(F)cc(S(=O)(=O)[O-])cc5F)c5ccc2[nH]5)C=C4)C=C3)cc1
REMARK SMILES IDX 4 1 3 2 1 3 2 4 35 6 36 7 100 8 37 9 99 10 38 11 39 12 40 13
REMARK SMILES IDX 93 14 41 15 98 16 92 17 94 18 42 19 97 20 91 21 90 22 43 24
REMARK SMILES IDX 77 25 56 26 76 27 57 28 60 29 75 30 95 31 58 32 59 33 74 35
REMARK SMILES IDX 96 36 61 37 44 38 45 39 54 40 46 41 47 42 53 43 55 44 48 45
REMARK SMILES IDX 49 46 50 47 51 48 52 49 78 50 79 51 88 52 80 53 81 54 87 55
REMARK SMILES IDX 89 56 82 57 83 58 84 59 85 60 86 61 62 62 63 63 72 64 64 65
REMARK SMILES IDX 65 66 71 67 73 68 66 69 67 70 68 71 69 72 70 73 5 74 6 75
REMARK SMILES IDX 7 76 8 77 9 79 10 80 11 81 15 82 12 83 14 84 13 85 16 86
REMARK SMILES IDX 17 87 34 88 18 89 26 90 25 91 19 92 20 93 24 94 21 95 23 96
REMARK SMILES IDX 22 97 27 98 28 99 33 100 29 101 31 102 30 103 32 104
REMARK H PARENT 3 5 94 23 60 34 7 78
REMARK Flexibility Score: inf
ROOT
ATOM      1  C   UNL A   1      35.227  33.012  28.360  1.00  0.00     0.118 C 
ENDROOT
BRANCH   1   2
ATOM      2  N   UNL A   1      34.357  31.878  28.066  1.00  0.00    -0.352 N 
ATOM      3  O   UNL A   1      33.852  29.826  27.288  1.00  0.00    -0.269 OA
ATOM      4  C   UNL A   1      34.681  30.568  27.799  1.00  0.00     0.251 C 
ATOM      5  H   UNL A   1      33.393  32.081  28.059  1.00  0.00     0.163 HD
BRANCH   4   6
ATOM      6  C   UNL A   1      36.035  30.074  28.128  1.00  0.00     0.039 A 
ATOM      7  C   UNL A   1      37.047  30.159  27.174  1.00  0.00     0.014 A 
ATOM      8  C   UNL A   1      36.309  29.557  29.397  1.00  0.00     0.014 A 
ATOM      9  C   UNL A   1      38.272  29.562  27.411  1.00  0.00     0.010 A 
ATOM     10  C   UNL A   1      37.595  29.090  29.688  1.00  0.00     0.010 A 
ATOM     11  C   UNL A   1      38.581  29.080  28.690  1.00  0.00    -0.014 A 
BRANCH  11  12
ATOM     12  C   UNL A   1      39.993  28.732  28.972  1.00  0.00     0.031 A 
ATOM     13  C   UNL A   1      40.585  27.425  28.540  1.00  0.00     0.074 A 
ATOM     14  C   UNL A   1      40.743  29.663  29.598  1.00  0.00     0.049 A 
ATOM     15  N   UNL A   1      41.807  26.990  28.705  1.00  0.00    -0.248 NA
ATOM     16  C   UNL A   1      39.701  26.477  27.842  1.00  0.00     0.031 C 
ATOM     17  C   UNL A   1      40.247  30.962  30.075  1.00  0.00     0.029 A 
ATOM     18  N   UNL A   1      42.074  29.688  29.921  1.00  0.00    -0.354 N 
ATOM     19  C   UNL A   1      41.835  25.712  28.164  1.00  0.00     0.074 A 
ATOM     20  C   UNL A   1      40.506  25.435  27.664  1.00  0.00     0.031 C 
ATOM     21  C   UNL A   1      41.266  31.674  30.570  1.00  0.00     0.029 A 
ATOM     22  C   UNL A   1      42.466  30.853  30.538  1.00  0.00     0.049 A 
ATOM     23  H   UNL A   1      42.689  28.944  29.729  1.00  0.00     0.167 HD
ATOM     24  C   UNL A   1      42.883  24.858  28.098  1.00  0.00     0.037 A 
ATOM     25  C   UNL A   1      43.653  31.209  31.061  1.00  0.00     0.037 A 
ATOM     26  C   UNL A   1      44.206  25.171  28.577  1.00  0.00     0.049 A 
ATOM     27  C   UNL A   1      44.785  30.231  30.982  1.00  0.00     0.074 A 
ATOM     28  C   UNL A   1      45.352  24.400  28.500  1.00  0.00     0.029 A 
ATOM     29  N   UNL A   1      44.559  26.346  29.228  1.00  0.00    -0.354 N 
ATOM     30  N   UNL A   1      44.804  29.044  30.424  1.00  0.00    -0.248 NA
ATOM     31  C   UNL A   1      46.048  30.627  31.614  1.00  0.00     0.031 C 
ATOM     32  C   UNL A   1      46.384  25.084  29.150  1.00  0.00     0.029 A 
ATOM     33  C   UNL A   1      45.895  26.303  29.591  1.00  0.00     0.049 A 
ATOM     34  H   UNL A   1      43.949  27.098  29.405  1.00  0.00     0.167 HD
ATOM     35  C   UNL A   1      46.081  28.548  30.642  1.00  0.00     0.074 A 
ATOM     36  C   UNL A   1      46.815  29.580  31.348  1.00  0.00     0.031 C 
ATOM     37  C   UNL A   1      46.598  27.342  30.300  1.00  0.00     0.037 A 
BRANCH  24  38
ATOM     38  C   UNL A   1      42.660  23.490  27.514  1.00  0.00     0.058 A 
ATOM     39  C   UNL A   1      42.837  23.230  26.146  1.00  0.00     0.135 A 
ATOM     40  C   UNL A   1      42.370  22.403  28.355  1.00  0.00     0.135 A 
ATOM     41  F   UNL A   1      43.097  24.234  25.295  1.00  0.00    -0.206 F 
ATOM     42  C   UNL A   1      42.741  21.938  25.636  1.00  0.00     0.059 A 
ATOM     43  C   UNL A   1      42.290  21.101  27.869  1.00  0.00     0.059 A 
ATOM     44  F   UNL A   1      42.185  22.599  29.670  1.00  0.00    -0.206 F 
ATOM     45  C   UNL A   1      42.477  20.879  26.507  1.00  0.00     0.060 A 
BRANCH  45  46
ATOM     46  S   UNL A   1      42.414  19.204  25.835  1.00  0.00     0.124 S 
ATOM     47  O   UNL A   1      40.991  19.061  25.539  1.00  0.00    -0.237 OA
ATOM     48  O   UNL A   1      43.296  19.299  24.677  1.00  0.00    -0.237 OA
ATOM     49  O   UNL A   1      42.911  18.377  26.931  1.00  0.00    -0.744 OA
ENDBRANCH  45  46
ENDBRANCH  24  38
BRANCH  25  50
ATOM     50  C   UNL A   1      43.798  32.515  31.756  1.00  0.00     0.058 A 
ATOM     51  C   UNL A   1      43.615  32.629  33.141  1.00  0.00     0.135 A 
ATOM     52  C   UNL A   1      44.128  33.679  31.041  1.00  0.00     0.135 A 
ATOM     53  F   UNL A   1      43.300  31.547  33.868  1.00  0.00    -0.206 F 
ATOM     54  C   UNL A   1      43.725  33.855  33.789  1.00  0.00     0.059 A 
ATOM     55  C   UNL A   1      44.276  34.908  31.671  1.00  0.00     0.059 A 
ATOM     56  F   UNL A   1      44.337  33.620  29.717  1.00  0.00    -0.206 F 
ATOM     57  C   UNL A   1      44.053  34.990  33.043  1.00  0.00     0.060 A 
BRANCH  57  58
ATOM     58  S   UNL A   1      44.206  36.577  33.891  1.00  0.00     0.124 S 
ATOM     59  O   UNL A   1      42.880  37.145  33.683  1.00  0.00    -0.237 OA
ATOM     60  O   UNL A   1      44.521  36.169  35.256  1.00  0.00    -0.237 OA
ATOM     61  O   UNL A   1      45.295  37.233  33.174  1.00  0.00    -0.744 OA
ENDBRANCH  57  58
ENDBRANCH  25  50
BRANCH  37  62
ATOM     62  C   UNL A   1      48.024  27.086  30.688  1.00  0.00     0.058 A 
ATOM     63  C   UNL A   1      49.085  27.429  29.834  1.00  0.00     0.135 A 
ATOM     64  C   UNL A   1      48.335  26.520  31.934  1.00  0.00     0.135 A 
ATOM     65  F   UNL A   1      48.835  27.959  28.626  1.00  0.00    -0.206 F 
ATOM     66  C   UNL A   1      50.406  27.199  30.194  1.00  0.00     0.059 A 
ATOM     67  C   UNL A   1      49.651  26.307  32.326  1.00  0.00     0.059 A 
ATOM     68  F   UNL A   1      47.355  26.181  32.786  1.00  0.00    -0.206 F 
ATOM     69  C   UNL A   1      50.680  26.639  31.445  1.00  0.00     0.060 A 
BRANCH  69  70
ATOM     70  S   UNL A   1      52.402  26.374  31.913  1.00  0.00     0.124 S 
ATOM     71  O   UNL A   1      52.481  24.916  31.925  1.00  0.00    -0.237 OA
ATOM     72  O   UNL A   1      53.125  27.039  30.835  1.00  0.00    -0.237 OA
ATOM     73  O   UNL A   1      52.501  27.019  33.218  1.00  0.00    -0.744 OA
ENDBRANCH  69  70
ENDBRANCH  37  62
ENDBRANCH  11  12
ENDBRANCH   4   6
ENDBRANCH   1   2
BRANCH   1  74
ATOM     74  C   UNL A   1      34.834  33.699  29.655  1.00  0.00     0.042 C 
BRANCH  74  75
ATOM     75  C   UNL A   1      34.381  32.704  30.705  1.00  0.00     0.117 C 
BRANCH  75  76
ATOM     76  N   UNL A   1      34.449  33.272  32.035  1.00  0.00    -0.354 N 
ATOM     77  C   UNL A   1      35.351  33.234  33.039  1.00  0.00     0.242 C 
ATOM     78  H   UNL A   1      33.655  33.811  32.258  1.00  0.00     0.163 HD
ATOM     79  O   UNL A   1      34.971  33.807  34.075  1.00  0.00    -0.273 OA
BRANCH  77  80
ATOM     80  C   UNL A   1      36.771  32.592  32.985  1.00  0.00     0.173 C 
ATOM     81  C   UNL A   1      37.497  32.333  31.665  1.00  0.00     0.035 C 
ATOM     82  N   UNL A   1      37.653  33.440  33.815  1.00  0.00    -0.344 N 
ATOM     83  C   UNL A   1      37.956  33.626  30.983  1.00  0.00     0.004 C 
ATOM     84  C   UNL A   1      38.068  34.719  33.255  1.00  0.00     0.119 C 
ATOM     85  C   UNL A   1      38.796  34.482  31.930  1.00  0.00     0.022 C 
BRANCH  82  86
ATOM     86  C   UNL A   1      38.452  32.816  34.750  1.00  0.00     0.133 A 
ATOM     87  C   UNL A   1      38.487  33.298  36.038  1.00  0.00     0.076 A 
ATOM     88  N   UNL A   1      39.150  31.730  34.393  1.00  0.00    -0.211 NA
ATOM     89  C   UNL A   1      39.256  32.610  36.953  1.00  0.00     0.076 A 
ATOM     90  C   UNL A   1      39.886  31.128  35.341  1.00  0.00     0.162 A 
ATOM     91  N   UNL A   1      39.978  31.523  36.622  1.00  0.00    -0.228 NA
BRANCH  89  92
ATOM     92  C   UNL A   1      39.321  33.037  38.353  1.00  0.00     0.000 A 
ATOM     93  C   UNL A   1      38.154  33.383  39.052  1.00  0.00     0.010 A 
ATOM     94  C   UNL A   1      40.547  33.072  39.040  1.00  0.00     0.010 A 
ATOM     95  C   UNL A   1      38.209  33.731  40.404  1.00  0.00     0.001 A 
ATOM     96  C   UNL A   1      40.603  33.430  40.388  1.00  0.00     0.001 A 
ATOM     97  C   UNL A   1      39.433  33.752  41.071  1.00  0.00     0.000 A 
ENDBRANCH  89  92
BRANCH  90  98
ATOM     98  C   UNL A   1      40.639  29.939  34.937  1.00  0.00     0.021 A 
ATOM     99  C   UNL A   1      40.564  29.447  33.619  1.00  0.00     0.012 A 
ATOM    100  C   UNL A   1      41.441  29.248  35.858  1.00  0.00     0.032 A 
ATOM    101  C   UNL A   1      41.275  28.309  33.231  1.00  0.00     0.002 A 
ATOM    102  C   UNL A   1      42.136  28.101  35.472  1.00  0.00     0.041 A 
ATOM    103  C   UNL A   1      42.060  27.632  34.163  1.00  0.00     0.020 A 
ATOM    104  Cl  UNL A   1      43.089  27.251  36.627  1.00  0.00    -0.084 Cl
ENDBRANCH  90  98
ENDBRANCH  82  86
ENDBRANCH  77  80
ENDBRANCH  75  76
ENDBRANCH  74  75
ENDBRANCH   1  74
TORSDOF 16
ENDMDL
