MODEL 1
REMARK VINA RESULT:     -12.8      0.000      0.000
REMARK SMILES Cc1cc(C)c2c(c1)C=C(C(=O)NCCCNC(=O)c1ccc(-c3c4nc(c(-c5c(F)cc(S(=O)(=O)[O-])cc5F)c5ccc([nH]5)c(-c5c(F)cc(S(=O)(=O)[O-])cc5F)c5nc(c(-c6c(F)cc(S(=O)(=O)[O-])cc6F)c6ccc3[nH]6)C=C5)C=C4)cc1)[C@@H](C(F)(F)F)O2
REMARK SMILES IDX 16 1 15 2 14 3 13 4 11 5 12 6 10 8 1 9 2 10 3 11 8 12 4 13
REMARK SMILES IDX 7 14 5 15 6 16 9 17 91 18 86 19 87 20 88 21 89 22 90 23
REMARK SMILES IDX 17 24 18 25 19 27 20 28 21 29 85 30 22 31 84 32 23 33 24 34
REMARK SMILES IDX 25 35 78 36 26 37 83 38 77 39 79 40 27 41 82 42 76 43 75 44
REMARK SMILES IDX 28 46 62 47 41 48 61 49 42 50 45 51 60 52 80 53 43 54 44 55
REMARK SMILES IDX 59 57 81 58 46 59 29 60 30 61 39 62 31 63 32 64 38 65 40 66
REMARK SMILES IDX 33 67 34 68 35 69 36 70 37 71 63 72 64 73 73 74 65 75 66 76
REMARK SMILES IDX 72 77 74 78 67 79 68 80 69 81 70 82 71 83 47 84 48 85 57 86
REMARK SMILES IDX 49 87 50 88 56 89 58 90 51 91 52 92 53 93 54 94 55 95
REMARK H PARENT 13 7 17 26 79 45 45 56
REMARK Flexibility Score: inf
ROOT
ATOM      1  C   UNL A   1      40.371  23.354  27.140  1.00  0.00     0.118 C 
ENDROOT
BRANCH   1   2
ATOM      2  C   UNL A   1      39.115  22.714  26.560  1.00  0.00     0.042 C 
BRANCH   2   3
ATOM      3  C   UNL A   1      38.112  23.748  26.070  1.00  0.00     0.118 C 
BRANCH   3   4
ATOM      4  N   UNL A   1      37.626  23.447  24.731  1.00  0.00    -0.352 N 
ATOM      5  C   UNL A   1      36.432  23.386  24.098  1.00  0.00     0.251 C 
ATOM      6  O   UNL A   1      36.489  23.081  22.902  1.00  0.00    -0.270 OA
ATOM      7  H   UNL A   1      38.367  23.228  24.122  1.00  0.00     0.163 HD
BRANCH   5   8
ATOM      8  C   UNL A   1      35.109  23.660  24.727  1.00  0.00     0.067 C 
ATOM      9  C   UNL A   1      31.710  28.338  26.929  1.00  0.00     0.044 C 
ATOM     10  C   UNL A   1      32.011  26.935  26.489  1.00  0.00    -0.050 A 
ATOM     11  C   UNL A   1      31.065  25.920  26.696  1.00  0.00     0.010 A 
ATOM     12  C   UNL A   1      33.245  26.615  25.910  1.00  0.00     0.015 A 
ATOM     13  C   UNL A   1      31.330  24.601  26.308  1.00  0.00    -0.008 A 
ATOM     14  C   UNL A   1      33.527  25.302  25.524  1.00  0.00     0.018 A 
ATOM     15  C   UNL A   1      30.310  23.520  26.523  1.00  0.00     0.048 C 
ATOM     16  C   UNL A   1      32.570  24.306  25.727  1.00  0.00     0.130 A 
ATOM     17  C   UNL A   1      34.792  24.959  24.885  1.00  0.00     0.025 C 
ATOM     18  O   UNL A   1      32.780  23.014  25.330  1.00  0.00    -0.475 OA
ATOM     19  C   UNL A   1      34.165  22.597  25.213  1.00  0.00     0.314 C 
BRANCH  19  20
ATOM     20  C   UNL A   1      34.619  21.964  26.542  1.00  0.00     0.429 C 
ATOM     21  F   UNL A   1      35.724  21.200  26.353  1.00  0.00    -0.167 F 
ATOM     22  F   UNL A   1      34.950  22.889  27.474  1.00  0.00    -0.167 F 
ATOM     23  F   UNL A   1      33.673  21.175  27.099  1.00  0.00    -0.167 F 
ENDBRANCH  19  20
ENDBRANCH   5   8
ENDBRANCH   3   4
ENDBRANCH   2   3
ENDBRANCH   1   2
BRANCH   1  24
ATOM     24  N   UNL A   1      41.113  24.104  26.129  1.00  0.00    -0.352 N 
ATOM     25  C   UNL A   1      41.418  25.441  26.068  1.00  0.00     0.251 C 
ATOM     26  H   UNL A   1      41.446  23.567  25.374  1.00  0.00     0.163 HD
ATOM     27  O   UNL A   1      41.806  25.928  25.008  1.00  0.00    -0.269 OA
BRANCH  25  28
ATOM     28  C   UNL A   1      41.275  26.288  27.269  1.00  0.00     0.039 A 
ATOM     29  C   UNL A   1      42.187  27.322  27.493  1.00  0.00     0.014 A 
ATOM     30  C   UNL A   1      40.248  26.044  28.184  1.00  0.00     0.014 A 
ATOM     31  C   UNL A   1      42.023  28.155  28.603  1.00  0.00     0.010 A 
ATOM     32  C   UNL A   1      40.031  26.929  29.232  1.00  0.00     0.010 A 
ATOM     33  C   UNL A   1      40.921  27.987  29.459  1.00  0.00    -0.014 A 
BRANCH  33  34
ATOM     34  C   UNL A   1      40.691  28.894  30.609  1.00  0.00     0.031 A 
ATOM     35  C   UNL A   1      41.533  28.760  31.849  1.00  0.00     0.074 A 
ATOM     36  C   UNL A   1      39.689  29.794  30.557  1.00  0.00     0.049 A 
ATOM     37  N   UNL A   1      41.448  29.415  32.977  1.00  0.00    -0.248 NA
ATOM     38  C   UNL A   1      42.589  27.733  31.831  1.00  0.00     0.031 C 
ATOM     39  C   UNL A   1      38.774  29.975  29.429  1.00  0.00     0.029 A 
ATOM     40  N   UNL A   1      39.271  30.724  31.474  1.00  0.00    -0.354 N 
ATOM     41  C   UNL A   1      42.428  28.874  33.801  1.00  0.00     0.074 A 
ATOM     42  C   UNL A   1      43.051  27.794  33.071  1.00  0.00     0.031 C 
ATOM     43  C   UNL A   1      37.930  30.984  29.703  1.00  0.00     0.029 A 
ATOM     44  C   UNL A   1      38.220  31.496  31.038  1.00  0.00     0.049 A 
ATOM     45  H   UNL A   1      39.685  30.830  32.361  1.00  0.00     0.167 HD
ATOM     46  C   UNL A   1      42.800  29.267  35.043  1.00  0.00     0.037 A 
ATOM     47  C   UNL A   1      37.570  32.508  31.645  1.00  0.00     0.037 A 
ATOM     48  C   UNL A   1      42.200  30.369  35.745  1.00  0.00     0.049 A 
ATOM     49  C   UNL A   1      38.003  32.931  33.021  1.00  0.00     0.074 A 
ATOM     50  C   UNL A   1      42.537  30.883  36.985  1.00  0.00     0.029 A 
ATOM     51  N   UNL A   1      41.147  31.133  35.264  1.00  0.00    -0.354 N 
ATOM     52  N   UNL A   1      38.966  32.442  33.766  1.00  0.00    -0.248 NA
ATOM     53  C   UNL A   1      37.266  34.041  33.642  1.00  0.00     0.031 C 
ATOM     54  C   UNL A   1      41.665  31.939  37.267  1.00  0.00     0.029 A 
ATOM     55  C   UNL A   1      40.812  32.108  36.188  1.00  0.00     0.049 A 
ATOM     56  H   UNL A   1      40.704  31.002  34.395  1.00  0.00     0.167 HD
ATOM     57  C   UNL A   1      38.966  33.197  34.932  1.00  0.00     0.074 A 
ATOM     58  C   UNL A   1      37.912  34.182  34.792  1.00  0.00     0.031 C 
ATOM     59  C   UNL A   1      39.766  33.086  36.020  1.00  0.00     0.037 A 
BRANCH  46  60
ATOM     60  C   UNL A   1      43.924  28.521  35.703  1.00  0.00     0.058 A 
ATOM     61  C   UNL A   1      43.676  27.428  36.551  1.00  0.00     0.135 A 
ATOM     62  C   UNL A   1      45.262  28.872  35.461  1.00  0.00     0.135 A 
ATOM     63  F   UNL A   1      42.415  27.063  36.831  1.00  0.00    -0.206 F 
ATOM     64  C   UNL A   1      44.713  26.728  37.156  1.00  0.00     0.059 A 
ATOM     65  C   UNL A   1      46.315  28.167  36.035  1.00  0.00     0.059 A 
ATOM     66  F   UNL A   1      45.554  29.908  34.661  1.00  0.00    -0.206 F 
ATOM     67  C   UNL A   1      46.030  27.104  36.892  1.00  0.00     0.060 A 
BRANCH  67  68
ATOM     68  S   UNL A   1      47.362  26.174  37.680  1.00  0.00     0.124 S 
ATOM     69  O   UNL A   1      48.536  26.929  37.250  1.00  0.00    -0.237 OA
ATOM     70  O   UNL A   1      47.023  26.283  39.095  1.00  0.00    -0.237 OA
ATOM     71  O   UNL A   1      47.232  24.839  37.106  1.00  0.00    -0.744 OA
ENDBRANCH  67  68
ENDBRANCH  46  60
BRANCH  47  72
ATOM     72  C   UNL A   1      36.478  33.220  30.929  1.00  0.00     0.058 A 
ATOM     73  C   UNL A   1      35.143  33.063  31.326  1.00  0.00     0.135 A 
ATOM     74  C   UNL A   1      36.746  34.097  29.867  1.00  0.00     0.135 A 
ATOM     75  F   UNL A   1      34.837  32.232  32.334  1.00  0.00    -0.206 F 
ATOM     76  C   UNL A   1      34.109  33.746  30.694  1.00  0.00     0.059 A 
ATOM     77  C   UNL A   1      35.732  34.807  29.231  1.00  0.00     0.059 A 
ATOM     78  F   UNL A   1      38.010  34.295  29.460  1.00  0.00    -0.206 F 
ATOM     79  C   UNL A   1      34.415  34.621  29.651  1.00  0.00     0.060 A 
BRANCH  79  80
ATOM     80  S   UNL A   1      33.070  35.549  28.880  1.00  0.00     0.124 S 
ATOM     81  O   UNL A   1      32.346  36.040  30.047  1.00  0.00    -0.237 OA
ATOM     82  O   UNL A   1      33.795  36.554  28.109  1.00  0.00    -0.237 OA
ATOM     83  O   UNL A   1      32.377  34.540  28.084  1.00  0.00    -0.744 OA
ENDBRANCH  79  80
ENDBRANCH  47  72
BRANCH  59  84
ATOM     84  C   UNL A   1      39.556  34.057  37.146  1.00  0.00     0.058 A 
ATOM     85  C   UNL A   1      38.833  33.698  38.292  1.00  0.00     0.135 A 
ATOM     86  C   UNL A   1      40.182  35.314  37.125  1.00  0.00     0.135 A 
ATOM     87  F   UNL A   1      38.211  32.510  38.355  1.00  0.00    -0.206 F 
ATOM     88  C   UNL A   1      38.741  34.552  39.385  1.00  0.00     0.059 A 
ATOM     89  C   UNL A   1      40.120  36.174  38.216  1.00  0.00     0.059 A 
ATOM     90  F   UNL A   1      40.891  35.697  36.052  1.00  0.00    -0.206 F 
ATOM     91  C   UNL A   1      39.397  35.783  39.342  1.00  0.00     0.060 A 
BRANCH  91  92
ATOM     92  S   UNL A   1      39.339  36.842  40.803  1.00  0.00     0.124 S 
ATOM     93  O   UNL A   1      40.757  37.034  41.085  1.00  0.00    -0.237 OA
ATOM     94  O   UNL A   1      38.626  38.016  40.307  1.00  0.00    -0.237 OA
ATOM     95  O   UNL A   1      38.608  36.038  41.778  1.00  0.00    -0.744 OA
ENDBRANCH  91  92
ENDBRANCH  59  84
ENDBRANCH  33  34
ENDBRANCH  25  28
ENDBRANCH   1  24
TORSDOF 14
ENDMDL
MODEL 2
REMARK VINA RESULT:     -12.8      6.751     12.198
REMARK SMILES Cc1cc(C)c2c(c1)C=C(C(=O)NCCCNC(=O)c1ccc(-c3c4nc(c(-c5c(F)cc(S(=O)(=O)[O-])cc5F)c5ccc([nH]5)c(-c5c(F)cc(S(=O)(=O)[O-])cc5F)c5nc(c(-c6c(F)cc(S(=O)(=O)[O-])cc6F)c6ccc3[nH]6)C=C5)C=C4)cc1)[C@@H](C(F)(F)F)O2
REMARK SMILES IDX 16 1 15 2 14 3 13 4 11 5 12 6 10 8 1 9 2 10 3 11 8 12 4 13
REMARK SMILES IDX 7 14 5 15 6 16 9 17 91 18 86 19 87 20 88 21 89 22 90 23
REMARK SMILES IDX 17 24 18 25 19 27 20 28 21 29 85 30 22 31 84 32 23 33 24 34
REMARK SMILES IDX 25 35 78 36 26 37 83 38 77 39 79 40 27 41 82 42 76 43 75 44
REMARK SMILES IDX 28 46 62 47 41 48 61 49 42 50 45 51 60 52 80 53 43 54 44 55
REMARK SMILES IDX 59 57 81 58 46 59 29 60 30 61 39 62 31 63 32 64 38 65 40 66
REMARK SMILES IDX 33 67 34 68 35 69 36 70 37 71 63 72 64 73 73 74 65 75 66 76
REMARK SMILES IDX 72 77 74 78 67 79 68 80 69 81 70 82 71 83 47 84 48 85 57 86
REMARK SMILES IDX 49 87 50 88 56 89 58 90 51 91 52 92 53 93 54 94 55 95
REMARK H PARENT 13 7 17 26 79 45 45 56
REMARK Flexibility Score: inf
ROOT
ATOM      1  C   UNL A   1      35.565  30.971  27.999  1.00  0.00     0.118 C 
ENDROOT
BRANCH   1   2
ATOM      2  C   UNL A   1      34.736  29.870  27.347  1.00  0.00     0.042 C 
BRANCH   2   3
ATOM      3  C   UNL A   1      33.336  30.339  26.982  1.00  0.00     0.118 C 
BRANCH   3   4
ATOM      4  N   UNL A   1      32.308  29.450  27.504  1.00  0.00    -0.352 N 
ATOM      5  C   UNL A   1      31.806  28.229  27.209  1.00  0.00     0.251 C 
ATOM      6  O   UNL A   1      30.900  27.841  27.954  1.00  0.00    -0.270 OA
ATOM      7  H   UNL A   1      31.854  29.845  28.283  1.00  0.00     0.163 HD
BRANCH   5   8
ATOM      8  C   UNL A   1      32.266  27.357  26.091  1.00  0.00     0.067 C 
ATOM      9  C   UNL A   1      36.650  23.214  24.716  1.00  0.00     0.044 C 
ATOM     10  C   UNL A   1      35.395  24.014  24.522  1.00  0.00    -0.050 A 
ATOM     11  C   UNL A   1      34.702  23.945  23.306  1.00  0.00     0.010 A 
ATOM     12  C   UNL A   1      34.927  24.865  25.531  1.00  0.00     0.015 A 
ATOM     13  C   UNL A   1      33.537  24.695  23.098  1.00  0.00    -0.008 A 
ATOM     14  C   UNL A   1      33.770  25.625  25.337  1.00  0.00     0.018 A 
ATOM     15  C   UNL A   1      32.794  24.609  21.796  1.00  0.00     0.048 C 
ATOM     16  C   UNL A   1      33.086  25.536  24.123  1.00  0.00     0.130 A 
ATOM     17  C   UNL A   1      33.247  26.487  26.390  1.00  0.00     0.025 C 
ATOM     18  O   UNL A   1      31.927  26.227  23.897  1.00  0.00    -0.475 OA
ATOM     19  C   UNL A   1      31.733  27.428  24.688  1.00  0.00     0.314 C 
BRANCH  19  20
ATOM     20  C   UNL A   1      32.275  28.641  23.909  1.00  0.00     0.429 C 
ATOM     21  F   UNL A   1      31.602  29.767  24.252  1.00  0.00    -0.167 F 
ATOM     22  F   UNL A   1      33.583  28.885  24.167  1.00  0.00    -0.167 F 
ATOM     23  F   UNL A   1      32.166  28.498  22.569  1.00  0.00    -0.167 F 
ENDBRANCH  19  20
ENDBRANCH   5   8
ENDBRANCH   3   4
ENDBRANCH   2   3
ENDBRANCH   1   2
BRANCH   1  24
ATOM     24  N   UNL A   1      35.519  30.892  29.457  1.00  0.00    -0.352 N 
ATOM     25  C   UNL A   1      36.364  30.258  30.335  1.00  0.00     0.251 C 
ATOM     26  H   UNL A   1      34.766  31.368  29.876  1.00  0.00     0.163 HD
ATOM     27  O   UNL A   1      36.006  30.073  31.496  1.00  0.00    -0.269 OA
BRANCH  25  28
ATOM     28  C   UNL A   1      37.691  29.798  29.882  1.00  0.00     0.039 A 
ATOM     29  C   UNL A   1      38.038  29.920  28.534  1.00  0.00     0.014 A 
ATOM     30  C   UNL A   1      38.585  29.223  30.789  1.00  0.00     0.014 A 
ATOM     31  C   UNL A   1      39.311  29.530  28.113  1.00  0.00     0.010 A 
ATOM     32  C   UNL A   1      39.881  28.926  30.389  1.00  0.00     0.010 A 
ATOM     33  C   UNL A   1      40.255  29.065  29.046  1.00  0.00    -0.014 A 
BRANCH  33  34
ATOM     34  C   UNL A   1      41.633  28.700  28.634  1.00  0.00     0.031 A 
ATOM     35  C   UNL A   1      42.712  29.749  28.622  1.00  0.00     0.074 A 
ATOM     36  C   UNL A   1      41.892  27.446  28.218  1.00  0.00     0.049 A 
ATOM     37  N   UNL A   1      43.958  29.644  28.240  1.00  0.00    -0.248 NA
ATOM     38  C   UNL A   1      42.335  31.101  29.068  1.00  0.00     0.031 C 
ATOM     39  C   UNL A   1      40.911  26.362  28.135  1.00  0.00     0.029 A 
ATOM     40  N   UNL A   1      43.059  26.869  27.784  1.00  0.00    -0.354 N 
ATOM     41  C   UNL A   1      44.506  30.912  28.390  1.00  0.00     0.074 A 
ATOM     42  C   UNL A   1      43.445  31.786  28.833  1.00  0.00     0.031 C 
ATOM     43  C   UNL A   1      41.526  25.242  27.719  1.00  0.00     0.029 A 
ATOM     44  C   UNL A   1      42.933  25.535  27.473  1.00  0.00     0.049 A 
ATOM     45  H   UNL A   1      43.907  27.363  27.704  1.00  0.00     0.167 HD
ATOM     46  C   UNL A   1      45.789  31.304  28.209  1.00  0.00     0.037 A 
ATOM     47  C   UNL A   1      43.853  24.649  27.044  1.00  0.00     0.037 A 
ATOM     48  C   UNL A   1      46.847  30.418  27.805  1.00  0.00     0.049 A 
ATOM     49  C   UNL A   1      45.273  25.107  26.854  1.00  0.00     0.074 A 
ATOM     50  C   UNL A   1      48.191  30.702  27.643  1.00  0.00     0.029 A 
ATOM     51  N   UNL A   1      46.681  29.073  27.511  1.00  0.00    -0.354 N 
ATOM     52  N   UNL A   1      45.785  26.298  27.050  1.00  0.00    -0.248 NA
ATOM     53  C   UNL A   1      46.241  24.103  26.388  1.00  0.00     0.031 C 
ATOM     54  C   UNL A   1      48.833  29.535  27.220  1.00  0.00     0.029 A 
ATOM     55  C   UNL A   1      47.897  28.514  27.157  1.00  0.00     0.049 A 
ATOM     56  H   UNL A   1      45.826  28.587  27.550  1.00  0.00     0.167 HD
ATOM     57  C   UNL A   1      47.138  26.184  26.752  1.00  0.00     0.074 A 
ATOM     58  C   UNL A   1      47.367  24.805  26.371  1.00  0.00     0.031 C 
ATOM     59  C   UNL A   1      48.103  27.135  26.792  1.00  0.00     0.037 A 
BRANCH  46  60
ATOM     60  C   UNL A   1      46.122  32.746  28.475  1.00  0.00     0.058 A 
ATOM     61  C   UNL A   1      46.510  33.181  29.753  1.00  0.00     0.135 A 
ATOM     62  C   UNL A   1      46.090  33.695  27.442  1.00  0.00     0.135 A 
ATOM     63  F   UNL A   1      46.539  32.317  30.781  1.00  0.00    -0.206 F 
ATOM     64  C   UNL A   1      46.829  34.510  30.003  1.00  0.00     0.059 A 
ATOM     65  C   UNL A   1      46.432  35.025  27.664  1.00  0.00     0.059 A 
ATOM     66  F   UNL A   1      45.724  33.333  26.203  1.00  0.00    -0.206 F 
ATOM     67  C   UNL A   1      46.788  35.426  28.951  1.00  0.00     0.060 A 
BRANCH  67  68
ATOM     68  S   UNL A   1      47.216  37.146  29.294  1.00  0.00     0.124 S 
ATOM     69  O   UNL A   1      48.561  37.228  28.733  1.00  0.00    -0.237 OA
ATOM     70  O   UNL A   1      46.181  37.875  28.568  1.00  0.00    -0.237 OA
ATOM     71  O   UNL A   1      47.138  37.234  30.749  1.00  0.00    -0.744 OA
ENDBRANCH  67  68
ENDBRANCH  46  60
BRANCH  47  72
ATOM     72  C   UNL A   1      43.464  23.232  26.817  1.00  0.00     0.058 A 
ATOM     73  C   UNL A   1      43.387  22.712  25.517  1.00  0.00     0.135 A 
ATOM     74  C   UNL A   1      43.203  22.362  27.887  1.00  0.00     0.135 A 
ATOM     75  F   UNL A   1      43.623  23.506  24.463  1.00  0.00    -0.206 F 
ATOM     76  C   UNL A   1      43.059  21.380  25.284  1.00  0.00     0.059 A 
ATOM     77  C   UNL A   1      42.893  21.021  27.680  1.00  0.00     0.059 A 
ATOM     78  F   UNL A   1      43.281  22.807  29.150  1.00  0.00    -0.206 F 
ATOM     79  C   UNL A   1      42.820  20.541  26.372  1.00  0.00     0.060 A 
BRANCH  79  80
ATOM     80  S   UNL A   1      42.458  18.799  26.057  1.00  0.00     0.124 S 
ATOM     81  O   UNL A   1      41.052  18.856  25.673  1.00  0.00    -0.237 OA
ATOM     82  O   UNL A   1      43.400  18.481  24.987  1.00  0.00    -0.237 OA
ATOM     83  O   UNL A   1      42.739  18.160  27.339  1.00  0.00    -0.744 OA
ENDBRANCH  79  80
ENDBRANCH  47  72
BRANCH  59  84
ATOM     84  C   UNL A   1      49.502  26.728  26.432  1.00  0.00     0.058 A 
ATOM     85  C   UNL A   1      50.323  26.056  27.349  1.00  0.00     0.135 A 
ATOM     86  C   UNL A   1      49.980  26.908  25.124  1.00  0.00     0.135 A 
ATOM     87  F   UNL A   1      49.913  25.867  28.612  1.00  0.00    -0.206 F 
ATOM     88  C   UNL A   1      51.572  25.572  26.979  1.00  0.00     0.059 A 
ATOM     89  C   UNL A   1      51.217  26.412  24.727  1.00  0.00     0.059 A 
ATOM     90  F   UNL A   1      49.225  27.539  24.211  1.00  0.00    -0.206 F 
ATOM     91  C   UNL A   1      52.005  25.744  25.663  1.00  0.00     0.060 A 
BRANCH  91  92
ATOM     92  S   UNL A   1      53.593  25.034  25.178  1.00  0.00     0.124 S 
ATOM     93  O   UNL A   1      53.316  23.604  25.272  1.00  0.00    -0.237 OA
ATOM     94  O   UNL A   1      53.769  25.559  23.828  1.00  0.00    -0.237 OA
ATOM     95  O   UNL A   1      54.520  25.559  26.175  1.00  0.00    -0.744 OA
ENDBRANCH  91  92
ENDBRANCH  59  84
ENDBRANCH  33  34
ENDBRANCH  25  28
ENDBRANCH   1  24
TORSDOF 14
ENDMDL
MODEL 3
REMARK VINA RESULT:     -12.8      5.008     10.499
REMARK SMILES Cc1cc(C)c2c(c1)C=C(C(=O)NCCCNC(=O)c1ccc(-c3c4nc(c(-c5c(F)cc(S(=O)(=O)[O-])cc5F)c5ccc([nH]5)c(-c5c(F)cc(S(=O)(=O)[O-])cc5F)c5nc(c(-c6c(F)cc(S(=O)(=O)[O-])cc6F)c6ccc3[nH]6)C=C5)C=C4)cc1)[C@@H](C(F)(F)F)O2
REMARK SMILES IDX 16 1 15 2 14 3 13 4 11 5 12 6 10 8 1 9 2 10 3 11 8 12 4 13
REMARK SMILES IDX 7 14 5 15 6 16 9 17 91 18 86 19 87 20 88 21 89 22 90 23
REMARK SMILES IDX 17 24 18 25 19 27 20 28 21 29 85 30 22 31 84 32 23 33 24 34
REMARK SMILES IDX 25 35 78 36 26 37 83 38 77 39 79 40 27 41 82 42 76 43 75 44
REMARK SMILES IDX 28 46 62 47 41 48 61 49 42 50 45 51 60 52 80 53 43 54 44 55
REMARK SMILES IDX 59 57 81 58 46 59 29 60 30 61 39 62 31 63 32 64 38 65 40 66
REMARK SMILES IDX 33 67 34 68 35 69 36 70 37 71 63 72 64 73 73 74 65 75 66 76
REMARK SMILES IDX 72 77 74 78 67 79 68 80 69 81 70 82 71 83 47 84 48 85 57 86
REMARK SMILES IDX 49 87 50 88 56 89 58 90 51 91 52 92 53 93 54 94 55 95
REMARK H PARENT 13 7 17 26 79 45 45 56
REMARK Flexibility Score: inf
ROOT
ATOM      1  C   UNL A   1      33.756  28.476  26.978  1.00  0.00     0.118 C 
ENDROOT
BRANCH   1   2
ATOM      2  C   UNL A   1      33.997  28.453  25.473  1.00  0.00     0.042 C 
BRANCH   2   3
ATOM      3  C   UNL A   1      33.190  27.370  24.774  1.00  0.00     0.118 C 
BRANCH   3   4
ATOM      4  N   UNL A   1      32.195  26.774  25.655  1.00  0.00    -0.352 N 
ATOM      5  C   UNL A   1      31.888  25.540  26.117  1.00  0.00     0.251 C 
ATOM      6  O   UNL A   1      30.921  25.494  26.884  1.00  0.00    -0.270 OA
ATOM      7  H   UNL A   1      31.578  27.454  26.010  1.00  0.00     0.163 HD
BRANCH   5   8
ATOM      8  C   UNL A   1      32.620  24.287  25.776  1.00  0.00     0.067 C 
ATOM      9  C   UNL A   1      38.341  21.931  25.703  1.00  0.00     0.044 C 
ATOM     10  C   UNL A   1      36.844  21.928  25.602  1.00  0.00    -0.050 A 
ATOM     11  C   UNL A   1      36.173  20.773  25.176  1.00  0.00     0.010 A 
ATOM     12  C   UNL A   1      36.105  23.083  25.891  1.00  0.00     0.015 A 
ATOM     13  C   UNL A   1      34.778  20.752  25.059  1.00  0.00    -0.008 A 
ATOM     14  C   UNL A   1      34.712  23.080  25.773  1.00  0.00     0.018 A 
ATOM     15  C   UNL A   1      34.066  19.509  24.611  1.00  0.00     0.048 C 
ATOM     16  C   UNL A   1      34.060  21.917  25.357  1.00  0.00     0.130 A 
ATOM     17  C   UNL A   1      33.925  24.261  26.107  1.00  0.00     0.025 C 
ATOM     18  O   UNL A   1      32.697  21.850  25.265  1.00  0.00    -0.475 OA
ATOM     19  C   UNL A   1      32.005  23.111  25.072  1.00  0.00     0.314 C 
BRANCH  19  20
ATOM     20  C   UNL A   1      31.812  23.358  23.564  1.00  0.00     0.429 C 
ATOM     21  F   UNL A   1      32.462  24.485  23.179  1.00  0.00    -0.167 F 
ATOM     22  F   UNL A   1      32.308  22.353  22.803  1.00  0.00    -0.167 F 
ATOM     23  F   UNL A   1      30.513  23.502  23.216  1.00  0.00    -0.167 F 
ENDBRANCH  19  20
ENDBRANCH   5   8
ENDBRANCH   3   4
ENDBRANCH   2   3
ENDBRANCH   1   2
BRANCH   1  24
ATOM     24  N   UNL A   1      33.664  29.840  27.492  1.00  0.00    -0.352 N 
ATOM     25  C   UNL A   1      34.546  30.555  28.264  1.00  0.00     0.251 C 
ATOM     26  H   UNL A   1      32.842  30.323  27.245  1.00  0.00     0.163 HD
ATOM     27  O   UNL A   1      34.168  31.582  28.824  1.00  0.00    -0.269 OA
BRANCH  25  28
ATOM     28  C   UNL A   1      35.936  30.087  28.425  1.00  0.00     0.039 A 
ATOM     29  C   UNL A   1      36.816  30.163  27.344  1.00  0.00     0.014 A 
ATOM     30  C   UNL A   1      36.362  29.551  29.643  1.00  0.00     0.014 A 
ATOM     31  C   UNL A   1      38.145  29.766  27.509  1.00  0.00     0.010 A 
ATOM     32  C   UNL A   1      37.704  29.247  29.833  1.00  0.00     0.010 A 
ATOM     33  C   UNL A   1      38.607  29.341  28.767  1.00  0.00    -0.014 A 
BRANCH  33  34
ATOM     34  C   UNL A   1      40.027  28.970  28.983  1.00  0.00     0.031 A 
ATOM     35  C   UNL A   1      40.983  29.978  29.562  1.00  0.00     0.074 A 
ATOM     36  C   UNL A   1      40.462  27.753  28.605  1.00  0.00     0.049 A 
ATOM     37  N   UNL A   1      42.269  29.868  29.771  1.00  0.00    -0.248 NA
ATOM     38  C   UNL A   1      40.429  31.294  29.924  1.00  0.00     0.031 C 
ATOM     39  C   UNL A   1      39.637  26.716  27.982  1.00  0.00     0.029 A 
ATOM     40  N   UNL A   1      41.706  27.181  28.686  1.00  0.00    -0.354 N 
ATOM     41  C   UNL A   1      42.675  31.096  30.277  1.00  0.00     0.074 A 
ATOM     42  C   UNL A   1      41.517  31.960  30.282  1.00  0.00     0.031 C 
ATOM     43  C   UNL A   1      40.386  25.620  27.777  1.00  0.00     0.029 A 
ATOM     44  C   UNL A   1      41.750  25.888  28.220  1.00  0.00     0.049 A 
ATOM     45  H   UNL A   1      42.493  27.651  29.045  1.00  0.00     0.167 HD
ATOM     46  C   UNL A   1      43.897  31.461  30.731  1.00  0.00     0.037 A 
ATOM     47  C   UNL A   1      42.776  25.016  28.163  1.00  0.00     0.037 A 
ATOM     48  C   UNL A   1      45.035  30.582  30.760  1.00  0.00     0.049 A 
ATOM     49  C   UNL A   1      44.123  25.440  28.678  1.00  0.00     0.074 A 
ATOM     50  C   UNL A   1      46.304  30.834  31.247  1.00  0.00     0.029 A 
ATOM     51  N   UNL A   1      45.036  29.276  30.290  1.00  0.00    -0.354 N 
ATOM     52  N   UNL A   1      44.478  26.590  29.201  1.00  0.00    -0.248 NA
ATOM     53  C   UNL A   1      45.210  24.453  28.598  1.00  0.00     0.031 C 
ATOM     54  C   UNL A   1      47.083  29.691  31.043  1.00  0.00     0.029 A 
ATOM     55  C   UNL A   1      46.288  28.713  30.465  1.00  0.00     0.049 A 
ATOM     56  H   UNL A   1      44.260  28.818  29.892  1.00  0.00     0.167 HD
ATOM     57  C   UNL A   1      45.821  26.459  29.532  1.00  0.00     0.074 A 
ATOM     58  C   UNL A   1      46.214  25.115  29.159  1.00  0.00     0.031 C 
ATOM     59  C   UNL A   1      46.653  27.369  30.096  1.00  0.00     0.037 A 
BRANCH  46  60
ATOM     60  C   UNL A   1      44.057  32.858  31.261  1.00  0.00     0.058 A 
ATOM     61  C   UNL A   1      44.429  33.920  30.420  1.00  0.00     0.135 A 
ATOM     62  C   UNL A   1      43.800  33.150  32.610  1.00  0.00     0.135 A 
ATOM     63  F   UNL A   1      44.704  33.692  29.125  1.00  0.00    -0.206 F 
ATOM     64  C   UNL A   1      44.567  35.216  30.903  1.00  0.00     0.059 A 
ATOM     65  C   UNL A   1      43.906  34.445  33.108  1.00  0.00     0.059 A 
ATOM     66  F   UNL A   1      43.443  32.173  33.457  1.00  0.00    -0.206 F 
ATOM     67  C   UNL A   1      44.303  35.470  32.249  1.00  0.00     0.060 A 
BRANCH  67  68
ATOM     68  S   UNL A   1      44.478  37.161  32.854  1.00  0.00     0.124 S 
ATOM     69  O   UNL A   1      44.014  37.930  31.703  1.00  0.00    -0.237 OA
ATOM     70  O   UNL A   1      43.597  37.168  34.017  1.00  0.00    -0.237 OA
ATOM     71  O   UNL A   1      45.903  37.273  33.148  1.00  0.00    -0.744 OA
ENDBRANCH  67  68
ENDBRANCH  46  60
BRANCH  47  72
ATOM     72  C   UNL A   1      42.548  23.640  27.646  1.00  0.00     0.058 A 
ATOM     73  C   UNL A   1      42.536  23.389  26.266  1.00  0.00     0.135 A 
ATOM     74  C   UNL A   1      42.380  22.548  28.511  1.00  0.00     0.135 A 
ATOM     75  F   UNL A   1      42.688  24.401  25.400  1.00  0.00    -0.206 F 
ATOM     76  C   UNL A   1      42.360  22.105  25.761  1.00  0.00     0.059 A 
ATOM     77  C   UNL A   1      42.223  21.252  28.030  1.00  0.00     0.059 A 
ATOM     78  F   UNL A   1      42.402  22.734  29.840  1.00  0.00    -0.206 F 
ATOM     79  C   UNL A   1      42.210  21.042  26.652  1.00  0.00     0.060 A 
BRANCH  79  80
ATOM     80  S   UNL A   1      42.046  19.371  25.982  1.00  0.00     0.124 S 
ATOM     81  O   UNL A   1      42.570  18.564  27.077  1.00  0.00    -0.237 OA
ATOM     82  O   UNL A   1      40.608  19.276  25.749  1.00  0.00    -0.237 OA
ATOM     83  O   UNL A   1      42.867  19.411  24.776  1.00  0.00    -0.744 OA
ENDBRANCH  79  80
ENDBRANCH  47  72
BRANCH  59  84
ATOM     84  C   UNL A   1      48.069  26.950  30.364  1.00  0.00     0.058 A 
ATOM     85  C   UNL A   1      49.104  27.268  29.473  1.00  0.00     0.135 A 
ATOM     86  C   UNL A   1      48.408  26.329  31.577  1.00  0.00     0.135 A 
ATOM     87  F   UNL A   1      48.827  27.854  28.297  1.00  0.00    -0.206 F 
ATOM     88  C   UNL A   1      50.431  26.988  29.777  1.00  0.00     0.059 A 
ATOM     89  C   UNL A   1      49.731  26.061  31.911  1.00  0.00     0.059 A 
ATOM     90  F   UNL A   1      47.452  26.014  32.465  1.00  0.00    -0.206 F 
ATOM     91  C   UNL A   1      50.735  26.395  31.003  1.00  0.00     0.060 A 
BRANCH  91  92
ATOM     92  S   UNL A   1      52.470  26.118  31.419  1.00  0.00     0.124 S 
ATOM     93  O   UNL A   1      53.101  26.179  30.105  1.00  0.00    -0.237 OA
ATOM     94  O   UNL A   1      52.758  27.234  32.314  1.00  0.00    -0.237 OA
ATOM     95  O   UNL A   1      52.463  24.801  32.050  1.00  0.00    -0.744 OA
ENDBRANCH  91  92
ENDBRANCH  59  84
ENDBRANCH  33  34
ENDBRANCH  25  28
ENDBRANCH   1  24
TORSDOF 14
ENDMDL
