MODEL 1
REMARK VINA RESULT:     -11.2      0.000      0.000
REMARK SMILES O=C(CSc1ccc(NC(=O)c2cccc3ccccc23)cc1)NCCCNC(=O)c1ccc(-c2c3nc(c(-c4c(F)cc(S(=O)(=O)[O-])cc4F)c4ccc([nH]4)c(-c4c(F)cc(S(=O)(=O)[O-])cc4F)c4nc(c(-c5c(F)cc(S(=O)(=O)[O-])cc5F)c5ccc2[nH]5)C=C4)C=C3)cc1
REMARK SMILES IDX 25 1 24 2 1 3 2 4 3 6 4 7 5 8 6 9 23 10 7 11 22 12 8 13 9 14
REMARK SMILES IDX 10 15 11 17 12 18 13 19 21 20 14 21 16 22 20 23 15 24 17 25
REMARK SMILES IDX 19 26 18 27 26 28 27 29 28 30 29 31 30 33 31 34 32 35 96 36
REMARK SMILES IDX 33 37 95 38 34 39 35 40 36 41 89 42 37 43 94 44 88 45 90 46
REMARK SMILES IDX 38 47 93 48 87 49 86 50 39 52 73 53 52 54 72 55 53 56 56 57
REMARK SMILES IDX 71 58 91 59 54 60 55 61 70 63 92 64 57 65 40 66 41 67 50 68
REMARK SMILES IDX 42 69 43 70 49 71 51 72 44 73 45 74 46 75 47 76 48 77 74 78
REMARK SMILES IDX 75 79 84 80 76 81 77 82 83 83 85 84 78 85 79 86 80 87 81 88
REMARK SMILES IDX 82 89 58 90 59 91 68 92 60 93 61 94 67 95 69 96 62 97 63 98
REMARK SMILES IDX 64 99 65 100 66 101
REMARK H PARENT 24 5 9 16 28 32 90 51 56 62
REMARK Flexibility Score: inf
ROOT
ATOM      1  C   UNL A   1      34.494  34.925  28.393  1.00  0.00     0.117 C 
ENDROOT
BRANCH   1   2
ATOM      2  N   UNL A   1      34.083  35.317  29.727  1.00  0.00    -0.355 N 
ATOM      3  O   UNL A   1      32.299  36.577  29.043  1.00  0.00    -0.274 OA
ATOM      4  C   UNL A   1      32.948  36.060  29.952  1.00  0.00     0.230 C 
ATOM      5  H   UNL A   1      34.634  35.043  30.495  1.00  0.00     0.163 HD
BRANCH   4   6
ATOM      6  C   UNL A   1      32.538  36.244  31.404  1.00  0.00     0.174 C 
BRANCH   6   7
ATOM      7  S   UNL A   1      33.929  36.590  32.534  1.00  0.00    -0.116 SA
BRANCH   7   8
ATOM      8  C   UNL A   1      34.490  34.976  33.059  1.00  0.00     0.008 A 
ATOM      9  C   UNL A   1      34.210  33.781  32.398  1.00  0.00     0.017 A 
ATOM     10  C   UNL A   1      35.355  34.930  34.161  1.00  0.00     0.017 A 
ATOM     11  C   UNL A   1      34.868  32.597  32.741  1.00  0.00     0.027 A 
ATOM     12  C   UNL A   1      36.017  33.746  34.504  1.00  0.00     0.027 A 
ATOM     13  C   UNL A   1      35.851  32.602  33.721  1.00  0.00     0.041 A 
BRANCH  13  14
ATOM     14  N   UNL A   1      36.766  31.561  33.913  1.00  0.00    -0.322 N 
ATOM     15  C   UNL A   1      38.101  31.434  33.605  1.00  0.00     0.256 C 
ATOM     16  H   UNL A   1      36.380  30.767  34.350  1.00  0.00     0.170 HD
ATOM     17  O   UNL A   1      38.651  30.357  33.850  1.00  0.00    -0.269 OA
BRANCH  15  18
ATOM     18  C   UNL A   1      38.935  32.506  33.003  1.00  0.00     0.048 A 
ATOM     19  C   UNL A   1      39.919  33.013  33.871  1.00  0.00     0.014 A 
ATOM     20  C   UNL A   1      38.742  33.077  31.709  1.00  0.00    -0.006 A 
ATOM     21  C   UNL A   1      40.713  34.087  33.491  1.00  0.00     0.001 A 
ATOM     22  C   UNL A   1      39.553  34.189  31.353  1.00  0.00    -0.018 A 
ATOM     23  C   UNL A   1      37.821  32.622  30.729  1.00  0.00     0.009 A 
ATOM     24  C   UNL A   1      40.514  34.682  32.248  1.00  0.00     0.009 A 
ATOM     25  C   UNL A   1      39.416  34.800  30.096  1.00  0.00     0.009 A 
ATOM     26  C   UNL A   1      37.762  33.185  29.450  1.00  0.00     0.001 A 
ATOM     27  C   UNL A   1      38.543  34.289  29.141  1.00  0.00     0.001 A 
ENDBRANCH  15  18
ENDBRANCH  13  14
ENDBRANCH   7   8
ENDBRANCH   6   7
ENDBRANCH   4   6
ENDBRANCH   1   2
BRANCH   1  28
ATOM     28  C   UNL A   1      33.944  33.576  27.956  1.00  0.00     0.042 C 
BRANCH  28  29
ATOM     29  C   UNL A   1      34.840  32.395  28.307  1.00  0.00     0.118 C 
BRANCH  29  30
ATOM     30  N   UNL A   1      34.211  31.100  28.072  1.00  0.00    -0.352 N 
ATOM     31  C   UNL A   1      34.770  29.848  27.965  1.00  0.00     0.251 C 
ATOM     32  H   UNL A   1      33.232  31.128  27.973  1.00  0.00     0.163 HD
ATOM     33  O   UNL A   1      34.063  28.903  27.636  1.00  0.00    -0.269 OA
BRANCH  31  34
ATOM     34  C   UNL A   1      36.215  29.644  28.219  1.00  0.00     0.039 A 
ATOM     35  C   UNL A   1      36.628  29.242  29.493  1.00  0.00     0.014 A 
ATOM     36  C   UNL A   1      37.165  29.854  27.216  1.00  0.00     0.014 A 
ATOM     37  C   UNL A   1      37.980  28.985  29.737  1.00  0.00     0.010 A 
ATOM     38  C   UNL A   1      38.495  29.504  27.433  1.00  0.00     0.010 A 
ATOM     39  C   UNL A   1      38.921  29.079  28.699  1.00  0.00    -0.014 A 
BRANCH  39  40
ATOM     40  C   UNL A   1      40.357  28.760  28.921  1.00  0.00     0.031 A 
ATOM     41  C   UNL A   1      41.283  29.809  29.481  1.00  0.00     0.074 A 
ATOM     42  C   UNL A   1      40.842  27.554  28.566  1.00  0.00     0.049 A 
ATOM     43  N   UNL A   1      42.573  29.749  29.685  1.00  0.00    -0.248 NA
ATOM     44  C   UNL A   1      40.684  31.109  29.830  1.00  0.00     0.031 C 
ATOM     45  C   UNL A   1      40.059  26.469  27.967  1.00  0.00     0.029 A 
ATOM     46  N   UNL A   1      42.111  27.036  28.649  1.00  0.00    -0.354 N 
ATOM     47  C   UNL A   1      42.941  31.000  30.169  1.00  0.00     0.074 A 
ATOM     48  C   UNL A   1      41.750  31.819  30.166  1.00  0.00     0.031 C 
ATOM     49  C   UNL A   1      40.857  25.409  27.764  1.00  0.00     0.029 A 
ATOM     50  C   UNL A   1      42.216  25.748  28.176  1.00  0.00     0.049 A 
ATOM     51  H   UNL A   1      42.874  27.539  29.013  1.00  0.00     0.167 HD
ATOM     52  C   UNL A   1      44.153  31.421  30.604  1.00  0.00     0.037 A 
ATOM     53  C   UNL A   1      43.287  24.935  28.078  1.00  0.00     0.037 A 
ATOM     54  C   UNL A   1      45.329  30.591  30.628  1.00  0.00     0.049 A 
ATOM     55  C   UNL A   1      44.625  25.427  28.561  1.00  0.00     0.074 A 
ATOM     56  C   UNL A   1      46.591  30.904  31.101  1.00  0.00     0.029 A 
ATOM     57  N   UNL A   1      45.390  29.287  30.159  1.00  0.00    -0.354 N 
ATOM     58  N   UNL A   1      44.940  26.591  29.077  1.00  0.00    -0.248 NA
ATOM     59  C   UNL A   1      45.754  24.491  28.460  1.00  0.00     0.031 C 
ATOM     60  C   UNL A   1      47.428  29.808  30.868  1.00  0.00     0.029 A 
ATOM     61  C   UNL A   1      46.673  28.790  30.310  1.00  0.00     0.049 A 
ATOM     62  H   UNL A   1      44.632  28.789  29.775  1.00  0.00     0.167 HD
ATOM     63  C   UNL A   1      46.292  26.516  29.393  1.00  0.00     0.074 A 
ATOM     64  C   UNL A   1      46.732  25.187  29.020  1.00  0.00     0.031 C 
ATOM     65  C   UNL A   1      47.096  27.459  29.944  1.00  0.00     0.037 A 
BRANCH  52  66
ATOM     66  C   UNL A   1      44.266  32.841  31.094  1.00  0.00     0.058 A 
ATOM     67  C   UNL A   1      44.468  33.914  30.211  1.00  0.00     0.135 A 
ATOM     68  C   UNL A   1      44.136  33.137  32.461  1.00  0.00     0.135 A 
ATOM     69  F   UNL A   1      44.615  33.690  28.894  1.00  0.00    -0.206 F 
ATOM     70  C   UNL A   1      44.572  35.224  30.667  1.00  0.00     0.059 A 
ATOM     71  C   UNL A   1      44.204  34.444  32.936  1.00  0.00     0.059 A 
ATOM     72  F   UNL A   1      43.942  32.152  33.351  1.00  0.00    -0.206 F 
ATOM     73  C   UNL A   1      44.438  35.479  32.032  1.00  0.00     0.060 A 
BRANCH  73  74
ATOM     74  S   UNL A   1      44.572  37.185  32.605  1.00  0.00     0.124 S 
ATOM     75  O   UNL A   1      44.692  37.907  31.342  1.00  0.00    -0.237 OA
ATOM     76  O   UNL A   1      43.316  37.371  33.325  1.00  0.00    -0.237 OA
ATOM     77  O   UNL A   1      45.772  37.173  33.436  1.00  0.00    -0.744 OA
ENDBRANCH  73  74
ENDBRANCH  52  66
BRANCH  53  78
ATOM     78  C   UNL A   1      43.133  23.563  27.521  1.00  0.00     0.058 A 
ATOM     79  C   UNL A   1      43.439  23.290  26.179  1.00  0.00     0.135 A 
ATOM     80  C   UNL A   1      42.682  22.498  28.317  1.00  0.00     0.135 A 
ATOM     81  F   UNL A   1      43.867  24.274  25.375  1.00  0.00    -0.206 F 
ATOM     82  C   UNL A   1      43.284  22.016  25.639  1.00  0.00     0.059 A 
ATOM     83  C   UNL A   1      42.548  21.209  27.808  1.00  0.00     0.059 A 
ATOM     84  F   UNL A   1      42.392  22.701  29.611  1.00  0.00    -0.206 F 
ATOM     85  C   UNL A   1      42.841  20.981  26.464  1.00  0.00     0.060 A 
BRANCH  85  86
ATOM     86  S   UNL A   1      42.686  19.323  25.764  1.00  0.00     0.124 S 
ATOM     87  O   UNL A   1      41.271  19.283  25.416  1.00  0.00    -0.237 OA
ATOM     88  O   UNL A   1      43.620  19.378  24.643  1.00  0.00    -0.237 OA
ATOM     89  O   UNL A   1      43.091  18.455  26.866  1.00  0.00    -0.744 OA
ENDBRANCH  85  86
ENDBRANCH  53  78
BRANCH  65  90
ATOM     90  C   UNL A   1      48.525  27.079  30.227  1.00  0.00     0.058 A 
ATOM     91  C   UNL A   1      49.572  27.426  29.360  1.00  0.00     0.135 A 
ATOM     92  C   UNL A   1      48.854  26.402  31.413  1.00  0.00     0.135 A 
ATOM     93  F   UNL A   1      49.313  28.070  28.210  1.00  0.00    -0.206 F 
ATOM     94  C   UNL A   1      50.893  27.092  29.644  1.00  0.00     0.059 A 
ATOM     95  C   UNL A   1      50.170  26.086  31.733  1.00  0.00     0.059 A 
ATOM     96  F   UNL A   1      47.893  26.055  32.283  1.00  0.00    -0.206 F 
ATOM     97  C   UNL A   1      51.182  26.424  30.836  1.00  0.00     0.060 A 
BRANCH  97  98
ATOM     98  S   UNL A   1      52.902  26.025  31.208  1.00  0.00     0.124 S 
ATOM     99  O   UNL A   1      53.317  27.198  31.972  1.00  0.00    -0.237 OA
ATOM    100  O   UNL A   1      52.777  24.786  31.968  1.00  0.00    -0.237 OA
ATOM    101  O   UNL A   1      53.513  25.886  29.890  1.00  0.00    -0.744 OA
ENDBRANCH  97  98
ENDBRANCH  65  90
ENDBRANCH  39  40
ENDBRANCH  31  34
ENDBRANCH  29  30
ENDBRANCH  28  29
ENDBRANCH   1  28
TORSDOF 17
ENDMDL
MODEL 2
REMARK VINA RESULT:     -10.9      0.481      8.094
REMARK SMILES O=C(CSc1ccc(NC(=O)c2cccc3ccccc23)cc1)NCCCNC(=O)c1ccc(-c2c3nc(c(-c4c(F)cc(S(=O)(=O)[O-])cc4F)c4ccc([nH]4)c(-c4c(F)cc(S(=O)(=O)[O-])cc4F)c4nc(c(-c5c(F)cc(S(=O)(=O)[O-])cc5F)c5ccc2[nH]5)C=C4)C=C3)cc1
REMARK SMILES IDX 25 1 24 2 1 3 2 4 3 6 4 7 5 8 6 9 23 10 7 11 22 12 8 13 9 14
REMARK SMILES IDX 10 15 11 17 12 18 13 19 21 20 14 21 16 22 20 23 15 24 17 25
REMARK SMILES IDX 19 26 18 27 26 28 27 29 28 30 29 31 30 33 31 34 32 35 96 36
REMARK SMILES IDX 33 37 95 38 34 39 35 40 36 41 89 42 37 43 94 44 88 45 90 46
REMARK SMILES IDX 38 47 93 48 87 49 86 50 39 52 73 53 52 54 72 55 53 56 56 57
REMARK SMILES IDX 71 58 91 59 54 60 55 61 70 63 92 64 57 65 40 66 41 67 50 68
REMARK SMILES IDX 42 69 43 70 49 71 51 72 44 73 45 74 46 75 47 76 48 77 74 78
REMARK SMILES IDX 75 79 84 80 76 81 77 82 83 83 85 84 78 85 79 86 80 87 81 88
REMARK SMILES IDX 82 89 58 90 59 91 68 92 60 93 61 94 67 95 69 96 62 97 63 98
REMARK SMILES IDX 64 99 65 100 66 101
REMARK H PARENT 24 5 9 16 28 32 90 51 56 62
REMARK Flexibility Score: inf
ROOT
ATOM      1  C   UNL A   1      34.563  34.800  28.581  1.00  0.00     0.117 C 
ENDROOT
BRANCH   1   2
ATOM      2  N   UNL A   1      34.188  35.417  29.838  1.00  0.00    -0.355 N 
ATOM      3  O   UNL A   1      32.222  36.301  29.066  1.00  0.00    -0.274 OA
ATOM      4  C   UNL A   1      32.984  36.062  30.003  1.00  0.00     0.230 C 
ATOM      5  H   UNL A   1      34.813  35.373  30.596  1.00  0.00     0.163 HD
BRANCH   4   6
ATOM      6  C   UNL A   1      32.642  36.503  31.417  1.00  0.00     0.174 C 
BRANCH   6   7
ATOM      7  S   UNL A   1      34.097  36.772  32.486  1.00  0.00    -0.116 SA
BRANCH   7   8
ATOM      8  C   UNL A   1      34.566  35.133  33.023  1.00  0.00     0.008 A 
ATOM      9  C   UNL A   1      34.096  33.946  32.464  1.00  0.00     0.017 A 
ATOM     10  C   UNL A   1      35.555  35.046  34.013  1.00  0.00     0.017 A 
ATOM     11  C   UNL A   1      34.678  32.717  32.786  1.00  0.00     0.027 A 
ATOM     12  C   UNL A   1      36.141  33.817  34.334  1.00  0.00     0.027 A 
ATOM     13  C   UNL A   1      35.773  32.665  33.638  1.00  0.00     0.041 A 
BRANCH  13  14
ATOM     14  N   UNL A   1      36.604  31.546  33.771  1.00  0.00    -0.322 N 
ATOM     15  C   UNL A   1      37.933  31.342  33.483  1.00  0.00     0.256 C 
ATOM     16  H   UNL A   1      36.149  30.754  34.141  1.00  0.00     0.170 HD
ATOM     17  O   UNL A   1      38.396  30.212  33.659  1.00  0.00    -0.269 OA
BRANCH  15  18
ATOM     18  C   UNL A   1      38.859  32.389  32.979  1.00  0.00     0.048 A 
ATOM     19  C   UNL A   1      39.836  32.780  33.913  1.00  0.00     0.014 A 
ATOM     20  C   UNL A   1      38.758  33.044  31.714  1.00  0.00    -0.006 A 
ATOM     21  C   UNL A   1      40.711  33.819  33.629  1.00  0.00     0.001 A 
ATOM     22  C   UNL A   1      39.654  34.118  31.457  1.00  0.00    -0.018 A 
ATOM     23  C   UNL A   1      37.854  32.707  30.673  1.00  0.00     0.009 A 
ATOM     24  C   UNL A   1      40.605  34.495  32.417  1.00  0.00     0.009 A 
ATOM     25  C   UNL A   1      39.611  34.807  30.234  1.00  0.00     0.009 A 
ATOM     26  C   UNL A   1      37.886  33.344  29.429  1.00  0.00     0.001 A 
ATOM     27  C   UNL A   1      38.748  34.410  29.217  1.00  0.00     0.001 A 
ENDBRANCH  15  18
ENDBRANCH  13  14
ENDBRANCH   7   8
ENDBRANCH   6   7
ENDBRANCH   4   6
ENDBRANCH   1   2
BRANCH   1  28
ATOM     28  C   UNL A   1      33.943  33.429  28.365  1.00  0.00     0.042 C 
BRANCH  28  29
ATOM     29  C   UNL A   1      34.951  32.332  28.047  1.00  0.00     0.118 C 
BRANCH  29  30
ATOM     30  N   UNL A   1      34.354  31.005  27.952  1.00  0.00    -0.352 N 
ATOM     31  C   UNL A   1      34.945  29.762  27.944  1.00  0.00     0.251 C 
ATOM     32  H   UNL A   1      33.372  30.997  27.882  1.00  0.00     0.163 HD
ATOM     33  O   UNL A   1      34.257  28.773  27.726  1.00  0.00    -0.269 OA
BRANCH  31  34
ATOM     34  C   UNL A   1      36.403  29.622  28.169  1.00  0.00     0.039 A 
ATOM     35  C   UNL A   1      36.860  29.296  29.450  1.00  0.00     0.014 A 
ATOM     36  C   UNL A   1      37.320  29.815  27.134  1.00  0.00     0.014 A 
ATOM     37  C   UNL A   1      38.226  29.098  29.672  1.00  0.00     0.010 A 
ATOM     38  C   UNL A   1      38.666  29.522  27.333  1.00  0.00     0.010 A 
ATOM     39  C   UNL A   1      39.138  29.174  28.607  1.00  0.00    -0.014 A 
BRANCH  39  40
ATOM     40  C   UNL A   1      40.589  28.916  28.807  1.00  0.00     0.031 A 
ATOM     41  C   UNL A   1      41.167  27.565  28.469  1.00  0.00     0.074 A 
ATOM     42  C   UNL A   1      41.375  29.870  29.345  1.00  0.00     0.049 A 
ATOM     43  N   UNL A   1      42.387  27.123  28.633  1.00  0.00    -0.248 NA
ATOM     44  C   UNL A   1      40.244  26.569  27.900  1.00  0.00     0.031 C 
ATOM     45  C   UNL A   1      40.926  31.201  29.762  1.00  0.00     0.029 A 
ATOM     46  N   UNL A   1      42.715  29.866  29.644  1.00  0.00    -0.354 N 
ATOM     47  C   UNL A   1      42.374  25.801  28.203  1.00  0.00     0.074 A 
ATOM     48  C   UNL A   1      41.011  25.492  27.834  1.00  0.00     0.031 C 
ATOM     49  C   UNL A   1      41.975  31.892  30.234  1.00  0.00     0.029 A 
ATOM     50  C   UNL A   1      43.162  31.044  30.195  1.00  0.00     0.049 A 
ATOM     51  H   UNL A   1      43.301  29.093  29.479  1.00  0.00     0.167 HD
ATOM     52  C   UNL A   1      43.407  24.931  28.098  1.00  0.00     0.037 A 
ATOM     53  C   UNL A   1      44.389  31.399  30.628  1.00  0.00     0.037 A 
ATOM     54  C   UNL A   1      44.767  25.255  28.444  1.00  0.00     0.049 A 
ATOM     55  C   UNL A   1      45.520  30.413  30.508  1.00  0.00     0.074 A 
ATOM     56  C   UNL A   1      45.896  24.464  28.323  1.00  0.00     0.029 A 
ATOM     57  N   UNL A   1      45.183  26.465  28.981  1.00  0.00    -0.354 N 
ATOM     58  N   UNL A   1      45.502  29.189  30.038  1.00  0.00    -0.248 NA
ATOM     59  C   UNL A   1      46.843  30.860  30.967  1.00  0.00     0.031 C 
ATOM     60  C   UNL A   1      46.985  25.175  28.835  1.00  0.00     0.029 A 
ATOM     61  C   UNL A   1      46.547  26.433  29.217  1.00  0.00     0.049 A 
ATOM     62  H   UNL A   1      44.594  27.232  29.166  1.00  0.00     0.167 HD
ATOM     63  C   UNL A   1      46.814  28.732  30.113  1.00  0.00     0.074 A 
ATOM     64  C   UNL A   1      47.601  29.816  30.663  1.00  0.00     0.031 C 
ATOM     65  C   UNL A   1      47.321  27.525  29.755  1.00  0.00     0.037 A 
BRANCH  52  66
ATOM     66  C   UNL A   1      43.107  23.548  27.584  1.00  0.00     0.058 A 
ATOM     67  C   UNL A   1      42.626  22.534  28.428  1.00  0.00     0.135 A 
ATOM     68  C   UNL A   1      43.270  23.241  26.223  1.00  0.00     0.135 A 
ATOM     69  F   UNL A   1      42.466  22.764  29.742  1.00  0.00    -0.206 F 
ATOM     70  C   UNL A   1      42.351  21.257  27.950  1.00  0.00     0.059 A 
ATOM     71  C   UNL A   1      42.969  21.980  25.716  1.00  0.00     0.059 A 
ATOM     72  F   UNL A   1      43.727  24.171  25.370  1.00  0.00    -0.206 F 
ATOM     73  C   UNL A   1      42.524  20.990  26.591  1.00  0.00     0.060 A 
BRANCH  73  74
ATOM     74  S   UNL A   1      42.158  19.329  25.987  1.00  0.00     0.124 S 
ATOM     75  O   UNL A   1      40.710  19.396  25.812  1.00  0.00    -0.237 OA
ATOM     76  O   UNL A   1      42.942  19.266  24.758  1.00  0.00    -0.237 OA
ATOM     77  O   UNL A   1      42.619  18.463  27.068  1.00  0.00    -0.744 OA
ENDBRANCH  73  74
ENDBRANCH  52  66
BRANCH  53  78
ATOM     78  C   UNL A   1      44.616  32.758  31.194  1.00  0.00     0.058 A 
ATOM     79  C   UNL A   1      44.354  33.031  32.544  1.00  0.00     0.135 A 
ATOM     80  C   UNL A   1      45.104  33.807  30.399  1.00  0.00     0.135 A 
ATOM     81  F   UNL A   1      43.880  32.065  33.345  1.00  0.00    -0.206 F 
ATOM     82  C   UNL A   1      44.546  34.300  33.084  1.00  0.00     0.059 A 
ATOM     83  C   UNL A   1      45.333  35.077  30.922  1.00  0.00     0.059 A 
ATOM     84  F   UNL A   1      45.388  33.595  29.104  1.00  0.00    -0.206 F 
ATOM     85  C   UNL A   1      45.039  35.316  32.263  1.00  0.00     0.060 A 
BRANCH  85  86
ATOM     86  S   UNL A   1      45.325  36.947  32.985  1.00  0.00     0.124 S 
ATOM     87  O   UNL A   1      46.247  36.631  34.070  1.00  0.00    -0.237 OA
ATOM     88  O   UNL A   1      45.892  37.683  31.859  1.00  0.00    -0.237 OA
ATOM     89  O   UNL A   1      43.990  37.372  33.394  1.00  0.00    -0.744 OA
ENDBRANCH  85  86
ENDBRANCH  53  78
BRANCH  65  90
ATOM     90  C   UNL A   1      48.806  27.324  29.899  1.00  0.00     0.058 A 
ATOM     91  C   UNL A   1      49.711  27.732  28.908  1.00  0.00     0.135 A 
ATOM     92  C   UNL A   1      49.332  26.761  31.074  1.00  0.00     0.135 A 
ATOM     93  F   UNL A   1      49.262  28.271  27.763  1.00  0.00    -0.206 F 
ATOM     94  C   UNL A   1      51.084  27.563  29.063  1.00  0.00     0.059 A 
ATOM     95  C   UNL A   1      50.701  26.613  31.265  1.00  0.00     0.059 A 
ATOM     96  F   UNL A   1      48.512  26.364  32.060  1.00  0.00    -0.206 F 
ATOM     97  C   UNL A   1      51.569  27.006  30.247  1.00  0.00     0.060 A 
BRANCH  97  98
ATOM     98  S   UNL A   1      53.354  26.823  30.449  1.00  0.00     0.124 S 
ATOM     99  O   UNL A   1      53.749  28.181  30.811  1.00  0.00    -0.237 OA
ATOM    100  O   UNL A   1      53.447  25.831  31.515  1.00  0.00    -0.237 OA
ATOM    101  O   UNL A   1      53.801  26.368  29.137  1.00  0.00    -0.744 OA
ENDBRANCH  97  98
ENDBRANCH  65  90
ENDBRANCH  39  40
ENDBRANCH  31  34
ENDBRANCH  29  30
ENDBRANCH  28  29
ENDBRANCH   1  28
TORSDOF 17
ENDMDL
MODEL 3
REMARK VINA RESULT:     -10.9      4.196      7.171
REMARK SMILES O=C(CSc1ccc(NC(=O)c2cccc3ccccc23)cc1)NCCCNC(=O)c1ccc(-c2c3nc(c(-c4c(F)cc(S(=O)(=O)[O-])cc4F)c4ccc([nH]4)c(-c4c(F)cc(S(=O)(=O)[O-])cc4F)c4nc(c(-c5c(F)cc(S(=O)(=O)[O-])cc5F)c5ccc2[nH]5)C=C4)C=C3)cc1
REMARK SMILES IDX 25 1 24 2 1 3 2 4 3 6 4 7 5 8 6 9 23 10 7 11 22 12 8 13 9 14
REMARK SMILES IDX 10 15 11 17 12 18 13 19 21 20 14 21 16 22 20 23 15 24 17 25
REMARK SMILES IDX 19 26 18 27 26 28 27 29 28 30 29 31 30 33 31 34 32 35 96 36
REMARK SMILES IDX 33 37 95 38 34 39 35 40 36 41 89 42 37 43 94 44 88 45 90 46
REMARK SMILES IDX 38 47 93 48 87 49 86 50 39 52 73 53 52 54 72 55 53 56 56 57
REMARK SMILES IDX 71 58 91 59 54 60 55 61 70 63 92 64 57 65 40 66 41 67 50 68
REMARK SMILES IDX 42 69 43 70 49 71 51 72 44 73 45 74 46 75 47 76 48 77 74 78
REMARK SMILES IDX 75 79 84 80 76 81 77 82 83 83 85 84 78 85 79 86 80 87 81 88
REMARK SMILES IDX 82 89 58 90 59 91 68 92 60 93 61 94 67 95 69 96 62 97 63 98
REMARK SMILES IDX 64 99 65 100 66 101
REMARK H PARENT 24 5 9 16 28 32 90 51 56 62
REMARK Flexibility Score: inf
ROOT
ATOM      1  C   UNL A   1      34.442  32.731  28.482  1.00  0.00     0.117 C 
ENDROOT
BRANCH   1   2
ATOM      2  N   UNL A   1      34.318  31.296  28.319  1.00  0.00    -0.355 N 
ATOM      3  O   UNL A   1      32.481  31.393  26.956  1.00  0.00    -0.274 OA
ATOM      4  C   UNL A   1      33.377  30.736  27.486  1.00  0.00     0.230 C 
ATOM      5  H   UNL A   1      34.924  30.705  28.819  1.00  0.00     0.163 HD
BRANCH   4   6
ATOM      6  C   UNL A   1      33.475  29.235  27.269  1.00  0.00     0.174 C 
BRANCH   6   7
ATOM      7  S   UNL A   1      31.870  28.366  27.324  1.00  0.00    -0.116 SA
BRANCH   7   8
ATOM      8  C   UNL A   1      32.020  27.073  26.098  1.00  0.00     0.008 A 
ATOM      9  C   UNL A   1      30.948  26.444  25.468  1.00  0.00     0.017 A 
ATOM     10  C   UNL A   1      33.315  26.744  25.676  1.00  0.00     0.017 A 
ATOM     11  C   UNL A   1      31.149  25.609  24.365  1.00  0.00     0.027 A 
ATOM     12  C   UNL A   1      33.519  25.911  24.571  1.00  0.00     0.027 A 
ATOM     13  C   UNL A   1      32.425  25.429  23.849  1.00  0.00     0.041 A 
BRANCH  13  14
ATOM     14  N   UNL A   1      32.685  24.879  22.589  1.00  0.00    -0.322 N 
ATOM     15  C   UNL A   1      33.160  23.648  22.197  1.00  0.00     0.256 C 
ATOM     16  H   UNL A   1      32.492  25.490  21.841  1.00  0.00     0.170 HD
ATOM     17  O   UNL A   1      33.342  23.456  20.991  1.00  0.00    -0.269 OA
BRANCH  15  18
ATOM     18  C   UNL A   1      33.464  22.526  23.121  1.00  0.00     0.048 A 
ATOM     19  C   UNL A   1      32.363  21.692  23.384  1.00  0.00     0.014 A 
ATOM     20  C   UNL A   1      34.710  22.318  23.789  1.00  0.00    -0.006 A 
ATOM     21  C   UNL A   1      32.460  20.659  24.306  1.00  0.00     0.001 A 
ATOM     22  C   UNL A   1      34.777  21.266  24.743  1.00  0.00    -0.018 A 
ATOM     23  C   UNL A   1      35.903  23.056  23.571  1.00  0.00     0.009 A 
ATOM     24  C   UNL A   1      33.654  20.464  24.995  1.00  0.00     0.009 A 
ATOM     25  C   UNL A   1      35.970  21.005  25.436  1.00  0.00     0.009 A 
ATOM     26  C   UNL A   1      37.105  22.724  24.204  1.00  0.00     0.001 A 
ATOM     27  C   UNL A   1      37.133  21.714  25.154  1.00  0.00     0.001 A 
ENDBRANCH  15  18
ENDBRANCH  13  14
ENDBRANCH   7   8
ENDBRANCH   6   7
ENDBRANCH   4   6
ENDBRANCH   1   2
BRANCH   1  28
ATOM     28  C   UNL A   1      35.863  33.244  28.309  1.00  0.00     0.042 C 
BRANCH  28  29
ATOM     29  C   UNL A   1      36.697  33.211  29.584  1.00  0.00     0.118 C 
BRANCH  29  30
ATOM     30  N   UNL A   1      36.154  32.327  30.609  1.00  0.00    -0.352 N 
ATOM     31  C   UNL A   1      36.608  31.112  31.067  1.00  0.00     0.251 C 
ATOM     32  H   UNL A   1      35.332  32.653  31.042  1.00  0.00     0.163 HD
ATOM     33  O   UNL A   1      35.920  30.475  31.855  1.00  0.00    -0.269 OA
BRANCH  31  34
ATOM     34  C   UNL A   1      37.901  30.565  30.593  1.00  0.00     0.039 A 
ATOM     35  C   UNL A   1      38.106  30.412  29.219  1.00  0.00     0.014 A 
ATOM     36  C   UNL A   1      38.906  30.195  31.490  1.00  0.00     0.014 A 
ATOM     37  C   UNL A   1      39.340  29.956  28.746  1.00  0.00     0.010 A 
ATOM     38  C   UNL A   1      40.164  29.835  31.015  1.00  0.00     0.010 A 
ATOM     39  C   UNL A   1      40.393  29.698  29.639  1.00  0.00    -0.014 A 
BRANCH  39  40
ATOM     40  C   UNL A   1      41.731  29.261  29.157  1.00  0.00     0.031 A 
ATOM     41  C   UNL A   1      42.861  30.255  29.073  1.00  0.00     0.074 A 
ATOM     42  C   UNL A   1      41.915  27.993  28.740  1.00  0.00     0.049 A 
ATOM     43  N   UNL A   1      44.076  30.088  28.619  1.00  0.00    -0.248 NA
ATOM     44  C   UNL A   1      42.579  31.626  29.531  1.00  0.00     0.031 C 
ATOM     45  C   UNL A   1      40.888  26.948  28.724  1.00  0.00     0.029 A 
ATOM     46  N   UNL A   1      43.030  27.365  28.242  1.00  0.00    -0.354 N 
ATOM     47  C   UNL A   1      44.695  31.329  28.723  1.00  0.00     0.074 A 
ATOM     48  C   UNL A   1      43.701  32.254  29.220  1.00  0.00     0.031 C 
ATOM     49  C   UNL A   1      41.427  25.807  28.268  1.00  0.00     0.029 A 
ATOM     50  C   UNL A   1      42.824  26.044  27.918  1.00  0.00     0.049 A 
ATOM     51  H   UNL A   1      43.896  27.818  28.126  1.00  0.00     0.167 HD
ATOM     52  C   UNL A   1      45.980  31.663  28.456  1.00  0.00     0.037 A 
ATOM     53  C   UNL A   1      43.663  25.129  27.392  1.00  0.00     0.037 A 
ATOM     54  C   UNL A   1      46.971  30.730  27.986  1.00  0.00     0.049 A 
ATOM     55  C   UNL A   1      45.085  25.525  27.097  1.00  0.00     0.074 A 
ATOM     56  C   UNL A   1      48.314  30.954  27.739  1.00  0.00     0.029 A 
ATOM     57  N   UNL A   1      46.727  29.396  27.689  1.00  0.00    -0.354 N 
ATOM     58  N   UNL A   1      45.670  26.687  27.264  1.00  0.00    -0.248 NA
ATOM     59  C   UNL A   1      45.966  24.482  26.553  1.00  0.00     0.031 C 
ATOM     60  C   UNL A   1      48.869  29.772  27.242  1.00  0.00     0.029 A 
ATOM     61  C   UNL A   1      47.889  28.793  27.240  1.00  0.00     0.049 A 
ATOM     62  H   UNL A   1      45.856  28.947  27.784  1.00  0.00     0.167 HD
ATOM     63  C   UNL A   1      46.994  26.507  26.878  1.00  0.00     0.074 A 
ATOM     64  C   UNL A   1      47.125  25.120  26.480  1.00  0.00     0.031 C 
ATOM     65  C   UNL A   1      48.009  27.406  26.857  1.00  0.00     0.037 A 
BRANCH  52  66
ATOM     66  C   UNL A   1      46.390  33.096  28.672  1.00  0.00     0.058 A 
ATOM     67  C   UNL A   1      46.886  33.546  29.907  1.00  0.00     0.135 A 
ATOM     68  C   UNL A   1      46.317  34.025  27.621  1.00  0.00     0.135 A 
ATOM     69  F   UNL A   1      46.963  32.706  30.952  1.00  0.00    -0.206 F 
ATOM     70  C   UNL A   1      47.262  34.871  30.102  1.00  0.00     0.059 A 
ATOM     71  C   UNL A   1      46.720  35.348  27.785  1.00  0.00     0.059 A 
ATOM     72  F   UNL A   1      45.850  33.653  26.419  1.00  0.00    -0.206 F 
ATOM     73  C   UNL A   1      47.177  35.764  29.034  1.00  0.00     0.060 A 
BRANCH  73  74
ATOM     74  S   UNL A   1      47.673  37.479  29.305  1.00  0.00     0.124 S 
ATOM     75  O   UNL A   1      48.189  37.419  30.670  1.00  0.00    -0.237 OA
ATOM     76  O   UNL A   1      48.671  37.682  28.259  1.00  0.00    -0.237 OA
ATOM     77  O   UNL A   1      46.430  38.225  29.137  1.00  0.00    -0.744 OA
ENDBRANCH  73  74
ENDBRANCH  52  66
BRANCH  53  78
ATOM     78  C   UNL A   1      43.186  23.742  27.133  1.00  0.00     0.058 A 
ATOM     79  C   UNL A   1      42.887  23.313  25.831  1.00  0.00     0.135 A 
ATOM     80  C   UNL A   1      43.024  22.818  28.178  1.00  0.00     0.135 A 
ATOM     81  F   UNL A   1      43.019  24.159  24.799  1.00  0.00    -0.206 F 
ATOM     82  C   UNL A   1      42.425  22.025  25.575  1.00  0.00     0.059 A 
ATOM     83  C   UNL A   1      42.593  21.516  27.943  1.00  0.00     0.059 A 
ATOM     84  F   UNL A   1      43.313  23.172  29.440  1.00  0.00    -0.206 F 
ATOM     85  C   UNL A   1      42.285  21.133  26.639  1.00  0.00     0.060 A 
BRANCH  85  86
ATOM     86  S   UNL A   1      41.726  19.451  26.288  1.00  0.00     0.124 S 
ATOM     87  O   UNL A   1      40.292  19.648  26.117  1.00  0.00    -0.237 OA
ATOM     88  O   UNL A   1      42.476  19.126  25.079  1.00  0.00    -0.237 OA
ATOM     89  O   UNL A   1      42.123  18.710  27.482  1.00  0.00    -0.744 OA
ENDBRANCH  85  86
ENDBRANCH  53  78
BRANCH  65  90
ATOM     90  C   UNL A   1      49.368  26.914  26.438  1.00  0.00     0.058 A 
ATOM     91  C   UNL A   1      50.270  26.350  27.353  1.00  0.00     0.135 A 
ATOM     92  C   UNL A   1      49.750  26.959  25.086  1.00  0.00     0.135 A 
ATOM     93  F   UNL A   1      49.958  26.286  28.657  1.00  0.00    -0.206 F 
ATOM     94  C   UNL A   1      51.514  25.874  26.949  1.00  0.00     0.059 A 
ATOM     95  C   UNL A   1      50.973  26.460  24.655  1.00  0.00     0.059 A 
ATOM     96  F   UNL A   1      48.921  27.477  24.166  1.00  0.00    -0.206 F 
ATOM     97  C   UNL A   1      51.855  25.931  25.596  1.00  0.00     0.060 A 
BRANCH  97  98
ATOM     98  S   UNL A   1      53.458  25.280  25.080  1.00  0.00     0.124 S 
ATOM     99  O   UNL A   1      53.323  23.866  25.416  1.00  0.00    -0.237 OA
ATOM    100  O   UNL A   1      53.478  25.595  23.656  1.00  0.00    -0.237 OA
ATOM    101  O   UNL A   1      54.408  26.030  25.895  1.00  0.00    -0.744 OA
ENDBRANCH  97  98
ENDBRANCH  65  90
ENDBRANCH  39  40
ENDBRANCH  31  34
ENDBRANCH  29  30
ENDBRANCH  28  29
ENDBRANCH   1  28
TORSDOF 17
ENDMDL
