MODEL 1
REMARK VINA RESULT:     -10.1      0.000      0.000
REMARK SMILES C=CCc1cc([C@H]([NH3+])C(=O)NCCCNC(=O)c2ccc(-c3c4nc(c(-c5c(F)cc(S(=O)(=O)[O-])cc5F)c5ccc([nH]5)c(-c5c(F)cc(S(=O)(=O)[O-])cc5F)c5nc(c(-c6c(F)cc(S(=O)(=O)[O-])cc6F)c6ccc3[nH]6)C=C5)C=C4)cc2)cc(OC)c1OCC
REMARK SMILES IDX 13 1 12 2 11 3 9 4 10 5 7 7 6 8 4 9 5 10 88 11 85 12 84 13
REMARK SMILES IDX 3 14 2 15 1 16 89 17 90 18 91 19 86 20 87 21 8 22 14 26
REMARK SMILES IDX 15 27 16 28 17 30 18 31 19 32 83 33 20 34 82 35 21 36 22 37
REMARK SMILES IDX 23 38 76 39 24 40 81 41 75 42 77 43 25 44 80 45 74 46 73 47
REMARK SMILES IDX 26 49 60 50 39 51 59 52 40 53 43 54 58 55 78 56 41 57 42 58
REMARK SMILES IDX 57 60 79 61 44 62 27 63 28 64 37 65 29 66 30 67 36 68 38 69
REMARK SMILES IDX 31 70 32 71 33 72 34 73 35 74 61 75 62 76 71 77 63 78 64 79
REMARK SMILES IDX 70 80 72 81 65 82 66 83 67 84 68 85 69 86 45 87 46 88 55 89
REMARK SMILES IDX 47 90 48 91 54 92 56 93 49 94 50 95 51 96 52 97 53 98
REMARK H PARENT 11 6 8 23 8 24 8 25 15 29 77 48 43 59
REMARK Flexibility Score: inf
ROOT
ATOM      1  C   UNL A   1      31.886  27.960  27.221  1.00  0.00     0.042 C 
ENDROOT
BRANCH   1   2
ATOM      2  C   UNL A   1      31.685  26.888  26.169  1.00  0.00     0.118 C 
BRANCH   2   3
ATOM      3  N   UNL A   1      31.089  27.353  24.931  1.00  0.00    -0.351 N 
ATOM      4  C   UNL A   1      31.533  27.193  23.646  1.00  0.00     0.283 C 
ATOM      5  O   UNL A   1      30.729  27.459  22.743  1.00  0.00    -0.268 OA
ATOM      6  H   UNL A   1      30.247  27.855  25.028  1.00  0.00     0.163 HD
BRANCH   4   7
ATOM      7  C   UNL A   1      32.978  26.762  23.296  1.00  0.00     0.302 C 
BRANCH   7   8
ATOM      8  C   UNL A   1      33.370  25.319  23.586  1.00  0.00     0.023 A 
ATOM      9  C   UNL A   1      34.642  23.758  25.016  1.00  0.00     0.002 A 
ATOM     10  C   UNL A   1      34.436  25.044  24.450  1.00  0.00     0.018 A 
ATOM     11  C   UNL A   1      33.750  22.710  24.677  1.00  0.00     0.164 A 
ATOM     12  C   UNL A   1      32.737  22.948  23.738  1.00  0.00     0.161 A 
ATOM     13  C   UNL A   1      32.588  24.232  23.202  1.00  0.00     0.061 A 
BRANCH   9  14
ATOM     14  C   UNL A   1      35.693  23.673  26.106  1.00  0.00     0.066 C 
BRANCH  14  15
ATOM     15  C   UNL A   1      37.055  23.161  25.737  1.00  0.00    -0.030 C 
ATOM     16  C   UNL A   1      38.230  23.721  26.055  1.00  0.00     0.004 C 
ENDBRANCH  14  15
ENDBRANCH   9  14
BRANCH  11  17
ATOM     17  O   UNL A   1      33.696  21.574  25.432  1.00  0.00    -0.490 OA
BRANCH  17  18
ATOM     18  C   UNL A   1      34.421  20.421  25.005  1.00  0.00     0.226 C 
ATOM     19  C   UNL A   1      33.652  19.178  24.586  1.00  0.00     0.049 C 
ENDBRANCH  17  18
ENDBRANCH  11  17
BRANCH  12  20
ATOM     20  O   UNL A   1      31.758  22.121  23.257  1.00  0.00    -0.493 OA
ATOM     21  C   UNL A   1      31.986  21.311  22.123  1.00  0.00     0.278 C 
ENDBRANCH  12  20
ENDBRANCH   7   8
BRANCH   7  22
ATOM     22  N   UNL A   1      33.974  27.702  23.856  1.00  0.00    -0.343 N 
ATOM     23  H   UNL A   1      34.044  28.522  23.254  1.00  0.00     0.345 HD
ATOM     24  H   UNL A   1      34.883  27.242  23.909  1.00  0.00     0.345 HD
ATOM     25  H   UNL A   1      33.683  27.990  24.790  1.00  0.00     0.345 HD
ENDBRANCH   7  22
ENDBRANCH   4   7
ENDBRANCH   2   3
ENDBRANCH   1   2
BRANCH   1  26
ATOM     26  C   UNL A   1      33.279  28.569  27.220  1.00  0.00     0.118 C 
BRANCH  26  27
ATOM     27  N   UNL A   1      33.312  29.974  27.624  1.00  0.00    -0.352 N 
ATOM     28  C   UNL A   1      34.315  30.732  28.184  1.00  0.00     0.251 C 
ATOM     29  H   UNL A   1      32.472  30.462  27.467  1.00  0.00     0.163 HD
ATOM     30  O   UNL A   1      34.071  31.878  28.558  1.00  0.00    -0.269 OA
BRANCH  28  31
ATOM     31  C   UNL A   1      35.667  30.166  28.376  1.00  0.00     0.039 A 
ATOM     32  C   UNL A   1      36.563  30.151  27.304  1.00  0.00     0.014 A 
ATOM     33  C   UNL A   1      36.065  29.671  29.617  1.00  0.00     0.014 A 
ATOM     34  C   UNL A   1      37.884  29.743  27.511  1.00  0.00     0.010 A 
ATOM     35  C   UNL A   1      37.404  29.393  29.852  1.00  0.00     0.010 A 
ATOM     36  C   UNL A   1      38.332  29.419  28.801  1.00  0.00    -0.014 A 
BRANCH  36  37
ATOM     37  C   UNL A   1      39.753  29.088  29.088  1.00  0.00     0.031 A 
ATOM     38  C   UNL A   1      40.660  30.138  29.678  1.00  0.00     0.074 A 
ATOM     39  C   UNL A   1      40.250  27.885  28.732  1.00  0.00     0.049 A 
ATOM     40  N   UNL A   1      41.953  30.104  29.864  1.00  0.00    -0.248 NA
ATOM     41  C   UNL A   1      40.035  31.413  30.070  1.00  0.00     0.031 C 
ATOM     42  C   UNL A   1      39.492  26.805  28.096  1.00  0.00     0.029 A 
ATOM     43  N   UNL A   1      41.519  27.373  28.842  1.00  0.00    -0.354 N 
ATOM     44  C   UNL A   1      42.297  31.355  30.364  1.00  0.00     0.074 A 
ATOM     45  C   UNL A   1      41.089  32.147  30.393  1.00  0.00     0.031 C 
ATOM     46  C   UNL A   1      40.301  25.752  27.898  1.00  0.00     0.029 A 
ATOM     47  C   UNL A   1      41.645  26.094  28.349  1.00  0.00     0.049 A 
ATOM     48  H   UNL A   1      42.270  27.875  29.235  1.00  0.00     0.167 HD
ATOM     49  C   UNL A   1      43.503  31.795  30.794  1.00  0.00     0.037 A 
ATOM     50  C   UNL A   1      42.725  25.293  28.262  1.00  0.00     0.037 A 
ATOM     51  C   UNL A   1      44.690  30.983  30.817  1.00  0.00     0.049 A 
ATOM     52  C   UNL A   1      44.050  25.796  28.771  1.00  0.00     0.074 A 
ATOM     53  C   UNL A   1      45.947  31.311  31.291  1.00  0.00     0.029 A 
ATOM     54  N   UNL A   1      44.763  29.677  30.357  1.00  0.00    -0.354 N 
ATOM     55  N   UNL A   1      44.344  26.964  29.290  1.00  0.00    -0.248 NA
ATOM     56  C   UNL A   1      45.190  24.871  28.689  1.00  0.00     0.031 C 
ATOM     57  C   UNL A   1      46.790  30.213  31.090  1.00  0.00     0.029 A 
ATOM     58  C   UNL A   1      46.046  29.186  30.530  1.00  0.00     0.049 A 
ATOM     59  H   UNL A   1      44.014  29.172  29.967  1.00  0.00     0.167 HD
ATOM     60  C   UNL A   1      45.692  26.904  29.624  1.00  0.00     0.074 A 
ATOM     61  C   UNL A   1      46.153  25.581  29.260  1.00  0.00     0.031 C 
ATOM     62  C   UNL A   1      46.479  27.857  30.181  1.00  0.00     0.037 A 
BRANCH  49  63
ATOM     63  C   UNL A   1      43.593  33.207  31.304  1.00  0.00     0.058 A 
ATOM     64  C   UNL A   1      43.469  33.502  32.672  1.00  0.00     0.135 A 
ATOM     65  C   UNL A   1      43.852  34.271  30.426  1.00  0.00     0.135 A 
ATOM     66  F   UNL A   1      43.201  32.525  33.553  1.00  0.00    -0.206 F 
ATOM     67  C   UNL A   1      43.575  34.804  33.147  1.00  0.00     0.059 A 
ATOM     68  C   UNL A   1      43.991  35.578  30.884  1.00  0.00     0.059 A 
ATOM     69  F   UNL A   1      43.976  34.046  29.108  1.00  0.00    -0.206 F 
ATOM     70  C   UNL A   1      43.841  35.836  32.246  1.00  0.00     0.060 A 
BRANCH  70  71
ATOM     71  S   UNL A   1      44.002  37.516  32.886  1.00  0.00     0.124 S 
ATOM     72  O   UNL A   1      42.976  37.531  33.924  1.00  0.00    -0.237 OA
ATOM     73  O   UNL A   1      45.382  37.537  33.359  1.00  0.00    -0.237 OA
ATOM     74  O   UNL A   1      43.729  38.351  31.721  1.00  0.00    -0.744 OA
ENDBRANCH  70  71
ENDBRANCH  49  63
BRANCH  50  75
ATOM     75  C   UNL A   1      42.602  23.923  27.692  1.00  0.00     0.058 A 
ATOM     76  C   UNL A   1      42.541  22.798  28.528  1.00  0.00     0.135 A 
ATOM     77  C   UNL A   1      42.556  23.708  26.307  1.00  0.00     0.135 A 
ATOM     78  F   UNL A   1      42.585  22.952  29.861  1.00  0.00    -0.206 F 
ATOM     79  C   UNL A   1      42.469  21.508  28.014  1.00  0.00     0.059 A 
ATOM     80  C   UNL A   1      42.457  22.429  25.767  1.00  0.00     0.059 A 
ATOM     81  F   UNL A   1      42.591  24.750  25.462  1.00  0.00    -0.206 F 
ATOM     82  C   UNL A   1      42.431  21.333  26.630  1.00  0.00     0.060 A 
BRANCH  82  83
ATOM     83  S   UNL A   1      42.319  19.655  25.970  1.00  0.00     0.124 S 
ATOM     84  O   UNL A   1      43.368  19.669  24.957  1.00  0.00    -0.237 OA
ATOM     85  O   UNL A   1      42.584  18.841  27.152  1.00  0.00    -0.237 OA
ATOM     86  O   UNL A   1      40.951  19.585  25.465  1.00  0.00    -0.744 OA
ENDBRANCH  82  83
ENDBRANCH  50  75
BRANCH  62  87
ATOM     87  C   UNL A   1      47.906  27.493  30.475  1.00  0.00     0.058 A 
ATOM     88  C   UNL A   1      48.261  26.768  31.622  1.00  0.00     0.135 A 
ATOM     89  C   UNL A   1      48.923  27.823  29.564  1.00  0.00     0.135 A 
ATOM     90  F   UNL A   1      47.326  26.433  32.526  1.00  0.00    -0.206 F 
ATOM     91  C   UNL A   1      49.579  26.400  31.868  1.00  0.00     0.059 A 
ATOM     92  C   UNL A   1      50.243  27.442  29.776  1.00  0.00     0.059 A 
ATOM     93  F   UNL A   1      48.633  28.505  28.445  1.00  0.00    -0.206 F 
ATOM     94  C   UNL A   1      50.563  26.739  30.937  1.00  0.00     0.060 A 
BRANCH  94  95
ATOM     95  S   UNL A   1      52.264  26.221  31.247  1.00  0.00     0.124 S 
ATOM     96  O   UNL A   1      52.063  25.051  32.096  1.00  0.00    -0.237 OA
ATOM     97  O   UNL A   1      52.760  25.952  29.902  1.00  0.00    -0.237 OA
ATOM     98  O   UNL A   1      52.857  27.380  31.907  1.00  0.00    -0.744 OA
ENDBRANCH  94  95
ENDBRANCH  62  87
ENDBRANCH  36  37
ENDBRANCH  28  31
ENDBRANCH  26  27
ENDBRANCH   1  26
TORSDOF 20
ENDMDL
MODEL 2
REMARK VINA RESULT:     -10.1      2.872      3.896
REMARK SMILES C=CCc1cc([C@H]([NH3+])C(=O)NCCCNC(=O)c2ccc(-c3c4nc(c(-c5c(F)cc(S(=O)(=O)[O-])cc5F)c5ccc([nH]5)c(-c5c(F)cc(S(=O)(=O)[O-])cc5F)c5nc(c(-c6c(F)cc(S(=O)(=O)[O-])cc6F)c6ccc3[nH]6)C=C5)C=C4)cc2)cc(OC)c1OCC
REMARK SMILES IDX 13 1 12 2 11 3 9 4 10 5 7 7 6 8 4 9 5 10 88 11 85 12 84 13
REMARK SMILES IDX 3 14 2 15 1 16 89 17 90 18 91 19 86 20 87 21 8 22 14 26
REMARK SMILES IDX 15 27 16 28 17 30 18 31 19 32 83 33 20 34 82 35 21 36 22 37
REMARK SMILES IDX 23 38 76 39 24 40 81 41 75 42 77 43 25 44 80 45 74 46 73 47
REMARK SMILES IDX 26 49 60 50 39 51 59 52 40 53 43 54 58 55 78 56 41 57 42 58
REMARK SMILES IDX 57 60 79 61 44 62 27 63 28 64 37 65 29 66 30 67 36 68 38 69
REMARK SMILES IDX 31 70 32 71 33 72 34 73 35 74 61 75 62 76 71 77 63 78 64 79
REMARK SMILES IDX 70 80 72 81 65 82 66 83 67 84 68 85 69 86 45 87 46 88 55 89
REMARK SMILES IDX 47 90 48 91 54 92 56 93 49 94 50 95 51 96 52 97 53 98
REMARK H PARENT 11 6 8 23 8 24 8 25 15 29 77 48 43 59
REMARK Flexibility Score: inf
ROOT
ATOM      1  C   UNL A   1      34.866  29.550  26.756  1.00  0.00     0.042 C 
ENDROOT
BRANCH   1   2
ATOM      2  C   UNL A   1      33.564  30.290  26.988  1.00  0.00     0.118 C 
BRANCH   2   3
ATOM      3  N   UNL A   1      32.513  29.498  27.601  1.00  0.00    -0.351 N 
ATOM      4  C   UNL A   1      31.779  28.476  27.063  1.00  0.00     0.283 C 
ATOM      5  O   UNL A   1      31.118  27.790  27.855  1.00  0.00    -0.268 OA
ATOM      6  H   UNL A   1      32.298  29.728  28.534  1.00  0.00     0.163 HD
BRANCH   4   7
ATOM      7  C   UNL A   1      31.701  28.195  25.543  1.00  0.00     0.302 C 
BRANCH   7   8
ATOM      8  C   UNL A   1      32.728  27.238  24.952  1.00  0.00     0.023 A 
ATOM      9  C   UNL A   1      33.994  25.133  25.203  1.00  0.00     0.002 A 
ATOM     10  C   UNL A   1      33.300  26.243  25.752  1.00  0.00     0.018 A 
ATOM     11  C   UNL A   1      34.133  25.040  23.796  1.00  0.00     0.164 A 
ATOM     12  C   UNL A   1      33.650  26.079  22.988  1.00  0.00     0.161 A 
ATOM     13  C   UNL A   1      32.984  27.157  23.585  1.00  0.00     0.061 A 
BRANCH   9  14
ATOM     14  C   UNL A   1      34.354  24.027  26.177  1.00  0.00     0.066 C 
BRANCH  14  15
ATOM     15  C   UNL A   1      33.311  22.995  26.490  1.00  0.00    -0.030 C 
ATOM     16  C   UNL A   1      32.998  22.521  27.704  1.00  0.00     0.004 C 
ENDBRANCH  14  15
ENDBRANCH   9  14
BRANCH  11  17
ATOM     17  O   UNL A   1      34.483  23.858  23.210  1.00  0.00    -0.490 OA
BRANCH  17  18
ATOM     18  C   UNL A   1      33.459  23.011  22.688  1.00  0.00     0.226 C 
ATOM     19  C   UNL A   1      32.041  23.154  23.217  1.00  0.00     0.049 C 
ENDBRANCH  17  18
ENDBRANCH  11  17
BRANCH  12  20
ATOM     20  O   UNL A   1      33.651  26.222  21.627  1.00  0.00    -0.493 OA
ATOM     21  C   UNL A   1      32.490  25.956  20.868  1.00  0.00     0.278 C 
ENDBRANCH  12  20
ENDBRANCH   7   8
BRANCH   7  22
ATOM     22  N   UNL A   1      31.641  29.452  24.763  1.00  0.00    -0.343 N 
ATOM     23  H   UNL A   1      31.777  29.245  23.773  1.00  0.00     0.345 HD
ATOM     24  H   UNL A   1      32.376  30.085  25.081  1.00  0.00     0.345 HD
ATOM     25  H   UNL A   1      30.732  29.893  24.896  1.00  0.00     0.345 HD
ENDBRANCH   7  22
ENDBRANCH   4   7
ENDBRANCH   2   3
ENDBRANCH   1   2
BRANCH   1  26
ATOM     26  C   UNL A   1      35.510  29.024  28.029  1.00  0.00     0.118 C 
BRANCH  26  27
ATOM     27  N   UNL A   1      35.430  29.947  29.160  1.00  0.00    -0.352 N 
ATOM     28  C   UNL A   1      36.412  30.498  29.951  1.00  0.00     0.251 C 
ATOM     29  H   UNL A   1      34.514  30.223  29.395  1.00  0.00     0.163 HD
ATOM     30  O   UNL A   1      36.094  31.162  30.936  1.00  0.00    -0.269 OA
BRANCH  28  31
ATOM     31  C   UNL A   1      37.840  30.264  29.649  1.00  0.00     0.039 A 
ATOM     32  C   UNL A   1      38.715  29.933  30.686  1.00  0.00     0.014 A 
ATOM     33  C   UNL A   1      38.316  30.346  28.342  1.00  0.00     0.014 A 
ATOM     34  C   UNL A   1      40.036  29.580  30.392  1.00  0.00     0.010 A 
ATOM     35  C   UNL A   1      39.584  29.869  28.037  1.00  0.00     0.010 A 
ATOM     36  C   UNL A   1      40.464  29.485  29.059  1.00  0.00    -0.014 A 
BRANCH  36  37
ATOM     37  C   UNL A   1      41.823  29.005  28.694  1.00  0.00     0.031 A 
ATOM     38  C   UNL A   1      42.968  29.983  28.632  1.00  0.00     0.074 A 
ATOM     39  C   UNL A   1      42.008  27.719  28.328  1.00  0.00     0.049 A 
ATOM     40  N   UNL A   1      44.187  29.803  28.195  1.00  0.00    -0.248 NA
ATOM     41  C   UNL A   1      42.694  31.360  29.078  1.00  0.00     0.031 C 
ATOM     42  C   UNL A   1      40.968  26.688  28.286  1.00  0.00     0.029 A 
ATOM     43  N   UNL A   1      43.137  27.063  27.906  1.00  0.00    -0.354 N 
ATOM     44  C   UNL A   1      44.810  31.042  28.287  1.00  0.00     0.074 A 
ATOM     45  C   UNL A   1      43.819  31.981  28.760  1.00  0.00     0.031 C 
ATOM     46  C   UNL A   1      41.512  25.526  27.889  1.00  0.00     0.029 A 
ATOM     47  C   UNL A   1      42.927  25.736  27.605  1.00  0.00     0.049 A 
ATOM     48  H   UNL A   1      44.016  27.500  27.825  1.00  0.00     0.167 HD
ATOM     49  C   UNL A   1      46.100  31.364  28.034  1.00  0.00     0.037 A 
ATOM     50  C   UNL A   1      43.778  24.799  27.142  1.00  0.00     0.037 A 
ATOM     51  C   UNL A   1      47.097  30.414  27.619  1.00  0.00     0.049 A 
ATOM     52  C   UNL A   1      45.214  25.176  26.894  1.00  0.00     0.074 A 
ATOM     53  C   UNL A   1      48.446  30.623  27.397  1.00  0.00     0.029 A 
ATOM     54  N   UNL A   1      46.854  29.070  27.375  1.00  0.00    -0.354 N 
ATOM     55  N   UNL A   1      45.797  26.342  27.037  1.00  0.00    -0.248 NA
ATOM     56  C   UNL A   1      46.111  24.110  26.425  1.00  0.00     0.031 C 
ATOM     57  C   UNL A   1      49.015  29.412  26.989  1.00  0.00     0.029 A 
ATOM     58  C   UNL A   1      48.028  28.439  26.998  1.00  0.00     0.049 A 
ATOM     59  H   UNL A   1      45.978  28.629  27.458  1.00  0.00     0.167 HD
ATOM     60  C   UNL A   1      47.132  26.143  26.708  1.00  0.00     0.074 A 
ATOM     61  C   UNL A   1      47.275  24.743  26.369  1.00  0.00     0.031 C 
ATOM     62  C   UNL A   1      48.151  27.038  26.686  1.00  0.00     0.037 A 
BRANCH  49  63
ATOM     63  C   UNL A   1      46.517  32.796  28.230  1.00  0.00     0.058 A 
ATOM     64  C   UNL A   1      46.377  33.747  27.207  1.00  0.00     0.135 A 
ATOM     65  C   UNL A   1      47.020  33.233  29.466  1.00  0.00     0.135 A 
ATOM     66  F   UNL A   1      45.921  33.380  25.998  1.00  0.00    -0.206 F 
ATOM     67  C   UNL A   1      46.741  35.076  27.395  1.00  0.00     0.059 A 
ATOM     68  C   UNL A   1      47.363  34.564  29.685  1.00  0.00     0.059 A 
ATOM     69  F   UNL A   1      47.178  32.364  30.478  1.00  0.00    -0.206 F 
ATOM     70  C   UNL A   1      47.229  35.476  28.639  1.00  0.00     0.060 A 
BRANCH  70  71
ATOM     71  S   UNL A   1      47.671  37.211  28.872  1.00  0.00     0.124 S 
ATOM     72  O   UNL A   1      47.189  37.454  30.228  1.00  0.00    -0.237 OA
ATOM     73  O   UNL A   1      49.120  37.187  28.709  1.00  0.00    -0.237 OA
ATOM     74  O   UNL A   1      46.935  37.894  27.813  1.00  0.00    -0.744 OA
ENDBRANCH  70  71
ENDBRANCH  49  63
BRANCH  50  75
ATOM     75  C   UNL A   1      43.306  23.407  26.903  1.00  0.00     0.058 A 
ATOM     76  C   UNL A   1      43.061  22.536  27.975  1.00  0.00     0.135 A 
ATOM     77  C   UNL A   1      43.103  22.915  25.605  1.00  0.00     0.135 A 
ATOM     78  F   UNL A   1      43.245  22.959  29.236  1.00  0.00    -0.206 F 
ATOM     79  C   UNL A   1      42.663  21.220  27.771  1.00  0.00     0.059 A 
ATOM     80  C   UNL A   1      42.678  21.611  25.375  1.00  0.00     0.059 A 
ATOM     81  F   UNL A   1      43.303  23.713  24.544  1.00  0.00    -0.206 F 
ATOM     82  C   UNL A   1      42.476  20.764  26.465  1.00  0.00     0.060 A 
BRANCH  82  83
ATOM     83  S   UNL A   1      41.939  19.059  26.209  1.00  0.00     0.124 S 
ATOM     84  O   UNL A   1      42.891  18.601  25.203  1.00  0.00    -0.237 OA
ATOM     85  O   UNL A   1      42.093  18.484  27.541  1.00  0.00    -0.237 OA
ATOM     86  O   UNL A   1      40.560  19.207  25.754  1.00  0.00    -0.744 OA
ENDBRANCH  82  83
ENDBRANCH  50  75
BRANCH  62  87
ATOM     87  C   UNL A   1      49.517  26.525  26.330  1.00  0.00     0.058 A 
ATOM     88  C   UNL A   1      50.017  26.603  25.022  1.00  0.00     0.135 A 
ATOM     89  C   UNL A   1      50.358  26.002  27.327  1.00  0.00     0.135 A 
ATOM     90  F   UNL A   1      49.250  27.089  24.034  1.00  0.00    -0.206 F 
ATOM     91  C   UNL A   1      51.298  26.162  24.708  1.00  0.00     0.059 A 
ATOM     92  C   UNL A   1      51.651  25.580  27.040  1.00  0.00     0.059 A 
ATOM     93  F   UNL A   1      49.931  25.917  28.596  1.00  0.00    -0.206 F 
ATOM     94  C   UNL A   1      52.109  25.654  25.725  1.00  0.00     0.060 A 
BRANCH  94  95
ATOM     95  S   UNL A   1      53.783  25.122  25.312  1.00  0.00     0.124 S 
ATOM     96  O   UNL A   1      54.504  25.443  26.540  1.00  0.00    -0.237 OA
ATOM     97  O   UNL A   1      53.601  23.701  25.035  1.00  0.00    -0.237 OA
ATOM     98  O   UNL A   1      54.123  25.942  24.152  1.00  0.00    -0.744 OA
ENDBRANCH  94  95
ENDBRANCH  62  87
ENDBRANCH  36  37
ENDBRANCH  28  31
ENDBRANCH  26  27
ENDBRANCH   1  26
TORSDOF 20
ENDMDL
MODEL 3
REMARK VINA RESULT:     -10.1      4.887     10.315
REMARK SMILES C=CCc1cc([C@H]([NH3+])C(=O)NCCCNC(=O)c2ccc(-c3c4nc(c(-c5c(F)cc(S(=O)(=O)[O-])cc5F)c5ccc([nH]5)c(-c5c(F)cc(S(=O)(=O)[O-])cc5F)c5nc(c(-c6c(F)cc(S(=O)(=O)[O-])cc6F)c6ccc3[nH]6)C=C5)C=C4)cc2)cc(OC)c1OCC
REMARK SMILES IDX 13 1 12 2 11 3 9 4 10 5 7 7 6 8 4 9 5 10 88 11 85 12 84 13
REMARK SMILES IDX 3 14 2 15 1 16 89 17 90 18 91 19 86 20 87 21 8 22 14 26
REMARK SMILES IDX 15 27 16 28 17 30 18 31 19 32 83 33 20 34 82 35 21 36 22 37
REMARK SMILES IDX 23 38 76 39 24 40 81 41 75 42 77 43 25 44 80 45 74 46 73 47
REMARK SMILES IDX 26 49 60 50 39 51 59 52 40 53 43 54 58 55 78 56 41 57 42 58
REMARK SMILES IDX 57 60 79 61 44 62 27 63 28 64 37 65 29 66 30 67 36 68 38 69
REMARK SMILES IDX 31 70 32 71 33 72 34 73 35 74 61 75 62 76 71 77 63 78 64 79
REMARK SMILES IDX 70 80 72 81 65 82 66 83 67 84 68 85 69 86 45 87 46 88 55 89
REMARK SMILES IDX 47 90 48 91 54 92 56 93 49 94 50 95 51 96 52 97 53 98
REMARK H PARENT 11 6 8 23 8 24 8 25 15 29 77 48 43 59
REMARK Flexibility Score: inf
ROOT
ATOM      1  C   UNL A   1      38.142  24.027  26.468  1.00  0.00     0.042 C 
ENDROOT
BRANCH   1   2
ATOM      2  C   UNL A   1      37.373  22.852  25.897  1.00  0.00     0.118 C 
BRANCH   2   3
ATOM      3  N   UNL A   1      37.379  22.766  24.448  1.00  0.00    -0.351 N 
ATOM      4  C   UNL A   1      36.321  22.789  23.580  1.00  0.00     0.283 C 
ATOM      5  O   UNL A   1      36.590  22.953  22.382  1.00  0.00    -0.268 OA
ATOM      6  H   UNL A   1      38.266  22.678  24.032  1.00  0.00     0.163 HD
BRANCH   4   7
ATOM      7  C   UNL A   1      34.855  22.563  24.021  1.00  0.00     0.302 C 
BRANCH   7   8
ATOM      8  C   UNL A   1      34.209  23.637  24.886  1.00  0.00     0.023 A 
ATOM      9  C   UNL A   1      33.579  26.013  25.125  1.00  0.00     0.002 A 
ATOM     10  C   UNL A   1      34.398  24.990  24.581  1.00  0.00     0.018 A 
ATOM     11  C   UNL A   1      32.545  25.656  26.027  1.00  0.00     0.164 A 
ATOM     12  C   UNL A   1      32.406  24.316  26.416  1.00  0.00     0.161 A 
ATOM     13  C   UNL A   1      33.252  23.350  25.857  1.00  0.00     0.061 A 
BRANCH   9  14
ATOM     14  C   UNL A   1      33.755  27.395  24.526  1.00  0.00     0.066 C 
BRANCH  14  15
ATOM     15  C   UNL A   1      33.624  27.543  23.038  1.00  0.00    -0.030 C 
ATOM     16  C   UNL A   1      33.057  26.667  22.197  1.00  0.00     0.004 C 
ENDBRANCH  14  15
ENDBRANCH   9  14
BRANCH  11  17
ATOM     17  O   UNL A   1      31.537  26.532  26.309  1.00  0.00    -0.490 OA
BRANCH  17  18
ATOM     18  C   UNL A   1      30.256  26.334  25.712  1.00  0.00     0.226 C 
ATOM     19  C   UNL A   1      30.055  26.706  24.252  1.00  0.00     0.049 C 
ENDBRANCH  17  18
ENDBRANCH  11  17
BRANCH  12  20
ATOM     20  O   UNL A   1      31.500  23.721  27.250  1.00  0.00    -0.493 OA
ATOM     21  C   UNL A   1      30.476  22.893  26.739  1.00  0.00     0.278 C 
ENDBRANCH  12  20
ENDBRANCH   7   8
BRANCH   7  22
ATOM     22  N   UNL A   1      34.670  21.223  24.621  1.00  0.00    -0.343 N 
ATOM     23  H   UNL A   1      35.066  20.516  24.002  1.00  0.00     0.345 HD
ATOM     24  H   UNL A   1      33.674  21.042  24.749  1.00  0.00     0.345 HD
ATOM     25  H   UNL A   1      35.142  21.186  25.525  1.00  0.00     0.345 HD
ENDBRANCH   7  22
ENDBRANCH   4   7
ENDBRANCH   2   3
ENDBRANCH   1   2
BRANCH   1  26
ATOM     26  C   UNL A   1      39.523  23.663  26.990  1.00  0.00     0.118 C 
BRANCH  26  27
ATOM     27  N   UNL A   1      40.617  24.084  26.117  1.00  0.00    -0.352 N 
ATOM     28  C   UNL A   1      41.511  25.125  26.223  1.00  0.00     0.251 C 
ATOM     29  H   UNL A   1      40.736  23.525  25.316  1.00  0.00     0.163 HD
ATOM     30  O   UNL A   1      42.278  25.362  25.292  1.00  0.00    -0.269 OA
BRANCH  28  31
ATOM     31  C   UNL A   1      41.527  25.983  27.427  1.00  0.00     0.039 A 
ATOM     32  C   UNL A   1      42.402  27.071  27.482  1.00  0.00     0.014 A 
ATOM     33  C   UNL A   1      40.666  25.733  28.493  1.00  0.00     0.014 A 
ATOM     34  C   UNL A   1      42.330  27.964  28.557  1.00  0.00     0.010 A 
ATOM     35  C   UNL A   1      40.504  26.687  29.489  1.00  0.00     0.010 A 
ATOM     36  C   UNL A   1      41.338  27.813  29.538  1.00  0.00    -0.014 A 
BRANCH  36  37
ATOM     37  C   UNL A   1      41.151  28.799  30.635  1.00  0.00     0.031 A 
ATOM     38  C   UNL A   1      42.006  28.709  31.873  1.00  0.00     0.074 A 
ATOM     39  C   UNL A   1      40.156  29.708  30.562  1.00  0.00     0.049 A 
ATOM     40  N   UNL A   1      41.906  29.369  32.997  1.00  0.00    -0.248 NA
ATOM     41  C   UNL A   1      43.091  27.713  31.862  1.00  0.00     0.031 C 
ATOM     42  C   UNL A   1      39.219  29.857  29.445  1.00  0.00     0.029 A 
ATOM     43  N   UNL A   1      39.757  30.671  31.455  1.00  0.00    -0.354 N 
ATOM     44  C   UNL A   1      42.890  28.850  33.830  1.00  0.00     0.074 A 
ATOM     45  C   UNL A   1      43.535  27.777  33.108  1.00  0.00     0.031 C 
ATOM     46  C   UNL A   1      38.375  30.868  29.707  1.00  0.00     0.029 A 
ATOM     47  C   UNL A   1      38.677  31.410  31.027  1.00  0.00     0.049 A 
ATOM     48  H   UNL A   1      40.200  30.819  32.321  1.00  0.00     0.167 HD
ATOM     49  C   UNL A   1      43.248  29.251  35.073  1.00  0.00     0.037 A 
ATOM     50  C   UNL A   1      38.003  32.406  31.635  1.00  0.00     0.037 A 
ATOM     51  C   UNL A   1      42.641  30.356  35.764  1.00  0.00     0.049 A 
ATOM     52  C   UNL A   1      38.438  32.851  33.006  1.00  0.00     0.074 A 
ATOM     53  C   UNL A   1      42.972  30.885  36.998  1.00  0.00     0.029 A 
ATOM     54  N   UNL A   1      41.586  31.111  35.274  1.00  0.00    -0.354 N 
ATOM     55  N   UNL A   1      39.406  32.382  33.756  1.00  0.00    -0.248 NA
ATOM     56  C   UNL A   1      37.694  33.965  33.611  1.00  0.00     0.031 C 
ATOM     57  C   UNL A   1      42.097  31.942  37.270  1.00  0.00     0.029 A 
ATOM     58  C   UNL A   1      41.248  32.098  36.185  1.00  0.00     0.049 A 
ATOM     59  H   UNL A   1      41.142  30.968  34.407  1.00  0.00     0.167 HD
ATOM     60  C   UNL A   1      39.407  33.162  34.907  1.00  0.00     0.074 A 
ATOM     61  C   UNL A   1      38.352  34.141  34.749  1.00  0.00     0.031 C 
ATOM     62  C   UNL A   1      40.208  33.077  35.997  1.00  0.00     0.037 A 
BRANCH  49  63
ATOM     63  C   UNL A   1      44.369  28.513  35.752  1.00  0.00     0.058 A 
ATOM     64  C   UNL A   1      45.710  28.890  35.575  1.00  0.00     0.135 A 
ATOM     65  C   UNL A   1      44.099  27.446  36.625  1.00  0.00     0.135 A 
ATOM     66  F   UNL A   1      46.026  29.890  34.736  1.00  0.00    -0.206 F 
ATOM     67  C   UNL A   1      46.744  28.223  36.220  1.00  0.00     0.059 A 
ATOM     68  C   UNL A   1      45.117  26.783  37.304  1.00  0.00     0.059 A 
ATOM     69  F   UNL A   1      42.835  27.042  36.828  1.00  0.00    -0.206 F 
ATOM     70  C   UNL A   1      46.438  27.173  37.087  1.00  0.00     0.060 A 
BRANCH  70  71
ATOM     71  S   UNL A   1      47.793  26.336  37.937  1.00  0.00     0.124 S 
ATOM     72  O   UNL A   1      47.707  24.994  37.371  1.00  0.00    -0.237 OA
ATOM     73  O   UNL A   1      48.951  27.124  37.526  1.00  0.00    -0.237 OA
ATOM     74  O   UNL A   1      47.431  26.447  39.346  1.00  0.00    -0.744 OA
ENDBRANCH  70  71
ENDBRANCH  49  63
BRANCH  50  75
ATOM     75  C   UNL A   1      36.858  33.068  30.950  1.00  0.00     0.058 A 
ATOM     76  C   UNL A   1      35.538  32.829  31.361  1.00  0.00     0.135 A 
ATOM     77  C   UNL A   1      37.057  33.938  29.867  1.00  0.00     0.135 A 
ATOM     78  F   UNL A   1      35.296  32.002  32.389  1.00  0.00    -0.206 F 
ATOM     79  C   UNL A   1      34.454  33.404  30.706  1.00  0.00     0.059 A 
ATOM     80  C   UNL A   1      35.991  34.546  29.213  1.00  0.00     0.059 A 
ATOM     81  F   UNL A   1      38.300  34.216  29.447  1.00  0.00    -0.206 F 
ATOM     82  C   UNL A   1      34.690  34.260  29.629  1.00  0.00     0.060 A 
BRANCH  82  83
ATOM     83  S   UNL A   1      33.277  35.017  28.796  1.00  0.00     0.124 S 
ATOM     84  O   UNL A   1      32.298  35.074  29.876  1.00  0.00    -0.237 OA
ATOM     85  O   UNL A   1      33.825  36.297  28.362  1.00  0.00    -0.237 OA
ATOM     86  O   UNL A   1      32.980  34.074  27.721  1.00  0.00    -0.744 OA
ENDBRANCH  82  83
ENDBRANCH  50  75
BRANCH  62  87
ATOM     87  C   UNL A   1      40.009  34.094  37.084  1.00  0.00     0.058 A 
ATOM     88  C   UNL A   1      40.645  35.343  37.052  1.00  0.00     0.135 A 
ATOM     89  C   UNL A   1      39.121  33.835  38.142  1.00  0.00     0.135 A 
ATOM     90  F   UNL A   1      41.507  35.637  36.064  1.00  0.00    -0.206 F 
ATOM     91  C   UNL A   1      40.425  36.295  38.041  1.00  0.00     0.059 A 
ATOM     92  C   UNL A   1      38.866  34.781  39.127  1.00  0.00     0.059 A 
ATOM     93  F   UNL A   1      38.478  32.659  38.213  1.00  0.00    -0.206 F 
ATOM     94  C   UNL A   1      39.531  36.006  39.074  1.00  0.00     0.060 A 
BRANCH  94  95
ATOM     95  S   UNL A   1      39.224  37.265  40.330  1.00  0.00     0.124 S 
ATOM     96  O   UNL A   1      38.528  36.492  41.355  1.00  0.00    -0.237 OA
ATOM     97  O   UNL A   1      40.573  37.703  40.672  1.00  0.00    -0.237 OA
ATOM     98  O   UNL A   1      38.410  38.253  39.628  1.00  0.00    -0.744 OA
ENDBRANCH  94  95
ENDBRANCH  62  87
ENDBRANCH  36  37
ENDBRANCH  28  31
ENDBRANCH  26  27
ENDBRANCH   1  26
TORSDOF 20
ENDMDL
