MODEL 1
REMARK VINA RESULT:     -13.3      0.000      0.000
REMARK SMILES CNC(=O)c1ccc(-n2nc(C)c(C(=O)NCCCNC(=O)c3ccc(-c4c5nc(c(-c6c(F)cc(S(=O)(=O)[O-])cc6F)c6ccc([nH]6)c(-c6c(F)cc(S(=O)(=O)[O-])cc6F)c6nc(c(-c7c(F)cc(S(=O)(=O)[O-])cc7F)c7ccc4[nH]7)C=C6)C=C5)cc3)c2C)nn1
REMARK SMILES IDX 18 1 17 2 16 3 14 4 15 5 13 7 9 8 10 9 89 10 11 11 90 12
REMARK SMILES IDX 12 13 8 14 5 15 6 16 92 17 7 18 91 19 3 20 1 21 2 22 4 24
REMARK SMILES IDX 19 25 20 26 21 27 22 29 23 30 24 31 88 32 25 33 87 34 26 35
REMARK SMILES IDX 27 36 28 37 81 38 29 39 86 40 80 41 82 42 30 43 85 44 79 45
REMARK SMILES IDX 78 46 31 48 65 49 44 50 64 51 45 52 48 53 63 54 83 55 46 56
REMARK SMILES IDX 47 57 62 59 84 60 49 61 32 62 33 63 42 64 34 65 35 66 41 67
REMARK SMILES IDX 43 68 36 69 37 70 38 71 39 72 40 73 66 74 67 75 76 76 68 77
REMARK SMILES IDX 69 78 75 79 77 80 70 81 71 82 72 83 73 84 74 85 50 86 51 87
REMARK SMILES IDX 60 88 52 89 53 90 59 91 61 92 54 93 55 94 56 95 57 96 58 97
REMARK H PARENT 16 6 2 23 20 28 82 47 48 58
REMARK Flexibility Score: inf
ROOT
ATOM      1  C   UNL A   1      37.956  21.178  25.098  1.00  0.00     0.042 C 
ENDROOT
BRANCH   1   2
ATOM      2  C   UNL A   1      36.579  21.811  24.879  1.00  0.00     0.118 C 
BRANCH   2   3
ATOM      3  N   UNL A   1      35.687  21.551  25.989  1.00  0.00    -0.352 N 
ATOM      4  C   UNL A   1      34.351  21.756  26.218  1.00  0.00     0.255 C 
ATOM      5  O   UNL A   1      33.954  21.317  27.299  1.00  0.00    -0.269 OA
ATOM      6  H   UNL A   1      36.143  21.132  26.754  1.00  0.00     0.163 HD
BRANCH   4   7
ATOM      7  C   UNL A   1      33.412  22.382  25.273  1.00  0.00     0.084 A 
ATOM      8  N   UNL A   1      32.104  23.671  24.004  1.00  0.00    -0.217 N 
ATOM      9  N   UNL A   1      31.836  22.437  23.567  1.00  0.00    -0.171 NA
ATOM     10  C   UNL A   1      32.914  23.677  25.130  1.00  0.00     0.056 A 
ATOM     11  C   UNL A   1      32.640  21.648  24.292  1.00  0.00     0.073 A 
ATOM     12  C   UNL A   1      32.960  24.912  25.953  1.00  0.00     0.068 C 
ATOM     13  C   UNL A   1      32.586  20.183  24.016  1.00  0.00     0.069 C 
BRANCH   8  14
ATOM     14  C   UNL A   1      31.561  24.830  23.390  1.00  0.00     0.175 A 
ATOM     15  C   UNL A   1      30.861  27.382  22.870  1.00  0.00     0.150 A 
ATOM     16  C   UNL A   1      32.080  26.934  22.385  1.00  0.00     0.040 A 
ATOM     17  N   UNL A   1      30.007  26.587  23.554  1.00  0.00    -0.143 NA
ATOM     18  C   UNL A   1      32.432  25.619  22.639  1.00  0.00     0.053 A 
ATOM     19  N   UNL A   1      30.358  25.285  23.811  1.00  0.00    -0.130 NA
BRANCH  15  20
ATOM     20  C   UNL A   1      30.457  28.791  22.665  1.00  0.00     0.271 C 
ATOM     21  C   UNL A   1      31.407  29.530  24.904  1.00  0.00     0.143 C 
ATOM     22  N   UNL A   1      30.664  29.703  23.676  1.00  0.00    -0.354 N 
ATOM     23  H   UNL A   1      30.252  30.587  23.545  1.00  0.00     0.163 HD
ATOM     24  O   UNL A   1      29.900  29.142  21.629  1.00  0.00    -0.267 OA
ENDBRANCH  15  20
ENDBRANCH   8  14
ENDBRANCH   4   7
ENDBRANCH   2   3
ENDBRANCH   1   2
BRANCH   1  25
ATOM     25  C   UNL A   1      38.828  21.875  26.113  1.00  0.00     0.118 C 
BRANCH  25  26
ATOM     26  N   UNL A   1      40.245  21.698  25.822  1.00  0.00    -0.352 N 
ATOM     27  C   UNL A   1      41.262  22.621  25.979  1.00  0.00     0.251 C 
ATOM     28  H   UNL A   1      40.510  20.817  25.472  1.00  0.00     0.163 HD
ATOM     29  O   UNL A   1      42.306  22.499  25.365  1.00  0.00    -0.269 OA
BRANCH  27  30
ATOM     30  C   UNL A   1      41.023  23.766  26.877  1.00  0.00     0.039 A 
ATOM     31  C   UNL A   1      41.848  23.981  27.978  1.00  0.00     0.014 A 
ATOM     32  C   UNL A   1      40.027  24.680  26.540  1.00  0.00     0.014 A 
ATOM     33  C   UNL A   1      41.729  25.181  28.670  1.00  0.00     0.010 A 
ATOM     34  C   UNL A   1      40.031  25.930  27.112  1.00  0.00     0.010 A 
ATOM     35  C   UNL A   1      40.852  26.180  28.203  1.00  0.00    -0.014 A 
BRANCH  35  36
ATOM     36  C   UNL A   1      40.905  27.522  28.781  1.00  0.00     0.031 A 
ATOM     37  C   UNL A   1      41.964  28.387  28.194  1.00  0.00     0.074 A 
ATOM     38  C   UNL A   1      40.014  28.032  29.658  1.00  0.00     0.049 A 
ATOM     39  N   UNL A   1      43.111  28.669  28.716  1.00  0.00    -0.248 NA
ATOM     40  C   UNL A   1      41.824  28.828  26.797  1.00  0.00     0.031 C 
ATOM     41  C   UNL A   1      38.743  27.460  30.116  1.00  0.00     0.029 A 
ATOM     42  N   UNL A   1      40.036  29.242  30.285  1.00  0.00    -0.354 N 
ATOM     43  C   UNL A   1      43.729  29.543  27.827  1.00  0.00     0.074 A 
ATOM     44  C   UNL A   1      43.003  29.421  26.590  1.00  0.00     0.031 C 
ATOM     45  C   UNL A   1      38.024  28.405  30.763  1.00  0.00     0.029 A 
ATOM     46  C   UNL A   1      38.853  29.582  30.934  1.00  0.00     0.049 A 
ATOM     47  H   UNL A   1      40.826  29.829  30.278  1.00  0.00     0.167 HD
ATOM     48  C   UNL A   1      44.606  30.483  28.279  1.00  0.00     0.037 A 
ATOM     49  C   UNL A   1      38.578  30.742  31.580  1.00  0.00     0.037 A 
ATOM     50  C   UNL A   1      45.044  30.166  29.621  1.00  0.00     0.049 A 
ATOM     51  C   UNL A   1      39.884  31.348  31.942  1.00  0.00     0.074 A 
ATOM     52  C   UNL A   1      45.663  29.083  30.216  1.00  0.00     0.029 A 
ATOM     53  N   UNL A   1      44.489  30.889  30.650  1.00  0.00    -0.354 N 
ATOM     54  N   UNL A   1      40.711  30.831  32.808  1.00  0.00    -0.248 NA
ATOM     55  C   UNL A   1      40.465  32.310  31.023  1.00  0.00     0.031 C 
ATOM     56  C   UNL A   1      45.042  28.958  31.495  1.00  0.00     0.029 A 
ATOM     57  C   UNL A   1      44.141  30.013  31.645  1.00  0.00     0.049 A 
ATOM     58  H   UNL A   1      44.362  31.866  30.668  1.00  0.00     0.167 HD
ATOM     59  C   UNL A   1      41.969  31.053  32.269  1.00  0.00     0.074 A 
ATOM     60  C   UNL A   1      41.760  32.061  31.231  1.00  0.00     0.031 C 
ATOM     61  C   UNL A   1      43.005  30.201  32.524  1.00  0.00     0.037 A 
BRANCH  48  62
ATOM     62  C   UNL A   1      44.743  31.879  27.703  1.00  0.00     0.058 A 
ATOM     63  C   UNL A   1      45.922  32.215  27.002  1.00  0.00     0.135 A 
ATOM     64  C   UNL A   1      43.921  32.976  28.052  1.00  0.00     0.135 A 
ATOM     65  F   UNL A   1      46.780  31.260  26.607  1.00  0.00    -0.206 F 
ATOM     66  C   UNL A   1      46.304  33.535  26.759  1.00  0.00     0.059 A 
ATOM     67  C   UNL A   1      44.258  34.295  27.773  1.00  0.00     0.059 A 
ATOM     68  F   UNL A   1      42.796  32.842  28.760  1.00  0.00    -0.206 F 
ATOM     69  C   UNL A   1      45.471  34.570  27.167  1.00  0.00     0.060 A 
BRANCH  69  70
ATOM     70  S   UNL A   1      46.001  36.275  26.946  1.00  0.00     0.124 S 
ATOM     71  O   UNL A   1      44.721  36.963  26.832  1.00  0.00    -0.237 OA
ATOM     72  O   UNL A   1      46.753  36.517  28.173  1.00  0.00    -0.237 OA
ATOM     73  O   UNL A   1      46.803  36.221  25.727  1.00  0.00    -0.744 OA
ENDBRANCH  69  70
ENDBRANCH  48  62
BRANCH  49  74
ATOM     74  C   UNL A   1      37.301  31.501  31.650  1.00  0.00     0.058 A 
ATOM     75  C   UNL A   1      36.710  31.802  32.893  1.00  0.00     0.135 A 
ATOM     76  C   UNL A   1      36.804  32.210  30.540  1.00  0.00     0.135 A 
ATOM     77  F   UNL A   1      37.124  31.180  34.006  1.00  0.00    -0.206 F 
ATOM     78  C   UNL A   1      35.745  32.804  33.038  1.00  0.00     0.059 A 
ATOM     79  C   UNL A   1      35.833  33.206  30.659  1.00  0.00     0.059 A 
ATOM     80  F   UNL A   1      37.318  32.024  29.314  1.00  0.00    -0.206 F 
ATOM     81  C   UNL A   1      35.333  33.522  31.917  1.00  0.00     0.060 A 
BRANCH  81  82
ATOM     82  S   UNL A   1      34.244  34.950  32.131  1.00  0.00     0.124 S 
ATOM     83  O   UNL A   1      33.972  35.334  30.751  1.00  0.00    -0.237 OA
ATOM     84  O   UNL A   1      33.123  34.375  32.866  1.00  0.00    -0.237 OA
ATOM     85  O   UNL A   1      35.065  35.890  32.891  1.00  0.00    -0.744 OA
ENDBRANCH  81  82
ENDBRANCH  49  74
BRANCH  61  86
ATOM     86  C   UNL A   1      42.884  29.246  33.686  1.00  0.00     0.058 A 
ATOM     87  C   UNL A   1      43.150  29.562  35.030  1.00  0.00     0.135 A 
ATOM     88  C   UNL A   1      42.333  27.981  33.425  1.00  0.00     0.135 A 
ATOM     89  F   UNL A   1      43.588  30.779  35.383  1.00  0.00    -0.206 F 
ATOM     90  C   UNL A   1      42.913  28.645  36.060  1.00  0.00     0.059 A 
ATOM     91  C   UNL A   1      42.056  27.068  34.437  1.00  0.00     0.059 A 
ATOM     92  F   UNL A   1      42.006  27.636  32.168  1.00  0.00    -0.206 F 
ATOM     93  C   UNL A   1      42.362  27.401  35.753  1.00  0.00     0.060 A 
BRANCH  93  94
ATOM     94  S   UNL A   1      41.980  26.246  37.089  1.00  0.00     0.124 S 
ATOM     95  O   UNL A   1      43.025  26.544  38.062  1.00  0.00    -0.237 OA
ATOM     96  O   UNL A   1      40.627  26.638  37.471  1.00  0.00    -0.237 OA
ATOM     97  O   UNL A   1      42.081  24.936  36.448  1.00  0.00    -0.744 OA
ENDBRANCH  93  94
ENDBRANCH  61  86
ENDBRANCH  35  36
ENDBRANCH  27  30
ENDBRANCH  25  26
ENDBRANCH   1  25
TORSDOF 15
ENDMDL
MODEL 2
REMARK VINA RESULT:     -13.1      2.800      9.620
REMARK SMILES CNC(=O)c1ccc(-n2nc(C)c(C(=O)NCCCNC(=O)c3ccc(-c4c5nc(c(-c6c(F)cc(S(=O)(=O)[O-])cc6F)c6ccc([nH]6)c(-c6c(F)cc(S(=O)(=O)[O-])cc6F)c6nc(c(-c7c(F)cc(S(=O)(=O)[O-])cc7F)c7ccc4[nH]7)C=C6)C=C5)cc3)c2C)nn1
REMARK SMILES IDX 18 1 17 2 16 3 14 4 15 5 13 7 9 8 10 9 89 10 11 11 90 12
REMARK SMILES IDX 12 13 8 14 5 15 6 16 92 17 7 18 91 19 3 20 1 21 2 22 4 24
REMARK SMILES IDX 19 25 20 26 21 27 22 29 23 30 24 31 88 32 25 33 87 34 26 35
REMARK SMILES IDX 27 36 28 37 81 38 29 39 86 40 80 41 82 42 30 43 85 44 79 45
REMARK SMILES IDX 78 46 31 48 65 49 44 50 64 51 45 52 48 53 63 54 83 55 46 56
REMARK SMILES IDX 47 57 62 59 84 60 49 61 32 62 33 63 42 64 34 65 35 66 41 67
REMARK SMILES IDX 43 68 36 69 37 70 38 71 39 72 40 73 66 74 67 75 76 76 68 77
REMARK SMILES IDX 69 78 75 79 77 80 70 81 71 82 72 83 73 84 74 85 50 86 51 87
REMARK SMILES IDX 60 88 52 89 53 90 59 91 61 92 54 93 55 94 56 95 57 96 58 97
REMARK H PARENT 16 6 2 23 20 28 82 47 48 58
REMARK Flexibility Score: inf
ROOT
ATOM      1  C   UNL A   1      33.637  29.301  25.819  1.00  0.00     0.042 C 
ENDROOT
BRANCH   1   2
ATOM      2  C   UNL A   1      32.131  29.547  25.958  1.00  0.00     0.118 C 
BRANCH   2   3
ATOM      3  N   UNL A   1      31.496  29.723  24.670  1.00  0.00    -0.352 N 
ATOM      4  C   UNL A   1      31.003  28.870  23.716  1.00  0.00     0.255 C 
ATOM      5  O   UNL A   1      30.464  29.440  22.765  1.00  0.00    -0.269 OA
ATOM      6  H   UNL A   1      31.394  30.670  24.421  1.00  0.00     0.163 HD
BRANCH   4   7
ATOM      7  C   UNL A   1      31.031  27.401  23.793  1.00  0.00     0.084 A 
ATOM      8  N   UNL A   1      31.465  25.215  23.928  1.00  0.00    -0.217 N 
ATOM      9  N   UNL A   1      30.131  25.260  23.859  1.00  0.00    -0.171 NA
ATOM     10  C   UNL A   1      32.054  26.455  23.726  1.00  0.00     0.056 A 
ATOM     11  C   UNL A   1      29.846  26.569  23.815  1.00  0.00     0.073 A 
ATOM     12  C   UNL A   1      33.495  26.496  23.370  1.00  0.00     0.068 C 
ATOM     13  C   UNL A   1      28.406  26.950  23.754  1.00  0.00     0.069 C 
BRANCH   8  14
ATOM     14  C   UNL A   1      32.175  24.005  24.134  1.00  0.00     0.175 A 
ATOM     15  C   UNL A   1      32.777  21.424  24.636  1.00  0.00     0.150 A 
ATOM     16  C   UNL A   1      32.538  21.789  23.320  1.00  0.00     0.040 A 
ATOM     17  N   UNL A   1      32.756  22.310  25.658  1.00  0.00    -0.143 NA
ATOM     18  C   UNL A   1      32.244  23.116  23.061  1.00  0.00     0.053 A 
ATOM     19  N   UNL A   1      32.458  23.626  25.402  1.00  0.00    -0.130 NA
BRANCH  15  20
ATOM     20  C   UNL A   1      33.052  20.009  24.973  1.00  0.00     0.271 C 
ATOM     21  C   UNL A   1      35.570  20.360  24.980  1.00  0.00     0.143 C 
ATOM     22  N   UNL A   1      34.358  19.575  25.031  1.00  0.00    -0.354 N 
ATOM     23  H   UNL A   1      34.481  18.602  25.119  1.00  0.00     0.163 HD
ATOM     24  O   UNL A   1      32.135  19.215  25.154  1.00  0.00    -0.267 OA
ENDBRANCH  15  20
ENDBRANCH   8  14
ENDBRANCH   4   7
ENDBRANCH   2   3
ENDBRANCH   1   2
BRANCH   1  25
ATOM     25  C   UNL A   1      34.455  29.620  27.046  1.00  0.00     0.118 C 
BRANCH  25  26
ATOM     26  N   UNL A   1      34.310  31.014  27.445  1.00  0.00    -0.352 N 
ATOM     27  C   UNL A   1      34.944  31.664  28.487  1.00  0.00     0.251 C 
ATOM     28  H   UNL A   1      33.687  31.557  26.910  1.00  0.00     0.163 HD
ATOM     29  O   UNL A   1      34.476  32.688  28.951  1.00  0.00    -0.269 OA
BRANCH  27  30
ATOM     30  C   UNL A   1      36.172  31.060  29.035  1.00  0.00     0.039 A 
ATOM     31  C   UNL A   1      36.168  29.741  29.484  1.00  0.00     0.014 A 
ATOM     32  C   UNL A   1      37.353  31.798  28.993  1.00  0.00     0.014 A 
ATOM     33  C   UNL A   1      37.385  29.142  29.788  1.00  0.00     0.010 A 
ATOM     34  C   UNL A   1      38.561  31.154  29.123  1.00  0.00     0.010 A 
ATOM     35  C   UNL A   1      38.589  29.836  29.557  1.00  0.00    -0.014 A 
BRANCH  35  36
ATOM     36  C   UNL A   1      39.865  29.127  29.643  1.00  0.00     0.031 A 
ATOM     37  C   UNL A   1      40.354  28.936  31.035  1.00  0.00     0.074 A 
ATOM     38  C   UNL A   1      40.510  28.549  28.606  1.00  0.00     0.049 A 
ATOM     39  N   UNL A   1      41.274  29.618  31.634  1.00  0.00    -0.248 NA
ATOM     40  C   UNL A   1      39.615  28.029  31.927  1.00  0.00     0.031 C 
ATOM     41  C   UNL A   1      40.049  28.356  27.228  1.00  0.00     0.029 A 
ATOM     42  N   UNL A   1      41.725  27.932  28.600  1.00  0.00    -0.354 N 
ATOM     43  C   UNL A   1      41.413  29.045  32.893  1.00  0.00     0.074 A 
ATOM     44  C   UNL A   1      40.235  28.242  33.091  1.00  0.00     0.031 C 
ATOM     45  C   UNL A   1      40.866  27.489  26.589  1.00  0.00     0.029 A 
ATOM     46  C   UNL A   1      42.008  27.216  27.441  1.00  0.00     0.049 A 
ATOM     47  H   UNL A   1      42.354  27.989  29.355  1.00  0.00     0.167 HD
ATOM     48  C   UNL A   1      42.615  29.071  33.536  1.00  0.00     0.037 A 
ATOM     49  C   UNL A   1      43.107  26.463  27.191  1.00  0.00     0.037 A 
ATOM     50  C   UNL A   1      43.492  30.050  32.932  1.00  0.00     0.049 A 
ATOM     51  C   UNL A   1      44.174  26.951  28.100  1.00  0.00     0.074 A 
ATOM     52  C   UNL A   1      43.421  31.409  32.690  1.00  0.00     0.029 A 
ATOM     53  N   UNL A   1      44.489  29.578  32.111  1.00  0.00    -0.354 N 
ATOM     54  N   UNL A   1      44.720  28.133  28.013  1.00  0.00    -0.248 NA
ATOM     55  C   UNL A   1      44.336  26.282  29.379  1.00  0.00     0.031 C 
ATOM     56  C   UNL A   1      44.029  31.591  31.413  1.00  0.00     0.029 A 
ATOM     57  C   UNL A   1      44.511  30.354  30.981  1.00  0.00     0.049 A 
ATOM     58  H   UNL A   1      45.082  28.816  32.301  1.00  0.00     0.167 HD
ATOM     59  C   UNL A   1      44.897  28.535  29.328  1.00  0.00     0.074 A 
ATOM     60  C   UNL A   1      44.747  27.316  30.118  1.00  0.00     0.031 C 
ATOM     61  C   UNL A   1      44.871  29.857  29.669  1.00  0.00     0.037 A 
BRANCH  48  62
ATOM     62  C   UNL A   1      43.147  27.952  34.410  1.00  0.00     0.058 A 
ATOM     63  C   UNL A   1      43.521  28.245  35.740  1.00  0.00     0.135 A 
ATOM     64  C   UNL A   1      43.580  26.694  33.929  1.00  0.00     0.135 A 
ATOM     65  F   UNL A   1      43.162  29.405  36.313  1.00  0.00    -0.206 F 
ATOM     66  C   UNL A   1      44.344  27.406  36.493  1.00  0.00     0.059 A 
ATOM     67  C   UNL A   1      44.357  25.821  34.682  1.00  0.00     0.059 A 
ATOM     68  F   UNL A   1      43.357  26.281  32.678  1.00  0.00    -0.206 F 
ATOM     69  C   UNL A   1      44.772  26.203  35.945  1.00  0.00     0.060 A 
BRANCH  69  70
ATOM     70  S   UNL A   1      45.911  25.161  36.871  1.00  0.00     0.124 S 
ATOM     71  O   UNL A   1      46.697  24.567  35.796  1.00  0.00    -0.237 OA
ATOM     72  O   UNL A   1      46.600  26.140  37.706  1.00  0.00    -0.237 OA
ATOM     73  O   UNL A   1      45.023  24.249  37.587  1.00  0.00    -0.744 OA
ENDBRANCH  69  70
ENDBRANCH  48  62
BRANCH  49  74
ATOM     74  C   UNL A   1      43.222  25.180  26.446  1.00  0.00     0.058 A 
ATOM     75  C   UNL A   1      44.112  25.054  25.363  1.00  0.00     0.135 A 
ATOM     76  C   UNL A   1      42.704  23.978  26.966  1.00  0.00     0.135 A 
ATOM     77  F   UNL A   1      44.659  26.146  24.807  1.00  0.00    -0.206 F 
ATOM     78  C   UNL A   1      44.530  23.810  24.879  1.00  0.00     0.059 A 
ATOM     79  C   UNL A   1      43.097  22.725  26.493  1.00  0.00     0.059 A 
ATOM     80  F   UNL A   1      41.872  23.982  28.019  1.00  0.00    -0.206 F 
ATOM     81  C   UNL A   1      44.037  22.648  25.472  1.00  0.00     0.060 A 
BRANCH  81  82
ATOM     82  S   UNL A   1      44.729  21.048  24.990  1.00  0.00     0.124 S 
ATOM     83  O   UNL A   1      46.074  21.119  25.549  1.00  0.00    -0.237 OA
ATOM     84  O   UNL A   1      43.818  20.111  25.638  1.00  0.00    -0.237 OA
ATOM     85  O   UNL A   1      44.656  21.073  23.531  1.00  0.00    -0.744 OA
ENDBRANCH  81  82
ENDBRANCH  49  74
BRANCH  61  86
ATOM     86  C   UNL A   1      45.034  30.887  28.577  1.00  0.00     0.058 A 
ATOM     87  C   UNL A   1      44.013  31.329  27.717  1.00  0.00     0.135 A 
ATOM     88  C   UNL A   1      46.267  31.554  28.501  1.00  0.00     0.135 A 
ATOM     89  F   UNL A   1      42.777  30.815  27.785  1.00  0.00    -0.206 F 
ATOM     90  C   UNL A   1      44.225  32.363  26.799  1.00  0.00     0.059 A 
ATOM     91  C   UNL A   1      46.488  32.608  27.620  1.00  0.00     0.059 A 
ATOM     92  F   UNL A   1      47.267  31.216  29.331  1.00  0.00    -0.206 F 
ATOM     93  C   UNL A   1      45.465  33.000  26.761  1.00  0.00     0.060 A 
BRANCH  93  94
ATOM     94  S   UNL A   1      45.717  34.387  25.632  1.00  0.00     0.124 S 
ATOM     95  O   UNL A   1      45.219  35.514  26.414  1.00  0.00    -0.237 OA
ATOM     96  O   UNL A   1      47.159  34.357  25.409  1.00  0.00    -0.237 OA
ATOM     97  O   UNL A   1      44.908  34.033  24.467  1.00  0.00    -0.744 OA
ENDBRANCH  93  94
ENDBRANCH  61  86
ENDBRANCH  35  36
ENDBRANCH  27  30
ENDBRANCH  25  26
ENDBRANCH   1  25
TORSDOF 15
ENDMDL
MODEL 3
REMARK VINA RESULT:     -12.6      4.471      8.155
REMARK SMILES CNC(=O)c1ccc(-n2nc(C)c(C(=O)NCCCNC(=O)c3ccc(-c4c5nc(c(-c6c(F)cc(S(=O)(=O)[O-])cc6F)c6ccc([nH]6)c(-c6c(F)cc(S(=O)(=O)[O-])cc6F)c6nc(c(-c7c(F)cc(S(=O)(=O)[O-])cc7F)c7ccc4[nH]7)C=C6)C=C5)cc3)c2C)nn1
REMARK SMILES IDX 18 1 17 2 16 3 14 4 15 5 13 7 9 8 10 9 89 10 11 11 90 12
REMARK SMILES IDX 12 13 8 14 5 15 6 16 92 17 7 18 91 19 3 20 1 21 2 22 4 24
REMARK SMILES IDX 19 25 20 26 21 27 22 29 23 30 24 31 88 32 25 33 87 34 26 35
REMARK SMILES IDX 27 36 28 37 81 38 29 39 86 40 80 41 82 42 30 43 85 44 79 45
REMARK SMILES IDX 78 46 31 48 65 49 44 50 64 51 45 52 48 53 63 54 83 55 46 56
REMARK SMILES IDX 47 57 62 59 84 60 49 61 32 62 33 63 42 64 34 65 35 66 41 67
REMARK SMILES IDX 43 68 36 69 37 70 38 71 39 72 40 73 66 74 67 75 76 76 68 77
REMARK SMILES IDX 69 78 75 79 77 80 70 81 71 82 72 83 73 84 74 85 50 86 51 87
REMARK SMILES IDX 60 88 52 89 53 90 59 91 61 92 54 93 55 94 56 95 57 96 58 97
REMARK H PARENT 16 6 2 23 20 28 82 47 48 58
REMARK Flexibility Score: inf
ROOT
ATOM      1  C   UNL A   1      44.098  21.530  25.268  1.00  0.00     0.042 C 
ENDROOT
BRANCH   1   2
ATOM      2  C   UNL A   1      45.497  22.104  25.510  1.00  0.00     0.118 C 
BRANCH   2   3
ATOM      3  N   UNL A   1      45.570  22.828  26.761  1.00  0.00    -0.352 N 
ATOM      4  C   UNL A   1      45.927  24.103  27.115  1.00  0.00     0.255 C 
ATOM      5  O   UNL A   1      45.782  24.351  28.314  1.00  0.00    -0.269 OA
ATOM      6  H   UNL A   1      45.304  22.280  27.534  1.00  0.00     0.163 HD
BRANCH   4   7
ATOM      7  C   UNL A   1      46.390  25.146  26.186  1.00  0.00     0.084 A 
ATOM      8  N   UNL A   1      47.456  26.602  24.870  1.00  0.00    -0.217 N 
ATOM      9  N   UNL A   1      46.167  26.888  24.664  1.00  0.00    -0.171 NA
ATOM     10  C   UNL A   1      47.644  25.682  25.892  1.00  0.00     0.056 A 
ATOM     11  C   UNL A   1      45.507  25.998  25.418  1.00  0.00     0.073 A 
ATOM     12  C   UNL A   1      48.995  25.579  26.501  1.00  0.00     0.068 C 
ATOM     13  C   UNL A   1      44.017  26.050  25.383  1.00  0.00     0.069 C 
BRANCH   8  14
ATOM     14  C   UNL A   1      48.500  27.228  24.141  1.00  0.00     0.175 A 
ATOM     15  C   UNL A   1      50.923  27.862  23.141  1.00  0.00     0.150 A 
ATOM     16  C   UNL A   1      50.171  26.915  22.463  1.00  0.00     0.040 A 
ATOM     17  N   UNL A   1      50.477  28.496  24.250  1.00  0.00    -0.143 NA
ATOM     18  C   UNL A   1      48.921  26.601  22.968  1.00  0.00     0.053 A 
ATOM     19  N   UNL A   1      49.240  28.180  24.755  1.00  0.00    -0.130 NA
BRANCH  15  20
ATOM     20  C   UNL A   1      52.284  28.202  22.669  1.00  0.00     0.271 C 
ATOM     21  C   UNL A   1      51.452  30.134  21.242  1.00  0.00     0.143 C 
ATOM     22  N   UNL A   1      52.440  29.201  21.734  1.00  0.00    -0.354 N 
ATOM     23  H   UNL A   1      53.343  29.292  21.352  1.00  0.00     0.163 HD
ATOM     24  O   UNL A   1      53.262  27.576  23.064  1.00  0.00    -0.267 OA
ENDBRANCH  15  20
ENDBRANCH   8  14
ENDBRANCH   4   7
ENDBRANCH   2   3
ENDBRANCH   1   2
BRANCH   1  25
ATOM     25  C   UNL A   1      42.998  22.556  25.138  1.00  0.00     0.118 C 
BRANCH  25  26
ATOM     26  N   UNL A   1      41.738  22.070  25.686  1.00  0.00    -0.352 N 
ATOM     27  C   UNL A   1      40.990  22.628  26.705  1.00  0.00     0.251 C 
ATOM     28  H   UNL A   1      41.377  21.249  25.282  1.00  0.00     0.163 HD
ATOM     29  O   UNL A   1      40.183  21.953  27.319  1.00  0.00    -0.269 OA
BRANCH  27  30
ATOM     30  C   UNL A   1      41.229  24.043  27.045  1.00  0.00     0.039 A 
ATOM     31  C   UNL A   1      40.459  25.047  26.462  1.00  0.00     0.014 A 
ATOM     32  C   UNL A   1      42.165  24.341  28.033  1.00  0.00     0.014 A 
ATOM     33  C   UNL A   1      40.565  26.338  26.965  1.00  0.00     0.010 A 
ATOM     34  C   UNL A   1      42.139  25.574  28.642  1.00  0.00     0.010 A 
ATOM     35  C   UNL A   1      41.371  26.591  28.093  1.00  0.00    -0.014 A 
BRANCH  35  36
ATOM     36  C   UNL A   1      41.293  27.887  28.766  1.00  0.00     0.031 A 
ATOM     37  C   UNL A   1      42.345  28.850  28.339  1.00  0.00     0.074 A 
ATOM     38  C   UNL A   1      40.301  28.281  29.593  1.00  0.00     0.049 A 
ATOM     39  N   UNL A   1      43.424  29.153  28.981  1.00  0.00    -0.248 NA
ATOM     40  C   UNL A   1      42.299  29.386  26.970  1.00  0.00     0.031 C 
ATOM     41  C   UNL A   1      39.032  27.609  29.893  1.00  0.00     0.029 A 
ATOM     42  N   UNL A   1      40.195  29.440  30.302  1.00  0.00    -0.354 N 
ATOM     43  C   UNL A   1      44.062  30.124  28.216  1.00  0.00     0.074 A 
ATOM     44  C   UNL A   1      43.454  30.056  26.913  1.00  0.00     0.031 C 
ATOM     45  C   UNL A   1      38.204  28.462  30.537  1.00  0.00     0.029 A 
ATOM     46  C   UNL A   1      38.943  29.666  30.865  1.00  0.00     0.049 A 
ATOM     47  H   UNL A   1      40.946  30.067  30.409  1.00  0.00     0.167 HD
ATOM     48  C   UNL A   1      44.838  31.073  28.810  1.00  0.00     0.037 A 
ATOM     49  C   UNL A   1      38.544  30.757  31.563  1.00  0.00     0.037 A 
ATOM     50  C   UNL A   1      45.177  30.680  30.160  1.00  0.00     0.049 A 
ATOM     51  C   UNL A   1      39.774  31.404  32.083  1.00  0.00     0.074 A 
ATOM     52  C   UNL A   1      45.807  29.590  30.731  1.00  0.00     0.029 A 
ATOM     53  N   UNL A   1      44.493  31.292  31.183  1.00  0.00    -0.354 N 
ATOM     54  N   UNL A   1      40.554  30.868  32.982  1.00  0.00    -0.248 NA
ATOM     55  C   UNL A   1      40.374  32.463  31.290  1.00  0.00     0.031 C 
ATOM     56  C   UNL A   1      45.087  29.336  31.936  1.00  0.00     0.029 A 
ATOM     57  C   UNL A   1      44.114  30.327  32.078  1.00  0.00     0.049 A 
ATOM     58  H   UNL A   1      44.306  32.257  31.258  1.00  0.00     0.167 HD
ATOM     59  C   UNL A   1      41.837  31.198  32.575  1.00  0.00     0.074 A 
ATOM     60  C   UNL A   1      41.658  32.268  31.596  1.00  0.00     0.031 C 
ATOM     61  C   UNL A   1      42.897  30.386  32.862  1.00  0.00     0.037 A 
BRANCH  48  62
ATOM     62  C   UNL A   1      44.939  32.514  28.348  1.00  0.00     0.058 A 
ATOM     63  C   UNL A   1      46.210  33.037  28.021  1.00  0.00     0.135 A 
ATOM     64  C   UNL A   1      43.914  33.477  28.490  1.00  0.00     0.135 A 
ATOM     65  F   UNL A   1      47.264  32.222  27.850  1.00  0.00    -0.206 F 
ATOM     66  C   UNL A   1      46.463  34.408  27.946  1.00  0.00     0.059 A 
ATOM     67  C   UNL A   1      44.134  34.844  28.367  1.00  0.00     0.059 A 
ATOM     68  F   UNL A   1      42.666  33.159  28.846  1.00  0.00    -0.206 F 
ATOM     69  C   UNL A   1      45.419  35.304  28.140  1.00  0.00     0.060 A 
BRANCH  69  70
ATOM     70  S   UNL A   1      45.755  37.072  28.141  1.00  0.00     0.124 S 
ATOM     71  O   UNL A   1      47.116  37.106  28.663  1.00  0.00    -0.237 OA
ATOM     72  O   UNL A   1      45.599  37.407  26.729  1.00  0.00    -0.237 OA
ATOM     73  O   UNL A   1      44.723  37.607  29.024  1.00  0.00    -0.744 OA
ENDBRANCH  69  70
ENDBRANCH  48  62
BRANCH  49  74
ATOM     74  C   UNL A   1      37.222  31.439  31.571  1.00  0.00     0.058 A 
ATOM     75  C   UNL A   1      36.561  31.713  32.783  1.00  0.00     0.135 A 
ATOM     76  C   UNL A   1      36.732  32.109  30.433  1.00  0.00     0.135 A 
ATOM     77  F   UNL A   1      36.962  31.124  33.920  1.00  0.00    -0.206 F 
ATOM     78  C   UNL A   1      35.532  32.656  32.877  1.00  0.00     0.059 A 
ATOM     79  C   UNL A   1      35.700  33.045  30.500  1.00  0.00     0.059 A 
ATOM     80  F   UNL A   1      37.309  31.945  29.233  1.00  0.00    -0.206 F 
ATOM     81  C   UNL A   1      35.127  33.339  31.732  1.00  0.00     0.060 A 
BRANCH  81  82
ATOM     82  S   UNL A   1      33.947  34.702  31.886  1.00  0.00     0.124 S 
ATOM     83  O   UNL A   1      34.801  35.792  32.342  1.00  0.00    -0.237 OA
ATOM     84  O   UNL A   1      33.434  34.820  30.525  1.00  0.00    -0.237 OA
ATOM     85  O   UNL A   1      32.986  34.207  32.869  1.00  0.00    -0.744 OA
ENDBRANCH  81  82
ENDBRANCH  49  74
BRANCH  61  86
ATOM     86  C   UNL A   1      42.734  29.341  33.939  1.00  0.00     0.058 A 
ATOM     87  C   UNL A   1      42.888  29.564  35.319  1.00  0.00     0.135 A 
ATOM     88  C   UNL A   1      42.261  28.080  33.544  1.00  0.00     0.135 A 
ATOM     89  F   UNL A   1      43.244  30.767  35.792  1.00  0.00    -0.206 F 
ATOM     90  C   UNL A   1      42.617  28.563  36.258  1.00  0.00     0.059 A 
ATOM     91  C   UNL A   1      41.952  27.082  34.463  1.00  0.00     0.059 A 
ATOM     92  F   UNL A   1      42.042  27.819  32.245  1.00  0.00    -0.206 F 
ATOM     93  C   UNL A   1      42.145  27.325  35.820  1.00  0.00     0.060 A 
BRANCH  93  94
ATOM     94  S   UNL A   1      41.719  26.057  37.034  1.00  0.00     0.124 S 
ATOM     95  O   UNL A   1      42.819  26.163  37.988  1.00  0.00    -0.237 OA
ATOM     96  O   UNL A   1      40.416  26.505  37.516  1.00  0.00    -0.237 OA
ATOM     97  O   UNL A   1      41.693  24.825  36.248  1.00  0.00    -0.744 OA
ENDBRANCH  93  94
ENDBRANCH  61  86
ENDBRANCH  35  36
ENDBRANCH  27  30
ENDBRANCH  25  26
ENDBRANCH   1  25
TORSDOF 15
ENDMDL
