MODEL 1
REMARK VINA RESULT:     -12.4      0.000      0.000
REMARK SMILES Cc1cc2c(c(C)c1Br)C=C(C(=O)NCCCNC(=O)c1ccc(-c3c4nc(c(-c5c(F)cc(S(=O)(=O)[O-])cc5F)c5ccc([nH]5)c(-c5c(F)cc(S(=O)(=O)[O-])cc5F)c5nc(c(-c6c(F)cc(S(=O)(=O)[O-])cc6F)c6ccc3[nH]6)C=C5)C=C4)cc1)[C@@H](C(F)(F)F)O2
REMARK SMILES IDX 17 1 16 2 15 3 14 4 12 5 13 6 11 8 1 9 2 10 3 11 8 12 4 13
REMARK SMILES IDX 6 14 9 15 5 16 92 17 7 18 10 19 87 20 88 21 89 22 90 23
REMARK SMILES IDX 91 24 18 25 19 26 20 28 21 29 22 30 86 31 23 32 85 33 24 34
REMARK SMILES IDX 25 35 26 36 79 37 27 38 84 39 78 40 80 41 28 42 83 43 77 44
REMARK SMILES IDX 76 45 29 47 63 48 42 49 62 50 43 51 46 52 61 53 81 54 44 55
REMARK SMILES IDX 45 56 60 58 82 59 47 60 30 61 31 62 40 63 32 64 33 65 39 66
REMARK SMILES IDX 41 67 34 68 35 69 36 70 37 71 38 72 64 73 65 74 74 75 66 76
REMARK SMILES IDX 67 77 73 78 75 79 68 80 69 81 70 82 71 83 72 84 48 85 49 86
REMARK SMILES IDX 58 87 50 88 51 89 57 90 59 91 52 92 53 93 54 94 55 95 56 96
REMARK H PARENT 14 7 18 27 80 46 46 57
REMARK Flexibility Score: inf
ROOT
ATOM      1  C   UNL A   1      37.922  24.177  26.501  1.00  0.00     0.118 C 
ENDROOT
BRANCH   1   2
ATOM      2  C   UNL A   1      37.063  23.727  25.327  1.00  0.00     0.042 C 
BRANCH   2   3
ATOM      3  C   UNL A   1      35.658  24.302  25.390  1.00  0.00     0.118 C 
BRANCH   3   4
ATOM      4  N   UNL A   1      34.960  24.176  24.118  1.00  0.00    -0.352 N 
ATOM      5  C   UNL A   1      33.983  24.833  23.451  1.00  0.00     0.251 C 
ATOM      6  O   UNL A   1      33.700  24.368  22.342  1.00  0.00    -0.270 OA
ATOM      7  H   UNL A   1      35.289  23.404  23.604  1.00  0.00     0.163 HD
BRANCH   5   8
ATOM      8  C   UNL A   1      33.264  26.039  23.952  1.00  0.00     0.067 C 
ATOM      9  C   UNL A   1      31.274  31.685  26.497  1.00  0.00     0.046 C 
ATOM     10  C   UNL A   1      32.042  30.459  26.084  1.00  0.00    -0.033 A 
ATOM     11  C   UNL A   1      31.438  29.590  25.171  1.00  0.00     0.051 A 
ATOM     12  C   UNL A   1      33.323  30.139  26.582  1.00  0.00     0.024 A 
ATOM     13  C   UNL A   1      32.088  28.435  24.757  1.00  0.00     0.128 A 
ATOM     14  C   UNL A   1      34.006  28.971  26.153  1.00  0.00    -0.026 A 
ATOM     15  Br  UNL A   1      34.117  31.328  27.858  1.00  0.00    -0.050 Br
ATOM     16  C   UNL A   1      33.368  28.116  25.220  1.00  0.00     0.021 A 
ATOM     17  O   UNL A   1      31.404  27.682  23.847  1.00  0.00    -0.475 OA
ATOM     18  C   UNL A   1      35.388  28.610  26.647  1.00  0.00     0.046 C 
ATOM     19  C   UNL A   1      33.998  26.912  24.667  1.00  0.00     0.026 C 
ATOM     20  C   UNL A   1      31.806  26.296  23.723  1.00  0.00     0.314 C 
BRANCH  20  21
ATOM     21  C   UNL A   1      30.904  25.419  24.613  1.00  0.00     0.429 C 
ATOM     22  F   UNL A   1      29.807  26.111  25.010  1.00  0.00    -0.167 F 
ATOM     23  F   UNL A   1      30.448  24.317  23.970  1.00  0.00    -0.167 F 
ATOM     24  F   UNL A   1      31.534  24.984  25.728  1.00  0.00    -0.167 F 
ENDBRANCH  20  21
ENDBRANCH   5   8
ENDBRANCH   3   4
ENDBRANCH   2   3
ENDBRANCH   1   2
BRANCH   1  25
ATOM     25  N   UNL A   1      39.343  23.944  26.253  1.00  0.00    -0.352 N 
ATOM     26  C   UNL A   1      40.437  24.687  26.614  1.00  0.00     0.251 C 
ATOM     27  H   UNL A   1      39.546  23.124  25.746  1.00  0.00     0.163 HD
ATOM     28  O   UNL A   1      41.518  24.485  26.063  1.00  0.00    -0.269 OA
BRANCH  26  29
ATOM     29  C   UNL A   1      40.314  25.722  27.658  1.00  0.00     0.039 A 
ATOM     30  C   UNL A   1      39.381  25.557  28.684  1.00  0.00     0.014 A 
ATOM     31  C   UNL A   1      41.107  26.870  27.605  1.00  0.00     0.014 A 
ATOM     32  C   UNL A   1      39.291  26.520  29.691  1.00  0.00     0.010 A 
ATOM     33  C   UNL A   1      41.089  27.772  28.659  1.00  0.00     0.010 A 
ATOM     34  C   UNL A   1      40.169  27.616  29.704  1.00  0.00    -0.014 A 
BRANCH  34  35
ATOM     35  C   UNL A   1      40.119  28.636  30.778  1.00  0.00     0.031 A 
ATOM     36  C   UNL A   1      41.025  28.506  31.973  1.00  0.00     0.074 A 
ATOM     37  C   UNL A   1      39.220  29.638  30.704  1.00  0.00     0.049 A 
ATOM     38  N   UNL A   1      41.085  29.248  33.046  1.00  0.00    -0.248 NA
ATOM     39  C   UNL A   1      41.968  27.373  31.976  1.00  0.00     0.031 C 
ATOM     40  C   UNL A   1      38.258  29.833  29.617  1.00  0.00     0.029 A 
ATOM     41  N   UNL A   1      38.966  30.677  31.561  1.00  0.00    -0.354 N 
ATOM     42  C   UNL A   1      42.058  28.668  33.852  1.00  0.00     0.074 A 
ATOM     43  C   UNL A   1      42.517  27.476  33.177  1.00  0.00     0.031 C 
ATOM     44  C   UNL A   1      37.542  30.942  29.856  1.00  0.00     0.029 A 
ATOM     45  C   UNL A   1      37.963  31.515  31.131  1.00  0.00     0.049 A 
ATOM     46  H   UNL A   1      39.454  30.812  32.405  1.00  0.00     0.167 HD
ATOM     47  C   UNL A   1      42.548  29.111  35.033  1.00  0.00     0.037 A 
ATOM     48  C   UNL A   1      37.442  32.618  31.704  1.00  0.00     0.037 A 
ATOM     49  C   UNL A   1      42.110  30.320  35.676  1.00  0.00     0.049 A 
ATOM     50  C   UNL A   1      38.002  33.088  33.019  1.00  0.00     0.074 A 
ATOM     51  C   UNL A   1      42.584  30.891  36.843  1.00  0.00     0.029 A 
ATOM     52  N   UNL A   1      41.101  31.147  35.205  1.00  0.00    -0.354 N 
ATOM     53  N   UNL A   1      38.965  32.562  33.737  1.00  0.00    -0.248 NA
ATOM     54  C   UNL A   1      37.409  34.299  33.601  1.00  0.00     0.031 C 
ATOM     55  C   UNL A   1      41.830  32.039  37.103  1.00  0.00     0.029 A 
ATOM     56  C   UNL A   1      40.920  32.211  36.070  1.00  0.00     0.049 A 
ATOM     57  H   UNL A   1      40.589  30.998  34.377  1.00  0.00     0.167 HD
ATOM     58  C   UNL A   1      39.107  33.387  34.846  1.00  0.00     0.074 A 
ATOM     59  C   UNL A   1      38.143  34.458  34.694  1.00  0.00     0.031 C 
ATOM     60  C   UNL A   1      39.957  33.269  35.897  1.00  0.00     0.037 A 
BRANCH  47  61
ATOM     61  C   UNL A   1      43.628  28.302  35.695  1.00  0.00     0.058 A 
ATOM     62  C   UNL A   1      44.987  28.538  35.431  1.00  0.00     0.135 A 
ATOM     63  C   UNL A   1      43.308  27.325  36.651  1.00  0.00     0.135 A 
ATOM     64  F   UNL A   1      45.350  29.446  34.510  1.00  0.00    -0.206 F 
ATOM     65  C   UNL A   1      45.989  27.825  36.080  1.00  0.00     0.059 A 
ATOM     66  C   UNL A   1      44.294  26.620  37.334  1.00  0.00     0.059 A 
ATOM     67  F   UNL A   1      42.024  27.055  36.937  1.00  0.00    -0.206 F 
ATOM     68  C   UNL A   1      45.632  26.872  37.037  1.00  0.00     0.060 A 
BRANCH  68  69
ATOM     69  S   UNL A   1      46.950  25.986  37.894  1.00  0.00     0.124 S 
ATOM     70  O   UNL A   1      46.569  26.175  39.290  1.00  0.00    -0.237 OA
ATOM     71  O   UNL A   1      46.800  24.631  37.373  1.00  0.00    -0.237 OA
ATOM     72  O   UNL A   1      48.161  26.686  37.475  1.00  0.00    -0.744 OA
ENDBRANCH  68  69
ENDBRANCH  47  61
BRANCH  48  73
ATOM     73  C   UNL A   1      36.351  33.365  31.019  1.00  0.00     0.058 A 
ATOM     74  C   UNL A   1      35.041  33.347  31.520  1.00  0.00     0.135 A 
ATOM     75  C   UNL A   1      36.599  34.130  29.869  1.00  0.00     0.135 A 
ATOM     76  F   UNL A   1      34.751  32.625  32.613  1.00  0.00    -0.206 F 
ATOM     77  C   UNL A   1      34.013  34.050  30.900  1.00  0.00     0.059 A 
ATOM     78  C   UNL A   1      35.593  34.863  29.246  1.00  0.00     0.059 A 
ATOM     79  F   UNL A   1      37.839  34.196  29.359  1.00  0.00    -0.206 F 
ATOM     80  C   UNL A   1      34.300  34.809  29.765  1.00  0.00     0.060 A 
BRANCH  80  81
ATOM     81  S   UNL A   1      32.968  35.758  29.001  1.00  0.00     0.124 S 
ATOM     82  O   UNL A   1      32.174  36.139  30.164  1.00  0.00    -0.237 OA
ATOM     83  O   UNL A   1      33.699  36.837  28.344  1.00  0.00    -0.237 OA
ATOM     84  O   UNL A   1      32.343  34.795  28.098  1.00  0.00    -0.744 OA
ENDBRANCH  80  81
ENDBRANCH  48  73
BRANCH  60  85
ATOM     85  C   UNL A   1      39.899  34.327  36.963  1.00  0.00     0.058 A 
ATOM     86  C   UNL A   1      40.553  35.558  36.807  1.00  0.00     0.135 A 
ATOM     87  C   UNL A   1      39.107  34.141  38.107  1.00  0.00     0.135 A 
ATOM     88  F   UNL A   1      41.327  35.781  35.733  1.00  0.00    -0.206 F 
ATOM     89  C   UNL A   1      40.432  36.567  37.755  1.00  0.00     0.059 A 
ATOM     90  C   UNL A   1      38.948  35.148  39.055  1.00  0.00     0.059 A 
ATOM     91  F   UNL A   1      38.451  32.986  38.296  1.00  0.00    -0.206 F 
ATOM     92  C   UNL A   1      39.620  36.355  38.872  1.00  0.00     0.060 A 
BRANCH  92  93
ATOM     93  S   UNL A   1      39.430  37.698  40.064  1.00  0.00     0.124 S 
ATOM     94  O   UNL A   1      40.692  38.413  39.905  1.00  0.00    -0.237 OA
ATOM     95  O   UNL A   1      38.243  38.387  39.568  1.00  0.00    -0.237 OA
ATOM     96  O   UNL A   1      39.259  37.003  41.336  1.00  0.00    -0.744 OA
ENDBRANCH  92  93
ENDBRANCH  60  85
ENDBRANCH  34  35
ENDBRANCH  26  29
ENDBRANCH   1  25
TORSDOF 14
ENDMDL
MODEL 2
REMARK VINA RESULT:     -12.4      1.750      2.492
REMARK SMILES Cc1cc2c(c(C)c1Br)C=C(C(=O)NCCCNC(=O)c1ccc(-c3c4nc(c(-c5c(F)cc(S(=O)(=O)[O-])cc5F)c5ccc([nH]5)c(-c5c(F)cc(S(=O)(=O)[O-])cc5F)c5nc(c(-c6c(F)cc(S(=O)(=O)[O-])cc6F)c6ccc3[nH]6)C=C5)C=C4)cc1)[C@@H](C(F)(F)F)O2
REMARK SMILES IDX 17 1 16 2 15 3 14 4 12 5 13 6 11 8 1 9 2 10 3 11 8 12 4 13
REMARK SMILES IDX 6 14 9 15 5 16 92 17 7 18 10 19 87 20 88 21 89 22 90 23
REMARK SMILES IDX 91 24 18 25 19 26 20 28 21 29 22 30 86 31 23 32 85 33 24 34
REMARK SMILES IDX 25 35 26 36 79 37 27 38 84 39 78 40 80 41 28 42 83 43 77 44
REMARK SMILES IDX 76 45 29 47 63 48 42 49 62 50 43 51 46 52 61 53 81 54 44 55
REMARK SMILES IDX 45 56 60 58 82 59 47 60 30 61 31 62 40 63 32 64 33 65 39 66
REMARK SMILES IDX 41 67 34 68 35 69 36 70 37 71 38 72 64 73 65 74 74 75 66 76
REMARK SMILES IDX 67 77 73 78 75 79 68 80 69 81 70 82 71 83 72 84 48 85 49 86
REMARK SMILES IDX 58 87 50 88 51 89 57 90 59 91 52 92 53 93 54 94 55 95 56 96
REMARK H PARENT 14 7 18 27 80 46 46 57
REMARK Flexibility Score: inf
ROOT
ATOM      1  C   UNL A   1      39.574  23.601  27.022  1.00  0.00     0.118 C 
ENDROOT
BRANCH   1   2
ATOM      2  C   UNL A   1      38.185  23.709  26.408  1.00  0.00     0.042 C 
BRANCH   2   3
ATOM      3  C   UNL A   1      37.747  22.412  25.747  1.00  0.00     0.118 C 
BRANCH   3   4
ATOM      4  N   UNL A   1      37.498  22.582  24.323  1.00  0.00    -0.352 N 
ATOM      5  C   UNL A   1      36.446  22.877  23.526  1.00  0.00     0.251 C 
ATOM      6  O   UNL A   1      36.701  22.938  22.319  1.00  0.00    -0.270 OA
ATOM      7  H   UNL A   1      38.319  22.446  23.797  1.00  0.00     0.163 HD
BRANCH   5   8
ATOM      8  C   UNL A   1      35.055  23.131  24.001  1.00  0.00     0.067 C 
ATOM      9  C   UNL A   1      29.362  25.443  26.137  1.00  0.00     0.046 C 
ATOM     10  C   UNL A   1      30.799  25.237  25.740  1.00  0.00    -0.033 A 
ATOM     11  C   UNL A   1      31.130  24.044  25.091  1.00  0.00     0.051 A 
ATOM     12  C   UNL A   1      31.821  26.175  26.003  1.00  0.00     0.024 A 
ATOM     13  C   UNL A   1      32.440  23.787  24.708  1.00  0.00     0.128 A 
ATOM     14  C   UNL A   1      33.160  25.932  25.600  1.00  0.00    -0.026 A 
ATOM     15  Br  UNL A   1      31.349  27.788  26.922  1.00  0.00    -0.050 Br
ATOM     16  C   UNL A   1      33.459  24.715  24.937  1.00  0.00     0.021 A 
ATOM     17  O   UNL A   1      32.630  22.599  24.065  1.00  0.00    -0.475 OA
ATOM     18  C   UNL A   1      34.275  26.923  25.844  1.00  0.00     0.046 C 
ATOM     19  C   UNL A   1      34.795  24.380  24.430  1.00  0.00     0.026 C 
ATOM     20  C   UNL A   1      33.984  22.085  24.043  1.00  0.00     0.314 C 
BRANCH  20  21
ATOM     21  C   UNL A   1      34.174  21.092  25.207  1.00  0.00     0.429 C 
ATOM     22  F   UNL A   1      34.522  21.747  26.342  1.00  0.00    -0.167 F 
ATOM     23  F   UNL A   1      33.043  20.403  25.496  1.00  0.00    -0.167 F 
ATOM     24  F   UNL A   1      35.134  20.173  24.959  1.00  0.00    -0.167 F 
ENDBRANCH  20  21
ENDBRANCH   5   8
ENDBRANCH   3   4
ENDBRANCH   2   3
ENDBRANCH   1   2
BRANCH   1  25
ATOM     25  N   UNL A   1      40.602  24.136  26.132  1.00  0.00    -0.352 N 
ATOM     26  C   UNL A   1      41.193  25.373  26.106  1.00  0.00     0.251 C 
ATOM     27  H   UNL A   1      40.921  23.508  25.443  1.00  0.00     0.163 HD
ATOM     28  O   UNL A   1      41.816  25.728  25.108  1.00  0.00    -0.269 OA
BRANCH  26  29
ATOM     29  C   UNL A   1      41.079  26.269  27.272  1.00  0.00     0.039 A 
ATOM     30  C   UNL A   1      41.901  27.396  27.358  1.00  0.00     0.014 A 
ATOM     31  C   UNL A   1      40.174  25.980  28.295  1.00  0.00     0.014 A 
ATOM     32  C   UNL A   1      41.766  28.263  28.443  1.00  0.00     0.010 A 
ATOM     33  C   UNL A   1      39.970  26.895  29.318  1.00  0.00     0.010 A 
ATOM     34  C   UNL A   1      40.776  28.037  29.413  1.00  0.00    -0.014 A 
BRANCH  34  35
ATOM     35  C   UNL A   1      40.588  28.958  30.558  1.00  0.00     0.031 A 
ATOM     36  C   UNL A   1      41.440  28.802  31.788  1.00  0.00     0.074 A 
ATOM     37  C   UNL A   1      39.614  29.890  30.511  1.00  0.00     0.049 A 
ATOM     38  N   UNL A   1      41.384  29.456  32.918  1.00  0.00    -0.248 NA
ATOM     39  C   UNL A   1      42.472  27.751  31.757  1.00  0.00     0.031 C 
ATOM     40  C   UNL A   1      38.695  30.096  29.388  1.00  0.00     0.029 A 
ATOM     41  N   UNL A   1      39.232  30.832  31.429  1.00  0.00    -0.354 N 
ATOM     42  C   UNL A   1      42.360  28.891  33.731  1.00  0.00     0.074 A 
ATOM     43  C   UNL A   1      42.950  27.798  32.992  1.00  0.00     0.031 C 
ATOM     44  C   UNL A   1      37.878  31.123  29.672  1.00  0.00     0.029 A 
ATOM     45  C   UNL A   1      38.186  31.621  31.009  1.00  0.00     0.049 A 
ATOM     46  H   UNL A   1      39.664  30.935  32.307  1.00  0.00     0.167 HD
ATOM     47  C   UNL A   1      42.751  29.273  34.968  1.00  0.00     0.037 A 
ATOM     48  C   UNL A   1      37.547  32.629  31.635  1.00  0.00     0.037 A 
ATOM     49  C   UNL A   1      42.183  30.388  35.676  1.00  0.00     0.049 A 
ATOM     50  C   UNL A   1      37.999  33.033  33.012  1.00  0.00     0.074 A 
ATOM     51  C   UNL A   1      42.549  30.897  36.909  1.00  0.00     0.029 A 
ATOM     52  N   UNL A   1      41.134  31.168  35.214  1.00  0.00    -0.354 N 
ATOM     53  N   UNL A   1      38.965  32.526  33.741  1.00  0.00    -0.248 NA
ATOM     54  C   UNL A   1      37.280  34.141  33.652  1.00  0.00     0.031 C 
ATOM     55  C   UNL A   1      41.690  31.957  37.214  1.00  0.00     0.029 A 
ATOM     56  C   UNL A   1      40.822  32.141  36.148  1.00  0.00     0.049 A 
ATOM     57  H   UNL A   1      40.678  31.048  34.350  1.00  0.00     0.167 HD
ATOM     58  C   UNL A   1      38.983  33.267  34.917  1.00  0.00     0.074 A 
ATOM     59  C   UNL A   1      37.942  34.267  34.794  1.00  0.00     0.031 C 
ATOM     60  C   UNL A   1      39.785  33.131  36.002  1.00  0.00     0.037 A 
BRANCH  47  61
ATOM     61  C   UNL A   1      43.860  28.500  35.625  1.00  0.00     0.058 A 
ATOM     62  C   UNL A   1      45.209  28.834  35.421  1.00  0.00     0.135 A 
ATOM     63  C   UNL A   1      43.573  27.456  36.520  1.00  0.00     0.135 A 
ATOM     64  F   UNL A   1      45.542  29.809  34.559  1.00  0.00    -0.206 F 
ATOM     65  C   UNL A   1      46.233  28.152  36.068  1.00  0.00     0.059 A 
ATOM     66  C   UNL A   1      44.581  26.780  37.201  1.00  0.00     0.059 A 
ATOM     67  F   UNL A   1      42.301  27.092  36.748  1.00  0.00    -0.206 F 
ATOM     68  C   UNL A   1      45.909  27.131  36.963  1.00  0.00     0.060 A 
BRANCH  68  69
ATOM     69  S   UNL A   1      47.253  26.285  37.820  1.00  0.00     0.124 S 
ATOM     70  O   UNL A   1      48.415  27.034  37.353  1.00  0.00    -0.237 OA
ATOM     71  O   UNL A   1      46.896  26.476  39.221  1.00  0.00    -0.237 OA
ATOM     72  O   UNL A   1      47.157  24.911  37.333  1.00  0.00    -0.744 OA
ENDBRANCH  68  69
ENDBRANCH  47  61
BRANCH  48  73
ATOM     73  C   UNL A   1      36.434  33.341  30.949  1.00  0.00     0.058 A 
ATOM     74  C   UNL A   1      35.110  33.199  31.387  1.00  0.00     0.135 A 
ATOM     75  C   UNL A   1      36.673  34.197  29.862  1.00  0.00     0.135 A 
ATOM     76  F   UNL A   1      34.828  32.388  32.418  1.00  0.00    -0.206 F 
ATOM     77  C   UNL A   1      34.059  33.868  30.766  1.00  0.00     0.059 A 
ATOM     78  C   UNL A   1      35.644  34.897  29.240  1.00  0.00     0.059 A 
ATOM     79  F   UNL A   1      37.925  34.383  29.415  1.00  0.00    -0.206 F 
ATOM     80  C   UNL A   1      34.337  34.719  29.695  1.00  0.00     0.060 A 
BRANCH  80  81
ATOM     81  S   UNL A   1      32.972  35.620  28.932  1.00  0.00     0.124 S 
ATOM     82  O   UNL A   1      32.201  36.031  30.100  1.00  0.00    -0.237 OA
ATOM     83  O   UNL A   1      33.671  36.686  28.221  1.00  0.00    -0.237 OA
ATOM     84  O   UNL A   1      32.341  34.617  28.079  1.00  0.00    -0.744 OA
ENDBRANCH  80  81
ENDBRANCH  48  73
BRANCH  60  85
ATOM     85  C   UNL A   1      39.586  34.090  37.141  1.00  0.00     0.058 A 
ATOM     86  C   UNL A   1      38.871  33.722  38.291  1.00  0.00     0.135 A 
ATOM     87  C   UNL A   1      40.194  35.355  37.121  1.00  0.00     0.135 A 
ATOM     88  F   UNL A   1      38.266  32.525  38.356  1.00  0.00    -0.206 F 
ATOM     89  C   UNL A   1      38.758  34.579  39.379  1.00  0.00     0.059 A 
ATOM     90  C   UNL A   1      40.118  36.219  38.210  1.00  0.00     0.059 A 
ATOM     91  F   UNL A   1      40.900  35.749  36.049  1.00  0.00    -0.206 F 
ATOM     92  C   UNL A   1      39.392  35.823  39.332  1.00  0.00     0.060 A 
BRANCH  92  93
ATOM     93  S   UNL A   1      39.281  36.900  40.776  1.00  0.00     0.124 S 
ATOM     94  O   UNL A   1      40.688  37.163  41.057  1.00  0.00    -0.237 OA
ATOM     95  O   UNL A   1      38.514  38.030  40.261  1.00  0.00    -0.237 OA
ATOM     96  O   UNL A   1      38.588  36.077  41.763  1.00  0.00    -0.744 OA
ENDBRANCH  92  93
ENDBRANCH  60  85
ENDBRANCH  34  35
ENDBRANCH  26  29
ENDBRANCH   1  25
TORSDOF 14
ENDMDL
MODEL 3
REMARK VINA RESULT:     -12.4      6.881     12.182
REMARK SMILES Cc1cc2c(c(C)c1Br)C=C(C(=O)NCCCNC(=O)c1ccc(-c3c4nc(c(-c5c(F)cc(S(=O)(=O)[O-])cc5F)c5ccc([nH]5)c(-c5c(F)cc(S(=O)(=O)[O-])cc5F)c5nc(c(-c6c(F)cc(S(=O)(=O)[O-])cc6F)c6ccc3[nH]6)C=C5)C=C4)cc1)[C@@H](C(F)(F)F)O2
REMARK SMILES IDX 17 1 16 2 15 3 14 4 12 5 13 6 11 8 1 9 2 10 3 11 8 12 4 13
REMARK SMILES IDX 6 14 9 15 5 16 92 17 7 18 10 19 87 20 88 21 89 22 90 23
REMARK SMILES IDX 91 24 18 25 19 26 20 28 21 29 22 30 86 31 23 32 85 33 24 34
REMARK SMILES IDX 25 35 26 36 79 37 27 38 84 39 78 40 80 41 28 42 83 43 77 44
REMARK SMILES IDX 76 45 29 47 63 48 42 49 62 50 43 51 46 52 61 53 81 54 44 55
REMARK SMILES IDX 45 56 60 58 82 59 47 60 30 61 31 62 40 63 32 64 33 65 39 66
REMARK SMILES IDX 41 67 34 68 35 69 36 70 37 71 38 72 64 73 65 74 74 75 66 76
REMARK SMILES IDX 67 77 73 78 75 79 68 80 69 81 70 82 71 83 72 84 48 85 49 86
REMARK SMILES IDX 58 87 50 88 51 89 57 90 59 91 52 92 53 93 54 94 55 95 56 96
REMARK H PARENT 14 7 18 27 80 46 46 57
REMARK Flexibility Score: inf
ROOT
ATOM      1  C   UNL A   1      35.138  29.329  27.521  1.00  0.00     0.118 C 
ENDROOT
BRANCH   1   2
ATOM      2  C   UNL A   1      33.740  28.762  27.317  1.00  0.00     0.042 C 
BRANCH   2   3
ATOM      3  C   UNL A   1      32.983  29.482  26.213  1.00  0.00     0.118 C 
BRANCH   3   4
ATOM      4  N   UNL A   1      33.638  29.342  24.920  1.00  0.00    -0.352 N 
ATOM      5  C   UNL A   1      33.823  28.367  24.001  1.00  0.00     0.251 C 
ATOM      6  O   UNL A   1      34.456  28.706  22.996  1.00  0.00    -0.270 OA
ATOM      7  H   UNL A   1      34.061  30.185  24.640  1.00  0.00     0.163 HD
BRANCH   5   8
ATOM      8  C   UNL A   1      33.321  26.968  24.120  1.00  0.00     0.067 C 
ATOM      9  C   UNL A   1      32.285  20.619  25.087  1.00  0.00     0.046 C 
ATOM     10  C   UNL A   1      32.871  21.994  24.916  1.00  0.00    -0.033 A 
ATOM     11  C   UNL A   1      31.986  23.064  24.758  1.00  0.00     0.051 A 
ATOM     12  C   UNL A   1      34.260  22.250  24.891  1.00  0.00     0.024 A 
ATOM     13  C   UNL A   1      32.462  24.358  24.585  1.00  0.00     0.128 A 
ATOM     14  C   UNL A   1      34.759  23.570  24.732  1.00  0.00    -0.026 A 
ATOM     15  Br  UNL A   1      35.454  20.764  25.076  1.00  0.00    -0.050 Br
ATOM     16  C   UNL A   1      33.833  24.633  24.584  1.00  0.00     0.021 A 
ATOM     17  O   UNL A   1      31.499  25.316  24.465  1.00  0.00    -0.475 OA
ATOM     18  C   UNL A   1      36.238  23.884  24.725  1.00  0.00     0.046 C 
ATOM     19  C   UNL A   1      34.232  26.040  24.466  1.00  0.00     0.026 C 
ATOM     20  C   UNL A   1      31.903  26.565  23.853  1.00  0.00     0.314 C 
BRANCH  20  21
ATOM     21  C   UNL A   1      31.571  26.530  22.348  1.00  0.00     0.429 C 
ATOM     22  F   UNL A   1      30.774  25.471  22.060  1.00  0.00    -0.167 F 
ATOM     23  F   UNL A   1      30.903  27.634  21.935  1.00  0.00    -0.167 F 
ATOM     24  F   UNL A   1      32.674  26.431  21.572  1.00  0.00    -0.167 F 
ENDBRANCH  20  21
ENDBRANCH   5   8
ENDBRANCH   3   4
ENDBRANCH   2   3
ENDBRANCH   1   2
BRANCH   1  25
ATOM     25  N   UNL A   1      35.225  30.124  28.745  1.00  0.00    -0.352 N 
ATOM     26  C   UNL A   1      36.247  30.242  29.651  1.00  0.00     0.251 C 
ATOM     27  H   UNL A   1      34.424  30.659  28.950  1.00  0.00     0.163 HD
ATOM     28  O   UNL A   1      36.024  30.722  30.760  1.00  0.00    -0.269 OA
BRANCH  26  29
ATOM     29  C   UNL A   1      37.606  29.792  29.293  1.00  0.00     0.039 A 
ATOM     30  C   UNL A   1      38.026  29.860  27.963  1.00  0.00     0.014 A 
ATOM     31  C   UNL A   1      38.457  29.279  30.274  1.00  0.00     0.014 A 
ATOM     32  C   UNL A   1      39.324  29.468  27.632  1.00  0.00     0.010 A 
ATOM     33  C   UNL A   1      39.777  28.989  29.962  1.00  0.00     0.010 A 
ATOM     34  C   UNL A   1      40.220  29.063  28.635  1.00  0.00    -0.014 A 
BRANCH  34  35
ATOM     35  C   UNL A   1      41.614  28.674  28.318  1.00  0.00     0.031 A 
ATOM     36  C   UNL A   1      42.697  29.720  28.309  1.00  0.00     0.074 A 
ATOM     37  C   UNL A   1      41.890  27.398  27.980  1.00  0.00     0.049 A 
ATOM     38  N   UNL A   1      43.958  29.598  27.990  1.00  0.00    -0.248 NA
ATOM     39  C   UNL A   1      42.304  31.091  28.680  1.00  0.00     0.031 C 
ATOM     40  C   UNL A   1      40.908  26.313  27.905  1.00  0.00     0.029 A 
ATOM     41  N   UNL A   1      43.072  26.800  27.632  1.00  0.00    -0.354 N 
ATOM     42  C   UNL A   1      44.503  30.871  28.109  1.00  0.00     0.074 A 
ATOM     43  C   UNL A   1      43.425  31.765  28.467  1.00  0.00     0.031 C 
ATOM     44  C   UNL A   1      41.536  25.175  27.568  1.00  0.00     0.029 A 
ATOM     45  C   UNL A   1      42.953  25.456  27.361  1.00  0.00     0.049 A 
ATOM     46  H   UNL A   1      43.927  27.285  27.581  1.00  0.00     0.167 HD
ATOM     47  C   UNL A   1      45.792  31.253  27.968  1.00  0.00     0.037 A 
ATOM     48  C   UNL A   1      43.883  24.556  26.986  1.00  0.00     0.037 A 
ATOM     49  C   UNL A   1      46.863  30.346  27.652  1.00  0.00     0.049 A 
ATOM     50  C   UNL A   1      45.311  25.006  26.833  1.00  0.00     0.074 A 
ATOM     51  C   UNL A   1      48.215  30.620  27.545  1.00  0.00     0.029 A 
ATOM     52  N   UNL A   1      46.704  28.992  27.395  1.00  0.00    -0.354 N 
ATOM     53  N   UNL A   1      45.819  26.203  27.010  1.00  0.00    -0.248 NA
ATOM     54  C   UNL A   1      46.291  23.989  26.431  1.00  0.00     0.031 C 
ATOM     55  C   UNL A   1      48.869  29.439  27.179  1.00  0.00     0.029 A 
ATOM     56  C   UNL A   1      47.931  28.420  27.107  1.00  0.00     0.049 A 
ATOM     57  H   UNL A   1      45.847  28.510  27.415  1.00  0.00     0.167 HD
ATOM     58  C   UNL A   1      47.180  26.079  26.760  1.00  0.00     0.074 A 
ATOM     59  C   UNL A   1      47.419  24.686  26.437  1.00  0.00     0.031 C 
ATOM     60  C   UNL A   1      48.146  27.030  26.792  1.00  0.00     0.037 A 
BRANCH  47  61
ATOM     61  C   UNL A   1      46.125  32.703  28.179  1.00  0.00     0.058 A 
ATOM     62  C   UNL A   1      46.535  33.188  29.431  1.00  0.00     0.135 A 
ATOM     63  C   UNL A   1      46.097  33.608  27.105  1.00  0.00     0.135 A 
ATOM     64  F   UNL A   1      46.560  32.371  30.498  1.00  0.00    -0.206 F 
ATOM     65  C   UNL A   1      46.891  34.519  29.616  1.00  0.00     0.059 A 
ATOM     66  C   UNL A   1      46.477  34.938  27.260  1.00  0.00     0.059 A 
ATOM     67  F   UNL A   1      45.707  33.199  25.887  1.00  0.00    -0.206 F 
ATOM     68  C   UNL A   1      46.866  35.385  28.521  1.00  0.00     0.060 A 
BRANCH  68  69
ATOM     69  S   UNL A   1      47.369  37.100  28.775  1.00  0.00     0.124 S 
ATOM     70  O   UNL A   1      47.297  37.214  30.229  1.00  0.00    -0.237 OA
ATOM     71  O   UNL A   1      48.711  37.117  28.203  1.00  0.00    -0.237 OA
ATOM     72  O   UNL A   1      46.366  37.863  28.037  1.00  0.00    -0.744 OA
ENDBRANCH  68  69
ENDBRANCH  47  61
BRANCH  48  73
ATOM     73  C   UNL A   1      43.494  23.137  26.761  1.00  0.00     0.058 A 
ATOM     74  C   UNL A   1      43.462  22.595  25.468  1.00  0.00     0.135 A 
ATOM     75  C   UNL A   1      43.171  22.288  27.832  1.00  0.00     0.135 A 
ATOM     76  F   UNL A   1      43.756  23.367  24.410  1.00  0.00    -0.206 F 
ATOM     77  C   UNL A   1      43.113  21.267  25.241  1.00  0.00     0.059 A 
ATOM     78  C   UNL A   1      42.844  20.950  27.633  1.00  0.00     0.059 A 
ATOM     79  F   UNL A   1      43.204  22.752  29.091  1.00  0.00    -0.206 F 
ATOM     80  C   UNL A   1      42.810  20.451  26.332  1.00  0.00     0.060 A 
BRANCH  80  81
ATOM     81  S   UNL A   1      42.410  18.717  26.027  1.00  0.00     0.124 S 
ATOM     82  O   UNL A   1      41.000  18.800  25.664  1.00  0.00    -0.237 OA
ATOM     83  O   UNL A   1      43.330  18.377  24.946  1.00  0.00    -0.237 OA
ATOM     84  O   UNL A   1      42.695  18.076  27.307  1.00  0.00    -0.744 OA
ENDBRANCH  80  81
ENDBRANCH  48  73
BRANCH  60  85
ATOM     85  C   UNL A   1      49.554  26.606  26.485  1.00  0.00     0.058 A 
ATOM     86  C   UNL A   1      50.362  25.993  27.456  1.00  0.00     0.135 A 
ATOM     87  C   UNL A   1      50.068  26.729  25.184  1.00  0.00     0.135 A 
ATOM     88  F   UNL A   1      49.918  25.857  28.716  1.00  0.00    -0.206 F 
ATOM     89  C   UNL A   1      51.634  25.525  27.150  1.00  0.00     0.059 A 
ATOM     90  C   UNL A   1      51.327  26.243  24.848  1.00  0.00     0.059 A 
ATOM     91  F   UNL A   1      49.330  27.297  24.218  1.00  0.00    -0.206 F 
ATOM     92  C   UNL A   1      52.105  25.647  25.840  1.00  0.00     0.060 A 
BRANCH  92  93
ATOM     93  S   UNL A   1      53.737  24.984  25.448  1.00  0.00     0.124 S 
ATOM     94  O   UNL A   1      53.448  23.563  25.290  1.00  0.00    -0.237 OA
ATOM     95  O   UNL A   1      54.078  25.702  24.224  1.00  0.00    -0.237 OA
ATOM     96  O   UNL A   1      54.538  25.335  26.618  1.00  0.00    -0.744 OA
ENDBRANCH  92  93
ENDBRANCH  60  85
ENDBRANCH  34  35
ENDBRANCH  26  29
ENDBRANCH   1  25
TORSDOF 14
ENDMDL
