MODEL 1
REMARK VINA RESULT:     -10.3      0.000      0.000
REMARK SMILES CCC(CC)(NC(=O)N[C@H](C)C1CC1)C(=O)NCCCNC(=O)c1ccc(-c2c3nc(c(-c4c(F)cc(S(=O)(=O)[O-])cc4F)c4ccc([nH]4)c(-c4c(F)cc(S(=O)(=O)[O-])cc4F)c4nc(c(-c5c(F)cc(S(=O)(=O)[O-])cc5F)c5ccc2[nH]5)C=C4)C=C3)cc1
REMARK SMILES IDX 19 1 18 2 17 3 15 4 16 5 3 7 2 8 1 9 4 10 5 11 6 12 7 13
REMARK SMILES IDX 8 15 9 16 10 18 11 19 12 20 13 21 14 22 20 23 21 24 22 25
REMARK SMILES IDX 23 27 24 28 25 29 89 30 26 31 88 32 27 33 28 34 29 35 82 36
REMARK SMILES IDX 30 37 87 38 81 39 83 40 31 41 86 42 80 43 79 44 32 46 66 47
REMARK SMILES IDX 45 48 65 49 46 50 49 51 64 52 84 53 47 54 48 55 63 57 85 58
REMARK SMILES IDX 50 59 33 60 34 61 43 62 35 63 36 64 42 65 44 66 37 67 38 68
REMARK SMILES IDX 39 69 40 70 41 71 67 72 68 73 77 74 69 75 70 76 76 77 78 78
REMARK SMILES IDX 71 79 72 80 73 81 74 82 75 83 51 84 52 85 61 86 53 87 54 88
REMARK SMILES IDX 60 89 62 90 55 91 56 92 57 93 58 94 59 95
REMARK H PARENT 17 6 6 14 9 17 21 26 83 45 49 56
REMARK Flexibility Score: inf
ROOT
ATOM      1  C   UNL A   1      32.334  27.866  26.960  1.00  0.00     0.042 C 
ENDROOT
BRANCH   1   2
ATOM      2  C   UNL A   1      31.817  28.009  25.521  1.00  0.00     0.117 C 
BRANCH   2   3
ATOM      3  N   UNL A   1      32.869  27.809  24.526  1.00  0.00    -0.354 N 
ATOM      4  C   UNL A   1      32.868  26.965  23.423  1.00  0.00     0.245 C 
ATOM      5  O   UNL A   1      32.816  27.405  22.279  1.00  0.00    -0.272 OA
ATOM      6  H   UNL A   1      33.685  28.344  24.654  1.00  0.00     0.163 HD
BRANCH   4   7
ATOM      7  C   UNL A   1      32.825  25.445  23.757  1.00  0.00     0.120 C 
BRANCH   7   8
ATOM      8  C   UNL A   1      31.600  24.809  24.442  1.00  0.00     0.035 C 
ATOM      9  C   UNL A   1      30.253  24.892  23.745  1.00  0.00     0.007 C 
ENDBRANCH   7   8
BRANCH   7  10
ATOM     10  C   UNL A   1      34.058  25.318  24.731  1.00  0.00     0.035 C 
ATOM     11  C   UNL A   1      33.850  24.697  26.103  1.00  0.00     0.007 C 
ENDBRANCH   7  10
BRANCH   7  12
ATOM     12  N   UNL A   1      33.024  24.728  22.472  1.00  0.00    -0.324 N 
ATOM     13  C   UNL A   1      33.316  23.493  22.068  1.00  0.00     0.315 C 
ATOM     14  H   UNL A   1      32.906  25.333  21.706  1.00  0.00     0.166 HD
ATOM     15  O   UNL A   1      33.522  23.383  20.853  1.00  0.00    -0.249 OA
ATOM     16  N   UNL A   1      33.307  22.338  22.728  1.00  0.00    -0.335 N 
ATOM     17  H   UNL A   1      33.270  21.666  22.010  1.00  0.00     0.165 HD
BRANCH  16  18
ATOM     18  C   UNL A   1      33.323  21.508  23.977  1.00  0.00     0.083 C 
ATOM     19  C   UNL A   1      32.085  21.170  24.821  1.00  0.00     0.031 C 
BRANCH  18  20
ATOM     20  C   UNL A   1      34.535  21.694  24.851  1.00  0.00     0.011 C 
ATOM     21  C   UNL A   1      35.642  20.685  24.982  1.00  0.00     0.006 C 
ATOM     22  C   UNL A   1      35.873  21.969  24.225  1.00  0.00     0.006 C 
ENDBRANCH  18  20
ENDBRANCH  16  18
ENDBRANCH   7  12
ENDBRANCH   4   7
ENDBRANCH   2   3
ENDBRANCH   1   2
BRANCH   1  23
ATOM     23  C   UNL A   1      33.681  28.513  27.251  1.00  0.00     0.118 C 
BRANCH  23  24
ATOM     24  N   UNL A   1      33.560  29.911  27.610  1.00  0.00    -0.352 N 
ATOM     25  C   UNL A   1      34.474  30.713  28.254  1.00  0.00     0.251 C 
ATOM     26  H   UNL A   1      32.712  30.345  27.359  1.00  0.00     0.163 HD
ATOM     27  O   UNL A   1      34.155  31.813  28.670  1.00  0.00    -0.269 OA
BRANCH  25  28
ATOM     28  C   UNL A   1      35.850  30.205  28.453  1.00  0.00     0.039 A 
ATOM     29  C   UNL A   1      36.746  30.240  27.383  1.00  0.00     0.014 A 
ATOM     30  C   UNL A   1      36.253  29.718  29.699  1.00  0.00     0.014 A 
ATOM     31  C   UNL A   1      38.071  29.839  27.580  1.00  0.00     0.010 A 
ATOM     32  C   UNL A   1      37.588  29.381  29.909  1.00  0.00     0.010 A 
ATOM     33  C   UNL A   1      38.512  29.437  28.853  1.00  0.00    -0.014 A 
BRANCH  33  34
ATOM     34  C   UNL A   1      39.930  29.068  29.106  1.00  0.00     0.031 A 
ATOM     35  C   UNL A   1      40.894  30.102  29.624  1.00  0.00     0.074 A 
ATOM     36  C   UNL A   1      40.371  27.831  28.800  1.00  0.00     0.049 A 
ATOM     37  N   UNL A   1      42.189  30.019  29.786  1.00  0.00    -0.248 NA
ATOM     38  C   UNL A   1      40.328  31.413  29.980  1.00  0.00     0.031 C 
ATOM     39  C   UNL A   1      39.545  26.745  28.269  1.00  0.00     0.029 A 
ATOM     40  N   UNL A   1      41.629  27.282  28.874  1.00  0.00    -0.354 N 
ATOM     41  C   UNL A   1      42.596  31.267  30.243  1.00  0.00     0.074 A 
ATOM     42  C   UNL A   1      41.415  32.104  30.287  1.00  0.00     0.031 C 
ATOM     43  C   UNL A   1      40.314  25.661  28.073  1.00  0.00     0.029 A 
ATOM     44  C   UNL A   1      41.695  25.986  28.419  1.00  0.00     0.049 A 
ATOM     45  H   UNL A   1      42.410  27.771  29.219  1.00  0.00     0.167 HD
ATOM     46  C   UNL A   1      43.835  31.674  30.609  1.00  0.00     0.037 A 
ATOM     47  C   UNL A   1      42.749  25.158  28.276  1.00  0.00     0.037 A 
ATOM     48  C   UNL A   1      45.001  30.829  30.583  1.00  0.00     0.049 A 
ATOM     49  C   UNL A   1      44.121  25.639  28.669  1.00  0.00     0.074 A 
ATOM     50  C   UNL A   1      46.293  31.135  30.976  1.00  0.00     0.029 A 
ATOM     51  N   UNL A   1      45.020  29.515  30.139  1.00  0.00    -0.354 N 
ATOM     52  N   UNL A   1      44.481  26.809  29.140  1.00  0.00    -0.248 NA
ATOM     53  C   UNL A   1      45.232  24.687  28.517  1.00  0.00     0.031 C 
ATOM     54  C   UNL A   1      47.102  30.024  30.723  1.00  0.00     0.029 A 
ATOM     55  C   UNL A   1      46.304  29.003  30.231  1.00  0.00     0.049 A 
ATOM     56  H   UNL A   1      44.237  29.019  29.807  1.00  0.00     0.167 HD
ATOM     57  C   UNL A   1      45.849  26.720  29.379  1.00  0.00     0.074 A 
ATOM     58  C   UNL A   1      46.253  25.382  29.000  1.00  0.00     0.031 C 
ATOM     59  C   UNL A   1      46.690  27.660  29.874  1.00  0.00     0.037 A 
BRANCH  46  60
ATOM     60  C   UNL A   1      43.998  33.100  31.065  1.00  0.00     0.058 A 
ATOM     61  C   UNL A   1      44.233  34.145  30.156  1.00  0.00     0.135 A 
ATOM     62  C   UNL A   1      43.879  33.431  32.424  1.00  0.00     0.135 A 
ATOM     63  F   UNL A   1      44.370  33.884  28.846  1.00  0.00    -0.206 F 
ATOM     64  C   UNL A   1      44.377  35.461  30.582  1.00  0.00     0.059 A 
ATOM     65  C   UNL A   1      43.986  34.746  32.869  1.00  0.00     0.059 A 
ATOM     66  F   UNL A   1      43.652  32.474  33.337  1.00  0.00    -0.206 F 
ATOM     67  C   UNL A   1      44.252  35.752  31.941  1.00  0.00     0.060 A 
BRANCH  67  68
ATOM     68  S   UNL A   1      44.438  37.466  32.476  1.00  0.00     0.124 S 
ATOM     69  O   UNL A   1      44.251  38.184  31.219  1.00  0.00    -0.237 OA
ATOM     70  O   UNL A   1      43.362  37.607  33.452  1.00  0.00    -0.237 OA
ATOM     71  O   UNL A   1      45.790  37.507  33.025  1.00  0.00    -0.744 OA
ENDBRANCH  67  68
ENDBRANCH  46  60
BRANCH  47  72
ATOM     72  C   UNL A   1      42.548  23.781  27.744  1.00  0.00     0.058 A 
ATOM     73  C   UNL A   1      42.486  23.543  26.363  1.00  0.00     0.135 A 
ATOM     74  C   UNL A   1      42.422  22.677  28.602  1.00  0.00     0.135 A 
ATOM     75  F   UNL A   1      42.593  24.565  25.501  1.00  0.00    -0.206 F 
ATOM     76  C   UNL A   1      42.288  22.264  25.852  1.00  0.00     0.059 A 
ATOM     77  C   UNL A   1      42.251  21.385  28.115  1.00  0.00     0.059 A 
ATOM     78  F   UNL A   1      42.489  22.848  29.933  1.00  0.00    -0.206 F 
ATOM     79  C   UNL A   1      42.175  21.191  26.737  1.00  0.00     0.060 A 
BRANCH  79  80
ATOM     80  S   UNL A   1      41.964  19.530  26.058  1.00  0.00     0.124 S 
ATOM     81  O   UNL A   1      42.434  18.700  27.161  1.00  0.00    -0.237 OA
ATOM     82  O   UNL A   1      40.529  19.488  25.794  1.00  0.00    -0.237 OA
ATOM     83  O   UNL A   1      42.812  19.542  24.871  1.00  0.00    -0.744 OA
ENDBRANCH  79  80
ENDBRANCH  47  72
BRANCH  59  84
ATOM     84  C   UNL A   1      48.125  27.269  30.105  1.00  0.00     0.058 A 
ATOM     85  C   UNL A   1      49.141  27.589  29.192  1.00  0.00     0.135 A 
ATOM     86  C   UNL A   1      48.496  26.632  31.302  1.00  0.00     0.135 A 
ATOM     87  F   UNL A   1      48.841  28.190  28.030  1.00  0.00    -0.206 F 
ATOM     88  C   UNL A   1      50.474  27.283  29.452  1.00  0.00     0.059 A 
ATOM     89  C   UNL A   1      49.824  26.343  31.595  1.00  0.00     0.059 A 
ATOM     90  F   UNL A   1      47.564  26.311  32.214  1.00  0.00    -0.206 F 
ATOM     91  C   UNL A   1      50.806  26.667  30.662  1.00  0.00     0.060 A 
BRANCH  91  92
ATOM     92  S   UNL A   1      52.545  26.329  31.011  1.00  0.00     0.124 S 
ATOM     93  O   UNL A   1      52.958  27.560  31.677  1.00  0.00    -0.237 OA
ATOM     94  O   UNL A   1      52.467  25.144  31.861  1.00  0.00    -0.237 OA
ATOM     95  O   UNL A   1      53.122  26.107  29.689  1.00  0.00    -0.744 OA
ENDBRANCH  91  92
ENDBRANCH  59  84
ENDBRANCH  33  34
ENDBRANCH  25  28
ENDBRANCH  23  24
ENDBRANCH   1  23
TORSDOF 18
ENDMDL
MODEL 2
REMARK VINA RESULT:     -10.1      3.554      7.949
REMARK SMILES CCC(CC)(NC(=O)N[C@H](C)C1CC1)C(=O)NCCCNC(=O)c1ccc(-c2c3nc(c(-c4c(F)cc(S(=O)(=O)[O-])cc4F)c4ccc([nH]4)c(-c4c(F)cc(S(=O)(=O)[O-])cc4F)c4nc(c(-c5c(F)cc(S(=O)(=O)[O-])cc5F)c5ccc2[nH]5)C=C4)C=C3)cc1
REMARK SMILES IDX 19 1 18 2 17 3 15 4 16 5 3 7 2 8 1 9 4 10 5 11 6 12 7 13
REMARK SMILES IDX 8 15 9 16 10 18 11 19 12 20 13 21 14 22 20 23 21 24 22 25
REMARK SMILES IDX 23 27 24 28 25 29 89 30 26 31 88 32 27 33 28 34 29 35 82 36
REMARK SMILES IDX 30 37 87 38 81 39 83 40 31 41 86 42 80 43 79 44 32 46 66 47
REMARK SMILES IDX 45 48 65 49 46 50 49 51 64 52 84 53 47 54 48 55 63 57 85 58
REMARK SMILES IDX 50 59 33 60 34 61 43 62 35 63 36 64 42 65 44 66 37 67 38 68
REMARK SMILES IDX 39 69 40 70 41 71 67 72 68 73 77 74 69 75 70 76 76 77 78 78
REMARK SMILES IDX 71 79 72 80 73 81 74 82 75 83 51 84 52 85 61 86 53 87 54 88
REMARK SMILES IDX 60 89 62 90 55 91 56 92 57 93 58 94 59 95
REMARK H PARENT 17 6 6 14 9 17 21 26 83 45 49 56
REMARK Flexibility Score: inf
ROOT
ATOM      1  C   UNL A   1      37.998  20.650  25.336  1.00  0.00     0.042 C 
ENDROOT
BRANCH   1   2
ATOM      2  C   UNL A   1      37.185  21.898  24.961  1.00  0.00     0.117 C 
BRANCH   2   3
ATOM      3  N   UNL A   1      36.380  22.396  26.075  1.00  0.00    -0.354 N 
ATOM      4  C   UNL A   1      35.016  22.251  26.291  1.00  0.00     0.245 C 
ATOM      5  O   UNL A   1      34.582  21.536  27.190  1.00  0.00    -0.272 OA
ATOM      6  H   UNL A   1      36.870  22.900  26.764  1.00  0.00     0.163 HD
BRANCH   4   7
ATOM      7  C   UNL A   1      34.104  22.962  25.248  1.00  0.00     0.120 C 
BRANCH   7   8
ATOM      8  C   UNL A   1      34.244  22.684  23.739  1.00  0.00     0.035 C 
ATOM      9  C   UNL A   1      34.612  23.835  22.819  1.00  0.00     0.007 C 
ENDBRANCH   7   8
BRANCH   7  10
ATOM     10  C   UNL A   1      34.475  24.472  25.510  1.00  0.00     0.035 C 
ATOM     11  C   UNL A   1      33.381  25.431  25.952  1.00  0.00     0.007 C 
ENDBRANCH   7  10
BRANCH   7  12
ATOM     12  N   UNL A   1      32.705  22.635  25.622  1.00  0.00    -0.324 N 
ATOM     13  C   UNL A   1      31.903  21.573  25.599  1.00  0.00     0.315 C 
ATOM     14  H   UNL A   1      32.243  23.421  25.991  1.00  0.00     0.166 HD
ATOM     15  O   UNL A   1      30.725  21.810  25.897  1.00  0.00    -0.249 OA
ATOM     16  N   UNL A   1      32.174  20.282  25.426  1.00  0.00    -0.335 N 
ATOM     17  H   UNL A   1      31.377  19.832  25.789  1.00  0.00     0.165 HD
BRANCH  16  18
ATOM     18  C   UNL A   1      33.040  19.143  24.974  1.00  0.00     0.083 C 
ATOM     19  C   UNL A   1      34.544  19.249  24.681  1.00  0.00     0.031 C 
BRANCH  18  20
ATOM     20  C   UNL A   1      32.376  18.170  24.038  1.00  0.00     0.011 C 
ATOM     21  C   UNL A   1      32.382  18.303  22.541  1.00  0.00     0.006 C 
ATOM     22  C   UNL A   1      33.214  17.238  23.210  1.00  0.00     0.006 C 
ENDBRANCH  18  20
ENDBRANCH  16  18
ENDBRANCH   7  12
ENDBRANCH   4   7
ENDBRANCH   2   3
ENDBRANCH   1   2
BRANCH   1  23
ATOM     23  C   UNL A   1      39.280  20.900  26.118  1.00  0.00     0.118 C 
BRANCH  23  24
ATOM     24  N   UNL A   1      40.168  19.755  26.111  1.00  0.00    -0.352 N 
ATOM     25  C   UNL A   1      41.543  19.736  26.150  1.00  0.00     0.251 C 
ATOM     26  H   UNL A   1      39.728  18.874  26.074  1.00  0.00     0.163 HD
ATOM     27  O   UNL A   1      42.159  18.707  25.933  1.00  0.00    -0.269 OA
BRANCH  25  28
ATOM     28  C   UNL A   1      42.263  20.996  26.441  1.00  0.00     0.039 A 
ATOM     29  C   UNL A   1      42.656  21.813  25.379  1.00  0.00     0.014 A 
ATOM     30  C   UNL A   1      42.527  21.373  27.761  1.00  0.00     0.014 A 
ATOM     31  C   UNL A   1      43.266  23.042  25.645  1.00  0.00     0.010 A 
ATOM     32  C   UNL A   1      43.075  22.626  28.023  1.00  0.00     0.010 A 
ATOM     33  C   UNL A   1      43.451  23.475  26.968  1.00  0.00    -0.014 A 
BRANCH  33  34
ATOM     34  C   UNL A   1      44.036  24.807  27.280  1.00  0.00     0.031 A 
ATOM     35  C   UNL A   1      43.145  25.928  27.746  1.00  0.00     0.074 A 
ATOM     36  C   UNL A   1      45.348  25.033  27.071  1.00  0.00     0.049 A 
ATOM     37  N   UNL A   1      43.435  27.188  27.943  1.00  0.00    -0.248 NA
ATOM     38  C   UNL A   1      41.735  25.590  27.997  1.00  0.00     0.031 C 
ATOM     39  C   UNL A   1      46.314  24.040  26.597  1.00  0.00     0.029 A 
ATOM     40  N   UNL A   1      46.095  26.178  27.211  1.00  0.00    -0.354 N 
ATOM     41  C   UNL A   1      42.244  27.797  28.321  1.00  0.00     0.074 A 
ATOM     42  C   UNL A   1      41.217  26.776  28.280  1.00  0.00     0.031 C 
ATOM     43  C   UNL A   1      47.523  24.614  26.495  1.00  0.00     0.029 A 
ATOM     44  C   UNL A   1      47.414  26.026  26.849  1.00  0.00     0.049 A 
ATOM     45  H   UNL A   1      45.722  27.027  27.539  1.00  0.00     0.167 HD
ATOM     46  C   UNL A   1      42.028  29.084  28.686  1.00  0.00     0.037 A 
ATOM     47  C   UNL A   1      48.417  26.925  26.788  1.00  0.00     0.037 A 
ATOM     48  C   UNL A   1      43.058  30.088  28.746  1.00  0.00     0.049 A 
ATOM     49  C   UNL A   1      48.149  28.355  27.178  1.00  0.00     0.074 A 
ATOM     50  C   UNL A   1      42.947  31.409  29.146  1.00  0.00     0.029 A 
ATOM     51  N   UNL A   1      44.385  29.887  28.394  1.00  0.00    -0.354 N 
ATOM     52  N   UNL A   1      47.026  28.905  27.574  1.00  0.00    -0.248 NA
ATOM     53  C   UNL A   1      49.283  29.288  27.117  1.00  0.00     0.031 C 
ATOM     54  C   UNL A   1      44.195  32.019  28.990  1.00  0.00     0.029 A 
ATOM     55  C   UNL A   1      45.099  31.063  28.552  1.00  0.00     0.049 A 
ATOM     56  H   UNL A   1      44.763  29.034  28.080  1.00  0.00     0.167 HD
ATOM     57  C   UNL A   1      47.328  30.234  27.850  1.00  0.00     0.074 A 
ATOM     58  C   UNL A   1      48.738  30.408  27.574  1.00  0.00     0.031 C 
ATOM     59  C   UNL A   1      46.510  31.219  28.298  1.00  0.00     0.037 A 
BRANCH  46  60
ATOM     60  C   UNL A   1      40.621  29.483  29.046  1.00  0.00     0.058 A 
ATOM     61  C   UNL A   1      39.618  29.616  28.071  1.00  0.00     0.135 A 
ATOM     62  C   UNL A   1      40.261  29.697  30.386  1.00  0.00     0.135 A 
ATOM     63  F   UNL A   1      39.909  29.437  26.773  1.00  0.00    -0.206 F 
ATOM     64  C   UNL A   1      38.319  29.979  28.409  1.00  0.00     0.059 A 
ATOM     65  C   UNL A   1      38.960  30.029  30.751  1.00  0.00     0.059 A 
ATOM     66  F   UNL A   1      41.178  29.582  31.360  1.00  0.00    -0.206 F 
ATOM     67  C   UNL A   1      37.999  30.184  29.752  1.00  0.00     0.060 A 
BRANCH  67  68
ATOM     68  S   UNL A   1      36.307  30.652  30.173  1.00  0.00     0.124 S 
ATOM     69  O   UNL A   1      36.457  32.080  30.433  1.00  0.00    -0.237 OA
ATOM     70  O   UNL A   1      35.575  30.302  28.961  1.00  0.00    -0.237 OA
ATOM     71  O   UNL A   1      36.008  29.832  31.343  1.00  0.00    -0.744 OA
ENDBRANCH  67  68
ENDBRANCH  46  60
BRANCH  47  72
ATOM     72  C   UNL A   1      49.775  26.498  26.349  1.00  0.00     0.058 A 
ATOM     73  C   UNL A   1      50.222  26.746  25.042  1.00  0.00     0.135 A 
ATOM     74  C   UNL A   1      50.653  25.840  27.224  1.00  0.00     0.135 A 
ATOM     75  F   UNL A   1      49.417  27.364  24.164  1.00  0.00    -0.206 F 
ATOM     76  C   UNL A   1      51.483  26.344  24.614  1.00  0.00     0.059 A 
ATOM     77  C   UNL A   1      51.929  25.453  26.828  1.00  0.00     0.059 A 
ATOM     78  F   UNL A   1      50.280  25.591  28.490  1.00  0.00    -0.206 F 
ATOM     79  C   UNL A   1      52.331  25.700  25.517  1.00  0.00     0.060 A 
BRANCH  79  80
ATOM     80  S   UNL A   1      53.982  25.223  24.962  1.00  0.00     0.124 S 
ATOM     81  O   UNL A   1      53.854  23.773  24.868  1.00  0.00    -0.237 OA
ATOM     82  O   UNL A   1      54.097  25.937  23.694  1.00  0.00    -0.237 OA
ATOM     83  O   UNL A   1      54.849  25.712  26.028  1.00  0.00    -0.744 OA
ENDBRANCH  79  80
ENDBRANCH  47  72
BRANCH  59  84
ATOM     84  C   UNL A   1      47.122  32.563  28.588  1.00  0.00     0.058 A 
ATOM     85  C   UNL A   1      47.652  32.885  29.846  1.00  0.00     0.135 A 
ATOM     86  C   UNL A   1      47.250  33.512  27.559  1.00  0.00     0.135 A 
ATOM     87  F   UNL A   1      47.550  32.018  30.865  1.00  0.00    -0.206 F 
ATOM     88  C   UNL A   1      48.278  34.107  30.078  1.00  0.00     0.059 A 
ATOM     89  C   UNL A   1      47.897  34.727  27.761  1.00  0.00     0.059 A 
ATOM     90  F   UNL A   1      46.767  33.251  26.334  1.00  0.00    -0.206 F 
ATOM     91  C   UNL A   1      48.403  35.018  29.026  1.00  0.00     0.060 A 
BRANCH  91  92
ATOM     92  S   UNL A   1      49.270  36.573  29.327  1.00  0.00     0.124 S 
ATOM     93  O   UNL A   1      49.288  37.164  27.993  1.00  0.00    -0.237 OA
ATOM     94  O   UNL A   1      48.402  37.230  30.300  1.00  0.00    -0.237 OA
ATOM     95  O   UNL A   1      50.568  36.146  29.841  1.00  0.00    -0.744 OA
ENDBRANCH  91  92
ENDBRANCH  59  84
ENDBRANCH  33  34
ENDBRANCH  25  28
ENDBRANCH  23  24
ENDBRANCH   1  23
TORSDOF 18
ENDMDL
MODEL 3
REMARK VINA RESULT:      -9.9      1.525      2.359
REMARK SMILES CCC(CC)(NC(=O)N[C@H](C)C1CC1)C(=O)NCCCNC(=O)c1ccc(-c2c3nc(c(-c4c(F)cc(S(=O)(=O)[O-])cc4F)c4ccc([nH]4)c(-c4c(F)cc(S(=O)(=O)[O-])cc4F)c4nc(c(-c5c(F)cc(S(=O)(=O)[O-])cc5F)c5ccc2[nH]5)C=C4)C=C3)cc1
REMARK SMILES IDX 19 1 18 2 17 3 15 4 16 5 3 7 2 8 1 9 4 10 5 11 6 12 7 13
REMARK SMILES IDX 8 15 9 16 10 18 11 19 12 20 13 21 14 22 20 23 21 24 22 25
REMARK SMILES IDX 23 27 24 28 25 29 89 30 26 31 88 32 27 33 28 34 29 35 82 36
REMARK SMILES IDX 30 37 87 38 81 39 83 40 31 41 86 42 80 43 79 44 32 46 66 47
REMARK SMILES IDX 45 48 65 49 46 50 49 51 64 52 84 53 47 54 48 55 63 57 85 58
REMARK SMILES IDX 50 59 33 60 34 61 43 62 35 63 36 64 42 65 44 66 37 67 38 68
REMARK SMILES IDX 39 69 40 70 41 71 67 72 68 73 77 74 69 75 70 76 76 77 78 78
REMARK SMILES IDX 71 79 72 80 73 81 74 82 75 83 51 84 52 85 61 86 53 87 54 88
REMARK SMILES IDX 60 89 62 90 55 91 56 92 57 93 58 94 59 95
REMARK H PARENT 17 6 6 14 9 17 21 26 83 45 49 56
REMARK Flexibility Score: inf
ROOT
ATOM      1  C   UNL A   1      32.837  27.355  26.320  1.00  0.00     0.042 C 
ENDROOT
BRANCH   1   2
ATOM      2  C   UNL A   1      33.088  25.919  25.837  1.00  0.00     0.117 C 
BRANCH   2   3
ATOM      3  N   UNL A   1      32.580  24.918  26.774  1.00  0.00    -0.354 N 
ATOM      4  C   UNL A   1      32.794  23.546  26.775  1.00  0.00     0.245 C 
ATOM      5  O   UNL A   1      33.484  23.005  27.634  1.00  0.00    -0.272 OA
ATOM      6  H   UNL A   1      32.013  25.263  27.501  1.00  0.00     0.163 HD
BRANCH   4   7
ATOM      7  C   UNL A   1      32.192  22.785  25.557  1.00  0.00     0.120 C 
BRANCH   7   8
ATOM      8  C   UNL A   1      32.701  23.035  24.124  1.00  0.00     0.035 C 
ATOM      9  C   UNL A   1      32.187  22.145  23.005  1.00  0.00     0.007 C 
ENDBRANCH   7   8
BRANCH   7  10
ATOM     10  C   UNL A   1      30.686  23.243  25.634  1.00  0.00     0.035 C 
ATOM     11  C   UNL A   1      29.843  22.802  26.821  1.00  0.00     0.007 C 
ENDBRANCH   7  10
BRANCH   7  12
ATOM     12  N   UNL A   1      32.374  21.338  25.836  1.00  0.00    -0.324 N 
ATOM     13  C   UNL A   1      33.345  20.432  25.745  1.00  0.00     0.315 C 
ATOM     14  H   UNL A   1      31.547  20.938  26.187  1.00  0.00     0.166 HD
ATOM     15  O   UNL A   1      32.988  19.269  25.972  1.00  0.00    -0.249 OA
ATOM     16  N   UNL A   1      34.656  20.578  25.570  1.00  0.00    -0.335 N 
ATOM     17  H   UNL A   1      35.023  19.717  25.875  1.00  0.00     0.165 HD
BRANCH  16  18
ATOM     18  C   UNL A   1      35.876  21.348  25.158  1.00  0.00     0.083 C 
ATOM     19  C   UNL A   1      37.237  20.719  24.824  1.00  0.00     0.031 C 
BRANCH  18  20
ATOM     20  C   UNL A   1      36.049  22.680  25.837  1.00  0.00     0.011 C 
ATOM     21  C   UNL A   1      37.351  23.429  25.902  1.00  0.00     0.006 C 
ATOM     22  C   UNL A   1      36.237  23.921  25.013  1.00  0.00     0.006 C 
ENDBRANCH  18  20
ENDBRANCH  16  18
ENDBRANCH   7  12
ENDBRANCH   4   7
ENDBRANCH   2   3
ENDBRANCH   1   2
BRANCH   1  23
ATOM     23  C   UNL A   1      34.006  28.321  26.174  1.00  0.00     0.118 C 
BRANCH  23  24
ATOM     24  N   UNL A   1      33.731  29.618  26.758  1.00  0.00    -0.352 N 
ATOM     25  C   UNL A   1      34.480  30.322  27.672  1.00  0.00     0.251 C 
ATOM     26  H   UNL A   1      32.899  30.053  26.460  1.00  0.00     0.163 HD
ATOM     27  O   UNL A   1      34.024  31.307  28.227  1.00  0.00    -0.269 OA
BRANCH  25  28
ATOM     28  C   UNL A   1      35.846  29.848  27.989  1.00  0.00     0.039 A 
ATOM     29  C   UNL A   1      36.845  29.963  27.021  1.00  0.00     0.014 A 
ATOM     30  C   UNL A   1      36.137  29.312  29.246  1.00  0.00     0.014 A 
ATOM     31  C   UNL A   1      38.156  29.594  27.335  1.00  0.00     0.010 A 
ATOM     32  C   UNL A   1      37.455  29.006  29.577  1.00  0.00     0.010 A 
ATOM     33  C   UNL A   1      38.479  29.143  28.626  1.00  0.00    -0.014 A 
BRANCH  33  34
ATOM     34  C   UNL A   1      39.877  28.806  29.008  1.00  0.00     0.031 A 
ATOM     35  C   UNL A   1      40.747  29.845  29.663  1.00  0.00     0.074 A 
ATOM     36  C   UNL A   1      40.389  27.598  28.698  1.00  0.00     0.049 A 
ATOM     37  N   UNL A   1      42.022  29.793  29.954  1.00  0.00    -0.248 NA
ATOM     38  C   UNL A   1      40.103  31.120  30.014  1.00  0.00     0.031 C 
ATOM     39  C   UNL A   1      39.659  26.512  28.040  1.00  0.00     0.029 A 
ATOM     40  N   UNL A   1      41.651  27.085  28.876  1.00  0.00    -0.354 N 
ATOM     41  C   UNL A   1      42.337  31.032  30.501  1.00  0.00     0.074 A 
ATOM     42  C   UNL A   1      41.130  31.830  30.459  1.00  0.00     0.031 C 
ATOM     43  C   UNL A   1      40.480  25.462  27.879  1.00  0.00     0.029 A 
ATOM     44  C   UNL A   1      41.807  25.812  28.377  1.00  0.00     0.049 A 
ATOM     45  H   UNL A   1      42.376  27.581  29.320  1.00  0.00     0.167 HD
ATOM     46  C   UNL A   1      43.518  31.459  31.008  1.00  0.00     0.037 A 
ATOM     47  C   UNL A   1      42.898  25.024  28.308  1.00  0.00     0.037 A 
ATOM     48  C   UNL A   1      44.709  30.652  31.067  1.00  0.00     0.049 A 
ATOM     49  C   UNL A   1      44.206  25.528  28.859  1.00  0.00     0.074 A 
ATOM     50  C   UNL A   1      45.943  30.979  31.602  1.00  0.00     0.029 A 
ATOM     51  N   UNL A   1      44.818  29.360  30.572  1.00  0.00    -0.354 N 
ATOM     52  N   UNL A   1      44.477  26.686  29.413  1.00  0.00    -0.248 NA
ATOM     53  C   UNL A   1      45.359  24.618  28.782  1.00  0.00     0.031 C 
ATOM     54  C   UNL A   1      46.812  29.905  31.387  1.00  0.00     0.029 A 
ATOM     55  C   UNL A   1      46.103  28.883  30.775  1.00  0.00     0.049 A 
ATOM     56  H   UNL A   1      44.090  28.856  30.142  1.00  0.00     0.167 HD
ATOM     57  C   UNL A   1      45.815  26.628  29.786  1.00  0.00     0.074 A 
ATOM     58  C   UNL A   1      46.301  25.321  29.395  1.00  0.00     0.031 C 
ATOM     59  C   UNL A   1      46.570  27.570  30.404  1.00  0.00     0.037 A 
BRANCH  46  60
ATOM     60  C   UNL A   1      43.585  32.867  31.537  1.00  0.00     0.058 A 
ATOM     61  C   UNL A   1      43.339  33.163  32.889  1.00  0.00     0.135 A 
ATOM     62  C   UNL A   1      43.938  33.930  30.691  1.00  0.00     0.135 A 
ATOM     63  F   UNL A   1      42.984  32.187  33.740  1.00  0.00    -0.206 F 
ATOM     64  C   UNL A   1      43.408  34.464  33.373  1.00  0.00     0.059 A 
ATOM     65  C   UNL A   1      44.046  35.236  31.161  1.00  0.00     0.059 A 
ATOM     66  F   UNL A   1      44.186  33.707  29.391  1.00  0.00    -0.206 F 
ATOM     67  C   UNL A   1      43.762  35.495  32.501  1.00  0.00     0.060 A 
BRANCH  67  68
ATOM     68  S   UNL A   1      43.850  37.178  33.148  1.00  0.00     0.124 S 
ATOM     69  O   UNL A   1      43.788  37.965  31.920  1.00  0.00    -0.237 OA
ATOM     70  O   UNL A   1      42.670  37.246  34.004  1.00  0.00    -0.237 OA
ATOM     71  O   UNL A   1      45.131  37.209  33.846  1.00  0.00    -0.744 OA
ENDBRANCH  67  68
ENDBRANCH  46  60
BRANCH  47  72
ATOM     72  C   UNL A   1      42.800  23.667  27.703  1.00  0.00     0.058 A 
ATOM     73  C   UNL A   1      42.983  23.477  26.325  1.00  0.00     0.135 A 
ATOM     74  C   UNL A   1      42.528  22.534  28.486  1.00  0.00     0.135 A 
ATOM     75  F   UNL A   1      43.237  24.528  25.530  1.00  0.00    -0.206 F 
ATOM     76  C   UNL A   1      42.883  22.217  25.743  1.00  0.00     0.059 A 
ATOM     77  C   UNL A   1      42.451  21.260  27.932  1.00  0.00     0.059 A 
ATOM     78  F   UNL A   1      42.358  22.659  29.813  1.00  0.00    -0.206 F 
ATOM     79  C   UNL A   1      42.620  21.114  26.556  1.00  0.00     0.060 A 
BRANCH  79  80
ATOM     80  S   UNL A   1      42.538  19.478  25.794  1.00  0.00     0.124 S 
ATOM     81  O   UNL A   1      43.468  19.626  24.680  1.00  0.00    -0.237 OA
ATOM     82  O   UNL A   1      42.978  18.611  26.883  1.00  0.00    -0.237 OA
ATOM     83  O   UNL A   1      41.131  19.348  25.429  1.00  0.00    -0.744 OA
ENDBRANCH  79  80
ENDBRANCH  47  72
BRANCH  59  84
ATOM     84  C   UNL A   1      47.986  27.212  30.763  1.00  0.00     0.058 A 
ATOM     85  C   UNL A   1      48.303  26.505  31.933  1.00  0.00     0.135 A 
ATOM     86  C   UNL A   1      49.034  27.513  29.875  1.00  0.00     0.135 A 
ATOM     87  F   UNL A   1      47.343  26.199  32.819  1.00  0.00    -0.206 F 
ATOM     88  C   UNL A   1      49.610  26.119  32.216  1.00  0.00     0.059 A 
ATOM     89  C   UNL A   1      50.342  27.112  30.124  1.00  0.00     0.059 A 
ATOM     90  F   UNL A   1      48.784  28.180  28.737  1.00  0.00    -0.206 F 
ATOM     91  C   UNL A   1      50.622  26.420  31.301  1.00  0.00     0.060 A 
BRANCH  91  92
ATOM     92  S   UNL A   1      52.303  25.862  31.653  1.00  0.00     0.124 S 
ATOM     93  O   UNL A   1      52.708  26.788  32.704  1.00  0.00    -0.237 OA
ATOM     94  O   UNL A   1      52.089  24.480  32.073  1.00  0.00    -0.237 OA
ATOM     95  O   UNL A   1      52.990  26.023  30.375  1.00  0.00    -0.744 OA
ENDBRANCH  91  92
ENDBRANCH  59  84
ENDBRANCH  33  34
ENDBRANCH  25  28
ENDBRANCH  23  24
ENDBRANCH   1  23
TORSDOF 18
ENDMDL
