MODEL 1
REMARK VINA RESULT:     -12.1      0.000      0.000
REMARK SMILES O=C(C[C@@H]([NH2+]Cc1cccnc1)C(=O)NCCCNC(=O)c1ccc(-c2c3nc(c(-c4c(F)cc(S(=O)(=O)[O-])cc4F)c4ccc([nH]4)c(-c4c(F)cc(S(=O)(=O)[O-])cc4F)c4nc(c(-c5c(F)cc(S(=O)(=O)[O-])cc5F)c5ccc2[nH]5)C=C4)C=C3)cc1)Nc1ccc2ccccc2c1
REMARK SMILES IDX 17 1 16 2 15 3 13 4 14 5 4 7 3 8 2 9 1 10 88 11 89 13 90 14
REMARK SMILES IDX 98 15 91 16 97 17 92 18 96 19 93 20 95 21 94 22 5 23 6 26
REMARK SMILES IDX 7 27 8 28 12 29 9 30 11 31 10 32 18 33 19 34 20 35 21 37
REMARK SMILES IDX 22 38 23 39 87 40 24 41 86 42 25 43 26 44 27 45 80 46 28 47
REMARK SMILES IDX 85 48 79 49 81 50 29 51 84 52 78 53 77 54 30 56 64 57 43 58
REMARK SMILES IDX 63 59 44 60 47 61 62 62 82 63 45 64 46 65 61 67 83 68 48 69
REMARK SMILES IDX 31 70 32 71 41 72 33 73 34 74 40 75 42 76 35 77 36 78 37 79
REMARK SMILES IDX 38 80 39 81 65 82 66 83 75 84 67 85 68 86 74 87 76 88 69 89
REMARK SMILES IDX 70 90 71 91 72 92 73 93 49 94 50 95 59 96 51 97 52 98 58 99
REMARK SMILES IDX 60 100 53 101 54 102 55 103 56 104 57 105
REMARK H PARENT 15 6 88 12 5 24 5 25 19 36 81 55 47 66
REMARK Flexibility Score: inf
ROOT
ATOM      1  C   UNL A   1      32.934  27.784  26.858  1.00  0.00     0.042 C 
ENDROOT
BRANCH   1   2
ATOM      2  C   UNL A   1      31.622  27.565  26.116  1.00  0.00     0.118 C 
BRANCH   2   3
ATOM      3  N   UNL A   1      30.930  26.386  26.605  1.00  0.00    -0.351 N 
ATOM      4  C   UNL A   1      30.532  25.261  25.947  1.00  0.00     0.278 C 
ATOM      5  O   UNL A   1      29.970  24.383  26.607  1.00  0.00    -0.268 OA
ATOM      6  H   UNL A   1      30.713  26.401  27.565  1.00  0.00     0.163 HD
BRANCH   4   7
ATOM      7  C   UNL A   1      30.838  25.050  24.451  1.00  0.00     0.282 C 
BRANCH   7   8
ATOM      8  C   UNL A   1      31.357  23.616  24.217  1.00  0.00     0.175 C 
BRANCH   8   9
ATOM      9  C   UNL A   1      32.865  23.519  24.121  1.00  0.00     0.230 C 
ATOM     10  O   UNL A   1      33.465  23.728  23.072  1.00  0.00    -0.274 OA
ATOM     11  N   UNL A   1      33.441  23.126  25.319  1.00  0.00    -0.326 N 
ATOM     12  H   UNL A   1      32.882  23.118  26.129  1.00  0.00     0.169 HD
BRANCH  11  13
ATOM     13  C   UNL A   1      34.782  22.739  25.429  1.00  0.00     0.041 A 
ATOM     14  C   UNL A   1      35.091  21.400  25.198  1.00  0.00     0.027 A 
ATOM     15  C   UNL A   1      35.780  23.638  25.799  1.00  0.00     0.034 A 
ATOM     16  C   UNL A   1      36.418  20.977  25.222  1.00  0.00     0.011 A 
ATOM     17  C   UNL A   1      37.103  23.187  25.971  1.00  0.00    -0.016 A 
ATOM     18  C   UNL A   1      37.433  21.857  25.616  1.00  0.00    -0.018 A 
ATOM     19  C   UNL A   1      38.103  24.008  26.517  1.00  0.00     0.009 A 
ATOM     20  C   UNL A   1      38.762  21.423  25.704  1.00  0.00     0.009 A 
ATOM     21  C   UNL A   1      39.406  23.531  26.683  1.00  0.00     0.001 A 
ATOM     22  C   UNL A   1      39.743  22.253  26.246  1.00  0.00     0.001 A 
ENDBRANCH  11  13
ENDBRANCH   8   9
ENDBRANCH   7   8
BRANCH   7  23
ATOM     23  N   UNL A   1      29.662  25.420  23.598  1.00  0.00    -0.332 N 
ATOM     24  H   UNL A   1      29.083  24.591  23.471  1.00  0.00     0.347 HD
ATOM     25  H   UNL A   1      30.034  25.776  22.717  1.00  0.00     0.347 HD
BRANCH  23  26
ATOM     26  C   UNL A   1      28.822  26.491  24.172  1.00  0.00     0.299 C 
BRANCH  26  27
ATOM     27  C   UNL A   1      28.868  27.755  23.360  1.00  0.00     0.024 A 
ATOM     28  C   UNL A   1      27.722  28.535  23.170  1.00  0.00     0.013 A 
ATOM     29  C   UNL A   1      30.034  28.160  22.718  1.00  0.00     0.120 A 
ATOM     30  C   UNL A   1      27.772  29.642  22.331  1.00  0.00     0.021 A 
ATOM     31  N   UNL A   1      30.115  29.248  21.920  1.00  0.00    -0.264 NA
ATOM     32  C   UNL A   1      28.979  29.952  21.730  1.00  0.00     0.111 A 
ENDBRANCH  26  27
ENDBRANCH  23  26
ENDBRANCH   7  23
ENDBRANCH   4   7
ENDBRANCH   2   3
ENDBRANCH   1   2
BRANCH   1  33
ATOM     33  C   UNL A   1      33.908  28.687  26.109  1.00  0.00     0.118 C 
BRANCH  33  34
ATOM     34  N   UNL A   1      33.751  30.088  26.473  1.00  0.00    -0.352 N 
ATOM     35  C   UNL A   1      34.437  30.836  27.399  1.00  0.00     0.251 C 
ATOM     36  H   UNL A   1      33.050  30.572  25.981  1.00  0.00     0.163 HD
ATOM     37  O   UNL A   1      34.012  31.941  27.716  1.00  0.00    -0.269 OA
BRANCH  35  38
ATOM     38  C   UNL A   1      35.666  30.300  28.023  1.00  0.00     0.039 A 
ATOM     39  C   UNL A   1      36.882  30.439  27.350  1.00  0.00     0.014 A 
ATOM     40  C   UNL A   1      35.622  29.659  29.264  1.00  0.00     0.014 A 
ATOM     41  C   UNL A   1      38.061  29.999  27.954  1.00  0.00     0.010 A 
ATOM     42  C   UNL A   1      36.805  29.300  29.901  1.00  0.00     0.010 A 
ATOM     43  C   UNL A   1      38.038  29.465  29.253  1.00  0.00    -0.014 A 
BRANCH  43  44
ATOM     44  C   UNL A   1      39.291  29.087  29.957  1.00  0.00     0.031 A 
ATOM     45  C   UNL A   1      39.736  29.850  31.175  1.00  0.00     0.074 A 
ATOM     46  C   UNL A   1      40.062  28.101  29.457  1.00  0.00     0.049 A 
ATOM     47  N   UNL A   1      40.833  29.721  31.875  1.00  0.00    -0.248 NA
ATOM     48  C   UNL A   1      38.842  30.917  31.656  1.00  0.00     0.031 C 
ATOM     49  C   UNL A   1      39.760  27.317  28.257  1.00  0.00     0.029 A 
ATOM     50  N   UNL A   1      41.264  27.596  29.886  1.00  0.00    -0.354 N 
ATOM     51  C   UNL A   1      40.768  30.692  32.868  1.00  0.00     0.074 A 
ATOM     52  C   UNL A   1      39.549  31.441  32.646  1.00  0.00     0.031 C 
ATOM     53  C   UNL A   1      40.737  26.418  28.060  1.00  0.00     0.029 A 
ATOM     54  C   UNL A   1      41.758  26.591  29.087  1.00  0.00     0.049 A 
ATOM     55  H   UNL A   1      41.730  27.922  30.689  1.00  0.00     0.167 HD
ATOM     56  C   UNL A   1      41.632  30.924  33.884  1.00  0.00     0.037 A 
ATOM     57  C   UNL A   1      42.910  25.896  29.165  1.00  0.00     0.037 A 
ATOM     58  C   UNL A   1      42.835  30.164  34.105  1.00  0.00     0.049 A 
ATOM     59  C   UNL A   1      43.867  26.188  30.289  1.00  0.00     0.074 A 
ATOM     60  C   UNL A   1      43.751  30.285  35.137  1.00  0.00     0.029 A 
ATOM     61  N   UNL A   1      43.296  29.148  33.281  1.00  0.00    -0.354 N 
ATOM     62  N   UNL A   1      43.757  27.066  31.258  1.00  0.00    -0.248 NA
ATOM     63  C   UNL A   1      45.102  25.395  30.334  1.00  0.00     0.031 C 
ATOM     64  C   UNL A   1      44.792  29.381  34.906  1.00  0.00     0.029 A 
ATOM     65  C   UNL A   1      44.497  28.653  33.765  1.00  0.00     0.049 A 
ATOM     66  H   UNL A   1      42.838  28.826  32.471  1.00  0.00     0.167 HD
ATOM     67  C   UNL A   1      44.893  26.910  32.043  1.00  0.00     0.074 A 
ATOM     68  C   UNL A   1      45.671  25.846  31.444  1.00  0.00     0.031 C 
ATOM     69  C   UNL A   1      45.258  27.586  33.161  1.00  0.00     0.037 A 
BRANCH  56  70
ATOM     70  C   UNL A   1      41.312  32.046  34.836  1.00  0.00     0.058 A 
ATOM     71  C   UNL A   1      41.817  33.344  34.646  1.00  0.00     0.135 A 
ATOM     72  C   UNL A   1      40.457  31.833  35.929  1.00  0.00     0.135 A 
ATOM     73  F   UNL A   1      42.652  33.602  33.626  1.00  0.00    -0.206 F 
ATOM     74  C   UNL A   1      41.511  34.380  35.520  1.00  0.00     0.059 A 
ATOM     75  C   UNL A   1      40.110  32.863  36.799  1.00  0.00     0.059 A 
ATOM     76  F   UNL A   1      39.944  30.615  36.160  1.00  0.00    -0.206 F 
ATOM     77  C   UNL A   1      40.655  34.130  36.595  1.00  0.00     0.060 A 
BRANCH  77  78
ATOM     78  S   UNL A   1      40.262  35.490  37.715  1.00  0.00     0.124 S 
ATOM     79  O   UNL A   1      39.117  34.946  38.440  1.00  0.00    -0.237 OA
ATOM     80  O   UNL A   1      41.494  35.624  38.485  1.00  0.00    -0.237 OA
ATOM     81  O   UNL A   1      39.964  36.599  36.815  1.00  0.00    -0.744 OA
ENDBRANCH  77  78
ENDBRANCH  56  70
BRANCH  57  82
ATOM     82  C   UNL A   1      43.215  24.846  28.155  1.00  0.00     0.058 A 
ATOM     83  C   UNL A   1      43.830  25.172  26.937  1.00  0.00     0.135 A 
ATOM     84  C   UNL A   1      42.910  23.495  28.389  1.00  0.00     0.135 A 
ATOM     85  F   UNL A   1      44.136  26.450  26.662  1.00  0.00    -0.206 F 
ATOM     86  C   UNL A   1      44.117  24.204  25.980  1.00  0.00     0.059 A 
ATOM     87  C   UNL A   1      43.212  22.504  27.461  1.00  0.00     0.059 A 
ATOM     88  F   UNL A   1      42.337  23.126  29.545  1.00  0.00    -0.206 F 
ATOM     89  C   UNL A   1      43.807  22.870  26.255  1.00  0.00     0.060 A 
BRANCH  89  90
ATOM     90  S   UNL A   1      44.227  21.615  25.026  1.00  0.00     0.124 S 
ATOM     91  O   UNL A   1      44.131  22.374  23.785  1.00  0.00    -0.237 OA
ATOM     92  O   UNL A   1      45.574  21.228  25.435  1.00  0.00    -0.237 OA
ATOM     93  O   UNL A   1      43.203  20.594  25.224  1.00  0.00    -0.744 OA
ENDBRANCH  89  90
ENDBRANCH  57  82
BRANCH  69  94
ATOM     94  C   UNL A   1      46.539  27.176  33.836  1.00  0.00     0.058 A 
ATOM     95  C   UNL A   1      46.575  26.163  34.806  1.00  0.00     0.135 A 
ATOM     96  C   UNL A   1      47.758  27.767  33.460  1.00  0.00     0.135 A 
ATOM     97  F   UNL A   1      45.439  25.572  35.208  1.00  0.00    -0.206 F 
ATOM     98  C   UNL A   1      47.771  25.761  35.392  1.00  0.00     0.059 A 
ATOM     99  C   UNL A   1      48.969  27.359  34.010  1.00  0.00     0.059 A 
ATOM    100  F   UNL A   1      47.783  28.736  32.530  1.00  0.00    -0.206 F 
ATOM    101  C   UNL A   1      48.963  26.362  34.984  1.00  0.00     0.060 A 
BRANCH 101 102
ATOM    102  S   UNL A   1      50.512  25.797  35.721  1.00  0.00     0.124 S 
ATOM    103  O   UNL A   1      50.959  26.997  36.422  1.00  0.00    -0.237 OA
ATOM    104  O   UNL A   1      50.069  24.696  36.569  1.00  0.00    -0.237 OA
ATOM    105  O   UNL A   1      51.317  25.409  34.568  1.00  0.00    -0.744 OA
ENDBRANCH 101 102
ENDBRANCH  69  94
ENDBRANCH  43  44
ENDBRANCH  35  38
ENDBRANCH  33  34
ENDBRANCH   1  33
TORSDOF 19
ENDMDL
MODEL 2
REMARK VINA RESULT:     -12.1      3.264      9.838
REMARK SMILES O=C(C[C@@H]([NH2+]Cc1cccnc1)C(=O)NCCCNC(=O)c1ccc(-c2c3nc(c(-c4c(F)cc(S(=O)(=O)[O-])cc4F)c4ccc([nH]4)c(-c4c(F)cc(S(=O)(=O)[O-])cc4F)c4nc(c(-c5c(F)cc(S(=O)(=O)[O-])cc5F)c5ccc2[nH]5)C=C4)C=C3)cc1)Nc1ccc2ccccc2c1
REMARK SMILES IDX 17 1 16 2 15 3 13 4 14 5 4 7 3 8 2 9 1 10 88 11 89 13 90 14
REMARK SMILES IDX 98 15 91 16 97 17 92 18 96 19 93 20 95 21 94 22 5 23 6 26
REMARK SMILES IDX 7 27 8 28 12 29 9 30 11 31 10 32 18 33 19 34 20 35 21 37
REMARK SMILES IDX 22 38 23 39 87 40 24 41 86 42 25 43 26 44 27 45 80 46 28 47
REMARK SMILES IDX 85 48 79 49 81 50 29 51 84 52 78 53 77 54 30 56 64 57 43 58
REMARK SMILES IDX 63 59 44 60 47 61 62 62 82 63 45 64 46 65 61 67 83 68 48 69
REMARK SMILES IDX 31 70 32 71 41 72 33 73 34 74 40 75 42 76 35 77 36 78 37 79
REMARK SMILES IDX 38 80 39 81 65 82 66 83 75 84 67 85 68 86 74 87 76 88 69 89
REMARK SMILES IDX 70 90 71 91 72 92 73 93 49 94 50 95 59 96 51 97 52 98 58 99
REMARK SMILES IDX 60 100 53 101 54 102 55 103 56 104 57 105
REMARK H PARENT 15 6 88 12 5 24 5 25 19 36 81 55 47 66
REMARK Flexibility Score: inf
ROOT
ATOM      1  C   UNL A   1      37.554  23.153  25.610  1.00  0.00     0.042 C 
ENDROOT
BRANCH   1   2
ATOM      2  C   UNL A   1      36.055  23.366  25.782  1.00  0.00     0.118 C 
BRANCH   2   3
ATOM      3  N   UNL A   1      35.329  22.996  24.581  1.00  0.00    -0.351 N 
ATOM      4  C   UNL A   1      34.072  22.491  24.432  1.00  0.00     0.278 C 
ATOM      5  O   UNL A   1      33.677  22.275  23.283  1.00  0.00    -0.268 OA
ATOM      6  H   UNL A   1      35.823  23.129  23.740  1.00  0.00     0.163 HD
BRANCH   4   7
ATOM      7  C   UNL A   1      33.142  22.269  25.641  1.00  0.00     0.282 C 
BRANCH   7   8
ATOM      8  C   UNL A   1      31.858  23.107  25.479  1.00  0.00     0.175 C 
BRANCH   8   9
ATOM      9  C   UNL A   1      31.892  24.428  26.219  1.00  0.00     0.230 C 
ATOM     10  O   UNL A   1      31.261  24.609  27.255  1.00  0.00    -0.274 OA
ATOM     11  N   UNL A   1      32.659  25.377  25.562  1.00  0.00    -0.326 N 
ATOM     12  H   UNL A   1      33.228  25.085  24.815  1.00  0.00     0.169 HD
BRANCH  11  13
ATOM     13  C   UNL A   1      32.659  26.732  25.913  1.00  0.00     0.041 A 
ATOM     14  C   UNL A   1      31.585  27.512  25.488  1.00  0.00     0.027 A 
ATOM     15  C   UNL A   1      33.711  27.309  26.622  1.00  0.00     0.034 A 
ATOM     16  C   UNL A   1      31.500  28.847  25.872  1.00  0.00     0.011 A 
ATOM     17  C   UNL A   1      33.705  28.692  26.886  1.00  0.00    -0.016 A 
ATOM     18  C   UNL A   1      32.557  29.454  26.562  1.00  0.00    -0.018 A 
ATOM     19  C   UNL A   1      34.819  29.350  27.432  1.00  0.00     0.009 A 
ATOM     20  C   UNL A   1      32.507  30.813  26.897  1.00  0.00     0.009 A 
ATOM     21  C   UNL A   1      34.787  30.725  27.676  1.00  0.00     0.001 A 
ATOM     22  C   UNL A   1      33.622  31.449  27.442  1.00  0.00     0.001 A 
ENDBRANCH  11  13
ENDBRANCH   8   9
ENDBRANCH   7   8
BRANCH   7  23
ATOM     23  N   UNL A   1      32.892  20.809  25.874  1.00  0.00    -0.332 N 
ATOM     24  H   UNL A   1      32.196  20.716  26.613  1.00  0.00     0.347 HD
ATOM     25  H   UNL A   1      33.787  20.390  26.125  1.00  0.00     0.347 HD
BRANCH  23  26
ATOM     26  C   UNL A   1      32.401  20.090  24.680  1.00  0.00     0.299 C 
BRANCH  26  27
ATOM     27  C   UNL A   1      32.829  18.650  24.660  1.00  0.00     0.024 A 
ATOM     28  C   UNL A   1      33.409  18.082  23.520  1.00  0.00     0.013 A 
ATOM     29  C   UNL A   1      32.609  17.815  25.751  1.00  0.00     0.120 A 
ATOM     30  C   UNL A   1      33.701  16.724  23.498  1.00  0.00     0.021 A 
ATOM     31  N   UNL A   1      32.911  16.497  25.764  1.00  0.00    -0.264 NA
ATOM     32  C   UNL A   1      33.432  15.979  24.632  1.00  0.00     0.111 A 
ENDBRANCH  26  27
ENDBRANCH  23  26
ENDBRANCH   7  23
ENDBRANCH   4   7
ENDBRANCH   2   3
ENDBRANCH   1   2
BRANCH   1  33
ATOM     33  C   UNL A   1      38.400  24.148  26.396  1.00  0.00     0.118 C 
BRANCH  33  34
ATOM     34  N   UNL A   1      39.827  23.942  26.191  1.00  0.00    -0.352 N 
ATOM     35  C   UNL A   1      40.893  24.699  26.612  1.00  0.00     0.251 C 
ATOM     36  H   UNL A   1      40.063  23.138  25.675  1.00  0.00     0.163 HD
ATOM     37  O   UNL A   1      42.008  24.480  26.153  1.00  0.00    -0.269 OA
BRANCH  35  38
ATOM     38  C   UNL A   1      40.688  25.784  27.596  1.00  0.00     0.039 A 
ATOM     39  C   UNL A   1      39.717  25.625  28.587  1.00  0.00     0.014 A 
ATOM     40  C   UNL A   1      41.448  26.956  27.541  1.00  0.00     0.014 A 
ATOM     41  C   UNL A   1      39.558  26.610  29.564  1.00  0.00     0.010 A 
ATOM     42  C   UNL A   1      41.347  27.895  28.562  1.00  0.00     0.010 A 
ATOM     43  C   UNL A   1      40.401  27.733  29.585  1.00  0.00    -0.014 A 
BRANCH  43  44
ATOM     44  C   UNL A   1      40.320  28.742  30.673  1.00  0.00     0.031 A 
ATOM     45  C   UNL A   1      41.187  28.609  31.896  1.00  0.00     0.074 A 
ATOM     46  C   UNL A   1      39.415  29.737  30.591  1.00  0.00     0.049 A 
ATOM     47  N   UNL A   1      41.203  29.341  32.980  1.00  0.00    -0.248 NA
ATOM     48  C   UNL A   1      42.146  27.492  31.914  1.00  0.00     0.031 C 
ATOM     49  C   UNL A   1      38.487  29.946  29.476  1.00  0.00     0.029 A 
ATOM     50  N   UNL A   1      39.115  30.754  31.462  1.00  0.00    -0.354 N 
ATOM     51  C   UNL A   1      42.160  28.768  33.811  1.00  0.00     0.074 A 
ATOM     52  C   UNL A   1      42.664  27.596  33.129  1.00  0.00     0.031 C 
ATOM     53  C   UNL A   1      37.740  31.033  29.723  1.00  0.00     0.029 A 
ATOM     54  C   UNL A   1      38.098  31.572  31.030  1.00  0.00     0.049 A 
ATOM     55  H   UNL A   1      39.584  30.885  32.318  1.00  0.00     0.167 HD
ATOM     56  C   UNL A   1      42.595  29.194  35.020  1.00  0.00     0.037 A 
ATOM     57  C   UNL A   1      37.511  32.630  31.624  1.00  0.00     0.037 A 
ATOM     58  C   UNL A   1      42.098  30.372  35.684  1.00  0.00     0.049 A 
ATOM     59  C   UNL A   1      37.995  33.070  32.979  1.00  0.00     0.074 A 
ATOM     60  C   UNL A   1      42.512  30.919  36.888  1.00  0.00     0.029 A 
ATOM     61  N   UNL A   1      41.076  31.180  35.210  1.00  0.00    -0.354 N 
ATOM     62  N   UNL A   1      38.947  32.556  33.721  1.00  0.00    -0.248 NA
ATOM     63  C   UNL A   1      37.328  34.234  33.578  1.00  0.00     0.031 C 
ATOM     64  C   UNL A   1      41.702  32.024  37.166  1.00  0.00     0.029 A 
ATOM     65  C   UNL A   1      40.825  32.204  36.109  1.00  0.00     0.049 A 
ATOM     66  H   UNL A   1      40.598  31.045  34.359  1.00  0.00     0.167 HD
ATOM     67  C   UNL A   1      39.013  33.351  34.859  1.00  0.00     0.074 A 
ATOM     68  C   UNL A   1      38.014  34.388  34.702  1.00  0.00     0.031 C 
ATOM     69  C   UNL A   1      39.830  33.236  35.936  1.00  0.00     0.037 A 
BRANCH  56  70
ATOM     70  C   UNL A   1      43.662  28.384  35.708  1.00  0.00     0.058 A 
ATOM     71  C   UNL A   1      43.342  27.361  36.617  1.00  0.00     0.135 A 
ATOM     72  C   UNL A   1      45.020  28.604  35.425  1.00  0.00     0.135 A 
ATOM     73  F   UNL A   1      42.061  27.116  36.937  1.00  0.00    -0.206 F 
ATOM     74  C   UNL A   1      44.329  26.607  37.242  1.00  0.00     0.059 A 
ATOM     75  C   UNL A   1      46.023  27.840  36.014  1.00  0.00     0.059 A 
ATOM     76  F   UNL A   1      45.384  29.567  34.565  1.00  0.00    -0.206 F 
ATOM     77  C   UNL A   1      45.668  26.853  36.933  1.00  0.00     0.060 A 
BRANCH  77  78
ATOM     78  S   UNL A   1      46.936  25.859  37.749  1.00  0.00     0.124 S 
ATOM     79  O   UNL A   1      47.181  24.825  36.747  1.00  0.00    -0.237 OA
ATOM     80  O   UNL A   1      48.013  26.825  37.939  1.00  0.00    -0.237 OA
ATOM     81  O   UNL A   1      46.280  25.406  38.970  1.00  0.00    -0.744 OA
ENDBRANCH  77  78
ENDBRANCH  56  70
BRANCH  57  82
ATOM     82  C   UNL A   1      36.409  33.353  30.934  1.00  0.00     0.058 A 
ATOM     83  C   UNL A   1      35.082  33.237  31.373  1.00  0.00     0.135 A 
ATOM     84  C   UNL A   1      36.658  34.185  29.830  1.00  0.00     0.135 A 
ATOM     85  F   UNL A   1      34.789  32.449  32.419  1.00  0.00    -0.206 F 
ATOM     86  C   UNL A   1      34.039  33.902  30.735  1.00  0.00     0.059 A 
ATOM     87  C   UNL A   1      35.638  34.883  29.192  1.00  0.00     0.059 A 
ATOM     88  F   UNL A   1      37.912  34.346  29.379  1.00  0.00    -0.206 F 
ATOM     89  C   UNL A   1      34.329  34.727  29.647  1.00  0.00     0.060 A 
BRANCH  89  90
ATOM     90  S   UNL A   1      32.975  35.623  28.857  1.00  0.00     0.124 S 
ATOM     91  O   UNL A   1      32.336  34.567  28.082  1.00  0.00    -0.237 OA
ATOM     92  O   UNL A   1      32.224  36.116  30.008  1.00  0.00    -0.237 OA
ATOM     93  O   UNL A   1      33.661  36.651  28.080  1.00  0.00    -0.744 OA
ENDBRANCH  89  90
ENDBRANCH  57  82
BRANCH  69  94
ATOM     94  C   UNL A   1      39.707  34.273  37.019  1.00  0.00     0.058 A 
ATOM     95  C   UNL A   1      38.972  34.038  38.191  1.00  0.00     0.135 A 
ATOM     96  C   UNL A   1      40.388  35.498  36.907  1.00  0.00     0.135 A 
ATOM     97  F   UNL A   1      38.296  32.888  38.345  1.00  0.00    -0.206 F 
ATOM     98  C   UNL A   1      38.901  34.986  39.206  1.00  0.00     0.059 A 
ATOM     99  C   UNL A   1      40.356  36.447  37.923  1.00  0.00     0.059 A 
ATOM    100  F   UNL A   1      41.113  35.772  35.811  1.00  0.00    -0.206 F 
ATOM    101  C   UNL A   1      39.601  36.186  39.065  1.00  0.00     0.060 A 
BRANCH 101 102
ATOM    102  S   UNL A   1      39.535  37.387  40.411  1.00  0.00     0.124 S 
ATOM    103  O   UNL A   1      38.759  38.465  39.807  1.00  0.00    -0.237 OA
ATOM    104  O   UNL A   1      38.864  36.637  41.466  1.00  0.00    -0.237 OA
ATOM    105  O   UNL A   1      40.940  37.693  40.664  1.00  0.00    -0.744 OA
ENDBRANCH 101 102
ENDBRANCH  69  94
ENDBRANCH  43  44
ENDBRANCH  35  38
ENDBRANCH  33  34
ENDBRANCH   1  33
TORSDOF 19
ENDMDL
MODEL 3
REMARK VINA RESULT:     -12.0      3.401      9.222
REMARK SMILES O=C(C[C@@H]([NH2+]Cc1cccnc1)C(=O)NCCCNC(=O)c1ccc(-c2c3nc(c(-c4c(F)cc(S(=O)(=O)[O-])cc4F)c4ccc([nH]4)c(-c4c(F)cc(S(=O)(=O)[O-])cc4F)c4nc(c(-c5c(F)cc(S(=O)(=O)[O-])cc5F)c5ccc2[nH]5)C=C4)C=C3)cc1)Nc1ccc2ccccc2c1
REMARK SMILES IDX 17 1 16 2 15 3 13 4 14 5 4 7 3 8 2 9 1 10 88 11 89 13 90 14
REMARK SMILES IDX 98 15 91 16 97 17 92 18 96 19 93 20 95 21 94 22 5 23 6 26
REMARK SMILES IDX 7 27 8 28 12 29 9 30 11 31 10 32 18 33 19 34 20 35 21 37
REMARK SMILES IDX 22 38 23 39 87 40 24 41 86 42 25 43 26 44 27 45 80 46 28 47
REMARK SMILES IDX 85 48 79 49 81 50 29 51 84 52 78 53 77 54 30 56 64 57 43 58
REMARK SMILES IDX 63 59 44 60 47 61 62 62 82 63 45 64 46 65 61 67 83 68 48 69
REMARK SMILES IDX 31 70 32 71 41 72 33 73 34 74 40 75 42 76 35 77 36 78 37 79
REMARK SMILES IDX 38 80 39 81 65 82 66 83 75 84 67 85 68 86 74 87 76 88 69 89
REMARK SMILES IDX 70 90 71 91 72 92 73 93 49 94 50 95 59 96 51 97 52 98 58 99
REMARK SMILES IDX 60 100 53 101 54 102 55 103 56 104 57 105
REMARK H PARENT 15 6 88 12 5 24 5 25 19 36 81 55 47 66
REMARK Flexibility Score: inf
ROOT
ATOM      1  C   UNL A   1      39.060  22.391  26.454  1.00  0.00     0.042 C 
ENDROOT
BRANCH   1   2
ATOM      2  C   UNL A   1      37.740  23.006  26.008  1.00  0.00     0.118 C 
BRANCH   2   3
ATOM      3  N   UNL A   1      37.633  23.032  24.560  1.00  0.00    -0.351 N 
ATOM      4  C   UNL A   1      36.568  22.771  23.750  1.00  0.00     0.278 C 
ATOM      5  O   UNL A   1      36.737  22.883  22.533  1.00  0.00    -0.268 OA
ATOM      6  H   UNL A   1      38.461  23.276  24.088  1.00  0.00     0.163 HD
BRANCH   4   7
ATOM      7  C   UNL A   1      35.182  22.424  24.326  1.00  0.00     0.282 C 
BRANCH   7   8
ATOM      8  C   UNL A   1      34.078  22.858  23.340  1.00  0.00     0.175 C 
BRANCH   8   9
ATOM      9  C   UNL A   1      33.683  24.314  23.465  1.00  0.00     0.230 C 
ATOM     10  O   UNL A   1      33.934  25.133  22.588  1.00  0.00    -0.274 OA
ATOM     11  N   UNL A   1      33.074  24.589  24.679  1.00  0.00    -0.326 N 
ATOM     12  H   UNL A   1      32.801  23.835  25.249  1.00  0.00     0.169 HD
BRANCH  11  13
ATOM     13  C   UNL A   1      32.830  25.891  25.132  1.00  0.00     0.041 A 
ATOM     14  C   UNL A   1      31.654  26.513  24.716  1.00  0.00     0.027 A 
ATOM     15  C   UNL A   1      33.742  26.574  25.935  1.00  0.00     0.034 A 
ATOM     16  C   UNL A   1      31.328  27.778  25.196  1.00  0.00     0.011 A 
ATOM     17  C   UNL A   1      33.490  27.910  26.303  1.00  0.00    -0.016 A 
ATOM     18  C   UNL A   1      32.240  28.493  25.982  1.00  0.00    -0.018 A 
ATOM     19  C   UNL A   1      34.454  28.697  26.952  1.00  0.00     0.009 A 
ATOM     20  C   UNL A   1      31.947  29.792  26.417  1.00  0.00     0.009 A 
ATOM     21  C   UNL A   1      34.179  30.021  27.299  1.00  0.00     0.001 A 
ATOM     22  C   UNL A   1      32.916  30.557  27.064  1.00  0.00     0.001 A 
ENDBRANCH  11  13
ENDBRANCH   8   9
ENDBRANCH   7   8
BRANCH   7  23
ATOM     23  N   UNL A   1      35.105  20.982  24.731  1.00  0.00    -0.332 N 
ATOM     24  H   UNL A   1      35.619  20.865  25.604  1.00  0.00     0.347 HD
ATOM     25  H   UNL A   1      35.503  20.437  23.967  1.00  0.00     0.347 HD
BRANCH  23  26
ATOM     26  C   UNL A   1      33.726  20.493  24.934  1.00  0.00     0.299 C 
BRANCH  26  27
ATOM     27  C   UNL A   1      33.640  18.992  24.917  1.00  0.00     0.024 A 
ATOM     28  C   UNL A   1      34.625  18.219  24.292  1.00  0.00     0.013 A 
ATOM     29  C   UNL A   1      32.551  18.323  25.466  1.00  0.00     0.120 A 
ATOM     30  C   UNL A   1      34.466  16.841  24.203  1.00  0.00     0.021 A 
ATOM     31  N   UNL A   1      32.388  16.982  25.418  1.00  0.00    -0.264 NA
ATOM     32  C   UNL A   1      33.339  16.275  24.772  1.00  0.00     0.111 A 
ENDBRANCH  26  27
ENDBRANCH  23  26
ENDBRANCH   7  23
ENDBRANCH   4   7
ENDBRANCH   2   3
ENDBRANCH   1   2
BRANCH   1  33
ATOM     33  C   UNL A   1      40.018  23.401  27.075  1.00  0.00     0.118 C 
BRANCH  33  34
ATOM     34  N   UNL A   1      40.678  24.225  26.072  1.00  0.00    -0.352 N 
ATOM     35  C   UNL A   1      41.025  25.553  26.117  1.00  0.00     0.251 C 
ATOM     36  H   UNL A   1      40.911  23.760  25.237  1.00  0.00     0.163 HD
ATOM     37  O   UNL A   1      41.375  26.121  25.089  1.00  0.00    -0.269 OA
BRANCH  35  38
ATOM     38  C   UNL A   1      40.954  26.295  27.395  1.00  0.00     0.039 A 
ATOM     39  C   UNL A   1      42.013  27.134  27.750  1.00  0.00     0.014 A 
ATOM     40  C   UNL A   1      39.851  26.163  28.243  1.00  0.00     0.014 A 
ATOM     41  C   UNL A   1      41.932  27.893  28.919  1.00  0.00     0.010 A 
ATOM     42  C   UNL A   1      39.734  26.982  29.361  1.00  0.00     0.010 A 
ATOM     43  C   UNL A   1      40.774  27.856  29.712  1.00  0.00    -0.014 A 
BRANCH  43  44
ATOM     44  C   UNL A   1      40.622  28.732  30.902  1.00  0.00     0.031 A 
ATOM     45  C   UNL A   1      39.597  29.833  30.908  1.00  0.00     0.074 A 
ATOM     46  C   UNL A   1      41.456  28.579  31.950  1.00  0.00     0.049 A 
ATOM     47  N   UNL A   1      39.370  30.746  31.817  1.00  0.00    -0.248 NA
ATOM     48  C   UNL A   1      38.728  29.940  29.724  1.00  0.00     0.031 C 
ATOM     49  C   UNL A   1      42.519  27.575  32.045  1.00  0.00     0.029 A 
ATOM     50  N   UNL A   1      41.551  29.271  33.131  1.00  0.00    -0.354 N 
ATOM     51  C   UNL A   1      38.345  31.539  31.313  1.00  0.00     0.074 A 
ATOM     52  C   UNL A   1      38.032  31.034  29.993  1.00  0.00     0.031 C 
ATOM     53  C   UNL A   1      43.143  27.704  33.227  1.00  0.00     0.029 A 
ATOM     54  C   UNL A   1      42.559  28.826  33.954  1.00  0.00     0.049 A 
ATOM     55  H   UNL A   1      40.954  30.017  33.368  1.00  0.00     0.167 HD
ATOM     56  C   UNL A   1      37.709  32.577  31.905  1.00  0.00     0.037 A 
ATOM     57  C   UNL A   1      42.976  29.277  35.154  1.00  0.00     0.037 A 
ATOM     58  C   UNL A   1      38.017  33.062  33.225  1.00  0.00     0.049 A 
ATOM     59  C   UNL A   1      42.268  30.449  35.781  1.00  0.00     0.074 A 
ATOM     60  C   UNL A   1      37.394  34.074  33.937  1.00  0.00     0.029 A 
ATOM     61  N   UNL A   1      39.038  32.579  34.031  1.00  0.00    -0.354 N 
ATOM     62  N   UNL A   1      41.257  31.144  35.318  1.00  0.00    -0.248 NA
ATOM     63  C   UNL A   1      42.755  30.895  37.093  1.00  0.00     0.031 C 
ATOM     64  C   UNL A   1      38.073  34.238  35.148  1.00  0.00     0.029 A 
ATOM     65  C   UNL A   1      39.080  33.290  35.220  1.00  0.00     0.049 A 
ATOM     66  H   UNL A   1      39.643  31.839  33.793  1.00  0.00     0.167 HD
ATOM     67  C   UNL A   1      40.968  32.090  36.295  1.00  0.00     0.074 A 
ATOM     68  C   UNL A   1      41.903  31.870  37.379  1.00  0.00     0.031 C 
ATOM     69  C   UNL A   1      40.013  33.053  36.295  1.00  0.00     0.037 A 
BRANCH  56  70
ATOM     70  C   UNL A   1      36.613  33.262  31.131  1.00  0.00     0.058 A 
ATOM     71  C   UNL A   1      36.894  34.105  30.042  1.00  0.00     0.135 A 
ATOM     72  C   UNL A   1      35.264  33.042  31.455  1.00  0.00     0.135 A 
ATOM     73  F   UNL A   1      38.165  34.363  29.697  1.00  0.00    -0.206 F 
ATOM     74  C   UNL A   1      35.880  34.727  29.323  1.00  0.00     0.059 A 
ATOM     75  C   UNL A   1      34.232  33.629  30.729  1.00  0.00     0.059 A 
ATOM     76  F   UNL A   1      34.937  32.247  32.485  1.00  0.00    -0.206 F 
ATOM     77  C   UNL A   1      34.551  34.482  29.673  1.00  0.00     0.060 A 
BRANCH  77  78
ATOM     78  S   UNL A   1      33.247  35.293  28.722  1.00  0.00     0.124 S 
ATOM     79  O   UNL A   1      32.661  34.160  28.011  1.00  0.00    -0.237 OA
ATOM     80  O   UNL A   1      32.419  35.881  29.770  1.00  0.00    -0.237 OA
ATOM     81  O   UNL A   1      33.974  36.246  27.891  1.00  0.00    -0.744 OA
ENDBRANCH  77  78
ENDBRANCH  56  70
BRANCH  57  82
ATOM     82  C   UNL A   1      44.113  28.611  35.845  1.00  0.00     0.058 A 
ATOM     83  C   UNL A   1      43.895  27.556  36.742  1.00  0.00     0.135 A 
ATOM     84  C   UNL A   1      45.441  29.007  35.615  1.00  0.00     0.135 A 
ATOM     85  F   UNL A   1      42.644  27.144  37.002  1.00  0.00    -0.206 F 
ATOM     86  C   UNL A   1      44.947  26.927  37.401  1.00  0.00     0.059 A 
ATOM     87  C   UNL A   1      46.512  28.375  36.239  1.00  0.00     0.059 A 
ATOM     88  F   UNL A   1      45.707  30.000  34.753  1.00  0.00    -0.206 F 
ATOM     89  C   UNL A   1      46.254  27.342  37.138  1.00  0.00     0.060 A 
BRANCH  89  90
ATOM     90  S   UNL A   1      47.615  26.487  37.962  1.00  0.00     0.124 S 
ATOM     91  O   UNL A   1      46.898  25.598  38.868  1.00  0.00    -0.237 OA
ATOM     92  O   UNL A   1      48.294  25.845  36.840  1.00  0.00    -0.237 OA
ATOM     93  O   UNL A   1      48.358  27.571  38.596  1.00  0.00    -0.744 OA
ENDBRANCH  89  90
ENDBRANCH  57  82
BRANCH  69  94
ATOM     94  C   UNL A   1      39.902  33.924  37.518  1.00  0.00     0.058 A 
ATOM     95  C   UNL A   1      40.656  35.098  37.663  1.00  0.00     0.135 A 
ATOM     96  C   UNL A   1      38.979  33.609  38.530  1.00  0.00     0.135 A 
ATOM     97  F   UNL A   1      41.558  35.442  36.729  1.00  0.00    -0.206 F 
ATOM     98  C   UNL A   1      40.514  35.920  38.776  1.00  0.00     0.059 A 
ATOM     99  C   UNL A   1      38.798  34.432  39.637  1.00  0.00     0.059 A 
ATOM    100  F   UNL A   1      38.226  32.501  38.438  1.00  0.00    -0.206 F 
ATOM    101  C   UNL A   1      39.578  35.581  39.755  1.00  0.00     0.060 A 
BRANCH 101 102
ATOM    102  S   UNL A   1      39.372  36.682  41.172  1.00  0.00     0.124 S 
ATOM    103  O   UNL A   1      40.757  36.902  41.576  1.00  0.00    -0.237 OA
ATOM    104  O   UNL A   1      38.695  37.829  40.578  1.00  0.00    -0.237 OA
ATOM    105  O   UNL A   1      38.566  35.896  42.100  1.00  0.00    -0.744 OA
ENDBRANCH 101 102
ENDBRANCH  69  94
ENDBRANCH  43  44
ENDBRANCH  35  38
ENDBRANCH  33  34
ENDBRANCH   1  33
TORSDOF 19
ENDMDL
