MODEL 1
REMARK VINA RESULT:     -11.8      0.000      0.000
REMARK SMILES Cc1cccc(Nc2ccccc2C(=O)NCCCNC(=O)c2ccc(-c3c4nc(c(-c5c(F)cc(S(=O)(=O)[O-])cc5F)c5ccc([nH]5)c(-c5c(F)cc(S(=O)(=O)[O-])cc5F)c5nc(c(-c6c(F)cc(S(=O)(=O)[O-])cc6F)c6ccc3[nH]6)C=C5)C=C4)cc2)c1C
REMARK SMILES IDX 18 1 17 2 16 3 14 4 15 5 13 7 8 8 9 9 10 10 12 11 11 12 7 13
REMARK SMILES IDX 6 15 1 16 2 17 3 18 89 19 4 20 90 21 5 22 19 23 20 24 21 25
REMARK SMILES IDX 22 27 23 28 24 29 88 30 25 31 87 32 26 33 27 34 28 35 81 36
REMARK SMILES IDX 29 37 86 38 80 39 82 40 30 41 85 42 79 43 78 44 31 46 65 47
REMARK SMILES IDX 44 48 64 49 45 50 48 51 63 52 83 53 46 54 47 55 62 57 84 58
REMARK SMILES IDX 49 59 32 60 33 61 42 62 34 63 35 64 41 65 43 66 36 67 37 68
REMARK SMILES IDX 38 69 39 70 40 71 66 72 67 73 76 74 68 75 69 76 75 77 77 78
REMARK SMILES IDX 70 79 71 80 72 81 73 82 74 83 50 84 51 85 60 86 52 87 53 88
REMARK SMILES IDX 59 89 61 90 54 91 55 92 56 93 57 94 58 95
REMARK H PARENT 16 6 7 14 20 26 82 45 48 56
REMARK Flexibility Score: inf
ROOT
ATOM      1  C   UNL A   1      32.037  27.981  26.953  1.00  0.00     0.042 C 
ENDROOT
BRANCH   1   2
ATOM      2  C   UNL A   1      31.978  26.593  26.361  1.00  0.00     0.118 C 
BRANCH   2   3
ATOM      3  N   UNL A   1      30.848  25.780  26.718  1.00  0.00    -0.352 N 
ATOM      4  C   UNL A   1      30.682  24.431  26.500  1.00  0.00     0.253 C 
ATOM      5  O   UNL A   1      29.803  23.866  27.158  1.00  0.00    -0.269 OA
ATOM      6  H   UNL A   1      30.106  26.241  27.170  1.00  0.00     0.163 HD
BRANCH   4   7
ATOM      7  C   UNL A   1      31.376  23.657  25.415  1.00  0.00     0.063 A 
ATOM      8  C   UNL A   1      31.303  23.784  24.011  1.00  0.00     0.051 A 
ATOM      9  C   UNL A   1      31.977  22.814  23.223  1.00  0.00     0.027 A 
ATOM     10  C   UNL A   1      32.757  21.802  23.778  1.00  0.00     0.002 A 
ATOM     11  C   UNL A   1      32.198  22.632  25.955  1.00  0.00     0.016 A 
ATOM     12  C   UNL A   1      32.890  21.726  25.152  1.00  0.00     0.001 A 
BRANCH   8  13
ATOM     13  N   UNL A   1      30.726  24.822  23.244  1.00  0.00    -0.355 N 
ATOM     14  H   UNL A   1      29.991  24.501  22.674  1.00  0.00     0.167 HD
BRANCH  13  15
ATOM     15  C   UNL A   1      30.951  26.206  23.099  1.00  0.00     0.042 A 
ATOM     16  C   UNL A   1      33.682  28.868  22.758  1.00  0.00     0.044 C 
ATOM     17  C   UNL A   1      32.347  28.200  22.959  1.00  0.00    -0.046 A 
ATOM     18  C   UNL A   1      31.249  28.996  23.318  1.00  0.00     0.004 A 
ATOM     19  C   UNL A   1      32.192  26.799  22.796  1.00  0.00    -0.025 A 
ATOM     20  C   UNL A   1      30.001  28.425  23.517  1.00  0.00     0.002 A 
ATOM     21  C   UNL A   1      33.348  25.986  22.272  1.00  0.00     0.047 C 
ATOM     22  C   UNL A   1      29.855  27.046  23.407  1.00  0.00     0.026 A 
ENDBRANCH  13  15
ENDBRANCH   8  13
ENDBRANCH   4   7
ENDBRANCH   2   3
ENDBRANCH   1   2
BRANCH   1  23
ATOM     23  C   UNL A   1      33.439  28.467  27.291  1.00  0.00     0.118 C 
BRANCH  23  24
ATOM     24  N   UNL A   1      33.521  29.870  27.708  1.00  0.00    -0.352 N 
ATOM     25  C   UNL A   1      34.559  30.622  28.223  1.00  0.00     0.251 C 
ATOM     26  H   UNL A   1      32.679  30.369  27.601  1.00  0.00     0.163 HD
ATOM     27  O   UNL A   1      34.357  31.769  28.589  1.00  0.00    -0.269 OA
BRANCH  25  28
ATOM     28  C   UNL A   1      35.906  30.026  28.379  1.00  0.00     0.039 A 
ATOM     29  C   UNL A   1      36.821  30.100  27.321  1.00  0.00     0.014 A 
ATOM     30  C   UNL A   1      36.283  29.422  29.573  1.00  0.00     0.014 A 
ATOM     31  C   UNL A   1      38.139  29.676  27.513  1.00  0.00     0.010 A 
ATOM     32  C   UNL A   1      37.620  29.147  29.812  1.00  0.00     0.010 A 
ATOM     33  C   UNL A   1      38.564  29.252  28.782  1.00  0.00    -0.014 A 
BRANCH  33  34
ATOM     34  C   UNL A   1      39.970  28.868  29.071  1.00  0.00     0.031 A 
ATOM     35  C   UNL A   1      40.916  29.904  29.625  1.00  0.00     0.074 A 
ATOM     36  C   UNL A   1      40.425  27.647  28.728  1.00  0.00     0.049 A 
ATOM     37  N   UNL A   1      42.214  29.850  29.769  1.00  0.00    -0.248 NA
ATOM     38  C   UNL A   1      40.325  31.197  30.010  1.00  0.00     0.031 C 
ATOM     39  C   UNL A   1      39.626  26.583  28.114  1.00  0.00     0.029 A 
ATOM     40  N   UNL A   1      41.680  27.100  28.826  1.00  0.00    -0.354 N 
ATOM     41  C   UNL A   1      42.593  31.111  30.219  1.00  0.00     0.074 A 
ATOM     42  C   UNL A   1      41.403  31.928  30.244  1.00  0.00     0.031 C 
ATOM     43  C   UNL A   1      40.404  25.507  27.911  1.00  0.00     0.029 A 
ATOM     44  C   UNL A   1      41.764  25.816  28.340  1.00  0.00     0.049 A 
ATOM     45  H   UNL A   1      42.449  27.582  29.209  1.00  0.00     0.167 HD
ATOM     46  C   UNL A   1      43.815  31.539  30.615  1.00  0.00     0.037 A 
ATOM     47  C   UNL A   1      42.821  24.987  28.244  1.00  0.00     0.037 A 
ATOM     48  C   UNL A   1      44.981  30.698  30.639  1.00  0.00     0.049 A 
ATOM     49  C   UNL A   1      44.159  25.458  28.744  1.00  0.00     0.074 A 
ATOM     50  C   UNL A   1      46.256  31.001  31.080  1.00  0.00     0.029 A 
ATOM     51  N   UNL A   1      45.005  29.376  30.217  1.00  0.00    -0.354 N 
ATOM     52  N   UNL A   1      44.493  26.636  29.215  1.00  0.00    -0.248 NA
ATOM     53  C   UNL A   1      45.261  24.487  28.713  1.00  0.00     0.031 C 
ATOM     54  C   UNL A   1      47.059  29.869  30.899  1.00  0.00     0.029 A 
ATOM     55  C   UNL A   1      46.273  28.848  30.385  1.00  0.00     0.049 A 
ATOM     56  H   UNL A   1      44.234  28.885  29.851  1.00  0.00     0.167 HD
ATOM     57  C   UNL A   1      45.836  26.544  29.559  1.00  0.00     0.074 A 
ATOM     58  C   UNL A   1      46.249  25.188  29.254  1.00  0.00     0.031 C 
ATOM     59  C   UNL A   1      46.655  27.491  30.079  1.00  0.00     0.037 A 
BRANCH  46  60
ATOM     60  C   UNL A   1      43.931  32.971  31.069  1.00  0.00     0.058 A 
ATOM     61  C   UNL A   1      44.322  33.993  30.187  1.00  0.00     0.135 A 
ATOM     62  C   UNL A   1      43.669  33.326  32.402  1.00  0.00     0.135 A 
ATOM     63  F   UNL A   1      44.602  33.709  28.905  1.00  0.00    -0.206 F 
ATOM     64  C   UNL A   1      44.503  35.302  30.621  1.00  0.00     0.059 A 
ATOM     65  C   UNL A   1      43.809  34.637  32.850  1.00  0.00     0.059 A 
ATOM     66  F   UNL A   1      43.289  32.393  33.289  1.00  0.00    -0.206 F 
ATOM     67  C   UNL A   1      44.250  35.613  31.957  1.00  0.00     0.060 A 
BRANCH  67  68
ATOM     68  S   UNL A   1      44.513  37.310  32.509  1.00  0.00     0.124 S 
ATOM     69  O   UNL A   1      45.906  37.528  32.126  1.00  0.00    -0.237 OA
ATOM     70  O   UNL A   1      43.523  38.051  31.735  1.00  0.00    -0.237 OA
ATOM     71  O   UNL A   1      44.260  37.244  33.945  1.00  0.00    -0.744 OA
ENDBRANCH  67  68
ENDBRANCH  46  60
BRANCH  47  72
ATOM     72  C   UNL A   1      42.638  23.619  27.688  1.00  0.00     0.058 A 
ATOM     73  C   UNL A   1      42.671  23.392  26.304  1.00  0.00     0.135 A 
ATOM     74  C   UNL A   1      42.478  22.505  28.527  1.00  0.00     0.135 A 
ATOM     75  F   UNL A   1      42.819  24.425  25.460  1.00  0.00    -0.206 F 
ATOM     76  C   UNL A   1      42.548  22.113  25.769  1.00  0.00     0.059 A 
ATOM     77  C   UNL A   1      42.375  21.213  28.017  1.00  0.00     0.059 A 
ATOM     78  F   UNL A   1      42.458  22.664  29.859  1.00  0.00    -0.206 F 
ATOM     79  C   UNL A   1      42.408  21.028  26.636  1.00  0.00     0.060 A 
BRANCH  79  80
ATOM     80  S   UNL A   1      42.328  19.365  25.934  1.00  0.00     0.124 S 
ATOM     81  O   UNL A   1      42.806  18.552  27.046  1.00  0.00    -0.237 OA
ATOM     82  O   UNL A   1      40.910  19.237  25.611  1.00  0.00    -0.237 OA
ATOM     83  O   UNL A   1      43.219  19.445  24.781  1.00  0.00    -0.744 OA
ENDBRANCH  79  80
ENDBRANCH  47  72
BRANCH  59  84
ATOM     84  C   UNL A   1      48.069  27.088  30.385  1.00  0.00     0.058 A 
ATOM     85  C   UNL A   1      49.104  27.266  29.454  1.00  0.00     0.135 A 
ATOM     86  C   UNL A   1      48.400  26.569  31.648  1.00  0.00     0.135 A 
ATOM     87  F   UNL A   1      48.838  27.753  28.232  1.00  0.00    -0.206 F 
ATOM     88  C   UNL A   1      50.417  26.923  29.757  1.00  0.00     0.059 A 
ATOM     89  C   UNL A   1      49.710  26.245  31.982  1.00  0.00     0.059 A 
ATOM     90  F   UNL A   1      47.447  26.390  32.576  1.00  0.00    -0.206 F 
ATOM     91  C   UNL A   1      50.711  26.415  31.026  1.00  0.00     0.060 A 
BRANCH  91  92
ATOM     92  S   UNL A   1      52.425  26.005  31.418  1.00  0.00     0.124 S 
ATOM     93  O   UNL A   1      52.765  27.054  32.373  1.00  0.00    -0.237 OA
ATOM     94  O   UNL A   1      52.307  24.659  31.970  1.00  0.00    -0.237 OA
ATOM     95  O   UNL A   1      53.096  26.090  30.124  1.00  0.00    -0.744 OA
ENDBRANCH  91  92
ENDBRANCH  59  84
ENDBRANCH  33  34
ENDBRANCH  25  28
ENDBRANCH  23  24
ENDBRANCH   1  23
TORSDOF 15
ENDMDL
MODEL 2
REMARK VINA RESULT:     -11.8      2.818      3.641
REMARK SMILES Cc1cccc(Nc2ccccc2C(=O)NCCCNC(=O)c2ccc(-c3c4nc(c(-c5c(F)cc(S(=O)(=O)[O-])cc5F)c5ccc([nH]5)c(-c5c(F)cc(S(=O)(=O)[O-])cc5F)c5nc(c(-c6c(F)cc(S(=O)(=O)[O-])cc6F)c6ccc3[nH]6)C=C5)C=C4)cc2)c1C
REMARK SMILES IDX 18 1 17 2 16 3 14 4 15 5 13 7 8 8 9 9 10 10 12 11 11 12 7 13
REMARK SMILES IDX 6 15 1 16 2 17 3 18 89 19 4 20 90 21 5 22 19 23 20 24 21 25
REMARK SMILES IDX 22 27 23 28 24 29 88 30 25 31 87 32 26 33 27 34 28 35 81 36
REMARK SMILES IDX 29 37 86 38 80 39 82 40 30 41 85 42 79 43 78 44 31 46 65 47
REMARK SMILES IDX 44 48 64 49 45 50 48 51 63 52 83 53 46 54 47 55 62 57 84 58
REMARK SMILES IDX 49 59 32 60 33 61 42 62 34 63 35 64 41 65 43 66 36 67 37 68
REMARK SMILES IDX 38 69 39 70 40 71 66 72 67 73 76 74 68 75 69 76 75 77 77 78
REMARK SMILES IDX 70 79 71 80 72 81 73 82 74 83 50 84 51 85 60 86 52 87 53 88
REMARK SMILES IDX 59 89 61 90 54 91 55 92 56 93 57 94 58 95
REMARK H PARENT 16 6 7 14 20 26 82 45 48 56
REMARK Flexibility Score: inf
ROOT
ATOM      1  C   UNL A   1      33.072  27.958  26.862  1.00  0.00     0.042 C 
ENDROOT
BRANCH   1   2
ATOM      2  C   UNL A   1      31.614  27.742  26.533  1.00  0.00     0.118 C 
BRANCH   2   3
ATOM      3  N   UNL A   1      31.064  26.447  26.828  1.00  0.00    -0.352 N 
ATOM      4  C   UNL A   1      31.589  25.218  26.502  1.00  0.00     0.253 C 
ATOM      5  O   UNL A   1      31.144  24.243  27.117  1.00  0.00    -0.269 OA
ATOM      6  H   UNL A   1      30.213  26.440  27.321  1.00  0.00     0.163 HD
BRANCH   4   7
ATOM      7  C   UNL A   1      32.529  24.976  25.354  1.00  0.00     0.063 A 
ATOM      8  C   UNL A   1      32.321  25.094  23.962  1.00  0.00     0.051 A 
ATOM      9  C   UNL A   1      33.364  24.665  23.100  1.00  0.00     0.027 A 
ATOM     10  C   UNL A   1      34.593  24.210  23.572  1.00  0.00     0.002 A 
ATOM     11  C   UNL A   1      33.799  24.532  25.809  1.00  0.00     0.016 A 
ATOM     12  C   UNL A   1      34.822  24.167  24.935  1.00  0.00     0.001 A 
BRANCH   8  13
ATOM     13  N   UNL A   1      31.238  25.688  23.275  1.00  0.00    -0.355 N 
ATOM     14  H   UNL A   1      30.734  25.036  22.738  1.00  0.00     0.167 HD
BRANCH  13  15
ATOM     15  C   UNL A   1      30.707  26.990  23.174  1.00  0.00     0.042 A 
ATOM     16  C   UNL A   1      27.443  28.988  23.050  1.00  0.00     0.044 C 
ATOM     17  C   UNL A   1      28.899  28.612  22.964  1.00  0.00    -0.046 A 
ATOM     18  C   UNL A   1      29.805  29.560  22.465  1.00  0.00     0.004 A 
ATOM     19  C   UNL A   1      29.355  27.331  23.372  1.00  0.00    -0.025 A 
ATOM     20  C   UNL A   1      31.155  29.259  22.365  1.00  0.00     0.002 A 
ATOM     21  C   UNL A   1      28.390  26.384  24.036  1.00  0.00     0.047 C 
ATOM     22  C   UNL A   1      31.599  27.988  22.718  1.00  0.00     0.026 A 
ENDBRANCH  13  15
ENDBRANCH   8  13
ENDBRANCH   4   7
ENDBRANCH   2   3
ENDBRANCH   1   2
BRANCH   1  23
ATOM     23  C   UNL A   1      33.755  29.038  26.034  1.00  0.00     0.118 C 
BRANCH  23  24
ATOM     24  N   UNL A   1      33.671  30.389  26.596  1.00  0.00    -0.352 N 
ATOM     25  C   UNL A   1      34.469  31.066  27.498  1.00  0.00     0.251 C 
ATOM     26  H   UNL A   1      32.903  30.912  26.270  1.00  0.00     0.163 HD
ATOM     27  O   UNL A   1      34.138  32.174  27.892  1.00  0.00    -0.269 OA
BRANCH  25  28
ATOM     28  C   UNL A   1      35.700  30.434  28.027  1.00  0.00     0.039 A 
ATOM     29  C   UNL A   1      36.931  30.701  27.416  1.00  0.00     0.014 A 
ATOM     30  C   UNL A   1      35.650  29.604  29.142  1.00  0.00     0.014 A 
ATOM     31  C   UNL A   1      38.111  30.231  27.999  1.00  0.00     0.010 A 
ATOM     32  C   UNL A   1      36.822  29.271  29.802  1.00  0.00     0.010 A 
ATOM     33  C   UNL A   1      38.068  29.562  29.232  1.00  0.00    -0.014 A 
BRANCH  33  34
ATOM     34  C   UNL A   1      39.292  29.111  29.944  1.00  0.00     0.031 A 
ATOM     35  C   UNL A   1      39.749  29.861  31.170  1.00  0.00     0.074 A 
ATOM     36  C   UNL A   1      40.052  28.124  29.430  1.00  0.00     0.049 A 
ATOM     37  N   UNL A   1      40.874  29.769  31.828  1.00  0.00    -0.248 NA
ATOM     38  C   UNL A   1      38.837  30.898  31.685  1.00  0.00     0.031 C 
ATOM     39  C   UNL A   1      39.757  27.373  28.206  1.00  0.00     0.029 A 
ATOM     40  N   UNL A   1      41.243  27.595  29.860  1.00  0.00    -0.354 N 
ATOM     41  C   UNL A   1      40.819  30.761  32.802  1.00  0.00     0.074 A 
ATOM     42  C   UNL A   1      39.591  31.492  32.596  1.00  0.00     0.031 C 
ATOM     43  C   UNL A   1      40.728  26.468  27.999  1.00  0.00     0.029 A 
ATOM     44  C   UNL A   1      41.734  26.601  29.047  1.00  0.00     0.049 A 
ATOM     45  H   UNL A   1      41.703  27.899  30.676  1.00  0.00     0.167 HD
ATOM     46  C   UNL A   1      41.693  31.015  33.806  1.00  0.00     0.037 A 
ATOM     47  C   UNL A   1      42.872  25.885  29.132  1.00  0.00     0.037 A 
ATOM     48  C   UNL A   1      42.884  30.243  34.035  1.00  0.00     0.049 A 
ATOM     49  C   UNL A   1      43.802  26.139  30.287  1.00  0.00     0.074 A 
ATOM     50  C   UNL A   1      43.810  30.365  35.054  1.00  0.00     0.029 A 
ATOM     51  N   UNL A   1      43.303  29.189  33.235  1.00  0.00    -0.354 N 
ATOM     52  N   UNL A   1      43.713  27.046  31.231  1.00  0.00    -0.248 NA
ATOM     53  C   UNL A   1      44.979  25.268  30.398  1.00  0.00     0.031 C 
ATOM     54  C   UNL A   1      44.804  29.400  34.856  1.00  0.00     0.029 A 
ATOM     55  C   UNL A   1      44.475  28.650  33.737  1.00  0.00     0.049 A 
ATOM     56  H   UNL A   1      42.836  28.870  32.429  1.00  0.00     0.167 HD
ATOM     57  C   UNL A   1      44.808  26.842  32.062  1.00  0.00     0.074 A 
ATOM     58  C   UNL A   1      45.538  25.715  31.515  1.00  0.00     0.031 C 
ATOM     59  C   UNL A   1      45.177  27.522  33.175  1.00  0.00     0.037 A 
BRANCH  46  60
ATOM     60  C   UNL A   1      41.369  32.160  34.730  1.00  0.00     0.058 A 
ATOM     61  C   UNL A   1      40.518  31.994  35.836  1.00  0.00     0.135 A 
ATOM     62  C   UNL A   1      41.896  33.440  34.501  1.00  0.00     0.135 A 
ATOM     63  F   UNL A   1      39.971  30.795  36.095  1.00  0.00    -0.206 F 
ATOM     64  C   UNL A   1      40.157  33.065  36.646  1.00  0.00     0.059 A 
ATOM     65  C   UNL A   1      41.577  34.520  35.321  1.00  0.00     0.059 A 
ATOM     66  F   UNL A   1      42.717  33.658  33.462  1.00  0.00    -0.206 F 
ATOM     67  C   UNL A   1      40.687  34.327  36.376  1.00  0.00     0.060 A 
BRANCH  67  68
ATOM     68  S   UNL A   1      40.189  35.711  37.422  1.00  0.00     0.124 S 
ATOM     69  O   UNL A   1      41.425  35.984  38.149  1.00  0.00    -0.237 OA
ATOM     70  O   UNL A   1      39.797  36.719  36.443  1.00  0.00    -0.237 OA
ATOM     71  O   UNL A   1      39.099  35.159  38.220  1.00  0.00    -0.744 OA
ENDBRANCH  67  68
ENDBRANCH  46  60
BRANCH  47  72
ATOM     72  C   UNL A   1      43.163  24.838  28.117  1.00  0.00     0.058 A 
ATOM     73  C   UNL A   1      43.811  25.160  26.914  1.00  0.00     0.135 A 
ATOM     74  C   UNL A   1      42.850  23.489  28.348  1.00  0.00     0.135 A 
ATOM     75  F   UNL A   1      44.128  26.436  26.646  1.00  0.00    -0.206 F 
ATOM     76  C   UNL A   1      44.133  24.186  25.974  1.00  0.00     0.059 A 
ATOM     77  C   UNL A   1      43.182  22.494  27.432  1.00  0.00     0.059 A 
ATOM     78  F   UNL A   1      42.248  23.124  29.489  1.00  0.00    -0.206 F 
ATOM     79  C   UNL A   1      43.821  22.853  26.246  1.00  0.00     0.060 A 
BRANCH  79  80
ATOM     80  S   UNL A   1      44.314  21.588  25.054  1.00  0.00     0.124 S 
ATOM     81  O   UNL A   1      44.157  22.296  23.789  1.00  0.00    -0.237 OA
ATOM     82  O   UNL A   1      45.687  21.303  25.460  1.00  0.00    -0.237 OA
ATOM     83  O   UNL A   1      43.362  20.509  25.297  1.00  0.00    -0.744 OA
ENDBRANCH  79  80
ENDBRANCH  47  72
BRANCH  59  84
ATOM     84  C   UNL A   1      46.406  27.047  33.898  1.00  0.00     0.058 A 
ATOM     85  C   UNL A   1      46.340  26.058  34.891  1.00  0.00     0.135 A 
ATOM     86  C   UNL A   1      47.670  27.549  33.549  1.00  0.00     0.135 A 
ATOM     87  F   UNL A   1      45.154  25.551  35.263  1.00  0.00    -0.206 F 
ATOM     88  C   UNL A   1      47.486  25.598  35.531  1.00  0.00     0.059 A 
ATOM     89  C   UNL A   1      48.832  27.084  34.156  1.00  0.00     0.059 A 
ATOM     90  F   UNL A   1      47.787  28.487  32.597  1.00  0.00    -0.206 F 
ATOM     91  C   UNL A   1      48.728  26.115  35.154  1.00  0.00     0.060 A 
BRANCH  91  92
ATOM     92  S   UNL A   1      50.210  25.485  35.969  1.00  0.00     0.124 S 
ATOM     93  O   UNL A   1      50.699  26.678  36.652  1.00  0.00    -0.237 OA
ATOM     94  O   UNL A   1      49.672  24.436  36.830  1.00  0.00    -0.237 OA
ATOM     95  O   UNL A   1      51.032  25.015  34.858  1.00  0.00    -0.744 OA
ENDBRANCH  91  92
ENDBRANCH  59  84
ENDBRANCH  33  34
ENDBRANCH  25  28
ENDBRANCH  23  24
ENDBRANCH   1  23
TORSDOF 15
ENDMDL
MODEL 3
REMARK VINA RESULT:     -11.6      1.054      2.831
REMARK SMILES Cc1cccc(Nc2ccccc2C(=O)NCCCNC(=O)c2ccc(-c3c4nc(c(-c5c(F)cc(S(=O)(=O)[O-])cc5F)c5ccc([nH]5)c(-c5c(F)cc(S(=O)(=O)[O-])cc5F)c5nc(c(-c6c(F)cc(S(=O)(=O)[O-])cc6F)c6ccc3[nH]6)C=C5)C=C4)cc2)c1C
REMARK SMILES IDX 18 1 17 2 16 3 14 4 15 5 13 7 8 8 9 9 10 10 12 11 11 12 7 13
REMARK SMILES IDX 6 15 1 16 2 17 3 18 89 19 4 20 90 21 5 22 19 23 20 24 21 25
REMARK SMILES IDX 22 27 23 28 24 29 88 30 25 31 87 32 26 33 27 34 28 35 81 36
REMARK SMILES IDX 29 37 86 38 80 39 82 40 30 41 85 42 79 43 78 44 31 46 65 47
REMARK SMILES IDX 44 48 64 49 45 50 48 51 63 52 83 53 46 54 47 55 62 57 84 58
REMARK SMILES IDX 49 59 32 60 33 61 42 62 34 63 35 64 41 65 43 66 36 67 37 68
REMARK SMILES IDX 38 69 39 70 40 71 66 72 67 73 76 74 68 75 69 76 75 77 77 78
REMARK SMILES IDX 70 79 71 80 72 81 73 82 74 83 50 84 51 85 60 86 52 87 53 88
REMARK SMILES IDX 59 89 61 90 54 91 55 92 56 93 57 94 58 95
REMARK H PARENT 16 6 7 14 20 26 82 45 48 56
REMARK Flexibility Score: inf
ROOT
ATOM      1  C   UNL A   1      33.958  28.238  25.956  1.00  0.00     0.042 C 
ENDROOT
BRANCH   1   2
ATOM      2  C   UNL A   1      33.018  28.479  24.798  1.00  0.00     0.118 C 
BRANCH   2   3
ATOM      3  N   UNL A   1      33.049  27.525  23.724  1.00  0.00    -0.352 N 
ATOM      4  C   UNL A   1      32.045  27.236  22.829  1.00  0.00     0.253 C 
ATOM      5  O   UNL A   1      32.372  26.636  21.800  1.00  0.00    -0.269 OA
ATOM      6  H   UNL A   1      33.887  27.021  23.615  1.00  0.00     0.163 HD
BRANCH   4   7
ATOM      7  C   UNL A   1      30.582  27.452  23.099  1.00  0.00     0.063 A 
ATOM      8  C   UNL A   1      29.617  26.584  23.656  1.00  0.00     0.051 A 
ATOM      9  C   UNL A   1      28.265  27.018  23.667  1.00  0.00     0.027 A 
ATOM     10  C   UNL A   1      27.876  28.281  23.225  1.00  0.00     0.002 A 
ATOM     11  C   UNL A   1      30.163  28.742  22.679  1.00  0.00     0.016 A 
ATOM     12  C   UNL A   1      28.834  29.158  22.752  1.00  0.00     0.001 A 
BRANCH   8  13
ATOM     13  N   UNL A   1      29.811  25.349  24.317  1.00  0.00    -0.355 N 
ATOM     14  H   UNL A   1      29.020  25.074  24.834  1.00  0.00     0.167 HD
BRANCH  13  15
ATOM     15  C   UNL A   1      30.866  24.419  24.414  1.00  0.00     0.042 A 
ATOM     16  C   UNL A   1      34.226  23.733  26.116  1.00  0.00     0.044 C 
ATOM     17  C   UNL A   1      33.045  23.644  25.187  1.00  0.00    -0.046 A 
ATOM     18  C   UNL A   1      33.099  22.732  24.122  1.00  0.00     0.004 A 
ATOM     19  C   UNL A   1      31.899  24.462  25.370  1.00  0.00    -0.025 A 
ATOM     20  C   UNL A   1      32.037  22.616  23.238  1.00  0.00     0.002 A 
ATOM     21  C   UNL A   1      31.803  25.329  26.598  1.00  0.00     0.047 C 
ATOM     22  C   UNL A   1      30.933  23.450  23.386  1.00  0.00     0.026 A 
ENDBRANCH  13  15
ENDBRANCH   8  13
ENDBRANCH   4   7
ENDBRANCH   2   3
ENDBRANCH   1   2
BRANCH   1  23
ATOM     23  C   UNL A   1      33.392  28.609  27.319  1.00  0.00     0.118 C 
BRANCH  23  24
ATOM     24  N   UNL A   1      33.501  30.029  27.665  1.00  0.00    -0.352 N 
ATOM     25  C   UNL A   1      34.550  30.784  28.155  1.00  0.00     0.251 C 
ATOM     26  H   UNL A   1      32.672  30.541  27.522  1.00  0.00     0.163 HD
ATOM     27  O   UNL A   1      34.370  31.953  28.459  1.00  0.00    -0.269 OA
BRANCH  25  28
ATOM     28  C   UNL A   1      35.881  30.167  28.357  1.00  0.00     0.039 A 
ATOM     29  C   UNL A   1      36.829  30.216  27.329  1.00  0.00     0.014 A 
ATOM     30  C   UNL A   1      36.211  29.569  29.569  1.00  0.00     0.014 A 
ATOM     31  C   UNL A   1      38.134  29.772  27.565  1.00  0.00     0.010 A 
ATOM     32  C   UNL A   1      37.535  29.274  29.851  1.00  0.00     0.010 A 
ATOM     33  C   UNL A   1      38.512  29.353  28.850  1.00  0.00    -0.014 A 
BRANCH  33  34
ATOM     34  C   UNL A   1      39.901  28.949  29.187  1.00  0.00     0.031 A 
ATOM     35  C   UNL A   1      40.834  29.963  29.800  1.00  0.00     0.074 A 
ATOM     36  C   UNL A   1      40.358  27.730  28.835  1.00  0.00     0.049 A 
ATOM     37  N   UNL A   1      42.125  29.893  29.995  1.00  0.00    -0.248 NA
ATOM     38  C   UNL A   1      40.240  31.254  30.189  1.00  0.00     0.031 C 
ATOM     39  C   UNL A   1      39.575  26.688  28.167  1.00  0.00     0.029 A 
ATOM     40  N   UNL A   1      41.603  27.169  28.971  1.00  0.00    -0.354 N 
ATOM     41  C   UNL A   1      42.498  31.139  30.486  1.00  0.00     0.074 A 
ATOM     42  C   UNL A   1      41.315  31.968  30.482  1.00  0.00     0.031 C 
ATOM     43  C   UNL A   1      40.350  25.609  27.972  1.00  0.00     0.029 A 
ATOM     44  C   UNL A   1      41.694  25.895  28.461  1.00  0.00     0.049 A 
ATOM     45  H   UNL A   1      42.360  27.635  29.394  1.00  0.00     0.167 HD
ATOM     46  C   UNL A   1      43.707  31.546  30.940  1.00  0.00     0.037 A 
ATOM     47  C   UNL A   1      42.747  25.057  28.389  1.00  0.00     0.037 A 
ATOM     48  C   UNL A   1      44.863  30.694  30.992  1.00  0.00     0.049 A 
ATOM     49  C   UNL A   1      44.068  25.503  28.952  1.00  0.00     0.074 A 
ATOM     50  C   UNL A   1      46.122  30.974  31.490  1.00  0.00     0.029 A 
ATOM     51  N   UNL A   1      44.892  29.380  30.542  1.00  0.00    -0.354 N 
ATOM     52  N   UNL A   1      44.394  26.668  29.461  1.00  0.00    -0.248 NA
ATOM     53  C   UNL A   1      45.161  24.522  28.944  1.00  0.00     0.031 C 
ATOM     54  C   UNL A   1      46.921  29.838  31.316  1.00  0.00     0.029 A 
ATOM     55  C   UNL A   1      46.147  28.836  30.749  1.00  0.00     0.049 A 
ATOM     56  H   UNL A   1      44.131  28.905  30.135  1.00  0.00     0.167 HD
ATOM     57  C   UNL A   1      45.722  26.554  29.856  1.00  0.00     0.074 A 
ATOM     58  C   UNL A   1      46.133  25.201  29.538  1.00  0.00     0.031 C 
ATOM     59  C   UNL A   1      46.528  27.482  30.429  1.00  0.00     0.037 A 
BRANCH  46  60
ATOM     60  C   UNL A   1      43.818  32.967  31.429  1.00  0.00     0.058 A 
ATOM     61  C   UNL A   1      43.592  33.301  32.776  1.00  0.00     0.135 A 
ATOM     62  C   UNL A   1      44.134  34.010  30.545  1.00  0.00     0.135 A 
ATOM     63  F   UNL A   1      43.270  32.347  33.665  1.00  0.00    -0.206 F 
ATOM     64  C   UNL A   1      43.620  34.620  33.215  1.00  0.00     0.059 A 
ATOM     65  C   UNL A   1      44.202  35.334  30.970  1.00  0.00     0.059 A 
ATOM     66  F   UNL A   1      44.363  33.751  29.248  1.00  0.00    -0.206 F 
ATOM     67  C   UNL A   1      43.919  35.631  32.302  1.00  0.00     0.060 A 
BRANCH  67  68
ATOM     68  S   UNL A   1      43.926  37.340  32.882  1.00  0.00     0.124 S 
ATOM     69  O   UNL A   1      45.242  37.428  33.510  1.00  0.00    -0.237 OA
ATOM     70  O   UNL A   1      43.766  38.093  31.643  1.00  0.00    -0.237 OA
ATOM     71  O   UNL A   1      42.790  37.393  33.796  1.00  0.00    -0.744 OA
ENDBRANCH  67  68
ENDBRANCH  46  60
BRANCH  47  72
ATOM     72  C   UNL A   1      42.573  23.703  27.797  1.00  0.00     0.058 A 
ATOM     73  C   UNL A   1      42.636  23.510  26.409  1.00  0.00     0.135 A 
ATOM     74  C   UNL A   1      42.392  22.570  28.605  1.00  0.00     0.135 A 
ATOM     75  F   UNL A   1      42.804  24.562  25.593  1.00  0.00    -0.206 F 
ATOM     76  C   UNL A   1      42.522  22.244  25.840  1.00  0.00     0.059 A 
ATOM     77  C   UNL A   1      42.298  21.291  28.062  1.00  0.00     0.059 A 
ATOM     78  F   UNL A   1      42.344  22.697  29.940  1.00  0.00    -0.206 F 
ATOM     79  C   UNL A   1      42.361  21.139  26.678  1.00  0.00     0.060 A 
BRANCH  79  80
ATOM     80  S   UNL A   1      42.293  19.494  25.935  1.00  0.00     0.124 S 
ATOM     81  O   UNL A   1      40.870  19.358  25.646  1.00  0.00    -0.237 OA
ATOM     82  O   UNL A   1      43.169  19.644  24.777  1.00  0.00    -0.237 OA
ATOM     83  O   UNL A   1      42.809  18.628  26.991  1.00  0.00    -0.744 OA
ENDBRANCH  79  80
ENDBRANCH  47  72
BRANCH  59  84
ATOM     84  C   UNL A   1      47.925  27.058  30.782  1.00  0.00     0.058 A 
ATOM     85  C   UNL A   1      48.243  26.554  32.052  1.00  0.00     0.135 A 
ATOM     86  C   UNL A   1      48.944  27.104  29.817  1.00  0.00     0.135 A 
ATOM     87  F   UNL A   1      47.305  26.494  33.011  1.00  0.00    -0.206 F 
ATOM     88  C   UNL A   1      49.531  26.130  32.361  1.00  0.00     0.059 A 
ATOM     89  C   UNL A   1      50.232  26.661  30.094  1.00  0.00     0.059 A 
ATOM     90  F   UNL A   1      48.687  27.567  28.583  1.00  0.00    -0.206 F 
ATOM     91  C   UNL A   1      50.519  26.185  31.374  1.00  0.00     0.060 A 
BRANCH  91  92
ATOM     92  S   UNL A   1      52.178  25.600  31.777  1.00  0.00     0.124 S 
ATOM     93  O   UNL A   1      52.491  26.400  32.957  1.00  0.00    -0.237 OA
ATOM     94  O   UNL A   1      51.960  24.177  32.015  1.00  0.00    -0.237 OA
ATOM     95  O   UNL A   1      52.949  25.919  30.579  1.00  0.00    -0.744 OA
ENDBRANCH  91  92
ENDBRANCH  59  84
ENDBRANCH  33  34
ENDBRANCH  25  28
ENDBRANCH  23  24
ENDBRANCH   1  23
TORSDOF 15
ENDMDL
