MODEL 1
REMARK VINA RESULT:     -13.2      0.000      0.000
REMARK SMILES Cc1nc2scc(C)n2c1CNc1ccc(C(=O)NCCCNC(=O)c2ccc(-c3c4nc(c(-c5c(F)cc(S(=O)(=O)[O-])cc5F)c5ccc([nH]5)c(-c5c(F)cc(S(=O)(=O)[O-])cc5F)c5nc(c(-c6c(F)cc(S(=O)(=O)[O-])cc6F)c6ccc3[nH]6)C=C5)C=C4)cc2)cc1
REMARK SMILES IDX 21 1 20 2 19 3 17 4 18 5 16 7 13 8 14 9 93 10 15 11 92 12
REMARK SMILES IDX 12 13 11 15 10 16 1 17 2 18 3 19 4 20 9 21 5 22 7 23 6 24
REMARK SMILES IDX 8 25 22 26 23 27 24 28 25 30 26 31 27 32 91 33 28 34 90 35
REMARK SMILES IDX 29 36 30 37 31 38 84 39 32 40 89 41 83 42 85 43 33 44 88 45
REMARK SMILES IDX 82 46 81 47 34 49 68 50 47 51 67 52 48 53 51 54 66 55 86 56
REMARK SMILES IDX 49 57 50 58 65 60 87 61 52 62 35 63 36 64 45 65 37 66 38 67
REMARK SMILES IDX 44 68 46 69 39 70 40 71 41 72 42 73 43 74 69 75 70 76 79 77
REMARK SMILES IDX 71 78 72 79 78 80 80 81 73 82 74 83 75 84 76 85 77 86 53 87
REMARK SMILES IDX 54 88 63 89 55 90 56 91 62 92 64 93 57 94 58 95 59 96 60 97
REMARK SMILES IDX 61 98
REMARK H PARENT 19 6 12 14 23 29 85 48 51 59
REMARK Flexibility Score: inf
ROOT
ATOM      1  C   UNL A   1      36.499  22.142  24.785  1.00  0.00     0.042 C 
ENDROOT
BRANCH   1   2
ATOM      2  C   UNL A   1      35.618  21.477  25.852  1.00  0.00     0.118 C 
BRANCH   2   3
ATOM      3  N   UNL A   1      34.908  20.319  25.331  1.00  0.00    -0.352 N 
ATOM      4  C   UNL A   1      33.688  20.179  24.719  1.00  0.00     0.251 C 
ATOM      5  O   UNL A   1      33.397  19.067  24.279  1.00  0.00    -0.269 OA
ATOM      6  H   UNL A   1      35.399  19.472  25.438  1.00  0.00     0.163 HD
BRANCH   4   7
ATOM      7  C   UNL A   1      32.740  21.308  24.502  1.00  0.00     0.039 A 
ATOM      8  C   UNL A   1      31.179  23.619  24.011  1.00  0.00     0.034 A 
ATOM      9  C   UNL A   1      31.978  23.071  23.006  1.00  0.00     0.026 A 
ATOM     10  C   UNL A   1      31.093  22.938  25.223  1.00  0.00     0.026 A 
ATOM     11  C   UNL A   1      32.765  21.941  23.251  1.00  0.00     0.016 A 
ATOM     12  C   UNL A   1      31.834  21.778  25.451  1.00  0.00     0.016 A 
BRANCH   8  13
ATOM     13  N   UNL A   1      30.623  24.870  23.836  1.00  0.00    -0.379 N 
ATOM     14  H   UNL A   1      29.736  25.073  24.213  1.00  0.00     0.160 HD
BRANCH  13  15
ATOM     15  C   UNL A   1      31.343  25.888  23.095  1.00  0.00     0.169 C 
BRANCH  15  16
ATOM     16  C   UNL A   1      31.388  27.187  23.807  1.00  0.00     0.066 A 
ATOM     17  C   UNL A   1      29.414  28.538  22.783  1.00  0.00     0.069 C 
ATOM     18  C   UNL A   1      30.579  28.314  23.674  1.00  0.00     0.062 A 
ATOM     19  N   UNL A   1      30.980  29.326  24.521  1.00  0.00    -0.224 NA
ATOM     20  C   UNL A   1      32.005  28.814  25.139  1.00  0.00     0.194 A 
ATOM     21  N   UNL A   1      32.303  27.527  24.782  1.00  0.00    -0.290 N 
ATOM     22  S   UNL A   1      33.081  29.423  26.355  1.00  0.00    -0.105 S 
ATOM     23  C   UNL A   1      33.382  26.978  25.473  1.00  0.00     0.032 A 
ATOM     24  C   UNL A   1      33.904  27.867  26.346  1.00  0.00     0.090 A 
ATOM     25  C   UNL A   1      33.904  25.596  25.316  1.00  0.00     0.066 C 
ENDBRANCH  15  16
ENDBRANCH  13  15
ENDBRANCH   8  13
ENDBRANCH   4   7
ENDBRANCH   2   3
ENDBRANCH   1   2
BRANCH   1  26
ATOM     26  C   UNL A   1      37.693  22.854  25.390  1.00  0.00     0.118 C 
BRANCH  26  27
ATOM     27  N   UNL A   1      38.555  21.946  26.150  1.00  0.00    -0.352 N 
ATOM     28  C   UNL A   1      39.723  22.234  26.837  1.00  0.00     0.251 C 
ATOM     29  H   UNL A   1      38.266  21.005  26.175  1.00  0.00     0.163 HD
ATOM     30  O   UNL A   1      40.513  21.347  27.110  1.00  0.00    -0.269 OA
BRANCH  28  31
ATOM     31  C   UNL A   1      39.983  23.633  27.227  1.00  0.00     0.039 A 
ATOM     32  C   UNL A   1      38.995  24.619  27.142  1.00  0.00     0.014 A 
ATOM     33  C   UNL A   1      41.245  23.935  27.723  1.00  0.00     0.014 A 
ATOM     34  C   UNL A   1      39.281  25.891  27.635  1.00  0.00     0.010 A 
ATOM     35  C   UNL A   1      41.444  25.103  28.401  1.00  0.00     0.010 A 
ATOM     36  C   UNL A   1      40.507  26.116  28.282  1.00  0.00    -0.014 A 
BRANCH  36  37
ATOM     37  C   UNL A   1      40.802  27.370  28.962  1.00  0.00     0.031 A 
ATOM     38  C   UNL A   1      41.886  28.149  28.312  1.00  0.00     0.074 A 
ATOM     39  C   UNL A   1      39.993  27.886  29.916  1.00  0.00     0.049 A 
ATOM     40  N   UNL A   1      43.100  28.302  28.725  1.00  0.00    -0.248 NA
ATOM     41  C   UNL A   1      41.665  28.640  26.939  1.00  0.00     0.031 C 
ATOM     42  C   UNL A   1      38.710  27.359  30.405  1.00  0.00     0.029 A 
ATOM     43  N   UNL A   1      40.091  29.065  30.587  1.00  0.00    -0.354 N 
ATOM     44  C   UNL A   1      43.695  29.163  27.808  1.00  0.00     0.074 A 
ATOM     45  C   UNL A   1      42.877  29.105  26.628  1.00  0.00     0.031 C 
ATOM     46  C   UNL A   1      38.051  28.319  31.089  1.00  0.00     0.029 A 
ATOM     47  C   UNL A   1      38.929  29.462  31.246  1.00  0.00     0.049 A 
ATOM     48  H   UNL A   1      40.918  29.598  30.604  1.00  0.00     0.167 HD
ATOM     49  C   UNL A   1      44.608  30.089  28.221  1.00  0.00     0.037 A 
ATOM     50  C   UNL A   1      38.705  30.654  31.860  1.00  0.00     0.037 A 
ATOM     51  C   UNL A   1      45.073  29.782  29.556  1.00  0.00     0.049 A 
ATOM     52  C   UNL A   1      40.041  31.247  32.130  1.00  0.00     0.074 A 
ATOM     53  C   UNL A   1      45.672  28.691  30.157  1.00  0.00     0.029 A 
ATOM     54  N   UNL A   1      44.566  30.543  30.583  1.00  0.00    -0.354 N 
ATOM     55  N   UNL A   1      40.909  30.727  32.956  1.00  0.00    -0.248 NA
ATOM     56  C   UNL A   1      40.596  32.137  31.122  1.00  0.00     0.031 C 
ATOM     57  C   UNL A   1      45.082  28.612  31.454  1.00  0.00     0.029 A 
ATOM     58  C   UNL A   1      44.224  29.702  31.609  1.00  0.00     0.049 A 
ATOM     59  H   UNL A   1      44.467  31.522  30.581  1.00  0.00     0.167 HD
ATOM     60  C   UNL A   1      42.132  30.860  32.314  1.00  0.00     0.074 A 
ATOM     61  C   UNL A   1      41.888  31.813  31.232  1.00  0.00     0.031 C 
ATOM     62  C   UNL A   1      43.140  29.964  32.534  1.00  0.00     0.037 A 
BRANCH  49  63
ATOM     63  C   UNL A   1      44.746  31.482  27.638  1.00  0.00     0.058 A 
ATOM     64  C   UNL A   1      45.937  31.809  26.952  1.00  0.00     0.135 A 
ATOM     65  C   UNL A   1      43.924  32.584  27.971  1.00  0.00     0.135 A 
ATOM     66  F   UNL A   1      46.791  30.847  26.568  1.00  0.00    -0.206 F 
ATOM     67  C   UNL A   1      46.334  33.127  26.723  1.00  0.00     0.059 A 
ATOM     68  C   UNL A   1      44.276  33.901  27.703  1.00  0.00     0.059 A 
ATOM     69  F   UNL A   1      42.782  32.459  28.653  1.00  0.00    -0.206 F 
ATOM     70  C   UNL A   1      45.503  34.166  27.122  1.00  0.00     0.060 A 
BRANCH  70  71
ATOM     71  S   UNL A   1      46.056  35.867  26.926  1.00  0.00     0.124 S 
ATOM     72  O   UNL A   1      46.737  35.803  25.638  1.00  0.00    -0.237 OA
ATOM     73  O   UNL A   1      44.793  36.597  26.950  1.00  0.00    -0.237 OA
ATOM     74  O   UNL A   1      46.916  36.075  28.088  1.00  0.00    -0.744 OA
ENDBRANCH  70  71
ENDBRANCH  49  63
BRANCH  50  75
ATOM     75  C   UNL A   1      37.449  31.455  31.916  1.00  0.00     0.058 A 
ATOM     76  C   UNL A   1      36.870  31.820  33.147  1.00  0.00     0.135 A 
ATOM     77  C   UNL A   1      36.957  32.131  30.781  1.00  0.00     0.135 A 
ATOM     78  F   UNL A   1      37.285  31.241  34.284  1.00  0.00    -0.206 F 
ATOM     79  C   UNL A   1      35.908  32.833  33.254  1.00  0.00     0.059 A 
ATOM     80  C   UNL A   1      35.994  33.138  30.861  1.00  0.00     0.059 A 
ATOM     81  F   UNL A   1      37.467  31.897  29.563  1.00  0.00    -0.206 F 
ATOM     82  C   UNL A   1      35.492  33.505  32.105  1.00  0.00     0.060 A 
BRANCH  82  83
ATOM     83  S   UNL A   1      34.392  34.935  32.256  1.00  0.00     0.124 S 
ATOM     84  O   UNL A   1      35.219  35.876  33.001  1.00  0.00    -0.237 OA
ATOM     85  O   UNL A   1      34.134  35.278  30.861  1.00  0.00    -0.237 OA
ATOM     86  O   UNL A   1      33.242  34.402  32.985  1.00  0.00    -0.744 OA
ENDBRANCH  82  83
ENDBRANCH  50  75
BRANCH  62  87
ATOM     87  C   UNL A   1      43.030  29.040  33.721  1.00  0.00     0.058 A 
ATOM     88  C   UNL A   1      43.343  29.387  35.048  1.00  0.00     0.135 A 
ATOM     89  C   UNL A   1      42.439  27.785  33.512  1.00  0.00     0.135 A 
ATOM     90  F   UNL A   1      43.819  30.602  35.351  1.00  0.00    -0.206 F 
ATOM     91  C   UNL A   1      43.116  28.508  36.111  1.00  0.00     0.059 A 
ATOM     92  C   UNL A   1      42.174  26.908  34.558  1.00  0.00     0.059 A 
ATOM     93  F   UNL A   1      42.061  27.418  32.276  1.00  0.00    -0.206 F 
ATOM     94  C   UNL A   1      42.528  27.269  35.855  1.00  0.00     0.060 A 
BRANCH  94  95
ATOM     95  S   UNL A   1      42.176  26.155  37.232  1.00  0.00     0.124 S 
ATOM     96  O   UNL A   1      40.768  26.429  37.497  1.00  0.00    -0.237 OA
ATOM     97  O   UNL A   1      42.471  24.843  36.663  1.00  0.00    -0.237 OA
ATOM     98  O   UNL A   1      43.103  26.594  38.274  1.00  0.00    -0.744 OA
ENDBRANCH  94  95
ENDBRANCH  62  87
ENDBRANCH  36  37
ENDBRANCH  28  31
ENDBRANCH  26  27
ENDBRANCH   1  26
TORSDOF 16
ENDMDL
MODEL 2
REMARK VINA RESULT:     -13.0      3.020      9.459
REMARK SMILES Cc1nc2scc(C)n2c1CNc1ccc(C(=O)NCCCNC(=O)c2ccc(-c3c4nc(c(-c5c(F)cc(S(=O)(=O)[O-])cc5F)c5ccc([nH]5)c(-c5c(F)cc(S(=O)(=O)[O-])cc5F)c5nc(c(-c6c(F)cc(S(=O)(=O)[O-])cc6F)c6ccc3[nH]6)C=C5)C=C4)cc2)cc1
REMARK SMILES IDX 21 1 20 2 19 3 17 4 18 5 16 7 13 8 14 9 93 10 15 11 92 12
REMARK SMILES IDX 12 13 11 15 10 16 1 17 2 18 3 19 4 20 9 21 5 22 7 23 6 24
REMARK SMILES IDX 8 25 22 26 23 27 24 28 25 30 26 31 27 32 91 33 28 34 90 35
REMARK SMILES IDX 29 36 30 37 31 38 84 39 32 40 89 41 83 42 85 43 33 44 88 45
REMARK SMILES IDX 82 46 81 47 34 49 68 50 47 51 67 52 48 53 51 54 66 55 86 56
REMARK SMILES IDX 49 57 50 58 65 60 87 61 52 62 35 63 36 64 45 65 37 66 38 67
REMARK SMILES IDX 44 68 46 69 39 70 40 71 41 72 42 73 43 74 69 75 70 76 79 77
REMARK SMILES IDX 71 78 72 79 78 80 80 81 73 82 74 83 75 84 76 85 77 86 53 87
REMARK SMILES IDX 54 88 63 89 55 90 56 91 62 92 64 93 57 94 58 95 59 96 60 97
REMARK SMILES IDX 61 98
REMARK H PARENT 19 6 12 14 23 29 85 48 51 59
REMARK Flexibility Score: inf
ROOT
ATOM      1  C   UNL A   1      32.418  29.054  26.555  1.00  0.00     0.042 C 
ENDROOT
BRANCH   1   2
ATOM      2  C   UNL A   1      32.656  29.549  25.121  1.00  0.00     0.118 C 
BRANCH   2   3
ATOM      3  N   UNL A   1      31.416  29.909  24.453  1.00  0.00    -0.352 N 
ATOM      4  C   UNL A   1      30.508  29.179  23.728  1.00  0.00     0.251 C 
ATOM      5  O   UNL A   1      29.475  29.747  23.374  1.00  0.00    -0.269 OA
ATOM      6  H   UNL A   1      31.182  30.862  24.539  1.00  0.00     0.163 HD
BRANCH   4   7
ATOM      7  C   UNL A   1      30.677  27.732  23.413  1.00  0.00     0.039 A 
ATOM      8  C   UNL A   1      31.080  24.947  23.103  1.00  0.00     0.034 A 
ATOM      9  C   UNL A   1      30.174  25.436  24.046  1.00  0.00     0.026 A 
ATOM     10  C   UNL A   1      31.697  25.861  22.252  1.00  0.00     0.026 A 
ATOM     11  C   UNL A   1      29.988  26.812  24.215  1.00  0.00     0.016 A 
ATOM     12  C   UNL A   1      31.469  27.232  22.382  1.00  0.00     0.016 A 
BRANCH   8  13
ATOM     13  N   UNL A   1      31.444  23.616  23.132  1.00  0.00    -0.379 N 
ATOM     14  H   UNL A   1      31.589  23.126  22.290  1.00  0.00     0.160 HD
BRANCH  13  15
ATOM     15  C   UNL A   1      31.612  22.937  24.402  1.00  0.00     0.169 C 
BRANCH  15  16
ATOM     16  C   UNL A   1      32.928  22.266  24.520  1.00  0.00     0.066 A 
ATOM     17  C   UNL A   1      32.461  19.818  23.768  1.00  0.00     0.069 C 
ATOM     18  C   UNL A   1      33.292  20.945  24.260  1.00  0.00     0.062 A 
ATOM     19  N   UNL A   1      34.629  20.728  24.522  1.00  0.00    -0.224 NA
ATOM     20  C   UNL A   1      35.048  21.890  24.932  1.00  0.00     0.194 A 
ATOM     21  N   UNL A   1      34.095  22.872  24.941  1.00  0.00    -0.290 N 
ATOM     22  S   UNL A   1      36.593  22.473  25.461  1.00  0.00    -0.105 S 
ATOM     23  C   UNL A   1      34.562  24.119  25.351  1.00  0.00     0.032 A 
ATOM     24  C   UNL A   1      35.875  24.068  25.663  1.00  0.00     0.090 A 
ATOM     25  C   UNL A   1      33.761  25.368  25.425  1.00  0.00     0.066 C 
ENDBRANCH  15  16
ENDBRANCH  13  15
ENDBRANCH   8  13
ENDBRANCH   4   7
ENDBRANCH   2   3
ENDBRANCH   1   2
BRANCH   1  26
ATOM     26  C   UNL A   1      33.449  29.595  27.526  1.00  0.00     0.118 C 
BRANCH  26  27
ATOM     27  N   UNL A   1      33.778  30.998  27.262  1.00  0.00    -0.352 N 
ATOM     28  C   UNL A   1      34.873  31.727  27.697  1.00  0.00     0.251 C 
ATOM     29  H   UNL A   1      33.134  31.489  26.702  1.00  0.00     0.163 HD
ATOM     30  O   UNL A   1      34.839  32.944  27.709  1.00  0.00    -0.269 OA
BRANCH  28  31
ATOM     31  C   UNL A   1      36.074  30.994  28.140  1.00  0.00     0.039 A 
ATOM     32  C   UNL A   1      36.304  29.664  27.776  1.00  0.00     0.014 A 
ATOM     33  C   UNL A   1      36.998  31.687  28.912  1.00  0.00     0.014 A 
ATOM     34  C   UNL A   1      37.514  29.074  28.138  1.00  0.00     0.010 A 
ATOM     35  C   UNL A   1      38.259  31.187  29.070  1.00  0.00     0.010 A 
ATOM     36  C   UNL A   1      38.495  29.855  28.770  1.00  0.00    -0.014 A 
BRANCH  36  37
ATOM     37  C   UNL A   1      39.837  29.349  29.029  1.00  0.00     0.031 A 
ATOM     38  C   UNL A   1      40.137  29.193  30.474  1.00  0.00     0.074 A 
ATOM     39  C   UNL A   1      40.616  28.829  28.053  1.00  0.00     0.049 A 
ATOM     40  N   UNL A   1      40.897  29.939  31.204  1.00  0.00    -0.248 NA
ATOM     41  C   UNL A   1      39.338  28.228  31.252  1.00  0.00     0.031 C 
ATOM     42  C   UNL A   1      40.285  28.628  26.634  1.00  0.00     0.029 A 
ATOM     43  N   UNL A   1      41.847  28.258  28.142  1.00  0.00    -0.354 N 
ATOM     44  C   UNL A   1      40.902  29.343  32.461  1.00  0.00     0.074 A 
ATOM     45  C   UNL A   1      39.743  28.494  32.496  1.00  0.00     0.031 C 
ATOM     46  C   UNL A   1      41.172  27.776  26.073  1.00  0.00     0.029 A 
ATOM     47  C   UNL A   1      42.230  27.513  27.028  1.00  0.00     0.049 A 
ATOM     48  H   UNL A   1      42.423  28.363  28.934  1.00  0.00     0.167 HD
ATOM     49  C   UNL A   1      42.032  29.348  33.224  1.00  0.00     0.037 A 
ATOM     50  C   UNL A   1      43.331  26.725  26.913  1.00  0.00     0.037 A 
ATOM     51  C   UNL A   1      42.985  30.310  32.713  1.00  0.00     0.049 A 
ATOM     52  C   UNL A   1      44.283  27.172  27.962  1.00  0.00     0.074 A 
ATOM     53  C   UNL A   1      42.963  31.667  32.455  1.00  0.00     0.029 A 
ATOM     54  N   UNL A   1      44.054  29.812  32.005  1.00  0.00    -0.354 N 
ATOM     55  N   UNL A   1      44.848  28.349  27.972  1.00  0.00    -0.248 NA
ATOM     56  C   UNL A   1      44.224  26.499  29.251  1.00  0.00     0.031 C 
ATOM     57  C   UNL A   1      43.709  31.828  31.250  1.00  0.00     0.029 A 
ATOM     58  C   UNL A   1      44.218  30.580  30.883  1.00  0.00     0.049 A 
ATOM     59  H   UNL A   1      44.606  29.038  32.261  1.00  0.00     0.167 HD
ATOM     60  C   UNL A   1      44.811  28.750  29.300  1.00  0.00     0.074 A 
ATOM     61  C   UNL A   1      44.498  27.534  30.051  1.00  0.00     0.031 C 
ATOM     62  C   UNL A   1      44.742  30.073  29.632  1.00  0.00     0.037 A 
BRANCH  49  63
ATOM     63  C   UNL A   1      42.467  28.209  34.127  1.00  0.00     0.058 A 
ATOM     64  C   UNL A   1      42.529  28.442  35.520  1.00  0.00     0.135 A 
ATOM     65  C   UNL A   1      43.105  27.026  33.688  1.00  0.00     0.135 A 
ATOM     66  F   UNL A   1      41.945  29.524  36.058  1.00  0.00    -0.206 F 
ATOM     67  C   UNL A   1      43.263  27.630  36.384  1.00  0.00     0.059 A 
ATOM     68  C   UNL A   1      43.797  26.175  34.541  1.00  0.00     0.059 A 
ATOM     69  F   UNL A   1      43.176  26.674  32.401  1.00  0.00    -0.206 F 
ATOM     70  C   UNL A   1      43.911  26.509  35.879  1.00  0.00     0.060 A 
BRANCH  70  71
ATOM     71  S   UNL A   1      44.946  25.519  36.967  1.00  0.00     0.124 S 
ATOM     72  O   UNL A   1      44.350  24.197  36.810  1.00  0.00    -0.237 OA
ATOM     73  O   UNL A   1      46.266  25.703  36.373  1.00  0.00    -0.237 OA
ATOM     74  O   UNL A   1      44.758  26.148  38.271  1.00  0.00    -0.744 OA
ENDBRANCH  70  71
ENDBRANCH  49  63
BRANCH  50  75
ATOM     75  C   UNL A   1      43.476  25.420  26.206  1.00  0.00     0.058 A 
ATOM     76  C   UNL A   1      44.532  25.193  25.301  1.00  0.00     0.135 A 
ATOM     77  C   UNL A   1      42.767  24.275  26.623  1.00  0.00     0.135 A 
ATOM     78  F   UNL A   1      45.273  26.221  24.860  1.00  0.00    -0.206 F 
ATOM     79  C   UNL A   1      44.900  23.907  24.884  1.00  0.00     0.059 A 
ATOM     80  C   UNL A   1      43.110  22.985  26.215  1.00  0.00     0.059 A 
ATOM     81  F   UNL A   1      41.772  24.368  27.517  1.00  0.00    -0.206 F 
ATOM     82  C   UNL A   1      44.196  22.804  25.366  1.00  0.00     0.060 A 
BRANCH  82  83
ATOM     83  S   UNL A   1      44.780  21.135  24.980  1.00  0.00     0.124 S 
ATOM     84  O   UNL A   1      44.667  21.102  23.527  1.00  0.00    -0.237 OA
ATOM     85  O   UNL A   1      46.138  21.148  25.514  1.00  0.00    -0.237 OA
ATOM     86  O   UNL A   1      43.842  20.273  25.698  1.00  0.00    -0.744 OA
ENDBRANCH  82  83
ENDBRANCH  50  75
BRANCH  62  87
ATOM     87  C   UNL A   1      45.046  31.095  28.566  1.00  0.00     0.058 A 
ATOM     88  C   UNL A   1      44.152  31.507  27.560  1.00  0.00     0.135 A 
ATOM     89  C   UNL A   1      46.259  31.793  28.665  1.00  0.00     0.135 A 
ATOM     90  F   UNL A   1      42.932  30.963  27.455  1.00  0.00    -0.206 F 
ATOM     91  C   UNL A   1      44.470  32.536  26.670  1.00  0.00     0.059 A 
ATOM     92  C   UNL A   1      46.583  32.842  27.811  1.00  0.00     0.059 A 
ATOM     93  F   UNL A   1      47.130  31.490  29.642  1.00  0.00    -0.206 F 
ATOM     94  C   UNL A   1      45.689  33.200  26.805  1.00  0.00     0.060 A 
BRANCH  94  95
ATOM     95  S   UNL A   1      46.078  34.572  25.696  1.00  0.00     0.124 S 
ATOM     96  O   UNL A   1      45.746  35.732  26.514  1.00  0.00    -0.237 OA
ATOM     97  O   UNL A   1      47.500  34.370  25.428  1.00  0.00    -0.237 OA
ATOM     98  O   UNL A   1      45.201  34.345  24.549  1.00  0.00    -0.744 OA
ENDBRANCH  94  95
ENDBRANCH  62  87
ENDBRANCH  36  37
ENDBRANCH  28  31
ENDBRANCH  26  27
ENDBRANCH   1  26
TORSDOF 16
ENDMDL
MODEL 3
REMARK VINA RESULT:     -12.8      1.722      2.545
REMARK SMILES Cc1nc2scc(C)n2c1CNc1ccc(C(=O)NCCCNC(=O)c2ccc(-c3c4nc(c(-c5c(F)cc(S(=O)(=O)[O-])cc5F)c5ccc([nH]5)c(-c5c(F)cc(S(=O)(=O)[O-])cc5F)c5nc(c(-c6c(F)cc(S(=O)(=O)[O-])cc6F)c6ccc3[nH]6)C=C5)C=C4)cc2)cc1
REMARK SMILES IDX 21 1 20 2 19 3 17 4 18 5 16 7 13 8 14 9 93 10 15 11 92 12
REMARK SMILES IDX 12 13 11 15 10 16 1 17 2 18 3 19 4 20 9 21 5 22 7 23 6 24
REMARK SMILES IDX 8 25 22 26 23 27 24 28 25 30 26 31 27 32 91 33 28 34 90 35
REMARK SMILES IDX 29 36 30 37 31 38 84 39 32 40 89 41 83 42 85 43 33 44 88 45
REMARK SMILES IDX 82 46 81 47 34 49 68 50 47 51 67 52 48 53 51 54 66 55 86 56
REMARK SMILES IDX 49 57 50 58 65 60 87 61 52 62 35 63 36 64 45 65 37 66 38 67
REMARK SMILES IDX 44 68 46 69 39 70 40 71 41 72 42 73 43 74 69 75 70 76 79 77
REMARK SMILES IDX 71 78 72 79 78 80 80 81 73 82 74 83 75 84 76 85 77 86 53 87
REMARK SMILES IDX 54 88 63 89 55 90 56 91 62 92 64 93 57 94 58 95 59 96 60 97
REMARK SMILES IDX 61 98
REMARK H PARENT 19 6 12 14 23 29 85 48 51 59
REMARK Flexibility Score: inf
ROOT
ATOM      1  C   UNL A   1      38.926  22.832  26.134  1.00  0.00     0.042 C 
ENDROOT
BRANCH   1   2
ATOM      2  C   UNL A   1      37.981  21.749  25.596  1.00  0.00     0.118 C 
BRANCH   2   3
ATOM      3  N   UNL A   1      37.465  22.079  24.277  1.00  0.00    -0.352 N 
ATOM      4  C   UNL A   1      36.324  22.719  23.862  1.00  0.00     0.251 C 
ATOM      5  O   UNL A   1      36.212  22.956  22.659  1.00  0.00    -0.269 OA
ATOM      6  H   UNL A   1      38.049  21.788  23.539  1.00  0.00     0.163 HD
BRANCH   4   7
ATOM      7  C   UNL A   1      35.261  23.197  24.791  1.00  0.00     0.039 A 
ATOM      8  C   UNL A   1      33.044  24.034  26.339  1.00  0.00     0.034 A 
ATOM      9  C   UNL A   1      33.123  22.727  25.854  1.00  0.00     0.026 A 
ATOM     10  C   UNL A   1      34.132  24.878  26.127  1.00  0.00     0.026 A 
ATOM     11  C   UNL A   1      34.208  22.316  25.073  1.00  0.00     0.016 A 
ATOM     12  C   UNL A   1      35.241  24.451  25.396  1.00  0.00     0.016 A 
BRANCH   8  13
ATOM     13  N   UNL A   1      31.857  24.493  26.875  1.00  0.00    -0.379 N 
ATOM     14  H   UNL A   1      31.753  24.565  27.851  1.00  0.00     0.160 HD
BRANCH  13  15
ATOM     15  C   UNL A   1      30.763  24.870  26.001  1.00  0.00     0.169 C 
BRANCH  15  16
ATOM     16  C   UNL A   1      31.212  25.667  24.835  1.00  0.00     0.066 A 
ATOM     17  C   UNL A   1      31.048  24.009  22.835  1.00  0.00     0.069 C 
ATOM     18  C   UNL A   1      31.341  25.306  23.494  1.00  0.00     0.062 A 
ATOM     19  N   UNL A   1      31.816  26.353  22.733  1.00  0.00    -0.224 NA
ATOM     20  C   UNL A   1      31.970  27.312  23.600  1.00  0.00     0.194 A 
ATOM     21  N   UNL A   1      31.610  26.987  24.880  1.00  0.00    -0.290 N 
ATOM     22  S   UNL A   1      32.526  28.949  23.471  1.00  0.00    -0.105 S 
ATOM     23  C   UNL A   1      31.750  28.030  25.794  1.00  0.00     0.032 A 
ATOM     24  C   UNL A   1      32.228  29.142  25.195  1.00  0.00     0.090 A 
ATOM     25  C   UNL A   1      31.404  27.974  27.239  1.00  0.00     0.066 C 
ENDBRANCH  15  16
ENDBRANCH  13  15
ENDBRANCH   8  13
ENDBRANCH   4   7
ENDBRANCH   2   3
ENDBRANCH   1   2
BRANCH   1  26
ATOM     26  C   UNL A   1      40.024  22.252  27.006  1.00  0.00     0.118 C 
BRANCH  26  27
ATOM     27  N   UNL A   1      41.247  21.976  26.248  1.00  0.00    -0.352 N 
ATOM     28  C   UNL A   1      42.159  22.876  25.720  1.00  0.00     0.251 C 
ATOM     29  H   UNL A   1      41.447  21.025  26.093  1.00  0.00     0.163 HD
ATOM     30  O   UNL A   1      42.913  22.537  24.825  1.00  0.00    -0.269 OA
BRANCH  28  31
ATOM     31  C   UNL A   1      42.193  24.246  26.266  1.00  0.00     0.039 A 
ATOM     32  C   UNL A   1      41.567  25.315  25.619  1.00  0.00     0.014 A 
ATOM     33  C   UNL A   1      42.843  24.435  27.479  1.00  0.00     0.014 A 
ATOM     34  C   UNL A   1      41.545  26.556  26.253  1.00  0.00     0.010 A 
ATOM     35  C   UNL A   1      42.629  25.580  28.191  1.00  0.00     0.010 A 
ATOM     36  C   UNL A   1      42.064  26.672  27.552  1.00  0.00    -0.014 A 
BRANCH  36  37
ATOM     37  C   UNL A   1      41.927  27.894  28.333  1.00  0.00     0.031 A 
ATOM     38  C   UNL A   1      43.027  28.864  28.104  1.00  0.00     0.074 A 
ATOM     39  C   UNL A   1      40.785  28.214  28.984  1.00  0.00     0.049 A 
ATOM     40  N   UNL A   1      44.005  29.145  28.899  1.00  0.00    -0.248 NA
ATOM     41  C   UNL A   1      43.186  29.431  26.752  1.00  0.00     0.031 C 
ATOM     42  C   UNL A   1      39.511  27.479  29.003  1.00  0.00     0.029 A 
ATOM     43  N   UNL A   1      40.478  29.336  29.688  1.00  0.00    -0.354 N 
ATOM     44  C   UNL A   1      44.722  30.152  28.260  1.00  0.00     0.074 A 
ATOM     45  C   UNL A   1      44.346  30.081  26.875  1.00  0.00     0.031 C 
ATOM     46  C   UNL A   1      38.526  28.281  29.463  1.00  0.00     0.029 A 
ATOM     47  C   UNL A   1      39.118  29.516  29.940  1.00  0.00     0.049 A 
ATOM     48  H   UNL A   1      41.162  29.973  29.996  1.00  0.00     0.167 HD
ATOM     49  C   UNL A   1      45.298  31.155  28.982  1.00  0.00     0.037 A 
ATOM     50  C   UNL A   1      38.527  30.612  30.485  1.00  0.00     0.037 A 
ATOM     51  C   UNL A   1      45.352  30.805  30.385  1.00  0.00     0.049 A 
ATOM     52  C   UNL A   1      39.596  31.356  31.201  1.00  0.00     0.074 A 
ATOM     53  C   UNL A   1      45.887  29.759  31.113  1.00  0.00     0.029 A 
ATOM     54  N   UNL A   1      44.429  31.403  31.212  1.00  0.00    -0.354 N 
ATOM     55  N   UNL A   1      40.222  30.892  32.249  1.00  0.00    -0.248 NA
ATOM     56  C   UNL A   1      40.300  32.393  30.463  1.00  0.00     0.031 C 
ATOM     57  C   UNL A   1      44.931  29.495  32.139  1.00  0.00     0.029 A 
ATOM     58  C   UNL A   1      43.910  30.442  32.038  1.00  0.00     0.049 A 
ATOM     59  H   UNL A   1      44.185  32.356  31.210  1.00  0.00     0.167 HD
ATOM     60  C   UNL A   1      41.550  31.242  32.052  1.00  0.00     0.074 A 
ATOM     61  C   UNL A   1      41.522  32.239  30.983  1.00  0.00     0.031 C 
ATOM     62  C   UNL A   1      42.560  30.476  32.562  1.00  0.00     0.037 A 
BRANCH  49  63
ATOM     63  C   UNL A   1      45.398  32.598  28.524  1.00  0.00     0.058 A 
ATOM     64  C   UNL A   1      46.655  33.240  28.593  1.00  0.00     0.135 A 
ATOM     65  C   UNL A   1      44.296  33.459  28.317  1.00  0.00     0.135 A 
ATOM     66  F   UNL A   1      47.778  32.525  28.771  1.00  0.00    -0.206 F 
ATOM     67  C   UNL A   1      46.792  34.628  28.575  1.00  0.00     0.059 A 
ATOM     68  C   UNL A   1      44.417  34.842  28.243  1.00  0.00     0.059 A 
ATOM     69  F   UNL A   1      43.034  33.025  28.266  1.00  0.00    -0.206 F 
ATOM     70  C   UNL A   1      45.661  35.420  28.420  1.00  0.00     0.060 A 
BRANCH  70  71
ATOM     71  S   UNL A   1      45.816  37.210  28.503  1.00  0.00     0.124 S 
ATOM     72  O   UNL A   1      45.008  37.624  27.362  1.00  0.00    -0.237 OA
ATOM     73  O   UNL A   1      45.260  37.497  29.822  1.00  0.00    -0.237 OA
ATOM     74  O   UNL A   1      47.254  37.428  28.374  1.00  0.00    -0.744 OA
ENDBRANCH  70  71
ENDBRANCH  49  63
BRANCH  50  75
ATOM     75  C   UNL A   1      37.211  31.228  30.150  1.00  0.00     0.058 A 
ATOM     76  C   UNL A   1      36.455  31.909  31.124  1.00  0.00     0.135 A 
ATOM     77  C   UNL A   1      36.809  31.422  28.813  1.00  0.00     0.135 A 
ATOM     78  F   UNL A   1      36.772  31.796  32.423  1.00  0.00    -0.206 F 
ATOM     79  C   UNL A   1      35.405  32.775  30.789  1.00  0.00     0.059 A 
ATOM     80  C   UNL A   1      35.763  32.274  28.456  1.00  0.00     0.059 A 
ATOM     81  F   UNL A   1      37.485  30.859  27.801  1.00  0.00    -0.206 F 
ATOM     82  C   UNL A   1      35.081  32.970  29.447  1.00  0.00     0.060 A 
BRANCH  82  83
ATOM     83  S   UNL A   1      33.856  34.224  28.998  1.00  0.00     0.124 S 
ATOM     84  O   UNL A   1      32.986  33.487  28.090  1.00  0.00    -0.237 OA
ATOM     85  O   UNL A   1      33.278  34.572  30.292  1.00  0.00    -0.237 OA
ATOM     86  O   UNL A   1      34.659  35.276  28.376  1.00  0.00    -0.744 OA
ENDBRANCH  82  83
ENDBRANCH  50  75
BRANCH  62  87
ATOM     87  C   UNL A   1      42.220  29.451  33.614  1.00  0.00     0.058 A 
ATOM     88  C   UNL A   1      41.716  28.163  33.357  1.00  0.00     0.135 A 
ATOM     89  C   UNL A   1      42.562  29.749  34.942  1.00  0.00     0.135 A 
ATOM     90  F   UNL A   1      41.457  27.759  32.106  1.00  0.00    -0.206 F 
ATOM     91  C   UNL A   1      41.523  27.230  34.380  1.00  0.00     0.059 A 
ATOM     92  C   UNL A   1      42.408  28.826  35.971  1.00  0.00     0.059 A 
ATOM     93  F   UNL A   1      43.104  30.940  35.244  1.00  0.00    -0.206 F 
ATOM     94  C   UNL A   1      41.875  27.571  35.686  1.00  0.00     0.060 A 
BRANCH  94  95
ATOM     95  S   UNL A   1      41.686  26.349  37.002  1.00  0.00     0.124 S 
ATOM     96  O   UNL A   1      41.701  25.093  36.261  1.00  0.00    -0.237 OA
ATOM     97  O   UNL A   1      42.852  26.604  37.843  1.00  0.00    -0.237 OA
ATOM     98  O   UNL A   1      40.403  26.698  37.611  1.00  0.00    -0.744 OA
ENDBRANCH  94  95
ENDBRANCH  62  87
ENDBRANCH  36  37
ENDBRANCH  28  31
ENDBRANCH  26  27
ENDBRANCH   1  26
TORSDOF 16
ENDMDL
