MODEL 1
REMARK VINA RESULT:     -11.1      0.000      0.000
REMARK SMILES CCCC[C@H](C(=O)NCCCNC(=O)c1ccc(-c2c3nc(c(-c4c(F)cc(S(=O)(=O)[O-])cc4F)c4ccc([nH]4)c(-c4c(F)cc(S(=O)(=O)[O-])cc4F)c4nc(c(-c5c(F)cc(S(=O)(=O)[O-])cc5F)c5ccc2[nH]5)C=C4)C=C3)cc1)[C@](C)(O)c1ccc(Cl)c(Cl)c1
REMARK SMILES IDX 10 1 9 2 8 3 6 4 7 5 5 7 4 8 3 9 2 10 1 11 81 12 82 13 83 14
REMARK SMILES IDX 84 16 85 17 91 18 86 19 89 20 87 21 90 22 88 23 11 24 12 25
REMARK SMILES IDX 13 26 14 28 15 29 16 30 80 31 17 32 79 33 18 34 19 35 20 36
REMARK SMILES IDX 73 37 21 38 78 39 72 40 74 41 22 42 77 43 71 44 70 45 23 47
REMARK SMILES IDX 57 48 36 49 56 50 37 51 40 52 55 53 75 54 38 55 39 56 54 58
REMARK SMILES IDX 76 59 41 60 24 61 25 62 34 63 26 64 27 65 33 66 35 67 28 68
REMARK SMILES IDX 29 69 30 70 31 71 32 72 58 73 59 74 68 75 60 76 61 77 67 78
REMARK SMILES IDX 69 79 62 80 63 81 64 82 65 83 66 84 42 85 43 86 52 87 44 88
REMARK SMILES IDX 45 89 51 90 53 91 46 92 47 93 48 94 49 95 50 96
REMARK H PARENT 8 6 83 15 12 27 74 46 40 57
REMARK Flexibility Score: inf
ROOT
ATOM      1  C   UNL A   1      32.347  29.495  25.617  1.00  0.00     0.042 C 
ENDROOT
BRANCH   1   2
ATOM      2  C   UNL A   1      32.926  29.325  24.224  1.00  0.00     0.117 C 
BRANCH   2   3
ATOM      3  N   UNL A   1      31.928  29.101  23.196  1.00  0.00    -0.356 N 
ATOM      4  C   UNL A   1      31.226  27.983  22.880  1.00  0.00     0.226 C 
ATOM      5  O   UNL A   1      30.372  28.111  21.997  1.00  0.00    -0.275 OA
ATOM      6  H   UNL A   1      31.727  29.887  22.638  1.00  0.00     0.163 HD
BRANCH   4   7
ATOM      7  C   UNL A   1      31.566  26.609  23.471  1.00  0.00     0.114 C 
BRANCH   7   8
ATOM      8  C   UNL A   1      30.413  25.848  24.173  1.00  0.00     0.017 C 
BRANCH   8   9
ATOM      9  C   UNL A   1      30.422  25.512  25.677  1.00  0.00     0.001 C 
BRANCH   9  10
ATOM     10  C   UNL A   1      31.745  25.414  26.432  1.00  0.00    -0.003 C 
ATOM     11  C   UNL A   1      32.055  23.972  26.810  1.00  0.00     0.004 C 
ENDBRANCH   9  10
ENDBRANCH   8   9
ENDBRANCH   7   8
BRANCH   7  12
ATOM     12  C   UNL A   1      32.454  25.716  22.507  1.00  0.00     0.098 C 
ATOM     13  C   UNL A   1      33.497  26.614  21.798  1.00  0.00     0.048 C 
BRANCH  12  14
ATOM     14  O   UNL A   1      31.696  25.229  21.381  1.00  0.00    -0.385 OA
ATOM     15  H   UNL A   1      32.149  25.469  20.558  1.00  0.00     0.211 HD
ENDBRANCH  12  14
BRANCH  12  16
ATOM     16  C   UNL A   1      33.111  24.510  23.190  1.00  0.00    -0.014 A 
ATOM     17  C   UNL A   1      32.583  23.212  23.069  1.00  0.00     0.008 A 
ATOM     18  C   UNL A   1      34.304  24.655  23.929  1.00  0.00     0.028 A 
ATOM     19  C   UNL A   1      33.239  22.106  23.620  1.00  0.00     0.022 A 
ATOM     20  C   UNL A   1      34.972  23.548  24.470  1.00  0.00     0.060 A 
ATOM     21  C   UNL A   1      34.439  22.269  24.310  1.00  0.00     0.059 A 
ATOM     22  Cl  UNL A   1      36.469  23.829  25.286  1.00  0.00    -0.083 Cl
ATOM     23  Cl  UNL A   1      35.218  20.851  24.917  1.00  0.00    -0.083 Cl
ENDBRANCH  12  16
ENDBRANCH   7  12
ENDBRANCH   4   7
ENDBRANCH   2   3
ENDBRANCH   1   2
BRANCH   1  24
ATOM     24  C   UNL A   1      33.357  29.377  26.753  1.00  0.00     0.118 C 
BRANCH  24  25
ATOM     25  N   UNL A   1      33.460  30.551  27.614  1.00  0.00    -0.352 N 
ATOM     26  C   UNL A   1      34.476  31.016  28.420  1.00  0.00     0.251 C 
ATOM     27  H   UNL A   1      32.654  31.116  27.619  1.00  0.00     0.163 HD
ATOM     28  O   UNL A   1      34.291  32.023  29.101  1.00  0.00    -0.269 OA
BRANCH  26  29
ATOM     29  C   UNL A   1      35.756  30.282  28.522  1.00  0.00     0.039 A 
ATOM     30  C   UNL A   1      36.601  30.227  27.411  1.00  0.00     0.014 A 
ATOM     31  C   UNL A   1      36.155  29.694  29.719  1.00  0.00     0.014 A 
ATOM     32  C   UNL A   1      37.896  29.718  27.549  1.00  0.00     0.010 A 
ATOM     33  C   UNL A   1      37.483  29.330  29.894  1.00  0.00     0.010 A 
ATOM     34  C   UNL A   1      38.378  29.347  28.814  1.00  0.00    -0.014 A 
BRANCH  34  35
ATOM     35  C   UNL A   1      39.805  28.995  29.054  1.00  0.00     0.031 A 
ATOM     36  C   UNL A   1      40.755  30.028  29.605  1.00  0.00     0.074 A 
ATOM     37  C   UNL A   1      40.276  27.794  28.661  1.00  0.00     0.049 A 
ATOM     38  N   UNL A   1      42.058  29.987  29.701  1.00  0.00    -0.248 NA
ATOM     39  C   UNL A   1      40.163  31.300  30.050  1.00  0.00     0.031 C 
ATOM     40  C   UNL A   1      39.483  26.725  28.045  1.00  0.00     0.029 A 
ATOM     41  N   UNL A   1      41.544  27.270  28.709  1.00  0.00    -0.354 N 
ATOM     42  C   UNL A   1      42.443  31.240  30.163  1.00  0.00     0.074 A 
ATOM     43  C   UNL A   1      41.239  32.036  30.270  1.00  0.00     0.031 C 
ATOM     44  C   UNL A   1      40.270  25.661  27.821  1.00  0.00     0.029 A 
ATOM     45  C   UNL A   1      41.633  25.986  28.225  1.00  0.00     0.049 A 
ATOM     46  H   UNL A   1      42.319  27.768  29.057  1.00  0.00     0.167 HD
ATOM     47  C   UNL A   1      43.679  31.683  30.496  1.00  0.00     0.037 A 
ATOM     48  C   UNL A   1      42.691  25.161  28.117  1.00  0.00     0.037 A 
ATOM     49  C   UNL A   1      44.861  30.864  30.461  1.00  0.00     0.049 A 
ATOM     50  C   UNL A   1      44.043  25.644  28.561  1.00  0.00     0.074 A 
ATOM     51  C   UNL A   1      46.149  31.186  30.853  1.00  0.00     0.029 A 
ATOM     52  N   UNL A   1      44.893  29.545  30.027  1.00  0.00    -0.354 N 
ATOM     53  N   UNL A   1      44.383  26.822  29.029  1.00  0.00    -0.248 NA
ATOM     54  C   UNL A   1      45.155  24.689  28.465  1.00  0.00     0.031 C 
ATOM     55  C   UNL A   1      46.963  30.068  30.639  1.00  0.00     0.029 A 
ATOM     56  C   UNL A   1      46.177  29.040  30.142  1.00  0.00     0.049 A 
ATOM     57  H   UNL A   1      44.118  29.045  29.686  1.00  0.00     0.167 HD
ATOM     58  C   UNL A   1      45.742  26.742  29.307  1.00  0.00     0.074 A 
ATOM     59  C   UNL A   1      46.161  25.397  28.961  1.00  0.00     0.031 C 
ATOM     60  C   UNL A   1      46.569  27.695  29.804  1.00  0.00     0.037 A 
BRANCH  47  61
ATOM     61  C   UNL A   1      43.799  33.115  30.941  1.00  0.00     0.058 A 
ATOM     62  C   UNL A   1      44.032  34.155  30.025  1.00  0.00     0.135 A 
ATOM     63  C   UNL A   1      43.712  33.452  32.302  1.00  0.00     0.135 A 
ATOM     64  F   UNL A   1      44.140  33.888  28.713  1.00  0.00    -0.206 F 
ATOM     65  C   UNL A   1      44.235  35.464  30.445  1.00  0.00     0.059 A 
ATOM     66  C   UNL A   1      43.880  34.762  32.743  1.00  0.00     0.059 A 
ATOM     67  F   UNL A   1      43.484  32.501  33.222  1.00  0.00    -0.206 F 
ATOM     68  C   UNL A   1      44.170  35.756  31.809  1.00  0.00     0.060 A 
BRANCH  68  69
ATOM     69  S   UNL A   1      44.483  37.449  32.347  1.00  0.00     0.124 S 
ATOM     70  O   UNL A   1      44.331  38.184  31.095  1.00  0.00    -0.237 OA
ATOM     71  O   UNL A   1      43.433  37.666  33.338  1.00  0.00    -0.237 OA
ATOM     72  O   UNL A   1      45.841  37.389  32.881  1.00  0.00    -0.744 OA
ENDBRANCH  68  69
ENDBRANCH  47  61
BRANCH  48  73
ATOM     73  C   UNL A   1      42.499  23.774  27.621  1.00  0.00     0.058 A 
ATOM     74  C   UNL A   1      42.518  23.505  26.244  1.00  0.00     0.135 A 
ATOM     75  C   UNL A   1      42.342  22.690  28.497  1.00  0.00     0.135 A 
ATOM     76  F   UNL A   1      42.662  24.510  25.367  1.00  0.00    -0.206 F 
ATOM     77  C   UNL A   1      42.384  22.211  25.751  1.00  0.00     0.059 A 
ATOM     78  C   UNL A   1      42.225  21.384  28.030  1.00  0.00     0.059 A 
ATOM     79  F   UNL A   1      42.338  22.894  29.824  1.00  0.00    -0.206 F 
ATOM     80  C   UNL A   1      42.244  21.155  26.654  1.00  0.00     0.060 A 
BRANCH  80  81
ATOM     81  S   UNL A   1      42.147  19.472  26.007  1.00  0.00     0.124 S 
ATOM     82  O   UNL A   1      42.661  18.694  27.128  1.00  0.00    -0.237 OA
ATOM     83  O   UNL A   1      40.720  19.331  25.731  1.00  0.00    -0.237 OA
ATOM     84  O   UNL A   1      43.002  19.520  24.824  1.00  0.00    -0.744 OA
ENDBRANCH  80  81
ENDBRANCH  48  73
BRANCH  60  85
ATOM     85  C   UNL A   1      48.000  27.307  30.040  1.00  0.00     0.058 A 
ATOM     86  C   UNL A   1      48.982  27.493  29.056  1.00  0.00     0.135 A 
ATOM     87  C   UNL A   1      48.398  26.791  31.283  1.00  0.00     0.135 A 
ATOM     88  F   UNL A   1      48.648  27.976  27.849  1.00  0.00    -0.206 F 
ATOM     89  C   UNL A   1      50.314  27.164  29.292  1.00  0.00     0.059 A 
ATOM     90  C   UNL A   1      49.726  26.476  31.548  1.00  0.00     0.059 A 
ATOM     91  F   UNL A   1      47.495  26.604  32.257  1.00  0.00    -0.206 F 
ATOM     92  C   UNL A   1      50.675  26.657  30.542  1.00  0.00     0.060 A 
BRANCH  92  93
ATOM     93  S   UNL A   1      52.411  26.270  30.851  1.00  0.00     0.124 S 
ATOM     94  O   UNL A   1      52.304  25.039  31.627  1.00  0.00    -0.237 OA
ATOM     95  O   UNL A   1      52.947  26.124  29.502  1.00  0.00    -0.237 OA
ATOM     96  O   UNL A   1      52.892  27.436  31.586  1.00  0.00    -0.744 OA
ENDBRANCH  92  93
ENDBRANCH  60  85
ENDBRANCH  34  35
ENDBRANCH  26  29
ENDBRANCH  24  25
ENDBRANCH   1  24
TORSDOF 19
ENDMDL
MODEL 2
REMARK VINA RESULT:     -10.8      2.557      3.621
REMARK SMILES CCCC[C@H](C(=O)NCCCNC(=O)c1ccc(-c2c3nc(c(-c4c(F)cc(S(=O)(=O)[O-])cc4F)c4ccc([nH]4)c(-c4c(F)cc(S(=O)(=O)[O-])cc4F)c4nc(c(-c5c(F)cc(S(=O)(=O)[O-])cc5F)c5ccc2[nH]5)C=C4)C=C3)cc1)[C@](C)(O)c1ccc(Cl)c(Cl)c1
REMARK SMILES IDX 10 1 9 2 8 3 6 4 7 5 5 7 4 8 3 9 2 10 1 11 81 12 82 13 83 14
REMARK SMILES IDX 84 16 85 17 91 18 86 19 89 20 87 21 90 22 88 23 11 24 12 25
REMARK SMILES IDX 13 26 14 28 15 29 16 30 80 31 17 32 79 33 18 34 19 35 20 36
REMARK SMILES IDX 73 37 21 38 78 39 72 40 74 41 22 42 77 43 71 44 70 45 23 47
REMARK SMILES IDX 57 48 36 49 56 50 37 51 40 52 55 53 75 54 38 55 39 56 54 58
REMARK SMILES IDX 76 59 41 60 24 61 25 62 34 63 26 64 27 65 33 66 35 67 28 68
REMARK SMILES IDX 29 69 30 70 31 71 32 72 58 73 59 74 68 75 60 76 61 77 67 78
REMARK SMILES IDX 69 79 62 80 63 81 64 82 65 83 66 84 42 85 43 86 52 87 44 88
REMARK SMILES IDX 45 89 51 90 53 91 46 92 47 93 48 94 49 95 50 96
REMARK H PARENT 8 6 83 15 12 27 74 46 40 57
REMARK Flexibility Score: inf
ROOT
ATOM      1  C   UNL A   1      33.736  30.988  27.314  1.00  0.00     0.042 C 
ENDROOT
BRANCH   1   2
ATOM      2  C   UNL A   1      32.861  29.991  26.574  1.00  0.00     0.117 C 
BRANCH   2   3
ATOM      3  N   UNL A   1      33.352  29.646  25.253  1.00  0.00    -0.356 N 
ATOM      4  C   UNL A   1      32.724  29.044  24.211  1.00  0.00     0.226 C 
ATOM      5  O   UNL A   1      33.376  28.951  23.166  1.00  0.00    -0.275 OA
ATOM      6  H   UNL A   1      34.291  29.888  25.086  1.00  0.00     0.163 HD
BRANCH   4   7
ATOM      7  C   UNL A   1      31.347  28.383  24.356  1.00  0.00     0.114 C 
BRANCH   7   8
ATOM      8  C   UNL A   1      30.436  28.391  23.103  1.00  0.00     0.017 C 
BRANCH   8   9
ATOM      9  C   UNL A   1      29.182  29.280  22.983  1.00  0.00     0.001 C 
BRANCH   9  10
ATOM     10  C   UNL A   1      29.189  30.696  23.551  1.00  0.00    -0.003 C 
ATOM     11  C   UNL A   1      27.787  31.289  23.567  1.00  0.00     0.004 C 
ENDBRANCH   9  10
ENDBRANCH   8   9
ENDBRANCH   7   8
BRANCH   7  12
ATOM     12  C   UNL A   1      31.396  26.999  25.127  1.00  0.00     0.098 C 
ATOM     13  C   UNL A   1      30.022  26.295  24.999  1.00  0.00     0.048 C 
BRANCH  12  14
ATOM     14  O   UNL A   1      31.479  27.186  26.555  1.00  0.00    -0.385 OA
ATOM     15  H   UNL A   1      32.247  27.739  26.764  1.00  0.00     0.211 HD
ENDBRANCH  12  14
BRANCH  12  16
ATOM     16  C   UNL A   1      32.548  26.079  24.704  1.00  0.00    -0.014 A 
ATOM     17  C   UNL A   1      33.694  25.913  25.502  1.00  0.00     0.008 A 
ATOM     18  C   UNL A   1      32.476  25.326  23.514  1.00  0.00     0.028 A 
ATOM     19  C   UNL A   1      34.698  25.004  25.153  1.00  0.00     0.022 A 
ATOM     20  C   UNL A   1      33.473  24.404  23.166  1.00  0.00     0.060 A 
ATOM     21  C   UNL A   1      34.585  24.239  23.993  1.00  0.00     0.059 A 
ATOM     22  Cl  UNL A   1      33.245  23.473  21.729  1.00  0.00    -0.083 Cl
ATOM     23  Cl  UNL A   1      35.839  23.101  23.653  1.00  0.00    -0.083 Cl
ENDBRANCH  12  16
ENDBRANCH   7  12
ENDBRANCH   4   7
ENDBRANCH   2   3
ENDBRANCH   1   2
BRANCH   1  24
ATOM     24  C   UNL A   1      34.964  30.389  27.989  1.00  0.00     0.118 C 
BRANCH  24  25
ATOM     25  N   UNL A   1      35.248  30.903  29.325  1.00  0.00    -0.352 N 
ATOM     26  C   UNL A   1      36.353  30.791  30.140  1.00  0.00     0.251 C 
ATOM     27  H   UNL A   1      34.513  31.427  29.717  1.00  0.00     0.163 HD
ATOM     28  O   UNL A   1      36.323  31.280  31.267  1.00  0.00    -0.269 OA
BRANCH  26  29
ATOM     29  C   UNL A   1      37.545  30.035  29.697  1.00  0.00     0.039 A 
ATOM     30  C   UNL A   1      37.953  30.125  28.363  1.00  0.00     0.014 A 
ATOM     31  C   UNL A   1      38.295  29.283  30.595  1.00  0.00     0.014 A 
ATOM     32  C   UNL A   1      39.184  29.587  27.977  1.00  0.00     0.010 A 
ATOM     33  C   UNL A   1      39.579  28.883  30.250  1.00  0.00     0.010 A 
ATOM     34  C   UNL A   1      40.048  29.038  28.938  1.00  0.00    -0.014 A 
BRANCH  34  35
ATOM     35  C   UNL A   1      41.447  28.640  28.619  1.00  0.00     0.031 A 
ATOM     36  C   UNL A   1      42.545  29.674  28.618  1.00  0.00     0.074 A 
ATOM     37  C   UNL A   1      41.711  27.383  28.208  1.00  0.00     0.049 A 
ATOM     38  N   UNL A   1      43.774  29.576  28.185  1.00  0.00    -0.248 NA
ATOM     39  C   UNL A   1      42.192  31.013  29.118  1.00  0.00     0.031 C 
ATOM     40  C   UNL A   1      40.731  26.299  28.090  1.00  0.00     0.029 A 
ATOM     41  N   UNL A   1      42.887  26.803  27.799  1.00  0.00    -0.354 N 
ATOM     42  C   UNL A   1      44.320  30.849  28.306  1.00  0.00     0.074 A 
ATOM     43  C   UNL A   1      43.269  31.712  28.800  1.00  0.00     0.031 C 
ATOM     44  C   UNL A   1      41.353  25.179  27.689  1.00  0.00     0.029 A 
ATOM     45  C   UNL A   1      42.764  25.473  27.470  1.00  0.00     0.049 A 
ATOM     46  H   UNL A   1      43.739  27.294  27.746  1.00  0.00     0.167 HD
ATOM     47  C   UNL A   1      45.588  31.260  28.060  1.00  0.00     0.037 A 
ATOM     48  C   UNL A   1      43.682  24.589  27.037  1.00  0.00     0.037 A 
ATOM     49  C   UNL A   1      46.649  30.382  27.644  1.00  0.00     0.049 A 
ATOM     50  C   UNL A   1      45.100  25.045  26.841  1.00  0.00     0.074 A 
ATOM     51  C   UNL A   1      47.986  30.676  27.443  1.00  0.00     0.029 A 
ATOM     52  N   UNL A   1      46.494  29.026  27.386  1.00  0.00    -0.354 N 
ATOM     53  N   UNL A   1      45.608  26.245  26.995  1.00  0.00    -0.248 NA
ATOM     54  C   UNL A   1      46.072  24.030  26.413  1.00  0.00     0.031 C 
ATOM     55  C   UNL A   1      48.637  29.502  27.047  1.00  0.00     0.029 A 
ATOM     56  C   UNL A   1      47.711  28.470  27.030  1.00  0.00     0.049 A 
ATOM     57  H   UNL A   1      45.644  28.534  27.446  1.00  0.00     0.167 HD
ATOM     58  C   UNL A   1      46.962  26.125  26.707  1.00  0.00     0.074 A 
ATOM     59  C   UNL A   1      47.196  24.733  26.377  1.00  0.00     0.031 C 
ATOM     60  C   UNL A   1      47.924  27.080  26.717  1.00  0.00     0.037 A 
BRANCH  47  61
ATOM     61  C   UNL A   1      45.886  32.722  28.253  1.00  0.00     0.058 A 
ATOM     62  C   UNL A   1      46.332  33.226  29.486  1.00  0.00     0.135 A 
ATOM     63  C   UNL A   1      45.697  33.636  27.204  1.00  0.00     0.135 A 
ATOM     64  F   UNL A   1      46.515  32.399  30.529  1.00  0.00    -0.206 F 
ATOM     65  C   UNL A   1      46.518  34.588  29.692  1.00  0.00     0.059 A 
ATOM     66  C   UNL A   1      45.909  35.001  27.378  1.00  0.00     0.059 A 
ATOM     67  F   UNL A   1      45.279  33.210  26.001  1.00  0.00    -0.206 F 
ATOM     68  C   UNL A   1      46.291  35.470  28.634  1.00  0.00     0.060 A 
BRANCH  68  69
ATOM     69  S   UNL A   1      46.490  37.240  28.925  1.00  0.00     0.124 S 
ATOM     70  O   UNL A   1      47.108  37.248  30.248  1.00  0.00    -0.237 OA
ATOM     71  O   UNL A   1      47.355  37.648  27.822  1.00  0.00    -0.237 OA
ATOM     72  O   UNL A   1      45.123  37.748  28.866  1.00  0.00    -0.744 OA
ENDBRANCH  68  69
ENDBRANCH  47  61
BRANCH  48  73
ATOM     73  C   UNL A   1      43.297  23.170  26.822  1.00  0.00     0.058 A 
ATOM     74  C   UNL A   1      43.229  22.644  25.523  1.00  0.00     0.135 A 
ATOM     75  C   UNL A   1      43.039  22.303  27.894  1.00  0.00     0.135 A 
ATOM     76  F   UNL A   1      43.464  23.437  24.466  1.00  0.00    -0.206 F 
ATOM     77  C   UNL A   1      42.914  21.310  25.292  1.00  0.00     0.059 A 
ATOM     78  C   UNL A   1      42.740  20.959  27.690  1.00  0.00     0.059 A 
ATOM     79  F   UNL A   1      43.112  22.754  29.156  1.00  0.00    -0.206 F 
ATOM     80  C   UNL A   1      42.677  20.473  26.384  1.00  0.00     0.060 A 
BRANCH  80  81
ATOM     81  S   UNL A   1      42.343  18.725  26.076  1.00  0.00     0.124 S 
ATOM     82  O   UNL A   1      40.944  18.759  25.665  1.00  0.00    -0.237 OA
ATOM     83  O   UNL A   1      43.309  18.407  25.028  1.00  0.00    -0.237 OA
ATOM     84  O   UNL A   1      42.609  18.101  27.369  1.00  0.00    -0.744 OA
ENDBRANCH  80  81
ENDBRANCH  48  73
BRANCH  60  85
ATOM     85  C   UNL A   1      49.325  26.645  26.398  1.00  0.00     0.058 A 
ATOM     86  C   UNL A   1      50.141  26.032  27.360  1.00  0.00     0.135 A 
ATOM     87  C   UNL A   1      49.835  26.799  25.100  1.00  0.00     0.135 A 
ATOM     88  F   UNL A   1      49.700  25.870  28.617  1.00  0.00    -0.206 F 
ATOM     89  C   UNL A   1      51.427  25.599  27.049  1.00  0.00     0.059 A 
ATOM     90  C   UNL A   1      51.109  26.354  24.761  1.00  0.00     0.059 A 
ATOM     91  F   UNL A   1      49.089  27.372  24.144  1.00  0.00    -0.206 F 
ATOM     92  C   UNL A   1      51.901  25.765  25.746  1.00  0.00     0.060 A 
BRANCH  92  93
ATOM     93  S   UNL A   1      53.555  25.165  25.343  1.00  0.00     0.124 S 
ATOM     94  O   UNL A   1      53.373  23.720  25.432  1.00  0.00    -0.237 OA
ATOM     95  O   UNL A   1      53.764  25.695  24.000  1.00  0.00    -0.237 OA
ATOM     96  O   UNL A   1      54.392  25.758  26.381  1.00  0.00    -0.744 OA
ENDBRANCH  92  93
ENDBRANCH  60  85
ENDBRANCH  34  35
ENDBRANCH  26  29
ENDBRANCH  24  25
ENDBRANCH   1  24
TORSDOF 19
ENDMDL
MODEL 3
REMARK VINA RESULT:     -10.6      3.919      6.931
REMARK SMILES CCCC[C@H](C(=O)NCCCNC(=O)c1ccc(-c2c3nc(c(-c4c(F)cc(S(=O)(=O)[O-])cc4F)c4ccc([nH]4)c(-c4c(F)cc(S(=O)(=O)[O-])cc4F)c4nc(c(-c5c(F)cc(S(=O)(=O)[O-])cc5F)c5ccc2[nH]5)C=C4)C=C3)cc1)[C@](C)(O)c1ccc(Cl)c(Cl)c1
REMARK SMILES IDX 10 1 9 2 8 3 6 4 7 5 5 7 4 8 3 9 2 10 1 11 81 12 82 13 83 14
REMARK SMILES IDX 84 16 85 17 91 18 86 19 89 20 87 21 90 22 88 23 11 24 12 25
REMARK SMILES IDX 13 26 14 28 15 29 16 30 80 31 17 32 79 33 18 34 19 35 20 36
REMARK SMILES IDX 73 37 21 38 78 39 72 40 74 41 22 42 77 43 71 44 70 45 23 47
REMARK SMILES IDX 57 48 36 49 56 50 37 51 40 52 55 53 75 54 38 55 39 56 54 58
REMARK SMILES IDX 76 59 41 60 24 61 25 62 34 63 26 64 27 65 33 66 35 67 28 68
REMARK SMILES IDX 29 69 30 70 31 71 32 72 58 73 59 74 68 75 60 76 61 77 67 78
REMARK SMILES IDX 69 79 62 80 63 81 64 82 65 83 66 84 42 85 43 86 52 87 44 88
REMARK SMILES IDX 45 89 51 90 53 91 46 92 47 93 48 94 49 95 50 96
REMARK H PARENT 8 6 83 15 12 27 74 46 40 57
REMARK Flexibility Score: inf
ROOT
ATOM      1  C   UNL A   1      35.014  32.703  31.002  1.00  0.00     0.042 C 
ENDROOT
BRANCH   1   2
ATOM      2  C   UNL A   1      36.272  33.134  31.734  1.00  0.00     0.117 C 
BRANCH   2   3
ATOM      3  N   UNL A   1      36.184  33.011  33.176  1.00  0.00    -0.356 N 
ATOM      4  C   UNL A   1      37.112  32.613  34.084  1.00  0.00     0.226 C 
ATOM      5  O   UNL A   1      36.776  32.687  35.271  1.00  0.00    -0.275 OA
ATOM      6  H   UNL A   1      35.310  33.255  33.559  1.00  0.00     0.163 HD
BRANCH   4   7
ATOM      7  C   UNL A   1      38.442  31.972  33.668  1.00  0.00     0.114 C 
BRANCH   7   8
ATOM      8  C   UNL A   1      39.710  32.852  33.797  1.00  0.00     0.017 C 
BRANCH   8   9
ATOM      9  C   UNL A   1      39.659  34.353  34.144  1.00  0.00     0.001 C 
BRANCH   9  10
ATOM     10  C   UNL A   1      39.690  34.804  35.602  1.00  0.00    -0.003 C 
ATOM     11  C   UNL A   1      40.342  33.751  36.487  1.00  0.00     0.004 C 
ENDBRANCH   9  10
ENDBRANCH   8   9
ENDBRANCH   7   8
BRANCH   7  12
ATOM     12  C   UNL A   1      38.612  30.487  34.197  1.00  0.00     0.098 C 
ATOM     13  C   UNL A   1      37.750  29.535  33.332  1.00  0.00     0.048 C 
BRANCH  12  14
ATOM     14  O   UNL A   1      38.006  30.309  35.493  1.00  0.00    -0.385 OA
ATOM     15  H   UNL A   1      37.268  30.932  35.593  1.00  0.00     0.211 HD
ENDBRANCH  12  14
BRANCH  12  16
ATOM     16  C   UNL A   1      40.068  30.012  34.288  1.00  0.00    -0.014 A 
ATOM     17  C   UNL A   1      40.691  29.325  33.231  1.00  0.00     0.008 A 
ATOM     18  C   UNL A   1      40.853  30.292  35.426  1.00  0.00     0.028 A 
ATOM     19  C   UNL A   1      42.044  28.975  33.288  1.00  0.00     0.022 A 
ATOM     20  C   UNL A   1      42.213  29.957  35.482  1.00  0.00     0.060 A 
ATOM     21  C   UNL A   1      42.811  29.301  34.405  1.00  0.00     0.059 A 
ATOM     22  Cl  UNL A   1      43.101  30.421  36.889  1.00  0.00    -0.083 Cl
ATOM     23  Cl  UNL A   1      44.487  28.883  34.381  1.00  0.00    -0.083 Cl
ENDBRANCH  12  16
ENDBRANCH   7  12
ENDBRANCH   4   7
ENDBRANCH   2   3
ENDBRANCH   1   2
BRANCH   1  24
ATOM     24  C   UNL A   1      35.037  32.930  29.494  1.00  0.00     0.118 C 
BRANCH  24  25
ATOM     25  N   UNL A   1      34.162  32.054  28.723  1.00  0.00    -0.352 N 
ATOM     26  C   UNL A   1      34.356  30.803  28.181  1.00  0.00     0.251 C 
ATOM     27  H   UNL A   1      33.265  32.425  28.560  1.00  0.00     0.163 HD
ATOM     28  O   UNL A   1      33.460  30.288  27.515  1.00  0.00    -0.269 OA
BRANCH  26  29
ATOM     29  C   UNL A   1      35.651  30.104  28.337  1.00  0.00     0.039 A 
ATOM     30  C   UNL A   1      36.566  30.119  27.281  1.00  0.00     0.014 A 
ATOM     31  C   UNL A   1      35.993  29.480  29.533  1.00  0.00     0.014 A 
ATOM     32  C   UNL A   1      37.865  29.644  27.482  1.00  0.00     0.010 A 
ATOM     33  C   UNL A   1      37.319  29.150  29.779  1.00  0.00     0.010 A 
ATOM     34  C   UNL A   1      38.278  29.237  28.760  1.00  0.00    -0.014 A 
BRANCH  34  35
ATOM     35  C   UNL A   1      39.699  28.919  29.077  1.00  0.00     0.031 A 
ATOM     36  C   UNL A   1      40.582  29.962  29.713  1.00  0.00     0.074 A 
ATOM     37  C   UNL A   1      40.229  27.744  28.680  1.00  0.00     0.049 A 
ATOM     38  N   UNL A   1      41.878  29.955  29.887  1.00  0.00    -0.248 NA
ATOM     39  C   UNL A   1      39.926  31.203  30.156  1.00  0.00     0.031 C 
ATOM     40  C   UNL A   1      39.507  26.671  27.988  1.00  0.00     0.029 A 
ATOM     41  N   UNL A   1      41.507  27.255  28.792  1.00  0.00    -0.354 N 
ATOM     42  C   UNL A   1      42.196  31.205  30.406  1.00  0.00     0.074 A 
ATOM     43  C   UNL A   1      40.965  31.963  30.461  1.00  0.00     0.031 C 
ATOM     44  C   UNL A   1      40.337  25.637  27.784  1.00  0.00     0.029 A 
ATOM     45  C   UNL A   1      41.663  25.988  28.279  1.00  0.00     0.049 A 
ATOM     46  H   UNL A   1      42.244  27.765  29.200  1.00  0.00     0.167 HD
ATOM     47  C   UNL A   1      43.396  31.673  30.826  1.00  0.00     0.037 A 
ATOM     48  C   UNL A   1      42.750  25.198  28.213  1.00  0.00     0.037 A 
ATOM     49  C   UNL A   1      44.602  30.888  30.841  1.00  0.00     0.049 A 
ATOM     50  C   UNL A   1      44.057  25.705  28.753  1.00  0.00     0.074 A 
ATOM     51  C   UNL A   1      45.853  31.235  31.319  1.00  0.00     0.029 A 
ATOM     52  N   UNL A   1      44.700  29.585  30.373  1.00  0.00    -0.354 N 
ATOM     53  N   UNL A   1      44.333  26.878  29.273  1.00  0.00    -0.248 NA
ATOM     54  C   UNL A   1      45.201  24.785  28.699  1.00  0.00     0.031 C 
ATOM     55  C   UNL A   1      46.712  30.148  31.125  1.00  0.00     0.029 A 
ATOM     56  C   UNL A   1      45.989  29.113  30.553  1.00  0.00     0.049 A 
ATOM     57  H   UNL A   1      43.962  29.073  29.972  1.00  0.00     0.167 HD
ATOM     58  C   UNL A   1      45.675  26.829  29.631  1.00  0.00     0.074 A 
ATOM     59  C   UNL A   1      46.154  25.507  29.275  1.00  0.00     0.031 C 
ATOM     60  C   UNL A   1      46.441  27.790  30.203  1.00  0.00     0.037 A 
BRANCH  47  61
ATOM     61  C   UNL A   1      43.446  33.094  31.316  1.00  0.00     0.058 A 
ATOM     62  C   UNL A   1      43.744  34.162  30.453  1.00  0.00     0.135 A 
ATOM     63  C   UNL A   1      43.225  33.392  32.671  1.00  0.00     0.135 A 
ATOM     64  F   UNL A   1      43.980  33.932  29.151  1.00  0.00    -0.206 F 
ATOM     65  C   UNL A   1      43.881  35.463  30.924  1.00  0.00     0.059 A 
ATOM     66  C   UNL A   1      43.325  34.692  33.159  1.00  0.00     0.059 A 
ATOM     67  F   UNL A   1      42.930  32.413  33.541  1.00  0.00    -0.206 F 
ATOM     68  C   UNL A   1      43.682  35.716  32.282  1.00  0.00     0.060 A 
BRANCH  68  69
ATOM     69  S   UNL A   1      43.910  37.400  32.890  1.00  0.00     0.124 S 
ATOM     70  O   UNL A   1      42.830  37.502  33.867  1.00  0.00    -0.237 OA
ATOM     71  O   UNL A   1      45.260  37.357  33.444  1.00  0.00    -0.237 OA
ATOM     72  O   UNL A   1      43.753  38.217  31.691  1.00  0.00    -0.744 OA
ENDBRANCH  68  69
ENDBRANCH  47  61
BRANCH  48  73
ATOM     73  C   UNL A   1      42.630  23.820  27.669  1.00  0.00     0.058 A 
ATOM     74  C   UNL A   1      42.516  22.723  28.536  1.00  0.00     0.135 A 
ATOM     75  C   UNL A   1      42.578  23.572  26.289  1.00  0.00     0.135 A 
ATOM     76  F   UNL A   1      42.565  22.911  29.863  1.00  0.00    -0.206 F 
ATOM     77  C   UNL A   1      42.359  21.427  28.056  1.00  0.00     0.059 A 
ATOM     78  C   UNL A   1      42.402  22.287  25.784  1.00  0.00     0.059 A 
ATOM     79  F   UNL A   1      42.662  24.592  25.419  1.00  0.00    -0.206 F 
ATOM     80  C   UNL A   1      42.297  21.220  26.677  1.00  0.00     0.060 A 
BRANCH  80  81
ATOM     81  S   UNL A   1      42.016  19.544  26.067  1.00  0.00     0.124 S 
ATOM     82  O   UNL A   1      42.432  18.740  27.210  1.00  0.00    -0.237 OA
ATOM     83  O   UNL A   1      40.584  19.556  25.781  1.00  0.00    -0.237 OA
ATOM     84  O   UNL A   1      42.879  19.468  24.891  1.00  0.00    -0.744 OA
ENDBRANCH  80  81
ENDBRANCH  48  73
BRANCH  60  85
ATOM     85  C   UNL A   1      47.866  27.436  30.515  1.00  0.00     0.058 A 
ATOM     86  C   UNL A   1      48.235  26.905  31.760  1.00  0.00     0.135 A 
ATOM     87  C   UNL A   1      48.862  27.583  29.538  1.00  0.00     0.135 A 
ATOM     88  F   UNL A   1      47.318  26.752  32.729  1.00  0.00    -0.206 F 
ATOM     89  C   UNL A   1      49.551  26.545  32.032  1.00  0.00     0.059 A 
ATOM     90  C   UNL A   1      50.180  27.210  29.781  1.00  0.00     0.059 A 
ATOM     91  F   UNL A   1      48.555  28.079  28.330  1.00  0.00    -0.206 F 
ATOM     92  C   UNL A   1      50.516  26.702  31.035  1.00  0.00     0.060 A 
BRANCH  92  93
ATOM     93  S   UNL A   1      52.214  26.196  31.384  1.00  0.00     0.124 S 
ATOM     94  O   UNL A   1      52.016  24.850  31.910  1.00  0.00    -0.237 OA
ATOM     95  O   UNL A   1      52.844  26.279  30.071  1.00  0.00    -0.237 OA
ATOM     96  O   UNL A   1      52.669  27.189  32.354  1.00  0.00    -0.744 OA
ENDBRANCH  92  93
ENDBRANCH  60  85
ENDBRANCH  34  35
ENDBRANCH  26  29
ENDBRANCH  24  25
ENDBRANCH   1  24
TORSDOF 19
ENDMDL
