MODEL 1
REMARK VINA RESULT:     -12.0      0.000      0.000
REMARK SMILES O=C(NCCCNC(=O)c1ccccc1NC(=O)c1ccncc1)c1ccc(-c2c3nc(c(-c4c(F)cc(S(=O)(=O)[O-])cc4F)c4ccc([nH]4)c(-c4c(F)cc(S(=O)(=O)[O-])cc4F)c4nc(c(-c5c(F)cc(S(=O)(=O)[O-])cc5F)c5ccc2[nH]5)C=C4)C=C3)cc1
REMARK SMILES IDX 4 1 3 2 1 3 2 4 25 6 26 7 90 8 27 9 89 10 28 11 29 12 30 13
REMARK SMILES IDX 83 14 31 15 88 16 82 17 84 18 32 19 87 20 81 21 80 22 33 24
REMARK SMILES IDX 67 25 46 26 66 27 47 28 50 29 65 30 85 31 48 32 49 33 64 35
REMARK SMILES IDX 86 36 51 37 34 38 35 39 44 40 36 41 37 42 43 43 45 44 38 45
REMARK SMILES IDX 39 46 40 47 41 48 42 49 68 50 69 51 78 52 70 53 71 54 77 55
REMARK SMILES IDX 79 56 72 57 73 58 74 59 75 60 76 61 52 62 53 63 62 64 54 65
REMARK SMILES IDX 55 66 61 67 63 68 56 69 57 70 58 71 59 72 60 73 5 74 6 75
REMARK SMILES IDX 7 76 8 77 9 79 10 80 11 81 15 82 12 83 14 84 13 85 16 86
REMARK SMILES IDX 17 87 18 89 19 90 20 91 24 92 21 93 23 94 22 95
REMARK H PARENT 3 5 84 23 50 34 7 78 16 88
REMARK Flexibility Score: inf
ROOT
ATOM      1  C   UNL A   1      42.436  26.627  25.123  1.00  0.00     0.118 C 
ENDROOT
BRANCH   1   2
ATOM      2  N   UNL A   1      41.577  25.471  25.347  1.00  0.00    -0.352 N 
ATOM      3  O   UNL A   1      40.266  24.032  26.477  1.00  0.00    -0.269 OA
ATOM      4  C   UNL A   1      40.799  25.139  26.430  1.00  0.00     0.251 C 
ATOM      5  H   UNL A   1      41.549  24.827  24.603  1.00  0.00     0.163 HD
BRANCH   4   6
ATOM      6  C   UNL A   1      40.628  26.091  27.548  1.00  0.00     0.039 A 
ATOM      7  C   UNL A   1      41.377  27.266  27.605  1.00  0.00     0.014 A 
ATOM      8  C   UNL A   1      39.694  25.811  28.550  1.00  0.00     0.014 A 
ATOM      9  C   UNL A   1      41.333  28.059  28.744  1.00  0.00     0.010 A 
ATOM     10  C   UNL A   1      39.567  26.674  29.644  1.00  0.00     0.010 A 
ATOM     11  C   UNL A   1      40.412  27.787  29.768  1.00  0.00    -0.014 A 
BRANCH  11  12
ATOM     12  C   UNL A   1      40.310  28.728  30.911  1.00  0.00     0.031 A 
ATOM     13  C   UNL A   1      41.235  28.631  32.092  1.00  0.00     0.074 A 
ATOM     14  C   UNL A   1      39.383  29.707  30.852  1.00  0.00     0.049 A 
ATOM     15  N   UNL A   1      41.289  29.389  33.157  1.00  0.00    -0.248 NA
ATOM     16  C   UNL A   1      42.225  27.541  32.084  1.00  0.00     0.031 C 
ATOM     17  C   UNL A   1      38.420  29.887  29.762  1.00  0.00     0.029 A 
ATOM     18  N   UNL A   1      39.111  30.743  31.707  1.00  0.00    -0.354 N 
ATOM     19  C   UNL A   1      42.296  28.860  33.956  1.00  0.00     0.074 A 
ATOM     20  C   UNL A   1      42.816  27.700  33.261  1.00  0.00     0.031 C 
ATOM     21  C   UNL A   1      37.703  30.998  29.984  1.00  0.00     0.029 A 
ATOM     22  C   UNL A   1      38.102  31.567  31.265  1.00  0.00     0.049 A 
ATOM     23  H   UNL A   1      39.591  30.884  32.555  1.00  0.00     0.167 HD
ATOM     24  C   UNL A   1      42.747  29.305  35.154  1.00  0.00     0.037 A 
ATOM     25  C   UNL A   1      37.543  32.650  31.834  1.00  0.00     0.037 A 
ATOM     26  C   UNL A   1      42.232  30.471  35.827  1.00  0.00     0.049 A 
ATOM     27  C   UNL A   1      38.055  33.114  33.165  1.00  0.00     0.074 A 
ATOM     28  C   UNL A   1      42.643  31.023  37.029  1.00  0.00     0.029 A 
ATOM     29  N   UNL A   1      41.192  31.264  35.361  1.00  0.00    -0.354 N 
ATOM     30  N   UNL A   1      39.024  32.613  33.892  1.00  0.00    -0.248 NA
ATOM     31  C   UNL A   1      37.394  34.284  33.756  1.00  0.00     0.031 C 
ATOM     32  C   UNL A   1      41.826  32.124  37.308  1.00  0.00     0.029 A 
ATOM     33  C   UNL A   1      40.935  32.288  36.260  1.00  0.00     0.049 A 
ATOM     34  H   UNL A   1      40.708  31.120  34.516  1.00  0.00     0.167 HD
ATOM     35  C   UNL A   1      39.098  33.413  35.025  1.00  0.00     0.074 A 
ATOM     36  C   UNL A   1      38.088  34.443  34.876  1.00  0.00     0.031 C 
ATOM     37  C   UNL A   1      39.924  33.302  36.094  1.00  0.00     0.037 A 
BRANCH  24  38
ATOM     38  C   UNL A   1      43.842  28.523  35.828  1.00  0.00     0.058 A 
ATOM     39  C   UNL A   1      45.198  28.822  35.624  1.00  0.00     0.135 A 
ATOM     40  C   UNL A   1      43.529  27.489  36.726  1.00  0.00     0.135 A 
ATOM     41  F   UNL A   1      45.555  29.790  34.765  1.00  0.00    -0.206 F 
ATOM     42  C   UNL A   1      46.205  28.110  36.268  1.00  0.00     0.059 A 
ATOM     43  C   UNL A   1      44.519  26.779  37.400  1.00  0.00     0.059 A 
ATOM     44  F   UNL A   1      42.249  27.162  36.960  1.00  0.00    -0.206 F 
ATOM     45  C   UNL A   1      45.856  27.089  37.154  1.00  0.00     0.060 A 
BRANCH  45  46
ATOM     46  S   UNL A   1      47.176  26.175  37.982  1.00  0.00     0.124 S 
ATOM     47  O   UNL A   1      46.881  26.447  39.386  1.00  0.00    -0.237 OA
ATOM     48  O   UNL A   1      46.935  24.806  37.539  1.00  0.00    -0.237 OA
ATOM     49  O   UNL A   1      48.393  26.793  37.466  1.00  0.00    -0.744 OA
ENDBRANCH  45  46
ENDBRANCH  24  38
BRANCH  25  50
ATOM     50  C   UNL A   1      36.432  33.352  31.141  1.00  0.00     0.058 A 
ATOM     51  C   UNL A   1      35.115  33.269  31.613  1.00  0.00     0.135 A 
ATOM     52  C   UNL A   1      36.676  34.155  30.014  1.00  0.00     0.135 A 
ATOM     53  F   UNL A   1      34.832  32.513  32.685  1.00  0.00    -0.206 F 
ATOM     54  C   UNL A   1      34.076  33.950  30.989  1.00  0.00     0.059 A 
ATOM     55  C   UNL A   1      35.659  34.867  29.391  1.00  0.00     0.059 A 
ATOM     56  F   UNL A   1      37.925  34.282  29.537  1.00  0.00    -0.206 F 
ATOM     57  C   UNL A   1      34.359  34.750  29.880  1.00  0.00     0.060 A 
BRANCH  57  58
ATOM     58  S   UNL A   1      33.014  35.679  29.112  1.00  0.00     0.124 S 
ATOM     59  O   UNL A   1      32.388  34.655  28.283  1.00  0.00    -0.237 OA
ATOM     60  O   UNL A   1      32.245  36.123  30.271  1.00  0.00    -0.237 OA
ATOM     61  O   UNL A   1      33.710  36.739  28.389  1.00  0.00    -0.744 OA
ENDBRANCH  57  58
ENDBRANCH  25  50
BRANCH  37  62
ATOM     62  C   UNL A   1      39.783  34.336  37.174  1.00  0.00     0.058 A 
ATOM     63  C   UNL A   1      40.420  35.584  37.084  1.00  0.00     0.135 A 
ATOM     64  C   UNL A   1      38.975  34.089  38.294  1.00  0.00     0.135 A 
ATOM     65  F   UNL A   1      41.211  35.864  36.037  1.00  0.00    -0.206 F 
ATOM     66  C   UNL A   1      40.278  36.543  38.080  1.00  0.00     0.059 A 
ATOM     67  C   UNL A   1      38.799  35.044  39.291  1.00  0.00     0.059 A 
ATOM     68  F   UNL A   1      38.339  32.914  38.423  1.00  0.00    -0.206 F 
ATOM     69  C   UNL A   1      39.466  36.264  39.180  1.00  0.00     0.060 A 
BRANCH  69  70
ATOM     70  S   UNL A   1      39.268  37.527  40.455  1.00  0.00     0.124 S 
ATOM     71  O   UNL A   1      38.933  36.718  41.621  1.00  0.00    -0.237 OA
ATOM     72  O   UNL A   1      40.583  38.160  40.477  1.00  0.00    -0.237 OA
ATOM     73  O   UNL A   1      38.187  38.363  39.937  1.00  0.00    -0.744 OA
ENDBRANCH  69  70
ENDBRANCH  37  62
ENDBRANCH  11  12
ENDBRANCH   4   6
ENDBRANCH   1   2
BRANCH   1  74
ATOM     74  C   UNL A   1      43.904  26.263  24.965  1.00  0.00     0.042 C 
BRANCH  74  75
ATOM     75  C   UNL A   1      44.727  26.436  26.231  1.00  0.00     0.118 C 
BRANCH  75  76
ATOM     76  N   UNL A   1      45.842  25.501  26.300  1.00  0.00    -0.352 N 
ATOM     77  C   UNL A   1      45.962  24.323  26.988  1.00  0.00     0.253 C 
ATOM     78  H   UNL A   1      46.631  25.756  25.771  1.00  0.00     0.163 HD
ATOM     79  O   UNL A   1      47.060  23.780  27.078  1.00  0.00    -0.269 OA
BRANCH  77  80
ATOM     80  C   UNL A   1      44.785  23.676  27.606  1.00  0.00     0.063 A 
ATOM     81  C   UNL A   1      44.708  23.744  29.005  1.00  0.00     0.016 A 
ATOM     82  C   UNL A   1      43.823  22.961  26.862  1.00  0.00     0.054 A 
ATOM     83  C   UNL A   1      43.671  23.107  29.680  1.00  0.00     0.001 A 
ATOM     84  C   UNL A   1      42.829  22.274  27.568  1.00  0.00     0.027 A 
ATOM     85  C   UNL A   1      42.741  22.364  28.961  1.00  0.00     0.002 A 
BRANCH  82  86
ATOM     86  N   UNL A   1      43.915  22.937  25.452  1.00  0.00    -0.321 N 
ATOM     87  C   UNL A   1      44.381  22.010  24.552  1.00  0.00     0.255 C 
ATOM     88  H   UNL A   1      43.574  23.755  25.025  1.00  0.00     0.170 HD
ATOM     89  O   UNL A   1      44.421  22.295  23.355  1.00  0.00    -0.269 OA
BRANCH  87  90
ATOM     90  C   UNL A   1      44.797  20.655  24.951  1.00  0.00     0.043 A 
ATOM     91  C   UNL A   1      46.138  20.295  25.078  1.00  0.00     0.034 A 
ATOM     92  C   UNL A   1      43.792  19.731  25.230  1.00  0.00     0.034 A 
ATOM     93  C   UNL A   1      46.416  18.976  25.390  1.00  0.00     0.112 A 
ATOM     94  C   UNL A   1      44.175  18.445  25.546  1.00  0.00     0.112 A 
ATOM     95  N   UNL A   1      45.463  18.042  25.607  1.00  0.00    -0.265 NA
ENDBRANCH  87  90
ENDBRANCH  82  86
ENDBRANCH  77  80
ENDBRANCH  75  76
ENDBRANCH  74  75
ENDBRANCH   1  74
TORSDOF 15
ENDMDL
MODEL 2
REMARK VINA RESULT:     -11.9      6.825     13.508
REMARK SMILES O=C(NCCCNC(=O)c1ccccc1NC(=O)c1ccncc1)c1ccc(-c2c3nc(c(-c4c(F)cc(S(=O)(=O)[O-])cc4F)c4ccc([nH]4)c(-c4c(F)cc(S(=O)(=O)[O-])cc4F)c4nc(c(-c5c(F)cc(S(=O)(=O)[O-])cc5F)c5ccc2[nH]5)C=C4)C=C3)cc1
REMARK SMILES IDX 4 1 3 2 1 3 2 4 25 6 26 7 90 8 27 9 89 10 28 11 29 12 30 13
REMARK SMILES IDX 83 14 31 15 88 16 82 17 84 18 32 19 87 20 81 21 80 22 33 24
REMARK SMILES IDX 67 25 46 26 66 27 47 28 50 29 65 30 85 31 48 32 49 33 64 35
REMARK SMILES IDX 86 36 51 37 34 38 35 39 44 40 36 41 37 42 43 43 45 44 38 45
REMARK SMILES IDX 39 46 40 47 41 48 42 49 68 50 69 51 78 52 70 53 71 54 77 55
REMARK SMILES IDX 79 56 72 57 73 58 74 59 75 60 76 61 52 62 53 63 62 64 54 65
REMARK SMILES IDX 55 66 61 67 63 68 56 69 57 70 58 71 59 72 60 73 5 74 6 75
REMARK SMILES IDX 7 76 8 77 9 79 10 80 11 81 15 82 12 83 14 84 13 85 16 86
REMARK SMILES IDX 17 87 18 89 19 90 20 91 24 92 21 93 23 94 22 95
REMARK H PARENT 3 5 84 23 50 34 7 78 16 88
REMARK Flexibility Score: inf
ROOT
ATOM      1  C   UNL A   1      35.616  31.095  28.011  1.00  0.00     0.118 C 
ENDROOT
BRANCH   1   2
ATOM      2  N   UNL A   1      35.503  30.854  29.444  1.00  0.00    -0.352 N 
ATOM      3  O   UNL A   1      36.009  29.996  31.463  1.00  0.00    -0.269 OA
ATOM      4  C   UNL A   1      36.369  30.231  30.311  1.00  0.00     0.251 C 
ATOM      5  H   UNL A   1      34.675  31.192  29.856  1.00  0.00     0.163 HD
BRANCH   4   6
ATOM      6  C   UNL A   1      37.713  29.815  29.856  1.00  0.00     0.039 A 
ATOM      7  C   UNL A   1      38.687  29.426  30.775  1.00  0.00     0.014 A 
ATOM      8  C   UNL A   1      38.000  29.803  28.488  1.00  0.00     0.014 A 
ATOM      9  C   UNL A   1      39.991  29.209  30.348  1.00  0.00     0.010 A 
ATOM     10  C   UNL A   1      39.286  29.471  28.050  1.00  0.00     0.010 A 
ATOM     11  C   UNL A   1      40.303  29.206  28.979  1.00  0.00    -0.014 A 
BRANCH  11  12
ATOM     12  C   UNL A   1      41.681  28.848  28.556  1.00  0.00     0.031 A 
ATOM     13  C   UNL A   1      42.792  29.861  28.567  1.00  0.00     0.074 A 
ATOM     14  C   UNL A   1      41.927  27.572  28.194  1.00  0.00     0.049 A 
ATOM     15  N   UNL A   1      44.051  29.700  28.249  1.00  0.00    -0.248 NA
ATOM     16  C   UNL A   1      42.450  31.232  28.980  1.00  0.00     0.031 C 
ATOM     17  C   UNL A   1      40.920  26.508  28.131  1.00  0.00     0.029 A 
ATOM     18  N   UNL A   1      43.091  26.946  27.835  1.00  0.00    -0.354 N 
ATOM     19  C   UNL A   1      44.648  30.947  28.400  1.00  0.00     0.074 A 
ATOM     20  C   UNL A   1      43.606  31.862  28.819  1.00  0.00     0.031 C 
ATOM     21  C   UNL A   1      41.519  25.352  27.812  1.00  0.00     0.029 A 
ATOM     22  C   UNL A   1      42.935  25.604  27.576  1.00  0.00     0.049 A 
ATOM     23  H   UNL A   1      43.956  27.411  27.768  1.00  0.00     0.167 HD
ATOM     24  C   UNL A   1      45.944  31.292  28.211  1.00  0.00     0.037 A 
ATOM     25  C   UNL A   1      43.825  24.680  27.173  1.00  0.00     0.037 A 
ATOM     26  C   UNL A   1      46.976  30.367  27.810  1.00  0.00     0.049 A 
ATOM     27  C   UNL A   1      45.252  25.092  26.962  1.00  0.00     0.074 A 
ATOM     28  C   UNL A   1      48.325  30.612  27.622  1.00  0.00     0.029 A 
ATOM     29  N   UNL A   1      46.773  29.023  27.531  1.00  0.00    -0.354 N 
ATOM     30  N   UNL A   1      45.799  26.271  27.133  1.00  0.00    -0.248 NA
ATOM     31  C   UNL A   1      46.178  24.052  26.497  1.00  0.00     0.031 C 
ATOM     32  C   UNL A   1      48.930  29.426  27.191  1.00  0.00     0.029 A 
ATOM     33  C   UNL A   1      47.968  28.430  27.155  1.00  0.00     0.049 A 
ATOM     34  H   UNL A   1      45.907  28.558  27.592  1.00  0.00     0.167 HD
ATOM     35  C   UNL A   1      47.140  26.114  26.806  1.00  0.00     0.074 A 
ATOM     36  C   UNL A   1      47.323  24.721  26.447  1.00  0.00     0.031 C 
ATOM     37  C   UNL A   1      48.129  27.042  26.799  1.00  0.00     0.037 A 
BRANCH  24  38
ATOM     38  C   UNL A   1      46.326  32.732  28.418  1.00  0.00     0.058 A 
ATOM     39  C   UNL A   1      46.270  33.670  27.374  1.00  0.00     0.135 A 
ATOM     40  C   UNL A   1      46.709  33.192  29.689  1.00  0.00     0.135 A 
ATOM     41  F   UNL A   1      45.925  33.285  26.136  1.00  0.00    -0.206 F 
ATOM     42  C   UNL A   1      46.603  35.007  27.579  1.00  0.00     0.059 A 
ATOM     43  C   UNL A   1      47.022  34.528  29.921  1.00  0.00     0.059 A 
ATOM     44  F   UNL A   1      46.778  32.339  30.723  1.00  0.00    -0.206 F 
ATOM     45  C   UNL A   1      46.979  35.426  28.856  1.00  0.00     0.060 A 
BRANCH  45  46
ATOM     46  S   UNL A   1      47.406  37.164  29.103  1.00  0.00     0.124 S 
ATOM     47  O   UNL A   1      47.781  37.173  30.514  1.00  0.00    -0.237 OA
ATOM     48  O   UNL A   1      48.500  37.355  28.157  1.00  0.00    -0.237 OA
ATOM     49  O   UNL A   1      46.169  37.868  28.778  1.00  0.00    -0.744 OA
ENDBRANCH  45  46
ENDBRANCH  24  38
BRANCH  25  50
ATOM     50  C   UNL A   1      43.377  23.283  26.939  1.00  0.00     0.058 A 
ATOM     51  C   UNL A   1      43.191  22.788  25.641  1.00  0.00     0.135 A 
ATOM     52  C   UNL A   1      43.166  22.402  28.013  1.00  0.00     0.135 A 
ATOM     53  F   UNL A   1      43.379  23.592  24.583  1.00  0.00    -0.206 F 
ATOM     54  C   UNL A   1      42.804  21.472  25.414  1.00  0.00     0.059 A 
ATOM     55  C   UNL A   1      42.807  21.076  27.810  1.00  0.00     0.059 A 
ATOM     56  F   UNL A   1      43.351  22.823  29.275  1.00  0.00    -0.206 F 
ATOM     57  C   UNL A   1      42.618  20.622  26.506  1.00  0.00     0.060 A 
BRANCH  57  58
ATOM     58  S   UNL A   1      42.174  18.898  26.200  1.00  0.00     0.124 S 
ATOM     59  O   UNL A   1      40.782  19.024  25.787  1.00  0.00    -0.237 OA
ATOM     60  O   UNL A   1      43.120  18.518  25.155  1.00  0.00    -0.237 OA
ATOM     61  O   UNL A   1      42.395  18.261  27.495  1.00  0.00    -0.744 OA
ENDBRANCH  57  58
ENDBRANCH  25  50
BRANCH  37  62
ATOM     62  C   UNL A   1      49.501  26.570  26.412  1.00  0.00     0.058 A 
ATOM     63  C   UNL A   1      49.959  26.649  25.087  1.00  0.00     0.135 A 
ATOM     64  C   UNL A   1      50.380  26.066  27.384  1.00  0.00     0.135 A 
ATOM     65  F   UNL A   1      49.153  27.115  24.121  1.00  0.00    -0.206 F 
ATOM     66  C   UNL A   1      51.235  26.221  24.735  1.00  0.00     0.059 A 
ATOM     67  C   UNL A   1      51.669  25.656  27.057  1.00  0.00     0.059 A 
ATOM     68  F   UNL A   1      49.992  25.978  28.665  1.00  0.00    -0.206 F 
ATOM     69  C   UNL A   1      52.082  25.726  25.728  1.00  0.00     0.060 A 
BRANCH  69  70
ATOM     70  S   UNL A   1      53.745  25.199  25.263  1.00  0.00     0.124 S 
ATOM     71  O   UNL A   1      53.840  25.696  23.896  1.00  0.00    -0.237 OA
ATOM     72  O   UNL A   1      54.578  25.884  26.247  1.00  0.00    -0.237 OA
ATOM     73  O   UNL A   1      53.691  23.746  25.402  1.00  0.00    -0.744 OA
ENDBRANCH  69  70
ENDBRANCH  37  62
ENDBRANCH  11  12
ENDBRANCH   4   6
ENDBRANCH   1   2
BRANCH   1  74
ATOM     74  C   UNL A   1      34.334  30.799  27.249  1.00  0.00     0.042 C 
BRANCH  74  75
ATOM     75  C   UNL A   1      34.127  29.327  26.931  1.00  0.00     0.118 C 
BRANCH  75  76
ATOM     76  N   UNL A   1      33.124  28.709  27.788  1.00  0.00    -0.352 N 
ATOM     77  C   UNL A   1      31.880  28.225  27.480  1.00  0.00     0.253 C 
ATOM     78  H   UNL A   1      33.380  28.627  28.734  1.00  0.00     0.163 HD
ATOM     79  O   UNL A   1      31.104  27.924  28.384  1.00  0.00    -0.269 OA
BRANCH  77  80
ATOM     80  C   UNL A   1      31.462  28.033  26.076  1.00  0.00     0.063 A 
ATOM     81  C   UNL A   1      31.551  29.160  25.246  1.00  0.00     0.016 A 
ATOM     82  C   UNL A   1      30.929  26.819  25.593  1.00  0.00     0.054 A 
ATOM     83  C   UNL A   1      31.118  29.092  23.925  1.00  0.00     0.001 A 
ATOM     84  C   UNL A   1      30.438  26.795  24.283  1.00  0.00     0.027 A 
ATOM     85  C   UNL A   1      30.551  27.914  23.450  1.00  0.00     0.002 A 
BRANCH  82  86
ATOM     86  N   UNL A   1      30.879  25.694  26.447  1.00  0.00    -0.321 N 
ATOM     87  C   UNL A   1      31.579  24.513  26.497  1.00  0.00     0.255 C 
ATOM     88  H   UNL A   1      30.200  25.773  27.156  1.00  0.00     0.170 HD
ATOM     89  O   UNL A   1      31.259  23.654  27.318  1.00  0.00    -0.269 OA
BRANCH  87  90
ATOM     90  C   UNL A   1      32.741  24.243  25.634  1.00  0.00     0.043 A 
ATOM     91  C   UNL A   1      32.625  23.566  24.420  1.00  0.00     0.034 A 
ATOM     92  C   UNL A   1      33.980  24.715  26.060  1.00  0.00     0.034 A 
ATOM     93  C   UNL A   1      33.792  23.304  23.725  1.00  0.00     0.112 A 
ATOM     94  C   UNL A   1      35.081  24.412  25.286  1.00  0.00     0.112 A 
ATOM     95  N   UNL A   1      35.017  23.696  24.142  1.00  0.00    -0.265 NA
ENDBRANCH  87  90
ENDBRANCH  82  86
ENDBRANCH  77  80
ENDBRANCH  75  76
ENDBRANCH  74  75
ENDBRANCH   1  74
TORSDOF 15
ENDMDL
MODEL 3
REMARK VINA RESULT:     -11.8      3.157      9.285
REMARK SMILES O=C(NCCCNC(=O)c1ccccc1NC(=O)c1ccncc1)c1ccc(-c2c3nc(c(-c4c(F)cc(S(=O)(=O)[O-])cc4F)c4ccc([nH]4)c(-c4c(F)cc(S(=O)(=O)[O-])cc4F)c4nc(c(-c5c(F)cc(S(=O)(=O)[O-])cc5F)c5ccc2[nH]5)C=C4)C=C3)cc1
REMARK SMILES IDX 4 1 3 2 1 3 2 4 25 6 26 7 90 8 27 9 89 10 28 11 29 12 30 13
REMARK SMILES IDX 83 14 31 15 88 16 82 17 84 18 32 19 87 20 81 21 80 22 33 24
REMARK SMILES IDX 67 25 46 26 66 27 47 28 50 29 65 30 85 31 48 32 49 33 64 35
REMARK SMILES IDX 86 36 51 37 34 38 35 39 44 40 36 41 37 42 43 43 45 44 38 45
REMARK SMILES IDX 39 46 40 47 41 48 42 49 68 50 69 51 78 52 70 53 71 54 77 55
REMARK SMILES IDX 79 56 72 57 73 58 74 59 75 60 76 61 52 62 53 63 62 64 54 65
REMARK SMILES IDX 55 66 61 67 63 68 56 69 57 70 58 71 59 72 60 73 5 74 6 75
REMARK SMILES IDX 7 76 8 77 9 79 10 80 11 81 15 82 12 83 14 84 13 85 16 86
REMARK SMILES IDX 17 87 18 89 19 90 20 91 24 92 21 93 23 94 22 95
REMARK H PARENT 3 5 84 23 50 34 7 78 16 88
REMARK Flexibility Score: inf
ROOT
ATOM      1  C   UNL A   1      40.059  21.550  26.906  1.00  0.00     0.118 C 
ENDROOT
BRANCH   1   2
ATOM      2  N   UNL A   1      39.093  22.097  25.961  1.00  0.00    -0.352 N 
ATOM      3  O   UNL A   1      37.658  23.584  25.068  1.00  0.00    -0.269 OA
ATOM      4  C   UNL A   1      38.586  23.370  25.845  1.00  0.00     0.251 C 
ATOM      5  H   UNL A   1      38.750  21.452  25.301  1.00  0.00     0.163 HD
BRANCH   4   6
ATOM      6  C   UNL A   1      39.130  24.469  26.671  1.00  0.00     0.039 A 
ATOM      7  C   UNL A   1      38.849  24.542  28.035  1.00  0.00     0.014 A 
ATOM      8  C   UNL A   1      39.945  25.436  26.074  1.00  0.00     0.014 A 
ATOM      9  C   UNL A   1      39.219  25.670  28.756  1.00  0.00     0.010 A 
ATOM     10  C   UNL A   1      40.415  26.514  26.832  1.00  0.00     0.010 A 
ATOM     11  C   UNL A   1      40.025  26.659  28.172  1.00  0.00    -0.014 A 
BRANCH  11  12
ATOM     12  C   UNL A   1      40.502  27.787  29.011  1.00  0.00     0.031 A 
ATOM     13  C   UNL A   1      39.632  28.982  29.286  1.00  0.00     0.074 A 
ATOM     14  C   UNL A   1      41.732  27.700  29.560  1.00  0.00     0.049 A 
ATOM     15  N   UNL A   1      39.894  30.037  30.016  1.00  0.00    -0.248 NA
ATOM     16  C   UNL A   1      38.301  29.004  28.658  1.00  0.00     0.031 C 
ATOM     17  C   UNL A   1      42.669  26.592  29.348  1.00  0.00     0.029 A 
ATOM     18  N   UNL A   1      42.395  28.535  30.420  1.00  0.00    -0.354 N 
ATOM     19  C   UNL A   1      38.776  30.857  29.919  1.00  0.00     0.074 A 
ATOM     20  C   UNL A   1      37.839  30.187  29.042  1.00  0.00     0.031 C 
ATOM     21  C   UNL A   1      43.761  26.788  30.102  1.00  0.00     0.029 A 
ATOM     22  C   UNL A   1      43.635  28.066  30.790  1.00  0.00     0.049 A 
ATOM     23  H   UNL A   1      42.023  29.387  30.741  1.00  0.00     0.167 HD
ATOM     24  C   UNL A   1      38.553  32.055  30.513  1.00  0.00     0.037 A 
ATOM     25  C   UNL A   1      44.577  28.611  31.581  1.00  0.00     0.037 A 
ATOM     26  C   UNL A   1      39.488  32.703  31.399  1.00  0.00     0.049 A 
ATOM     27  C   UNL A   1      44.307  29.942  32.218  1.00  0.00     0.074 A 
ATOM     28  C   UNL A   1      39.342  33.902  32.076  1.00  0.00     0.029 A 
ATOM     29  N   UNL A   1      40.743  32.211  31.729  1.00  0.00    -0.354 N 
ATOM     30  N   UNL A   1      43.234  30.690  32.132  1.00  0.00    -0.248 NA
ATOM     31  C   UNL A   1      45.377  30.506  33.050  1.00  0.00     0.031 C 
ATOM     32  C   UNL A   1      40.524  34.153  32.781  1.00  0.00     0.029 A 
ATOM     33  C   UNL A   1      41.389  33.090  32.583  1.00  0.00     0.049 A 
ATOM     34  H   UNL A   1      41.119  31.360  31.403  1.00  0.00     0.167 HD
ATOM     35  C   UNL A   1      43.494  31.812  32.909  1.00  0.00     0.074 A 
ATOM     36  C   UNL A   1      44.818  31.633  33.472  1.00  0.00     0.031 C 
ATOM     37  C   UNL A   1      42.708  32.895  33.131  1.00  0.00     0.037 A 
BRANCH  24  38
ATOM     38  C   UNL A   1      37.255  32.756  30.216  1.00  0.00     0.058 A 
ATOM     39  C   UNL A   1      36.107  32.551  30.998  1.00  0.00     0.135 A 
ATOM     40  C   UNL A   1      37.171  33.682  29.162  1.00  0.00     0.135 A 
ATOM     41  F   UNL A   1      36.126  31.667  32.008  1.00  0.00    -0.206 F 
ATOM     42  C   UNL A   1      34.916  33.221  30.731  1.00  0.00     0.059 A 
ATOM     43  C   UNL A   1      35.997  34.380  28.893  1.00  0.00     0.059 A 
ATOM     44  F   UNL A   1      38.238  33.918  28.384  1.00  0.00    -0.206 F 
ATOM     45  C   UNL A   1      34.870  34.133  29.675  1.00  0.00     0.060 A 
BRANCH  45  46
ATOM     46  S   UNL A   1      33.317  34.993  29.344  1.00  0.00     0.124 S 
ATOM     47  O   UNL A   1      32.693  34.984  30.664  1.00  0.00    -0.237 OA
ATOM     48  O   UNL A   1      33.775  36.295  28.870  1.00  0.00    -0.237 OA
ATOM     49  O   UNL A   1      32.672  34.155  28.339  1.00  0.00    -0.744 OA
ENDBRANCH  45  46
ENDBRANCH  24  38
BRANCH  25  50
ATOM     50  C   UNL A   1      45.858  27.891  31.798  1.00  0.00     0.058 A 
ATOM     51  C   UNL A   1      47.020  28.253  31.103  1.00  0.00     0.135 A 
ATOM     52  C   UNL A   1      45.953  26.852  32.739  1.00  0.00     0.135 A 
ATOM     53  F   UNL A   1      46.978  29.238  30.193  1.00  0.00    -0.206 F 
ATOM     54  C   UNL A   1      48.231  27.606  31.326  1.00  0.00     0.059 A 
ATOM     55  C   UNL A   1      47.157  26.210  32.999  1.00  0.00     0.059 A 
ATOM     56  F   UNL A   1      44.872  26.483  33.445  1.00  0.00    -0.206 F 
ATOM     57  C   UNL A   1      48.290  26.588  32.279  1.00  0.00     0.060 A 
BRANCH  57  58
ATOM     58  S   UNL A   1      49.878  25.793  32.605  1.00  0.00     0.124 S 
ATOM     59  O   UNL A   1      49.458  24.462  33.025  1.00  0.00    -0.237 OA
ATOM     60  O   UNL A   1      50.536  25.875  31.304  1.00  0.00    -0.237 OA
ATOM     61  O   UNL A   1      50.464  26.630  33.647  1.00  0.00    -0.744 OA
ENDBRANCH  57  58
ENDBRANCH  25  50
BRANCH  37  62
ATOM     62  C   UNL A   1      43.255  33.957  34.041  1.00  0.00     0.058 A 
ATOM     63  C   UNL A   1      43.997  35.040  33.544  1.00  0.00     0.135 A 
ATOM     64  C   UNL A   1      43.006  33.908  35.422  1.00  0.00     0.135 A 
ATOM     65  F   UNL A   1      44.270  35.126  32.233  1.00  0.00    -0.206 F 
ATOM     66  C   UNL A   1      44.493  36.027  34.389  1.00  0.00     0.059 A 
ATOM     67  C   UNL A   1      43.471  34.898  36.282  1.00  0.00     0.059 A 
ATOM     68  F   UNL A   1      42.295  32.896  35.945  1.00  0.00    -0.206 F 
ATOM     69  C   UNL A   1      44.225  35.947  35.756  1.00  0.00     0.060 A 
BRANCH  69  70
ATOM     70  S   UNL A   1      44.850  37.248  36.840  1.00  0.00     0.124 S 
ATOM     71  O   UNL A   1      44.841  36.581  38.137  1.00  0.00    -0.237 OA
ATOM     72  O   UNL A   1      46.169  37.521  36.275  1.00  0.00    -0.237 OA
ATOM     73  O   UNL A   1      43.873  38.322  36.678  1.00  0.00    -0.744 OA
ENDBRANCH  69  70
ENDBRANCH  37  62
ENDBRANCH  11  12
ENDBRANCH   4   6
ENDBRANCH   1   2
BRANCH   1  74
ATOM     74  C   UNL A   1      40.837  20.367  26.351  1.00  0.00     0.042 C 
BRANCH  74  75
ATOM     75  C   UNL A   1      42.285  20.679  26.013  1.00  0.00     0.118 C 
BRANCH  75  76
ATOM     76  N   UNL A   1      42.438  21.977  25.370  1.00  0.00    -0.352 N 
ATOM     77  C   UNL A   1      42.899  23.163  25.877  1.00  0.00     0.253 C 
ATOM     78  H   UNL A   1      42.168  22.007  24.424  1.00  0.00     0.163 HD
ATOM     79  O   UNL A   1      42.762  24.196  25.228  1.00  0.00    -0.269 OA
BRANCH  77  80
ATOM     80  C   UNL A   1      43.585  23.218  27.185  1.00  0.00     0.063 A 
ATOM     81  C   UNL A   1      42.836  22.794  28.292  1.00  0.00     0.016 A 
ATOM     82  C   UNL A   1      44.889  23.734  27.347  1.00  0.00     0.054 A 
ATOM     83  C   UNL A   1      43.376  22.872  29.573  1.00  0.00     0.001 A 
ATOM     84  C   UNL A   1      45.382  23.866  28.649  1.00  0.00     0.027 A 
ATOM     85  C   UNL A   1      44.642  23.419  29.750  1.00  0.00     0.002 A 
BRANCH  82  86
ATOM     86  N   UNL A   1      45.626  24.127  26.207  1.00  0.00    -0.321 N 
ATOM     87  C   UNL A   1      45.819  25.332  25.575  1.00  0.00     0.255 C 
ATOM     88  H   UNL A   1      46.101  23.381  25.775  1.00  0.00     0.170 HD
ATOM     89  O   UNL A   1      46.457  25.368  24.524  1.00  0.00    -0.269 OA
BRANCH  87  90
ATOM     90  C   UNL A   1      45.330  26.606  26.129  1.00  0.00     0.043 A 
ATOM     91  C   UNL A   1      44.062  27.106  25.839  1.00  0.00     0.034 A 
ATOM     92  C   UNL A   1      46.179  27.298  26.990  1.00  0.00     0.034 A 
ATOM     93  C   UNL A   1      43.734  28.346  26.357  1.00  0.00     0.112 A 
ATOM     94  C   UNL A   1      45.752  28.520  27.465  1.00  0.00     0.112 A 
ATOM     95  N   UNL A   1      44.560  29.070  27.147  1.00  0.00    -0.265 NA
ENDBRANCH  87  90
ENDBRANCH  82  86
ENDBRANCH  77  80
ENDBRANCH  75  76
ENDBRANCH  74  75
ENDBRANCH   1  74
TORSDOF 15
ENDMDL
