MODEL 1
REMARK VINA RESULT:     -11.9      0.000      0.000
REMARK SMILES COCC[C@@]1(C(=O)NCCCNC(=O)c2ccc(-c3c4nc(c(-c5c(F)cc(S(=O)(=O)[O-])cc5F)c5ccc([nH]5)c(-c5c(F)cc(S(=O)(=O)[O-])cc5F)c5nc(c(-c6c(F)cc(S(=O)(=O)[O-])cc6F)c6ccc3[nH]6)C=C5)C=C4)cc2)CCC[N@@H+](Cc2cccc3c2OC(C)(C)C3)C1
REMARK SMILES IDX 10 1 9 2 8 3 6 4 7 5 5 7 81 8 97 9 82 10 84 11 83 12 4 14
REMARK SMILES IDX 3 15 2 16 1 17 85 18 86 19 87 20 91 21 88 22 90 23 92 24
REMARK SMILES IDX 89 25 96 26 93 27 94 28 95 29 11 30 12 31 13 32 14 34 15 35
REMARK SMILES IDX 16 36 80 37 17 38 79 39 18 40 19 41 20 42 73 43 21 44 78 45
REMARK SMILES IDX 72 46 74 47 22 48 77 49 71 50 70 51 23 53 57 54 36 55 56 56
REMARK SMILES IDX 37 57 40 58 55 59 75 60 38 61 39 62 54 64 76 65 41 66 24 67
REMARK SMILES IDX 25 68 34 69 26 70 27 71 33 72 35 73 28 74 29 75 30 76 31 77
REMARK SMILES IDX 32 78 58 79 59 80 68 81 60 82 61 83 67 84 69 85 62 86 63 87
REMARK SMILES IDX 64 88 65 89 66 90 42 91 43 92 52 93 44 94 45 95 51 96 53 97
REMARK SMILES IDX 46 98 47 99 48 100 49 101 50 102
REMARK H PARENT 8 6 84 13 12 33 74 52 40 63
REMARK Flexibility Score: inf
ROOT
ATOM      1  C   UNL A   1      33.765  28.666  25.902  1.00  0.00     0.042 C 
ENDROOT
BRANCH   1   2
ATOM      2  C   UNL A   1      32.945  29.132  24.703  1.00  0.00     0.117 C 
BRANCH   2   3
ATOM      3  N   UNL A   1      32.878  28.180  23.612  1.00  0.00    -0.355 N 
ATOM      4  C   UNL A   1      31.976  27.289  23.147  1.00  0.00     0.232 C 
ATOM      5  O   UNL A   1      32.333  26.785  22.067  1.00  0.00    -0.274 OA
ATOM      6  H   UNL A   1      33.701  28.184  23.072  1.00  0.00     0.163 HD
BRANCH   4   7
ATOM      7  C   UNL A   1      30.681  26.763  23.847  1.00  0.00     0.100 C 
ATOM      8  C   UNL A   1      30.623  26.838  25.390  1.00  0.00     0.029 C 
ATOM      9  C   UNL A   1      30.506  25.304  23.313  1.00  0.00     0.279 C 
ATOM     10  C   UNL A   1      31.116  25.626  26.168  1.00  0.00     0.063 C 
ATOM     11  N   UNL A   1      31.392  24.370  24.021  1.00  0.00    -0.330 N 
ATOM     12  C   UNL A   1      31.000  24.299  25.435  1.00  0.00     0.262 C 
ATOM     13  H   UNL A   1      32.338  24.747  23.981  1.00  0.00     0.348 HD
BRANCH   7  14
ATOM     14  C   UNL A   1      29.536  27.746  23.336  1.00  0.00     0.051 C 
BRANCH  14  15
ATOM     15  C   UNL A   1      29.873  29.213  23.062  1.00  0.00     0.161 C 
BRANCH  15  16
ATOM     16  O   UNL A   1      29.601  29.590  21.718  1.00  0.00    -0.385 OA
ATOM     17  C   UNL A   1      28.278  30.062  21.518  1.00  0.00     0.194 C 
ENDBRANCH  15  16
ENDBRANCH  14  15
ENDBRANCH   7  14
BRANCH  11  18
ATOM     18  C   UNL A   1      31.587  23.044  23.344  1.00  0.00     0.303 C 
BRANCH  18  19
ATOM     19  C   UNL A   1      33.026  22.575  23.252  1.00  0.00     0.049 A 
ATOM     20  C   UNL A   1      34.031  23.447  22.803  1.00  0.00     0.013 A 
ATOM     21  C   UNL A   1      33.438  21.472  23.960  1.00  0.00     0.132 A 
ATOM     22  C   UNL A   1      35.321  23.366  23.344  1.00  0.00     0.001 A 
ATOM     23  C   UNL A   1      34.645  21.480  24.631  1.00  0.00    -0.001 A 
ATOM     24  O   UNL A   1      32.716  20.328  24.153  1.00  0.00    -0.487 OA
ATOM     25  C   UNL A   1      35.605  22.433  24.347  1.00  0.00     0.008 A 
ATOM     26  C   UNL A   1      34.564  20.433  25.684  1.00  0.00     0.087 C 
ATOM     27  C   UNL A   1      33.584  19.485  24.967  1.00  0.00     0.108 C 
ATOM     28  C   UNL A   1      34.406  18.473  24.143  1.00  0.00     0.057 C 
ATOM     29  C   UNL A   1      32.620  18.734  25.882  1.00  0.00     0.057 C 
ENDBRANCH  18  19
ENDBRANCH  11  18
ENDBRANCH   4   7
ENDBRANCH   2   3
ENDBRANCH   1   2
BRANCH   1  30
ATOM     30  C   UNL A   1      33.147  28.970  27.259  1.00  0.00     0.118 C 
BRANCH  30  31
ATOM     31  N   UNL A   1      33.437  30.336  27.652  1.00  0.00    -0.352 N 
ATOM     32  C   UNL A   1      34.489  30.822  28.388  1.00  0.00     0.251 C 
ATOM     33  H   UNL A   1      32.788  31.010  27.348  1.00  0.00     0.163 HD
ATOM     34  O   UNL A   1      34.334  31.882  28.991  1.00  0.00    -0.269 OA
BRANCH  32  35
ATOM     35  C   UNL A   1      35.805  30.130  28.438  1.00  0.00     0.039 A 
ATOM     36  C   UNL A   1      36.235  29.618  29.670  1.00  0.00     0.014 A 
ATOM     37  C   UNL A   1      36.687  30.120  27.353  1.00  0.00     0.014 A 
ATOM     38  C   UNL A   1      37.543  29.150  29.823  1.00  0.00     0.010 A 
ATOM     39  C   UNL A   1      37.970  29.580  27.486  1.00  0.00     0.010 A 
ATOM     40  C   UNL A   1      38.431  29.150  28.738  1.00  0.00    -0.014 A 
BRANCH  40  41
ATOM     41  C   UNL A   1      39.874  28.836  28.935  1.00  0.00     0.031 A 
ATOM     42  C   UNL A   1      40.795  29.889  29.509  1.00  0.00     0.074 A 
ATOM     43  C   UNL A   1      40.359  27.623  28.608  1.00  0.00     0.049 A 
ATOM     44  N   UNL A   1      42.083  29.830  29.736  1.00  0.00    -0.248 NA
ATOM     45  C   UNL A   1      40.193  31.191  29.845  1.00  0.00     0.031 C 
ATOM     46  C   UNL A   1      39.586  26.533  28.010  1.00  0.00     0.029 A 
ATOM     47  N   UNL A   1      41.624  27.103  28.731  1.00  0.00    -0.354 N 
ATOM     48  C   UNL A   1      42.445  31.088  30.210  1.00  0.00     0.074 A 
ATOM     49  C   UNL A   1      41.253  31.904  30.197  1.00  0.00     0.031 C 
ATOM     50  C   UNL A   1      40.388  25.470  27.832  1.00  0.00     0.029 A 
ATOM     51  C   UNL A   1      41.735  25.807  28.284  1.00  0.00     0.049 A 
ATOM     52  H   UNL A   1      42.381  27.610  29.104  1.00  0.00     0.167 HD
ATOM     53  C   UNL A   1      43.655  31.519  30.640  1.00  0.00     0.037 A 
ATOM     54  C   UNL A   1      42.802  24.983  28.249  1.00  0.00     0.037 A 
ATOM     55  C   UNL A   1      44.826  30.685  30.714  1.00  0.00     0.049 A 
ATOM     56  C   UNL A   1      44.118  25.464  28.801  1.00  0.00     0.074 A 
ATOM     57  C   UNL A   1      46.084  31.007  31.195  1.00  0.00     0.029 A 
ATOM     58  N   UNL A   1      44.878  29.359  30.315  1.00  0.00    -0.354 N 
ATOM     59  N   UNL A   1      44.427  26.642  29.292  1.00  0.00    -0.248 NA
ATOM     60  C   UNL A   1      45.225  24.498  28.818  1.00  0.00     0.031 C 
ATOM     61  C   UNL A   1      46.903  29.880  31.064  1.00  0.00     0.029 A 
ATOM     62  C   UNL A   1      46.144  28.848  30.538  1.00  0.00     0.049 A 
ATOM     63  H   UNL A   1      44.125  28.856  29.928  1.00  0.00     0.167 HD
ATOM     64  C   UNL A   1      45.752  26.546  29.705  1.00  0.00     0.074 A 
ATOM     65  C   UNL A   1      46.181  25.193  29.418  1.00  0.00     0.031 C 
ATOM     66  C   UNL A   1      46.544  27.491  30.269  1.00  0.00     0.037 A 
BRANCH  53  67
ATOM     67  C   UNL A   1      43.778  32.952  31.084  1.00  0.00     0.058 A 
ATOM     68  C   UNL A   1      43.550  33.334  32.416  1.00  0.00     0.135 A 
ATOM     69  C   UNL A   1      44.188  33.946  30.180  1.00  0.00     0.135 A 
ATOM     70  F   UNL A   1      43.141  32.429  33.318  1.00  0.00    -0.206 F 
ATOM     71  C   UNL A   1      43.709  34.653  32.832  1.00  0.00     0.059 A 
ATOM     72  C   UNL A   1      44.376  35.266  30.579  1.00  0.00     0.059 A 
ATOM     73  F   UNL A   1      44.417  33.637  28.894  1.00  0.00    -0.206 F 
ATOM     74  C   UNL A   1      44.126  35.612  31.907  1.00  0.00     0.060 A 
BRANCH  74  75
ATOM     75  S   UNL A   1      44.361  37.311  32.471  1.00  0.00     0.124 S 
ATOM     76  O   UNL A   1      45.789  37.322  32.773  1.00  0.00    -0.237 OA
ATOM     77  O   UNL A   1      43.953  38.088  31.307  1.00  0.00    -0.237 OA
ATOM     78  O   UNL A   1      43.475  37.409  33.629  1.00  0.00    -0.744 OA
ENDBRANCH  74  75
ENDBRANCH  53  67
BRANCH  54  79
ATOM     79  C   UNL A   1      42.669  23.608  27.699  1.00  0.00     0.058 A 
ATOM     80  C   UNL A   1      42.683  23.375  26.315  1.00  0.00     0.135 A 
ATOM     81  C   UNL A   1      42.509  22.501  28.545  1.00  0.00     0.135 A 
ATOM     82  F   UNL A   1      42.831  24.404  25.465  1.00  0.00    -0.206 F 
ATOM     83  C   UNL A   1      42.509  22.101  25.788  1.00  0.00     0.059 A 
ATOM     84  C   UNL A   1      42.358  21.212  28.042  1.00  0.00     0.059 A 
ATOM     85  F   UNL A   1      42.510  22.666  29.877  1.00  0.00    -0.206 F 
ATOM     86  C   UNL A   1      42.341  21.025  26.661  1.00  0.00     0.060 A 
BRANCH  86  87
ATOM     87  S   UNL A   1      42.136  19.368  25.970  1.00  0.00     0.124 S 
ATOM     88  O   UNL A   1      42.982  19.438  24.785  1.00  0.00    -0.237 OA
ATOM     89  O   UNL A   1      42.623  18.518  27.054  1.00  0.00    -0.237 OA
ATOM     90  O   UNL A   1      40.700  19.287  25.720  1.00  0.00    -0.744 OA
ENDBRANCH  86  87
ENDBRANCH  54  79
BRANCH  66  91
ATOM     91  C   UNL A   1      47.932  27.077  30.667  1.00  0.00     0.058 A 
ATOM     92  C   UNL A   1      49.030  27.246  29.810  1.00  0.00     0.135 A 
ATOM     93  C   UNL A   1      48.167  26.523  31.937  1.00  0.00     0.135 A 
ATOM     94  F   UNL A   1      48.857  27.770  28.586  1.00  0.00    -0.206 F 
ATOM     95  C   UNL A   1      50.308  26.845  30.181  1.00  0.00     0.059 A 
ATOM     96  C   UNL A   1      49.442  26.139  32.338  1.00  0.00     0.059 A 
ATOM     97  F   UNL A   1      47.153  26.355  32.799  1.00  0.00    -0.206 F 
ATOM     98  C   UNL A   1      50.503  26.286  31.446  1.00  0.00     0.060 A 
BRANCH  98  99
ATOM     99  S   UNL A   1      52.165  25.765  31.922  1.00  0.00     0.124 S 
ATOM    100  O   UNL A   1      52.907  25.989  30.685  1.00  0.00    -0.237 OA
ATOM    101  O   UNL A   1      52.478  26.674  33.020  1.00  0.00    -0.237 OA
ATOM    102  O   UNL A   1      51.986  24.368  32.304  1.00  0.00    -0.744 OA
ENDBRANCH  98  99
ENDBRANCH  66  91
ENDBRANCH  40  41
ENDBRANCH  32  35
ENDBRANCH  30  31
ENDBRANCH   1  30
TORSDOF 18
ENDMDL
MODEL 2
REMARK VINA RESULT:     -11.9      0.764      8.145
REMARK SMILES COCC[C@@]1(C(=O)NCCCNC(=O)c2ccc(-c3c4nc(c(-c5c(F)cc(S(=O)(=O)[O-])cc5F)c5ccc([nH]5)c(-c5c(F)cc(S(=O)(=O)[O-])cc5F)c5nc(c(-c6c(F)cc(S(=O)(=O)[O-])cc6F)c6ccc3[nH]6)C=C5)C=C4)cc2)CCC[N@@H+](Cc2cccc3c2OC(C)(C)C3)C1
REMARK SMILES IDX 10 1 9 2 8 3 6 4 7 5 5 7 81 8 97 9 82 10 84 11 83 12 4 14
REMARK SMILES IDX 3 15 2 16 1 17 85 18 86 19 87 20 91 21 88 22 90 23 92 24
REMARK SMILES IDX 89 25 96 26 93 27 94 28 95 29 11 30 12 31 13 32 14 34 15 35
REMARK SMILES IDX 16 36 80 37 17 38 79 39 18 40 19 41 20 42 73 43 21 44 78 45
REMARK SMILES IDX 72 46 74 47 22 48 77 49 71 50 70 51 23 53 57 54 36 55 56 56
REMARK SMILES IDX 37 57 40 58 55 59 75 60 38 61 39 62 54 64 76 65 41 66 24 67
REMARK SMILES IDX 25 68 34 69 26 70 27 71 33 72 35 73 28 74 29 75 30 76 31 77
REMARK SMILES IDX 32 78 58 79 59 80 68 81 60 82 61 83 67 84 69 85 62 86 63 87
REMARK SMILES IDX 64 88 65 89 66 90 42 91 43 92 52 93 44 94 45 95 51 96 53 97
REMARK SMILES IDX 46 98 47 99 48 100 49 101 50 102
REMARK H PARENT 8 6 84 13 12 33 74 52 40 63
REMARK Flexibility Score: inf
ROOT
ATOM      1  C   UNL A   1      33.992  28.568  25.836  1.00  0.00     0.042 C 
ENDROOT
BRANCH   1   2
ATOM      2  C   UNL A   1      33.064  29.014  24.710  1.00  0.00     0.117 C 
BRANCH   2   3
ATOM      3  N   UNL A   1      32.978  28.091  23.597  1.00  0.00    -0.355 N 
ATOM      4  C   UNL A   1      32.055  27.239  23.102  1.00  0.00     0.232 C 
ATOM      5  O   UNL A   1      32.407  26.749  22.014  1.00  0.00    -0.274 OA
ATOM      6  H   UNL A   1      33.806  28.082  23.065  1.00  0.00     0.163 HD
BRANCH   4   7
ATOM      7  C   UNL A   1      30.738  26.736  23.777  1.00  0.00     0.100 C 
ATOM      8  C   UNL A   1      30.649  26.816  25.319  1.00  0.00     0.029 C 
ATOM      9  C   UNL A   1      30.550  25.279  23.244  1.00  0.00     0.279 C 
ATOM     10  C   UNL A   1      31.107  25.600  26.110  1.00  0.00     0.063 C 
ATOM     11  N   UNL A   1      31.405  24.332  23.972  1.00  0.00    -0.330 N 
ATOM     12  C   UNL A   1      30.984  24.272  25.378  1.00  0.00     0.262 C 
ATOM     13  H   UNL A   1      32.358  24.694  23.950  1.00  0.00     0.348 HD
BRANCH   7  14
ATOM     14  C   UNL A   1      29.619  27.736  23.240  1.00  0.00     0.051 C 
BRANCH  14  15
ATOM     15  C   UNL A   1      30.010  29.166  22.862  1.00  0.00     0.161 C 
BRANCH  15  16
ATOM     16  O   UNL A   1      29.529  29.538  21.577  1.00  0.00    -0.385 OA
ATOM     17  C   UNL A   1      28.222  30.090  21.597  1.00  0.00     0.194 C 
ENDBRANCH  15  16
ENDBRANCH  14  15
ENDBRANCH   7  14
BRANCH  11  18
ATOM     18  C   UNL A   1      31.593  23.001  23.303  1.00  0.00     0.303 C 
BRANCH  18  19
ATOM     19  C   UNL A   1      33.027  22.514  23.230  1.00  0.00     0.049 A 
ATOM     20  C   UNL A   1      34.048  23.372  22.790  1.00  0.00     0.013 A 
ATOM     21  C   UNL A   1      33.416  21.409  23.948  1.00  0.00     0.132 A 
ATOM     22  C   UNL A   1      35.331  23.278  23.348  1.00  0.00     0.001 A 
ATOM     23  C   UNL A   1      34.616  21.405  24.633  1.00  0.00    -0.001 A 
ATOM     24  O   UNL A   1      32.678  20.274  24.135  1.00  0.00    -0.487 OA
ATOM     25  C   UNL A   1      35.590  22.345  24.357  1.00  0.00     0.008 A 
ATOM     26  C   UNL A   1      34.508  20.363  25.689  1.00  0.00     0.087 C 
ATOM     27  C   UNL A   1      33.525  19.424  24.963  1.00  0.00     0.108 C 
ATOM     28  C   UNL A   1      34.346  18.399  24.153  1.00  0.00     0.057 C 
ATOM     29  C   UNL A   1      32.542  18.688  25.869  1.00  0.00     0.057 C 
ENDBRANCH  18  19
ENDBRANCH  11  18
ENDBRANCH   4   7
ENDBRANCH   2   3
ENDBRANCH   1   2
BRANCH   1  30
ATOM     30  C   UNL A   1      33.451  28.789  27.240  1.00  0.00     0.118 C 
BRANCH  30  31
ATOM     31  N   UNL A   1      33.666  30.162  27.654  1.00  0.00    -0.352 N 
ATOM     32  C   UNL A   1      34.703  30.698  28.376  1.00  0.00     0.251 C 
ATOM     33  H   UNL A   1      32.969  30.801  27.378  1.00  0.00     0.163 HD
ATOM     34  O   UNL A   1      34.497  31.736  29.004  1.00  0.00    -0.269 OA
BRANCH  32  35
ATOM     35  C   UNL A   1      36.060  30.088  28.383  1.00  0.00     0.039 A 
ATOM     36  C   UNL A   1      36.478  29.422  29.543  1.00  0.00     0.014 A 
ATOM     37  C   UNL A   1      36.979  30.297  27.350  1.00  0.00     0.014 A 
ATOM     38  C   UNL A   1      37.808  29.017  29.685  1.00  0.00     0.010 A 
ATOM     39  C   UNL A   1      38.289  29.822  27.460  1.00  0.00     0.010 A 
ATOM     40  C   UNL A   1      38.733  29.236  28.654  1.00  0.00    -0.014 A 
BRANCH  40  41
ATOM     41  C   UNL A   1      40.185  28.983  28.868  1.00  0.00     0.031 A 
ATOM     42  C   UNL A   1      40.774  27.644  28.483  1.00  0.00     0.074 A 
ATOM     43  C   UNL A   1      40.973  29.938  29.399  1.00  0.00     0.049 A 
ATOM     44  N   UNL A   1      42.003  27.211  28.609  1.00  0.00    -0.248 NA
ATOM     45  C   UNL A   1      39.852  26.651  27.905  1.00  0.00     0.031 C 
ATOM     46  C   UNL A   1      40.523  31.256  29.849  1.00  0.00     0.029 A 
ATOM     47  N   UNL A   1      42.323  29.944  29.653  1.00  0.00    -0.354 N 
ATOM     48  C   UNL A   1      41.992  25.895  28.157  1.00  0.00     0.074 A 
ATOM     49  C   UNL A   1      40.629  25.583  27.795  1.00  0.00     0.031 C 
ATOM     50  C   UNL A   1      41.578  31.948  30.310  1.00  0.00     0.029 A 
ATOM     51  C   UNL A   1      42.776  31.119  30.206  1.00  0.00     0.049 A 
ATOM     52  H   UNL A   1      42.911  29.179  29.457  1.00  0.00     0.167 HD
ATOM     53  C   UNL A   1      43.027  25.030  28.032  1.00  0.00     0.037 A 
ATOM     54  C   UNL A   1      44.018  31.486  30.582  1.00  0.00     0.037 A 
ATOM     55  C   UNL A   1      44.395  25.364  28.330  1.00  0.00     0.049 A 
ATOM     56  C   UNL A   1      45.162  30.531  30.363  1.00  0.00     0.074 A 
ATOM     57  C   UNL A   1      45.527  24.581  28.176  1.00  0.00     0.029 A 
ATOM     58  N   UNL A   1      44.819  26.588  28.825  1.00  0.00    -0.354 N 
ATOM     59  N   UNL A   1      45.138  29.308  29.887  1.00  0.00    -0.248 NA
ATOM     60  C   UNL A   1      46.506  31.014  30.710  1.00  0.00     0.031 C 
ATOM     61  C   UNL A   1      46.633  25.325  28.601  1.00  0.00     0.029 A 
ATOM     62  C   UNL A   1      46.194  26.582  28.982  1.00  0.00     0.049 A 
ATOM     63  H   UNL A   1      44.229  27.347  29.034  1.00  0.00     0.167 HD
ATOM     64  C   UNL A   1      46.464  28.889  29.847  1.00  0.00     0.074 A 
ATOM     65  C   UNL A   1      47.264  29.993  30.334  1.00  0.00     0.031 C 
ATOM     66  C   UNL A   1      46.974  27.700  29.444  1.00  0.00     0.037 A 
BRANCH  53  67
ATOM     67  C   UNL A   1      42.731  23.641  27.532  1.00  0.00     0.058 A 
ATOM     68  C   UNL A   1      42.829  23.309  26.171  1.00  0.00     0.135 A 
ATOM     69  C   UNL A   1      42.404  22.614  28.434  1.00  0.00     0.135 A 
ATOM     70  F   UNL A   1      43.122  24.254  25.265  1.00  0.00    -0.206 F 
ATOM     71  C   UNL A   1      42.599  22.013  25.720  1.00  0.00     0.059 A 
ATOM     72  C   UNL A   1      42.193  21.306  28.008  1.00  0.00     0.059 A 
ATOM     73  F   UNL A   1      42.295  22.876  29.745  1.00  0.00    -0.206 F 
ATOM     74  C   UNL A   1      42.284  21.017  26.647  1.00  0.00     0.060 A 
BRANCH  74  75
ATOM     75  S   UNL A   1      42.022  19.333  26.048  1.00  0.00     0.124 S 
ATOM     76  O   UNL A   1      42.886  19.305  24.872  1.00  0.00    -0.237 OA
ATOM     77  O   UNL A   1      42.465  18.526  27.179  1.00  0.00    -0.237 OA
ATOM     78  O   UNL A   1      40.588  19.290  25.774  1.00  0.00    -0.744 OA
ENDBRANCH  74  75
ENDBRANCH  53  67
BRANCH  54  79
ATOM     79  C   UNL A   1      44.255  32.828  31.176  1.00  0.00     0.058 A 
ATOM     80  C   UNL A   1      44.094  33.052  32.552  1.00  0.00     0.135 A 
ATOM     81  C   UNL A   1      44.631  33.918  30.378  1.00  0.00     0.135 A 
ATOM     82  F   UNL A   1      43.732  32.040  33.357  1.00  0.00    -0.206 F 
ATOM     83  C   UNL A   1      44.263  34.313  33.111  1.00  0.00     0.059 A 
ATOM     84  C   UNL A   1      44.831  35.185  30.918  1.00  0.00     0.059 A 
ATOM     85  F   UNL A   1      44.819  33.754  29.059  1.00  0.00    -0.206 F 
ATOM     86  C   UNL A   1      44.627  35.376  32.283  1.00  0.00     0.060 A 
BRANCH  86  87
ATOM     87  S   UNL A   1      44.866  37.010  33.018  1.00  0.00     0.124 S 
ATOM     88  O   UNL A   1      45.352  36.664  34.348  1.00  0.00    -0.237 OA
ATOM     89  O   UNL A   1      45.844  37.615  32.118  1.00  0.00    -0.237 OA
ATOM     90  O   UNL A   1      43.531  37.597  32.965  1.00  0.00    -0.744 OA
ENDBRANCH  86  87
ENDBRANCH  54  79
BRANCH  66  91
ATOM     91  C   UNL A   1      48.470  27.553  29.458  1.00  0.00     0.058 A 
ATOM     92  C   UNL A   1      49.148  26.985  30.547  1.00  0.00     0.135 A 
ATOM     93  C   UNL A   1      49.230  27.968  28.352  1.00  0.00     0.135 A 
ATOM     94  F   UNL A   1      48.466  26.574  31.628  1.00  0.00    -0.206 F 
ATOM     95  C   UNL A   1      50.534  26.868  30.558  1.00  0.00     0.059 A 
ATOM     96  C   UNL A   1      50.615  27.837  28.331  1.00  0.00     0.059 A 
ATOM     97  F   UNL A   1      48.628  28.504  27.280  1.00  0.00    -0.206 F 
ATOM     98  C   UNL A   1      51.259  27.304  29.447  1.00  0.00     0.060 A 
BRANCH  98  99
ATOM     99  S   UNL A   1      53.058  27.151  29.466  1.00  0.00     0.124 S 
ATOM    100  O   UNL A   1      53.289  26.587  30.793  1.00  0.00    -0.237 OA
ATOM    101  O   UNL A   1      53.311  26.253  28.344  1.00  0.00    -0.237 OA
ATOM    102  O   UNL A   1      53.517  28.524  29.278  1.00  0.00    -0.744 OA
ENDBRANCH  98  99
ENDBRANCH  66  91
ENDBRANCH  40  41
ENDBRANCH  32  35
ENDBRANCH  30  31
ENDBRANCH   1  30
TORSDOF 18
ENDMDL
MODEL 3
REMARK VINA RESULT:     -11.5      4.668     10.680
REMARK SMILES COCC[C@@]1(C(=O)NCCCNC(=O)c2ccc(-c3c4nc(c(-c5c(F)cc(S(=O)(=O)[O-])cc5F)c5ccc([nH]5)c(-c5c(F)cc(S(=O)(=O)[O-])cc5F)c5nc(c(-c6c(F)cc(S(=O)(=O)[O-])cc6F)c6ccc3[nH]6)C=C5)C=C4)cc2)CCC[N@@H+](Cc2cccc3c2OC(C)(C)C3)C1
REMARK SMILES IDX 10 1 9 2 8 3 6 4 7 5 5 7 81 8 97 9 82 10 84 11 83 12 4 14
REMARK SMILES IDX 3 15 2 16 1 17 85 18 86 19 87 20 91 21 88 22 90 23 92 24
REMARK SMILES IDX 89 25 96 26 93 27 94 28 95 29 11 30 12 31 13 32 14 34 15 35
REMARK SMILES IDX 16 36 80 37 17 38 79 39 18 40 19 41 20 42 73 43 21 44 78 45
REMARK SMILES IDX 72 46 74 47 22 48 77 49 71 50 70 51 23 53 57 54 36 55 56 56
REMARK SMILES IDX 37 57 40 58 55 59 75 60 38 61 39 62 54 64 76 65 41 66 24 67
REMARK SMILES IDX 25 68 34 69 26 70 27 71 33 72 35 73 28 74 29 75 30 76 31 77
REMARK SMILES IDX 32 78 58 79 59 80 68 81 60 82 61 83 67 84 69 85 62 86 63 87
REMARK SMILES IDX 64 88 65 89 66 90 42 91 43 92 52 93 44 94 45 95 51 96 53 97
REMARK SMILES IDX 46 98 47 99 48 100 49 101 50 102
REMARK H PARENT 8 6 84 13 12 33 74 52 40 63
REMARK Flexibility Score: inf
ROOT
ATOM      1  C   UNL A   1      38.816  22.046  26.195  1.00  0.00     0.042 C 
ENDROOT
BRANCH   1   2
ATOM      2  C   UNL A   1      37.470  21.873  25.498  1.00  0.00     0.117 C 
BRANCH   2   3
ATOM      3  N   UNL A   1      36.327  22.306  26.277  1.00  0.00    -0.355 N 
ATOM      4  C   UNL A   1      34.986  22.166  26.206  1.00  0.00     0.232 C 
ATOM      5  O   UNL A   1      34.416  22.618  27.214  1.00  0.00    -0.274 OA
ATOM      6  H   UNL A   1      36.599  22.839  27.059  1.00  0.00     0.163 HD
BRANCH   4   7
ATOM      7  C   UNL A   1      34.127  21.652  25.005  1.00  0.00     0.100 C 
ATOM      8  C   UNL A   1      34.665  21.908  23.579  1.00  0.00     0.029 C 
ATOM      9  C   UNL A   1      32.713  22.280  25.231  1.00  0.00     0.279 C 
ATOM     10  C   UNL A   1      34.231  23.192  22.887  1.00  0.00     0.063 C 
ATOM     11  N   UNL A   1      32.678  23.681  24.789  1.00  0.00    -0.330 N 
ATOM     12  C   UNL A   1      32.886  23.741  23.336  1.00  0.00     0.262 C 
ATOM     13  H   UNL A   1      33.456  24.167  25.233  1.00  0.00     0.348 HD
BRANCH   7  14
ATOM     14  C   UNL A   1      34.129  20.068  25.176  1.00  0.00     0.051 C 
BRANCH  14  15
ATOM     15  C   UNL A   1      32.867  19.274  24.835  1.00  0.00     0.161 C 
BRANCH  15  16
ATOM     16  O   UNL A   1      32.482  18.391  25.880  1.00  0.00    -0.385 OA
ATOM     17  C   UNL A   1      32.642  17.019  25.553  1.00  0.00     0.194 C 
ENDBRANCH  15  16
ENDBRANCH  14  15
ENDBRANCH   7  14
BRANCH  11  18
ATOM     18  C   UNL A   1      31.516  24.480  25.303  1.00  0.00     0.303 C 
BRANCH  18  19
ATOM     19  C   UNL A   1      31.097  25.643  24.425  1.00  0.00     0.049 A 
ATOM     20  C   UNL A   1      29.841  25.644  23.797  1.00  0.00     0.013 A 
ATOM     21  C   UNL A   1      31.727  26.858  24.545  1.00  0.00     0.132 A 
ATOM     22  C   UNL A   1      29.145  26.849  23.625  1.00  0.00     0.001 A 
ATOM     23  C   UNL A   1      30.997  28.031  24.543  1.00  0.00    -0.001 A 
ATOM     24  O   UNL A   1      33.064  27.051  24.753  1.00  0.00    -0.487 OA
ATOM     25  C   UNL A   1      29.689  28.048  24.096  1.00  0.00     0.008 A 
ATOM     26  C   UNL A   1      31.837  29.067  25.200  1.00  0.00     0.087 C 
ATOM     27  C   UNL A   1      33.217  28.499  24.813  1.00  0.00     0.108 C 
ATOM     28  C   UNL A   1      33.638  29.129  23.469  1.00  0.00     0.057 C 
ATOM     29  C   UNL A   1      34.320  28.715  25.846  1.00  0.00     0.057 C 
ENDBRANCH  18  19
ENDBRANCH  11  18
ENDBRANCH   4   7
ENDBRANCH   2   3
ENDBRANCH   1   2
BRANCH   1  30
ATOM     30  C   UNL A   1      39.236  23.488  26.434  1.00  0.00     0.118 C 
BRANCH  30  31
ATOM     31  N   UNL A   1      40.682  23.604  26.412  1.00  0.00    -0.352 N 
ATOM     32  C   UNL A   1      41.468  24.700  26.665  1.00  0.00     0.251 C 
ATOM     33  H   UNL A   1      41.168  22.779  26.181  1.00  0.00     0.163 HD
ATOM     34  O   UNL A   1      42.592  24.735  26.168  1.00  0.00    -0.269 OA
BRANCH  32  35
ATOM     35  C   UNL A   1      41.017  25.808  27.550  1.00  0.00     0.039 A 
ATOM     36  C   UNL A   1      41.778  26.984  27.574  1.00  0.00     0.014 A 
ATOM     37  C   UNL A   1      39.973  25.656  28.467  1.00  0.00     0.014 A 
ATOM     38  C   UNL A   1      41.528  27.969  28.534  1.00  0.00     0.010 A 
ATOM     39  C   UNL A   1      39.672  26.675  29.376  1.00  0.00     0.010 A 
ATOM     40  C   UNL A   1      40.488  27.812  29.460  1.00  0.00    -0.014 A 
BRANCH  40  41
ATOM     41  C   UNL A   1      40.335  28.758  30.600  1.00  0.00     0.031 A 
ATOM     42  C   UNL A   1      41.218  28.607  31.818  1.00  0.00     0.074 A 
ATOM     43  C   UNL A   1      39.419  29.745  30.551  1.00  0.00     0.049 A 
ATOM     44  N   UNL A   1      41.230  29.305  32.926  1.00  0.00    -0.248 NA
ATOM     45  C   UNL A   1      42.199  27.508  31.800  1.00  0.00     0.031 C 
ATOM     46  C   UNL A   1      38.479  29.975  29.453  1.00  0.00     0.029 A 
ATOM     47  N   UNL A   1      39.126  30.739  31.451  1.00  0.00    -0.354 N 
ATOM     48  C   UNL A   1      42.192  28.713  33.740  1.00  0.00     0.074 A 
ATOM     49  C   UNL A   1      42.711  27.573  33.020  1.00  0.00     0.031 C 
ATOM     50  C   UNL A   1      37.724  31.050  29.736  1.00  0.00     0.029 A 
ATOM     51  C   UNL A   1      38.113  31.574  31.042  1.00  0.00     0.049 A 
ATOM     52  H   UNL A   1      39.597  30.844  32.309  1.00  0.00     0.167 HD
ATOM     53  C   UNL A   1      42.621  29.096  34.967  1.00  0.00     0.037 A 
ATOM     54  C   UNL A   1      37.563  32.644  31.652  1.00  0.00     0.037 A 
ATOM     55  C   UNL A   1      42.150  30.271  35.653  1.00  0.00     0.049 A 
ATOM     56  C   UNL A   1      38.110  33.092  32.981  1.00  0.00     0.074 A 
ATOM     57  C   UNL A   1      42.567  30.782  36.870  1.00  0.00     0.029 A 
ATOM     58  N   UNL A   1      41.171  31.126  35.173  1.00  0.00    -0.354 N 
ATOM     59  N   UNL A   1      39.054  32.547  33.712  1.00  0.00    -0.248 NA
ATOM     60  C   UNL A   1      37.534  34.314  33.560  1.00  0.00     0.031 C 
ATOM     61  C   UNL A   1      41.821  31.936  37.136  1.00  0.00     0.029 A 
ATOM     62  C   UNL A   1      40.970  32.162  36.068  1.00  0.00     0.049 A 
ATOM     63  H   UNL A   1      40.689  31.012  34.322  1.00  0.00     0.167 HD
ATOM     64  C   UNL A   1      39.207  33.377  34.818  1.00  0.00     0.074 A 
ATOM     65  C   UNL A   1      38.268  34.467  34.653  1.00  0.00     0.031 C 
ATOM     66  C   UNL A   1      40.048  33.250  35.874  1.00  0.00     0.037 A 
BRANCH  53  67
ATOM     67  C   UNL A   1      43.669  28.253  35.644  1.00  0.00     0.058 A 
ATOM     68  C   UNL A   1      45.040  28.517  35.494  1.00  0.00     0.135 A 
ATOM     69  C   UNL A   1      43.294  27.206  36.502  1.00  0.00     0.135 A 
ATOM     70  F   UNL A   1      45.454  29.495  34.673  1.00  0.00    -0.206 F 
ATOM     71  C   UNL A   1      46.002  27.764  36.158  1.00  0.00     0.059 A 
ATOM     72  C   UNL A   1      44.240  26.455  37.195  1.00  0.00     0.059 A 
ATOM     73  F   UNL A   1      41.998  26.909  36.681  1.00  0.00    -0.206 F 
ATOM     74  C   UNL A   1      45.593  26.736  37.009  1.00  0.00     0.060 A 
BRANCH  74  75
ATOM     75  S   UNL A   1      46.854  25.791  37.890  1.00  0.00     0.124 S 
ATOM     76  O   UNL A   1      46.112  25.336  39.062  1.00  0.00    -0.237 OA
ATOM     77  O   UNL A   1      47.206  24.758  36.923  1.00  0.00    -0.237 OA
ATOM     78  O   UNL A   1      47.896  26.780  38.154  1.00  0.00    -0.744 OA
ENDBRANCH  74  75
ENDBRANCH  53  67
BRANCH  54  79
ATOM     79  C   UNL A   1      36.452  33.388  31.001  1.00  0.00     0.058 A 
ATOM     80  C   UNL A   1      35.139  33.304  31.489  1.00  0.00     0.135 A 
ATOM     81  C   UNL A   1      36.677  34.185  29.869  1.00  0.00     0.135 A 
ATOM     82  F   UNL A   1      34.872  32.552  32.569  1.00  0.00    -0.206 F 
ATOM     83  C   UNL A   1      34.083  33.954  30.859  1.00  0.00     0.059 A 
ATOM     84  C   UNL A   1      35.641  34.865  29.236  1.00  0.00     0.059 A 
ATOM     85  F   UNL A   1      37.918  34.316  29.374  1.00  0.00    -0.206 F 
ATOM     86  C   UNL A   1      34.344  34.729  29.728  1.00  0.00     0.060 A 
BRANCH  86  87
ATOM     87  S   UNL A   1      32.973  35.589  28.926  1.00  0.00     0.124 S 
ATOM     88  O   UNL A   1      32.378  34.517  28.136  1.00  0.00    -0.237 OA
ATOM     89  O   UNL A   1      32.188  36.053  30.067  1.00  0.00    -0.237 OA
ATOM     90  O   UNL A   1      33.639  36.641  28.165  1.00  0.00    -0.744 OA
ENDBRANCH  86  87
ENDBRANCH  54  79
BRANCH  66  91
ATOM     91  C   UNL A   1      40.030  34.346  36.902  1.00  0.00     0.058 A 
ATOM     92  C   UNL A   1      39.237  34.266  38.056  1.00  0.00     0.135 A 
ATOM     93  C   UNL A   1      40.839  35.483  36.736  1.00  0.00     0.135 A 
ATOM     94  F   UNL A   1      38.446  33.200  38.260  1.00  0.00    -0.206 F 
ATOM     95  C   UNL A   1      39.215  35.293  38.994  1.00  0.00     0.059 A 
ATOM     96  C   UNL A   1      40.852  36.510  37.674  1.00  0.00     0.059 A 
ATOM     97  F   UNL A   1      41.626  35.601  35.656  1.00  0.00    -0.206 F 
ATOM     98  C   UNL A   1      40.022  36.414  38.790  1.00  0.00     0.060 A 
BRANCH  98  99
ATOM     99  S   UNL A   1      39.988  37.744  40.010  1.00  0.00     0.124 S 
ATOM    100  O   UNL A   1      41.278  38.386  39.779  1.00  0.00    -0.237 OA
ATOM    101  O   UNL A   1      38.816  38.515  39.605  1.00  0.00    -0.237 OA
ATOM    102  O   UNL A   1      39.856  37.036  41.280  1.00  0.00    -0.744 OA
ENDBRANCH  98  99
ENDBRANCH  66  91
ENDBRANCH  40  41
ENDBRANCH  32  35
ENDBRANCH  30  31
ENDBRANCH   1  30
TORSDOF 18
ENDMDL
