MODEL 1
REMARK VINA RESULT:     -12.4      0.000      0.000
REMARK SMILES CCOc1ccccc1N1CCN(c2ncc(N)cc2C(=O)NCCCNC(=O)c2ccc(-c3c4nc(c(-c5c(F)cc(S(=O)(=O)[O-])cc5F)c5ccc([nH]5)c(-c5c(F)cc(S(=O)(=O)[O-])cc5F)c5nc(c(-c6c(F)cc(S(=O)(=O)[O-])cc6F)c6ccc3[nH]6)C=C5)C=C4)cc2)CC1
REMARK SMILES IDX 24 1 23 2 21 3 22 4 20 6 14 7 15 8 16 9 19 10 17 11 13 12
REMARK SMILES IDX 10 13 11 14 97 15 12 16 96 17 9 18 4 19 5 20 6 21 8 22 7 23
REMARK SMILES IDX 3 24 2 25 1 26 18 27 25 30 26 31 27 32 28 33 29 35 30 36
REMARK SMILES IDX 31 37 95 38 32 39 94 40 33 41 34 42 35 43 88 44 36 45 93 46
REMARK SMILES IDX 87 47 89 48 37 49 92 50 86 51 85 52 38 54 72 55 51 56 71 57
REMARK SMILES IDX 52 58 55 59 70 60 90 61 53 62 54 63 69 65 91 66 56 67 39 68
REMARK SMILES IDX 40 69 49 70 41 71 42 72 48 73 50 74 43 75 44 76 45 77 46 78
REMARK SMILES IDX 47 79 73 80 74 81 83 82 75 83 76 84 82 85 84 86 77 87 78 88
REMARK SMILES IDX 79 89 80 90 81 91 57 92 58 93 67 94 59 95 60 96 66 97 68 98
REMARK SMILES IDX 61 99 62 100 63 101 64 102 65 103
REMARK H PARENT 23 5 18 28 18 29 27 34 89 53 55 64
REMARK Flexibility Score: inf
ROOT
ATOM      1  C   UNL A   1      33.495  29.257  26.392  1.00  0.00     0.118 C 
ENDROOT
BRANCH   1   2
ATOM      2  N   UNL A   1      33.789  28.945  25.010  1.00  0.00    -0.352 N 
ATOM      3  C   UNL A   1      33.097  28.683  23.861  1.00  0.00     0.255 C 
ATOM      4  O   UNL A   1      33.851  28.519  22.897  1.00  0.00    -0.269 OA
ATOM      5  H   UNL A   1      34.760  28.913  24.853  1.00  0.00     0.163 HD
BRANCH   3   6
ATOM      6  C   UNL A   1      31.600  28.620  23.711  1.00  0.00     0.084 A 
ATOM      7  C   UNL A   1      30.980  27.360  23.559  1.00  0.00     0.141 A 
ATOM      8  N   UNL A   1      29.670  27.226  23.223  1.00  0.00    -0.236 NA
ATOM      9  C   UNL A   1      28.930  28.346  23.097  1.00  0.00     0.139 A 
ATOM     10  C   UNL A   1      30.772  29.743  23.597  1.00  0.00     0.044 A 
ATOM     11  C   UNL A   1      29.408  29.626  23.325  1.00  0.00     0.051 A 
BRANCH   7  12
ATOM     12  N   UNL A   1      31.669  26.184  23.767  1.00  0.00    -0.352 N 
ATOM     13  N   UNL A   1      32.766  23.593  24.116  1.00  0.00    -0.365 N 
ATOM     14  C   UNL A   1      33.159  24.404  22.956  1.00  0.00     0.138 C 
ATOM     15  C   UNL A   1      32.432  24.379  25.319  1.00  0.00     0.138 C 
ATOM     16  C   UNL A   1      32.026  25.389  22.597  1.00  0.00     0.139 C 
ATOM     17  C   UNL A   1      31.367  25.457  25.007  1.00  0.00     0.139 C 
BRANCH  13  18
ATOM     18  C   UNL A   1      33.276  22.317  24.299  1.00  0.00     0.079 A 
ATOM     19  C   UNL A   1      34.594  22.115  24.756  1.00  0.00     0.142 A 
ATOM     20  C   UNL A   1      35.111  20.831  24.957  1.00  0.00     0.048 A 
ATOM     21  C   UNL A   1      34.310  19.717  24.724  1.00  0.00     0.004 A 
ATOM     22  C   UNL A   1      32.497  21.175  24.061  1.00  0.00     0.030 A 
ATOM     23  C   UNL A   1      33.005  19.888  24.269  1.00  0.00     0.002 A 
BRANCH  19  24
ATOM     24  O   UNL A   1      35.424  23.191  24.971  1.00  0.00    -0.492 OA
BRANCH  24  25
ATOM     25  C   UNL A   1      36.805  22.819  24.924  1.00  0.00     0.226 C 
ATOM     26  C   UNL A   1      37.643  23.772  25.757  1.00  0.00     0.049 C 
ENDBRANCH  24  25
ENDBRANCH  19  24
ENDBRANCH  13  18
ENDBRANCH   7  12
BRANCH  11  27
ATOM     27  N   UNL A   1      28.627  30.756  23.123  1.00  0.00    -0.397 N 
ATOM     28  H   UNL A   1      27.702  30.664  22.799  1.00  0.00     0.156 HD
ATOM     29  H   UNL A   1      28.999  31.649  23.304  1.00  0.00     0.156 HD
ENDBRANCH  11  27
ENDBRANCH   3   6
ENDBRANCH   1   2
BRANCH   1  30
ATOM     30  C   UNL A   1      34.686  29.012  27.308  1.00  0.00     0.042 C 
BRANCH  30  31
ATOM     31  C   UNL A   1      35.407  30.298  27.719  1.00  0.00     0.118 C 
BRANCH  31  32
ATOM     32  N   UNL A   1      35.399  30.496  29.164  1.00  0.00    -0.352 N 
ATOM     33  C   UNL A   1      36.292  30.100  30.126  1.00  0.00     0.251 C 
ATOM     34  H   UNL A   1      34.624  30.997  29.505  1.00  0.00     0.163 HD
ATOM     35  O   UNL A   1      35.931  30.057  31.299  1.00  0.00    -0.269 OA
BRANCH  33  36
ATOM     36  C   UNL A   1      37.678  29.742  29.764  1.00  0.00     0.039 A 
ATOM     37  C   UNL A   1      38.548  29.292  30.761  1.00  0.00     0.014 A 
ATOM     38  C   UNL A   1      38.142  29.924  28.459  1.00  0.00     0.014 A 
ATOM     39  C   UNL A   1      39.869  28.975  30.436  1.00  0.00     0.010 A 
ATOM     40  C   UNL A   1      39.434  29.534  28.120  1.00  0.00     0.010 A 
ATOM     41  C   UNL A   1      40.314  29.068  29.107  1.00  0.00    -0.014 A 
BRANCH  41  42
ATOM     42  C   UNL A   1      41.695  28.680  28.727  1.00  0.00     0.031 A 
ATOM     43  C   UNL A   1      42.786  29.715  28.676  1.00  0.00     0.074 A 
ATOM     44  C   UNL A   1      41.942  27.411  28.351  1.00  0.00     0.049 A 
ATOM     45  N   UNL A   1      44.033  29.581  28.304  1.00  0.00    -0.248 NA
ATOM     46  C   UNL A   1      42.419  31.087  29.062  1.00  0.00     0.031 C 
ATOM     47  C   UNL A   1      40.946  26.339  28.293  1.00  0.00     0.029 A 
ATOM     48  N   UNL A   1      43.100  26.811  27.931  1.00  0.00    -0.354 N 
ATOM     49  C   UNL A   1      44.592  30.851  28.387  1.00  0.00     0.074 A 
ATOM     50  C   UNL A   1      43.536  31.750  28.798  1.00  0.00     0.031 C 
ATOM     51  C   UNL A   1      41.539  25.209  27.881  1.00  0.00     0.029 A 
ATOM     52  C   UNL A   1      42.948  25.482  27.615  1.00  0.00     0.049 A 
ATOM     53  H   UNL A   1      43.959  27.286  27.861  1.00  0.00     0.167 HD
ATOM     54  C   UNL A   1      45.874  31.228  28.162  1.00  0.00     0.037 A 
ATOM     55  C   UNL A   1      43.843  24.585  27.158  1.00  0.00     0.037 A 
ATOM     56  C   UNL A   1      46.924  30.317  27.785  1.00  0.00     0.049 A 
ATOM     57  C   UNL A   1      45.268  25.014  26.955  1.00  0.00     0.074 A 
ATOM     58  C   UNL A   1      48.272  30.578  27.615  1.00  0.00     0.029 A 
ATOM     59  N   UNL A   1      46.741  28.968  27.516  1.00  0.00    -0.354 N 
ATOM     60  N   UNL A   1      45.800  26.203  27.118  1.00  0.00    -0.248 NA
ATOM     61  C   UNL A   1      46.217  23.983  26.519  1.00  0.00     0.031 C 
ATOM     62  C   UNL A   1      48.897  29.395  27.204  1.00  0.00     0.029 A 
ATOM     63  C   UNL A   1      47.947  28.387  27.161  1.00  0.00     0.049 A 
ATOM     64  H   UNL A   1      45.880  28.493  27.569  1.00  0.00     0.167 HD
ATOM     65  C   UNL A   1      47.149  26.060  26.817  1.00  0.00     0.074 A 
ATOM     66  C   UNL A   1      47.354  24.665  26.481  1.00  0.00     0.031 C 
ATOM     67  C   UNL A   1      48.129  26.997  26.819  1.00  0.00     0.037 A 
BRANCH  54  68
ATOM     68  C   UNL A   1      46.205  32.688  28.317  1.00  0.00     0.058 A 
ATOM     69  C   UNL A   1      46.653  33.219  29.538  1.00  0.00     0.135 A 
ATOM     70  C   UNL A   1      46.080  33.569  27.231  1.00  0.00     0.135 A 
ATOM     71  F   UNL A   1      46.779  32.426  30.614  1.00  0.00    -0.206 F 
ATOM     72  C   UNL A   1      46.923  34.574  29.689  1.00  0.00     0.059 A 
ATOM     73  C   UNL A   1      46.372  34.925  27.350  1.00  0.00     0.059 A 
ATOM     74  F   UNL A   1      45.659  33.117  26.038  1.00  0.00    -0.206 F 
ATOM     75  C   UNL A   1      46.772  35.422  28.589  1.00  0.00     0.060 A 
BRANCH  75  76
ATOM     76  S   UNL A   1      47.107  37.183  28.805  1.00  0.00     0.124 S 
ATOM     77  O   UNL A   1      47.929  37.177  30.010  1.00  0.00    -0.237 OA
ATOM     78  O   UNL A   1      47.801  37.525  27.567  1.00  0.00    -0.237 OA
ATOM     79  O   UNL A   1      45.777  37.766  28.954  1.00  0.00    -0.744 OA
ENDBRANCH  75  76
ENDBRANCH  54  68
BRANCH  55  80
ATOM     80  C   UNL A   1      43.409  23.187  26.901  1.00  0.00     0.058 A 
ATOM     81  C   UNL A   1      43.325  22.689  25.594  1.00  0.00     0.135 A 
ATOM     82  C   UNL A   1      43.133  22.306  27.958  1.00  0.00     0.135 A 
ATOM     83  F   UNL A   1      43.576  23.496  24.552  1.00  0.00    -0.206 F 
ATOM     84  C   UNL A   1      42.981  21.366  25.340  1.00  0.00     0.059 A 
ATOM     85  C   UNL A   1      42.809  20.972  27.730  1.00  0.00     0.059 A 
ATOM     86  F   UNL A   1      43.222  22.730  29.228  1.00  0.00    -0.206 F 
ATOM     87  C   UNL A   1      42.732  20.512  26.416  1.00  0.00     0.060 A 
BRANCH  87  88
ATOM     88  S   UNL A   1      42.375  18.773  26.079  1.00  0.00     0.124 S 
ATOM     89  O   UNL A   1      42.656  18.160  27.371  1.00  0.00    -0.237 OA
ATOM     90  O   UNL A   1      40.971  18.820  25.684  1.00  0.00    -0.237 OA
ATOM     91  O   UNL A   1      43.308  18.443  25.006  1.00  0.00    -0.744 OA
ENDBRANCH  87  88
ENDBRANCH  55  80
BRANCH  67  92
ATOM     92  C   UNL A   1      49.514  26.541  26.457  1.00  0.00     0.058 A 
ATOM     93  C   UNL A   1      50.364  25.951  27.405  1.00  0.00     0.135 A 
ATOM     94  C   UNL A   1      49.981  26.659  25.138  1.00  0.00     0.135 A 
ATOM     95  F   UNL A   1      49.966  25.821  28.681  1.00  0.00    -0.206 F 
ATOM     96  C   UNL A   1      51.640  25.516  27.064  1.00  0.00     0.059 A 
ATOM     97  C   UNL A   1      51.244  26.209  24.769  1.00  0.00     0.059 A 
ATOM     98  F   UNL A   1      49.203  27.207  24.191  1.00  0.00    -0.206 F 
ATOM     99  C   UNL A   1      52.072  25.651  25.743  1.00  0.00     0.060 A 
BRANCH  99 100
ATOM    100  S   UNL A   1      53.722  25.064  25.307  1.00  0.00     0.124 S 
ATOM    101  O   UNL A   1      54.524  25.606  26.398  1.00  0.00    -0.237 OA
ATOM    102  O   UNL A   1      53.550  23.614  25.307  1.00  0.00    -0.237 OA
ATOM    103  O   UNL A   1      53.958  25.661  23.996  1.00  0.00    -0.744 OA
ENDBRANCH  99 100
ENDBRANCH  67  92
ENDBRANCH  41  42
ENDBRANCH  33  36
ENDBRANCH  31  32
ENDBRANCH  30  31
ENDBRANCH   1  30
TORSDOF 18
ENDMDL
MODEL 2
REMARK VINA RESULT:     -12.4      6.461     12.116
REMARK SMILES CCOc1ccccc1N1CCN(c2ncc(N)cc2C(=O)NCCCNC(=O)c2ccc(-c3c4nc(c(-c5c(F)cc(S(=O)(=O)[O-])cc5F)c5ccc([nH]5)c(-c5c(F)cc(S(=O)(=O)[O-])cc5F)c5nc(c(-c6c(F)cc(S(=O)(=O)[O-])cc6F)c6ccc3[nH]6)C=C5)C=C4)cc2)CC1
REMARK SMILES IDX 24 1 23 2 21 3 22 4 20 6 14 7 15 8 16 9 19 10 17 11 13 12
REMARK SMILES IDX 10 13 11 14 97 15 12 16 96 17 9 18 4 19 5 20 6 21 8 22 7 23
REMARK SMILES IDX 3 24 2 25 1 26 18 27 25 30 26 31 27 32 28 33 29 35 30 36
REMARK SMILES IDX 31 37 95 38 32 39 94 40 33 41 34 42 35 43 88 44 36 45 93 46
REMARK SMILES IDX 87 47 89 48 37 49 92 50 86 51 85 52 38 54 72 55 51 56 71 57
REMARK SMILES IDX 52 58 55 59 70 60 90 61 53 62 54 63 69 65 91 66 56 67 39 68
REMARK SMILES IDX 40 69 49 70 41 71 42 72 48 73 50 74 43 75 44 76 45 77 46 78
REMARK SMILES IDX 47 79 73 80 74 81 83 82 75 83 76 84 82 85 84 86 77 87 78 88
REMARK SMILES IDX 79 89 80 90 81 91 57 92 58 93 67 94 59 95 60 96 66 97 68 98
REMARK SMILES IDX 61 99 62 100 63 101 64 102 65 103
REMARK H PARENT 23 5 18 28 18 29 27 34 89 53 55 64
REMARK Flexibility Score: inf
ROOT
ATOM      1  C   UNL A   1      36.532  23.330  25.665  1.00  0.00     0.118 C 
ENDROOT
BRANCH   1   2
ATOM      2  N   UNL A   1      35.699  22.649  26.632  1.00  0.00    -0.352 N 
ATOM      3  C   UNL A   1      34.630  21.799  26.627  1.00  0.00     0.255 C 
ATOM      4  O   UNL A   1      34.309  21.456  27.770  1.00  0.00    -0.269 OA
ATOM      5  H   UNL A   1      35.983  22.855  27.552  1.00  0.00     0.163 HD
BRANCH   3   6
ATOM      6  C   UNL A   1      33.904  21.278  25.415  1.00  0.00     0.084 A 
ATOM      7  C   UNL A   1      32.984  22.120  24.754  1.00  0.00     0.141 A 
ATOM      8  N   UNL A   1      32.148  21.669  23.781  1.00  0.00    -0.236 NA
ATOM      9  C   UNL A   1      32.258  20.381  23.398  1.00  0.00     0.139 A 
ATOM     10  C   UNL A   1      33.991  19.959  24.951  1.00  0.00     0.044 A 
ATOM     11  C   UNL A   1      33.194  19.494  23.904  1.00  0.00     0.051 A 
BRANCH   7  12
ATOM     12  N   UNL A   1      32.895  23.466  25.043  1.00  0.00    -0.352 N 
ATOM     13  N   UNL A   1      32.475  26.252  25.355  1.00  0.00    -0.365 N 
ATOM     14  C   UNL A   1      31.940  25.315  26.353  1.00  0.00     0.138 C 
ATOM     15  C   UNL A   1      33.723  25.801  24.708  1.00  0.00     0.138 C 
ATOM     16  C   UNL A   1      31.680  23.942  25.695  1.00  0.00     0.139 C 
ATOM     17  C   UNL A   1      33.562  24.383  24.110  1.00  0.00     0.139 C 
BRANCH  13  18
ATOM     18  C   UNL A   1      32.268  27.617  25.478  1.00  0.00     0.079 A 
ATOM     19  C   UNL A   1      31.253  28.271  24.749  1.00  0.00     0.142 A 
ATOM     20  C   UNL A   1      31.028  29.646  24.879  1.00  0.00     0.048 A 
ATOM     21  C   UNL A   1      31.803  30.395  25.759  1.00  0.00     0.004 A 
ATOM     22  C   UNL A   1      33.041  28.401  26.348  1.00  0.00     0.030 A 
ATOM     23  C   UNL A   1      32.814  29.774  26.489  1.00  0.00     0.002 A 
BRANCH  19  24
ATOM     24  O   UNL A   1      30.485  27.569  23.850  1.00  0.00    -0.492 OA
BRANCH  24  25
ATOM     25  C   UNL A   1      30.885  27.815  22.498  1.00  0.00     0.226 C 
ATOM     26  C   UNL A   1      31.439  26.551  21.867  1.00  0.00     0.049 C 
ENDBRANCH  24  25
ENDBRANCH  19  24
ENDBRANCH  13  18
ENDBRANCH   7  12
BRANCH  11  27
ATOM     27  N   UNL A   1      33.231  18.160  23.525  1.00  0.00    -0.397 N 
ATOM     28  H   UNL A   1      33.093  17.911  22.583  1.00  0.00     0.156 HD
ATOM     29  H   UNL A   1      33.397  17.462  24.200  1.00  0.00     0.156 HD
ENDBRANCH  11  27
ENDBRANCH   3   6
ENDBRANCH   1   2
BRANCH   1  30
ATOM     30  C   UNL A   1      37.996  22.927  25.775  1.00  0.00     0.042 C 
BRANCH  30  31
ATOM     31  C   UNL A   1      38.831  23.901  26.610  1.00  0.00     0.118 C 
BRANCH  31  32
ATOM     32  N   UNL A   1      40.243  23.871  26.245  1.00  0.00    -0.352 N 
ATOM     33  C   UNL A   1      41.251  24.766  26.496  1.00  0.00     0.251 C 
ATOM     34  H   UNL A   1      40.517  23.077  25.732  1.00  0.00     0.163 HD
ATOM     35  O   UNL A   1      42.269  24.731  25.811  1.00  0.00    -0.269 OA
BRANCH  33  36
ATOM     36  C   UNL A   1      41.125  25.753  27.587  1.00  0.00     0.039 A 
ATOM     37  C   UNL A   1      42.061  26.787  27.682  1.00  0.00     0.014 A 
ATOM     38  C   UNL A   1      40.133  25.615  28.562  1.00  0.00     0.014 A 
ATOM     39  C   UNL A   1      41.967  27.712  28.725  1.00  0.00     0.010 A 
ATOM     40  C   UNL A   1      39.994  26.580  29.554  1.00  0.00     0.010 A 
ATOM     41  C   UNL A   1      40.916  27.631  29.652  1.00  0.00    -0.014 A 
BRANCH  41  42
ATOM     42  C   UNL A   1      40.763  28.635  30.733  1.00  0.00     0.031 A 
ATOM     43  C   UNL A   1      41.600  28.542  31.981  1.00  0.00     0.074 A 
ATOM     44  C   UNL A   1      39.812  29.582  30.621  1.00  0.00     0.049 A 
ATOM     45  N   UNL A   1      41.561  29.284  33.057  1.00  0.00    -0.248 NA
ATOM     46  C   UNL A   1      42.586  27.451  32.039  1.00  0.00     0.031 C 
ATOM     47  C   UNL A   1      38.894  29.725  29.489  1.00  0.00     0.029 A 
ATOM     48  N   UNL A   1      39.446  30.590  31.475  1.00  0.00    -0.354 N 
ATOM     49  C   UNL A   1      42.497  28.738  33.928  1.00  0.00     0.074 A 
ATOM     50  C   UNL A   1      43.052  27.573  33.274  1.00  0.00     0.031 C 
ATOM     51  C   UNL A   1      38.084  30.773  29.709  1.00  0.00     0.029 A 
ATOM     52  C   UNL A   1      38.404  31.355  31.009  1.00  0.00     0.049 A 
ATOM     53  H   UNL A   1      39.889  30.752  32.339  1.00  0.00     0.167 HD
ATOM     54  C   UNL A   1      42.873  29.179  35.152  1.00  0.00     0.037 A 
ATOM     55  C   UNL A   1      37.771  32.404  31.569  1.00  0.00     0.037 A 
ATOM     56  C   UNL A   1      42.336  30.360  35.779  1.00  0.00     0.049 A 
ATOM     57  C   UNL A   1      38.232  32.903  32.909  1.00  0.00     0.074 A 
ATOM     58  C   UNL A   1      42.707  30.944  36.978  1.00  0.00     0.029 A 
ATOM     59  N   UNL A   1      41.309  31.135  35.258  1.00  0.00    -0.354 N 
ATOM     60  N   UNL A   1      39.176  32.425  33.684  1.00  0.00    -0.248 NA
ATOM     61  C   UNL A   1      37.554  34.089  33.445  1.00  0.00     0.031 C 
ATOM     62  C   UNL A   1      41.877  32.049  37.200  1.00  0.00     0.029 A 
ATOM     63  C   UNL A   1      41.020  32.180  36.119  1.00  0.00     0.049 A 
ATOM     64  H   UNL A   1      40.854  30.966  34.402  1.00  0.00     0.167 HD
ATOM     65  C   UNL A   1      39.215  33.258  34.795  1.00  0.00     0.074 A 
ATOM     66  C   UNL A   1      38.212  34.283  34.580  1.00  0.00     0.031 C 
ATOM     67  C   UNL A   1      40.009  33.184  35.892  1.00  0.00     0.037 A 
BRANCH  54  68
ATOM     68  C   UNL A   1      43.913  28.379  35.889  1.00  0.00     0.058 A 
ATOM     69  C   UNL A   1      45.287  28.622  35.724  1.00  0.00     0.135 A 
ATOM     70  C   UNL A   1      43.534  27.361  36.778  1.00  0.00     0.135 A 
ATOM     71  F   UNL A   1      45.707  29.574  34.876  1.00  0.00    -0.206 F 
ATOM     72  C   UNL A   1      46.246  27.856  36.377  1.00  0.00     0.059 A 
ATOM     73  C   UNL A   1      44.477  26.601  37.466  1.00  0.00     0.059 A 
ATOM     74  F   UNL A   1      42.235  27.087  36.979  1.00  0.00    -0.206 F 
ATOM     75  C   UNL A   1      45.831  26.842  37.242  1.00  0.00     0.060 A 
BRANCH  75  76
ATOM     76  S   UNL A   1      47.088  25.844  38.069  1.00  0.00     0.124 S 
ATOM     77  O   UNL A   1      48.316  26.456  37.575  1.00  0.00    -0.237 OA
ATOM     78  O   UNL A   1      46.791  26.070  39.480  1.00  0.00    -0.237 OA
ATOM     79  O   UNL A   1      46.820  24.493  37.585  1.00  0.00    -0.744 OA
ENDBRANCH  75  76
ENDBRANCH  54  68
BRANCH  55  80
ATOM     80  C   UNL A   1      36.661  33.064  30.835  1.00  0.00     0.058 A 
ATOM     81  C   UNL A   1      35.331  32.908  31.251  1.00  0.00     0.135 A 
ATOM     82  C   UNL A   1      36.912  33.912  29.746  1.00  0.00     0.135 A 
ATOM     83  F   UNL A   1      35.043  32.104  32.285  1.00  0.00    -0.206 F 
ATOM     84  C   UNL A   1      34.287  33.568  30.613  1.00  0.00     0.059 A 
ATOM     85  C   UNL A   1      35.887  34.601  29.105  1.00  0.00     0.059 A 
ATOM     86  F   UNL A   1      38.170  34.110  29.324  1.00  0.00    -0.206 F 
ATOM     87  C   UNL A   1      34.576  34.420  29.544  1.00  0.00     0.060 A 
BRANCH  87  88
ATOM     88  S   UNL A   1      33.223  35.343  28.781  1.00  0.00     0.124 S 
ATOM     89  O   UNL A   1      32.500  35.826  29.951  1.00  0.00    -0.237 OA
ATOM     90  O   UNL A   1      33.939  36.353  28.009  1.00  0.00    -0.237 OA
ATOM     91  O   UNL A   1      32.536  34.330  27.986  1.00  0.00    -0.744 OA
ENDBRANCH  87  88
ENDBRANCH  55  80
BRANCH  67  92
ATOM     92  C   UNL A   1      39.830  34.246  36.939  1.00  0.00     0.058 A 
ATOM     93  C   UNL A   1      38.952  34.071  38.020  1.00  0.00     0.135 A 
ATOM     94  C   UNL A   1      40.574  35.436  36.883  1.00  0.00     0.135 A 
ATOM     95  F   UNL A   1      38.213  32.954  38.117  1.00  0.00    -0.206 F 
ATOM     96  C   UNL A   1      38.799  35.050  38.996  1.00  0.00     0.059 A 
ATOM     97  C   UNL A   1      40.455  36.417  37.861  1.00  0.00     0.059 A 
ATOM     98  F   UNL A   1      41.435  35.647  35.874  1.00  0.00    -0.206 F 
ATOM     99  C   UNL A   1      39.554  36.220  38.907  1.00  0.00     0.060 A 
BRANCH  99 100
ATOM    100  S   UNL A   1      39.363  37.475  40.191  1.00  0.00     0.124 S 
ATOM    101  O   UNL A   1      40.705  38.044  40.247  1.00  0.00    -0.237 OA
ATOM    102  O   UNL A   1      38.329  38.341  39.632  1.00  0.00    -0.237 OA
ATOM    103  O   UNL A   1      38.958  36.702  41.362  1.00  0.00    -0.744 OA
ENDBRANCH  99 100
ENDBRANCH  67  92
ENDBRANCH  41  42
ENDBRANCH  33  36
ENDBRANCH  31  32
ENDBRANCH  30  31
ENDBRANCH   1  30
TORSDOF 18
ENDMDL
MODEL 3
REMARK VINA RESULT:     -12.2      0.782      8.066
REMARK SMILES CCOc1ccccc1N1CCN(c2ncc(N)cc2C(=O)NCCCNC(=O)c2ccc(-c3c4nc(c(-c5c(F)cc(S(=O)(=O)[O-])cc5F)c5ccc([nH]5)c(-c5c(F)cc(S(=O)(=O)[O-])cc5F)c5nc(c(-c6c(F)cc(S(=O)(=O)[O-])cc6F)c6ccc3[nH]6)C=C5)C=C4)cc2)CC1
REMARK SMILES IDX 24 1 23 2 21 3 22 4 20 6 14 7 15 8 16 9 19 10 17 11 13 12
REMARK SMILES IDX 10 13 11 14 97 15 12 16 96 17 9 18 4 19 5 20 6 21 8 22 7 23
REMARK SMILES IDX 3 24 2 25 1 26 18 27 25 30 26 31 27 32 28 33 29 35 30 36
REMARK SMILES IDX 31 37 95 38 32 39 94 40 33 41 34 42 35 43 88 44 36 45 93 46
REMARK SMILES IDX 87 47 89 48 37 49 92 50 86 51 85 52 38 54 72 55 51 56 71 57
REMARK SMILES IDX 52 58 55 59 70 60 90 61 53 62 54 63 69 65 91 66 56 67 39 68
REMARK SMILES IDX 40 69 49 70 41 71 42 72 48 73 50 74 43 75 44 76 45 77 46 78
REMARK SMILES IDX 47 79 73 80 74 81 83 82 75 83 76 84 82 85 84 86 77 87 78 88
REMARK SMILES IDX 79 89 80 90 81 91 57 92 58 93 67 94 59 95 60 96 66 97 68 98
REMARK SMILES IDX 61 99 62 100 63 101 64 102 65 103
REMARK H PARENT 23 5 18 28 18 29 27 34 89 53 55 64
REMARK Flexibility Score: inf
ROOT
ATOM      1  C   UNL A   1      33.280  29.591  26.585  1.00  0.00     0.118 C 
ENDROOT
BRANCH   1   2
ATOM      2  N   UNL A   1      33.637  29.470  25.188  1.00  0.00    -0.352 N 
ATOM      3  C   UNL A   1      33.032  29.116  24.015  1.00  0.00     0.255 C 
ATOM      4  O   UNL A   1      33.796  29.231  23.051  1.00  0.00    -0.269 OA
ATOM      5  H   UNL A   1      34.579  29.713  25.041  1.00  0.00     0.163 HD
BRANCH   3   6
ATOM      6  C   UNL A   1      31.607  28.663  23.843  1.00  0.00     0.084 A 
ATOM      7  C   UNL A   1      31.342  27.287  23.671  1.00  0.00     0.141 A 
ATOM      8  N   UNL A   1      30.118  26.816  23.315  1.00  0.00    -0.236 NA
ATOM      9  C   UNL A   1      29.110  27.703  23.187  1.00  0.00     0.139 A 
ATOM     10  C   UNL A   1      30.513  29.530  23.725  1.00  0.00     0.044 A 
ATOM     11  C   UNL A   1      29.232  29.061  23.432  1.00  0.00     0.051 A 
BRANCH   7  12
ATOM     12  N   UNL A   1      32.314  26.330  23.880  1.00  0.00    -0.352 N 
ATOM     13  N   UNL A   1      34.035  24.117  24.303  1.00  0.00    -0.365 N 
ATOM     14  C   UNL A   1      34.058  24.827  23.017  1.00  0.00     0.138 C 
ATOM     15  C   UNL A   1      33.694  24.970  25.458  1.00  0.00     0.138 C 
ATOM     16  C   UNL A   1      32.683  25.479  22.754  1.00  0.00     0.139 C 
ATOM     17  C   UNL A   1      32.370  25.733  25.221  1.00  0.00     0.139 C 
BRANCH  13  18
ATOM     18  C   UNL A   1      34.855  23.022  24.527  1.00  0.00     0.079 A 
ATOM     19  C   UNL A   1      34.318  21.764  24.870  1.00  0.00     0.142 A 
ATOM     20  C   UNL A   1      35.138  20.651  25.083  1.00  0.00     0.048 A 
ATOM     21  C   UNL A   1      36.517  20.768  24.936  1.00  0.00     0.004 A 
ATOM     22  C   UNL A   1      36.249  23.112  24.398  1.00  0.00     0.030 A 
ATOM     23  C   UNL A   1      37.074  22.000  24.600  1.00  0.00     0.002 A 
BRANCH  19  24
ATOM     24  O   UNL A   1      32.962  21.617  25.051  1.00  0.00    -0.492 OA
BRANCH  24  25
ATOM     25  C   UNL A   1      32.395  20.693  24.117  1.00  0.00     0.226 C 
ATOM     26  C   UNL A   1      32.184  21.359  22.770  1.00  0.00     0.049 C 
ENDBRANCH  24  25
ENDBRANCH  19  24
ENDBRANCH  13  18
ENDBRANCH   7  12
BRANCH  11  27
ATOM     27  N   UNL A   1      28.184  29.948  23.228  1.00  0.00    -0.397 N 
ATOM     28  H   UNL A   1      27.309  29.615  22.924  1.00  0.00     0.156 HD
ATOM     29  H   UNL A   1      28.316  30.910  23.388  1.00  0.00     0.156 HD
ENDBRANCH  11  27
ENDBRANCH   3   6
ENDBRANCH   1   2
BRANCH   1  30
ATOM     30  C   UNL A   1      34.194  30.550  27.337  1.00  0.00     0.042 C 
BRANCH  30  31
ATOM     31  C   UNL A   1      35.411  29.862  27.960  1.00  0.00     0.118 C 
BRANCH  31  32
ATOM     32  N   UNL A   1      35.506  30.105  29.395  1.00  0.00    -0.352 N 
ATOM     33  C   UNL A   1      36.503  29.806  30.288  1.00  0.00     0.251 C 
ATOM     34  H   UNL A   1      34.725  30.557  29.787  1.00  0.00     0.163 HD
ATOM     35  O   UNL A   1      36.243  29.774  31.488  1.00  0.00    -0.269 OA
BRANCH  33  36
ATOM     36  C   UNL A   1      37.877  29.541  29.820  1.00  0.00     0.039 A 
ATOM     37  C   UNL A   1      38.847  29.141  30.744  1.00  0.00     0.014 A 
ATOM     38  C   UNL A   1      38.230  29.762  28.486  1.00  0.00     0.014 A 
ATOM     39  C   UNL A   1      40.157  28.912  30.317  1.00  0.00     0.010 A 
ATOM     40  C   UNL A   1      39.515  29.459  28.047  1.00  0.00     0.010 A 
ATOM     41  C   UNL A   1      40.494  29.043  28.960  1.00  0.00    -0.014 A 
BRANCH  41  42
ATOM     42  C   UNL A   1      41.864  28.748  28.474  1.00  0.00     0.031 A 
ATOM     43  C   UNL A   1      42.226  27.359  28.021  1.00  0.00     0.074 A 
ATOM     44  C   UNL A   1      42.801  29.714  28.520  1.00  0.00     0.049 A 
ATOM     45  N   UNL A   1      43.385  26.895  27.629  1.00  0.00    -0.248 NA
ATOM     46  C   UNL A   1      41.153  26.352  28.044  1.00  0.00     0.031 C 
ATOM     47  C   UNL A   1      42.583  31.077  29.007  1.00  0.00     0.029 A 
ATOM     48  N   UNL A   1      44.125  29.695  28.169  1.00  0.00    -0.354 N 
ATOM     49  C   UNL A   1      43.187  25.541  27.381  1.00  0.00     0.074 A 
ATOM     50  C   UNL A   1      41.810  25.249  27.715  1.00  0.00     0.031 C 
ATOM     51  C   UNL A   1      43.728  31.770  28.907  1.00  0.00     0.029 A 
ATOM     52  C   UNL A   1      44.768  30.892  28.378  1.00  0.00     0.049 A 
ATOM     53  H   UNL A   1      44.574  28.900  27.802  1.00  0.00     0.167 HD
ATOM     54  C   UNL A   1      44.068  24.631  26.900  1.00  0.00     0.037 A 
ATOM     55  C   UNL A   1      46.052  31.242  28.173  1.00  0.00     0.037 A 
ATOM     56  C   UNL A   1      45.427  24.942  26.541  1.00  0.00     0.049 A 
ATOM     57  C   UNL A   1      47.001  30.229  27.600  1.00  0.00     0.074 A 
ATOM     58  C   UNL A   1      46.377  24.117  25.966  1.00  0.00     0.029 A 
ATOM     59  N   UNL A   1      46.031  26.178  26.727  1.00  0.00    -0.354 N 
ATOM     60  N   UNL A   1      46.777  28.973  27.293  1.00  0.00    -0.248 NA
ATOM     61  C   UNL A   1      48.373  30.680  27.333  1.00  0.00     0.031 C 
ATOM     62  C   UNL A   1      47.568  24.843  25.841  1.00  0.00     0.029 A 
ATOM     63  C   UNL A   1      47.347  26.132  26.297  1.00  0.00     0.049 A 
ATOM     64  H   UNL A   1      45.589  26.970  27.109  1.00  0.00     0.167 HD
ATOM     65  C   UNL A   1      47.975  28.486  26.785  1.00  0.00     0.074 A 
ATOM     66  C   UNL A   1      48.915  29.590  26.808  1.00  0.00     0.031 C 
ATOM     67  C   UNL A   1      48.271  27.240  26.338  1.00  0.00     0.037 A 
BRANCH  54  68
ATOM     68  C   UNL A   1      43.583  23.215  26.738  1.00  0.00     0.058 A 
ATOM     69  C   UNL A   1      43.318  22.393  27.846  1.00  0.00     0.135 A 
ATOM     70  C   UNL A   1      43.373  22.674  25.460  1.00  0.00     0.135 A 
ATOM     71  F   UNL A   1      43.514  22.854  29.092  1.00  0.00    -0.206 F 
ATOM     72  C   UNL A   1      42.906  21.074  27.693  1.00  0.00     0.059 A 
ATOM     73  C   UNL A   1      42.932  21.365  25.283  1.00  0.00     0.059 A 
ATOM     74  F   UNL A   1      43.606  23.415  24.365  1.00  0.00    -0.206 F 
ATOM     75  C   UNL A   1      42.722  20.566  26.405  1.00  0.00     0.060 A 
BRANCH  75  76
ATOM     76  S   UNL A   1      42.205  18.846  26.221  1.00  0.00     0.124 S 
ATOM     77  O   UNL A   1      43.156  18.362  25.225  1.00  0.00    -0.237 OA
ATOM     78  O   UNL A   1      42.380  18.319  27.571  1.00  0.00    -0.237 OA
ATOM     79  O   UNL A   1      40.822  18.954  25.769  1.00  0.00    -0.744 OA
ENDBRANCH  75  76
ENDBRANCH  54  68
BRANCH  55  80
ATOM     80  C   UNL A   1      46.489  32.628  28.481  1.00  0.00     0.058 A 
ATOM     81  C   UNL A   1      46.374  33.648  27.526  1.00  0.00     0.135 A 
ATOM     82  C   UNL A   1      46.970  32.973  29.754  1.00  0.00     0.135 A 
ATOM     83  F   UNL A   1      45.923  33.364  26.295  1.00  0.00    -0.206 F 
ATOM     84  C   UNL A   1      46.721  34.962  27.819  1.00  0.00     0.059 A 
ATOM     85  C   UNL A   1      47.303  34.284  30.078  1.00  0.00     0.059 A 
ATOM     86  F   UNL A   1      47.078  32.036  30.708  1.00  0.00    -0.206 F 
ATOM     87  C   UNL A   1      47.178  35.273  29.102  1.00  0.00     0.060 A 
BRANCH  87  88
ATOM     88  S   UNL A   1      47.540  36.997  29.500  1.00  0.00     0.124 S 
ATOM     89  O   UNL A   1      47.162  37.669  28.262  1.00  0.00    -0.237 OA
ATOM     90  O   UNL A   1      46.671  37.236  30.649  1.00  0.00    -0.237 OA
ATOM     91  O   UNL A   1      48.968  36.978  29.799  1.00  0.00    -0.744 OA
ENDBRANCH  87  88
ENDBRANCH  55  80
BRANCH  67  92
ATOM     92  C   UNL A   1      49.665  27.008  25.829  1.00  0.00     0.058 A 
ATOM     93  C   UNL A   1      50.679  26.517  26.666  1.00  0.00     0.135 A 
ATOM     94  C   UNL A   1      49.980  27.241  24.481  1.00  0.00     0.135 A 
ATOM     95  F   UNL A   1      50.431  26.284  27.965  1.00  0.00    -0.206 F 
ATOM     96  C   UNL A   1      51.966  26.290  26.189  1.00  0.00     0.059 A 
ATOM     97  C   UNL A   1      51.253  26.997  23.977  1.00  0.00     0.059 A 
ATOM     98  F   UNL A   1      49.042  27.701  23.637  1.00  0.00    -0.206 F 
ATOM     99  C   UNL A   1      52.243  26.534  24.843  1.00  0.00     0.060 A 
BRANCH  99 100
ATOM    100  S   UNL A   1      53.911  26.214  24.230  1.00  0.00     0.124 S 
ATOM    101  O   UNL A   1      54.250  24.981  24.931  1.00  0.00    -0.237 OA
ATOM    102  O   UNL A   1      53.698  26.088  22.791  1.00  0.00    -0.237 OA
ATOM    103  O   UNL A   1      54.657  27.399  24.645  1.00  0.00    -0.744 OA
ENDBRANCH  99 100
ENDBRANCH  67  92
ENDBRANCH  41  42
ENDBRANCH  33  36
ENDBRANCH  31  32
ENDBRANCH  30  31
ENDBRANCH   1  30
TORSDOF 18
ENDMDL
