MODEL 1
REMARK VINA RESULT:     -12.6      0.000      0.000
REMARK SMILES O=C(C[C@H]1c2ccccc2CCN1C(=O)Nc1ccccc1Br)NCCCNC(=O)c1ccc(-c2c3nc(c(-c4c(F)cc(S(=O)(=O)[O-])cc4F)c4ccc([nH]4)c(-c4c(F)cc(S(=O)(=O)[O-])cc4F)c4nc(c(-c5c(F)cc(S(=O)(=O)[O-])cc5F)c5ccc2[nH]5)C=C4)C=C3)cc1
REMARK SMILES IDX 26 1 25 2 24 3 1 4 2 5 3 7 4 8 5 9 13 10 6 11 10 12 12 13
REMARK SMILES IDX 7 14 9 15 11 16 8 17 14 18 15 19 16 20 17 22 18 23 22 24
REMARK SMILES IDX 19 25 21 26 23 27 20 28 27 29 28 30 29 31 30 33 31 34 32 35
REMARK SMILES IDX 96 36 33 37 95 38 34 39 35 40 36 41 89 42 37 43 94 44 88 45
REMARK SMILES IDX 90 46 38 47 93 48 87 49 86 50 39 52 73 53 52 54 72 55 53 56
REMARK SMILES IDX 56 57 71 58 91 59 54 60 55 61 70 63 92 64 57 65 40 66 41 67
REMARK SMILES IDX 50 68 42 69 43 70 49 71 51 72 44 73 45 74 46 75 47 76 48 77
REMARK SMILES IDX 74 78 75 79 84 80 76 81 77 82 83 83 85 84 78 85 79 86 80 87
REMARK SMILES IDX 81 88 82 89 58 90 59 91 68 92 60 93 61 94 67 95 69 96 62 97
REMARK SMILES IDX 63 98 64 99 65 100 66 101
REMARK H PARENT 24 6 16 21 28 32 90 51 56 62
REMARK Flexibility Score: inf
ROOT
ATOM      1  C   UNL A   1      32.042  28.280  27.481  1.00  0.00     0.042 C 
ENDROOT
BRANCH   1   2
ATOM      2  C   UNL A   1      31.835  26.923  26.800  1.00  0.00     0.117 C 
BRANCH   2   3
ATOM      3  N   UNL A   1      32.790  26.579  25.758  1.00  0.00    -0.356 N 
ATOM      4  O   UNL A   1      33.423  24.605  26.746  1.00  0.00    -0.275 OA
ATOM      5  C   UNL A   1      33.457  25.367  25.781  1.00  0.00     0.222 C 
ATOM      6  H   UNL A   1      32.964  27.217  25.029  1.00  0.00     0.163 HD
BRANCH   5   7
ATOM      7  C   UNL A   1      34.235  25.017  24.531  1.00  0.00     0.130 C 
BRANCH   7   8
ATOM      8  C   UNL A   1      33.525  24.051  23.560  1.00  0.00     0.127 C 
ATOM      9  C   UNL A   1      33.275  22.637  24.075  1.00  0.00    -0.022 A 
ATOM     10  N   UNL A   1      32.319  24.645  22.933  1.00  0.00    -0.317 N 
ATOM     11  C   UNL A   1      34.238  21.628  23.939  1.00  0.00     0.006 A 
ATOM     12  C   UNL A   1      32.041  22.314  24.660  1.00  0.00    -0.041 A 
ATOM     13  C   UNL A   1      31.005  24.225  23.460  1.00  0.00     0.127 C 
ATOM     14  C   UNL A   1      33.979  20.334  24.398  1.00  0.00     0.000 A 
ATOM     15  C   UNL A   1      31.802  21.031  25.162  1.00  0.00     0.004 A 
ATOM     16  C   UNL A   1      31.000  23.382  24.737  1.00  0.00     0.057 C 
ATOM     17  C   UNL A   1      32.769  20.040  25.023  1.00  0.00     0.000 A 
BRANCH  10  18
ATOM     18  C   UNL A   1      32.517  25.291  21.714  1.00  0.00     0.322 C 
ATOM     19  O   UNL A   1      33.190  24.791  20.808  1.00  0.00    -0.248 OA
ATOM     20  N   UNL A   1      31.849  26.444  21.421  1.00  0.00    -0.307 N 
ATOM     21  H   UNL A   1      31.581  26.535  20.479  1.00  0.00     0.171 HD
BRANCH  20  22
ATOM     22  C   UNL A   1      31.483  27.522  22.240  1.00  0.00     0.057 A 
ATOM     23  C   UNL A   1      30.115  27.742  22.427  1.00  0.00     0.027 A 
ATOM     24  C   UNL A   1      32.403  28.355  22.885  1.00  0.00     0.041 A 
ATOM     25  C   UNL A   1      29.678  28.640  23.404  1.00  0.00     0.002 A 
ATOM     26  C   UNL A   1      31.963  29.229  23.878  1.00  0.00     0.018 A 
ATOM     27  Br  UNL A   1      34.225  28.425  22.365  1.00  0.00    -0.049 Br
ATOM     28  C   UNL A   1      30.606  29.343  24.167  1.00  0.00     0.001 A 
ENDBRANCH  20  22
ENDBRANCH  10  18
ENDBRANCH   7   8
ENDBRANCH   5   7
ENDBRANCH   2   3
ENDBRANCH   1   2
BRANCH   1  29
ATOM     29  C   UNL A   1      33.388  28.964  27.230  1.00  0.00     0.118 C 
BRANCH  29  30
ATOM     30  N   UNL A   1      33.510  30.274  27.850  1.00  0.00    -0.352 N 
ATOM     31  C   UNL A   1      34.568  30.879  28.483  1.00  0.00     0.251 C 
ATOM     32  H   UNL A   1      32.693  30.822  27.809  1.00  0.00     0.163 HD
ATOM     33  O   UNL A   1      34.387  32.001  28.958  1.00  0.00    -0.269 OA
BRANCH  31  34
ATOM     34  C   UNL A   1      35.898  30.234  28.630  1.00  0.00     0.039 A 
ATOM     35  C   UNL A   1      36.719  30.201  27.495  1.00  0.00     0.014 A 
ATOM     36  C   UNL A   1      36.357  29.658  29.816  1.00  0.00     0.014 A 
ATOM     37  C   UNL A   1      38.020  29.703  27.581  1.00  0.00     0.010 A 
ATOM     38  C   UNL A   1      37.676  29.212  29.920  1.00  0.00     0.010 A 
ATOM     39  C   UNL A   1      38.529  29.268  28.814  1.00  0.00    -0.014 A 
BRANCH  39  40
ATOM     40  C   UNL A   1      39.981  29.010  28.965  1.00  0.00     0.031 A 
ATOM     41  C   UNL A   1      40.588  27.685  28.612  1.00  0.00     0.074 A 
ATOM     42  C   UNL A   1      40.745  29.998  29.477  1.00  0.00     0.049 A 
ATOM     43  N   UNL A   1      41.846  27.328  28.635  1.00  0.00    -0.248 NA
ATOM     44  C   UNL A   1      39.665  26.619  28.198  1.00  0.00     0.031 C 
ATOM     45  C   UNL A   1      40.242  31.298  29.933  1.00  0.00     0.029 A 
ATOM     46  N   UNL A   1      42.096  30.072  29.697  1.00  0.00    -0.354 N 
ATOM     47  C   UNL A   1      41.871  25.997  28.235  1.00  0.00     0.074 A 
ATOM     48  C   UNL A   1      40.496  25.598  28.024  1.00  0.00     0.031 C 
ATOM     49  C   UNL A   1      41.274  32.054  30.339  1.00  0.00     0.029 A 
ATOM     50  C   UNL A   1      42.505  31.287  30.195  1.00  0.00     0.049 A 
ATOM     51  H   UNL A   1      42.714  29.327  29.514  1.00  0.00     0.167 HD
ATOM     52  C   UNL A   1      42.946  25.194  28.045  1.00  0.00     0.037 A 
ATOM     53  C   UNL A   1      43.739  31.738  30.489  1.00  0.00     0.037 A 
ATOM     54  C   UNL A   1      44.310  25.609  28.263  1.00  0.00     0.049 A 
ATOM     55  C   UNL A   1      44.917  30.843  30.226  1.00  0.00     0.074 A 
ATOM     56  C   UNL A   1      45.475  24.887  28.066  1.00  0.00     0.029 A 
ATOM     57  N   UNL A   1      44.692  26.860  28.729  1.00  0.00    -0.354 N 
ATOM     58  N   UNL A   1      44.929  29.613  29.771  1.00  0.00    -0.248 NA
ATOM     59  C   UNL A   1      46.248  31.402  30.496  1.00  0.00     0.031 C 
ATOM     60  C   UNL A   1      46.558  25.692  28.441  1.00  0.00     0.029 A 
ATOM     61  C   UNL A   1      46.072  26.929  28.832  1.00  0.00     0.049 A 
ATOM     62  H   UNL A   1      44.072  27.592  28.953  1.00  0.00     0.167 HD
ATOM     63  C   UNL A   1      46.269  29.260  29.670  1.00  0.00     0.074 A 
ATOM     64  C   UNL A   1      47.036  30.411  30.103  1.00  0.00     0.031 C 
ATOM     65  C   UNL A   1      46.816  28.090  29.256  1.00  0.00     0.037 A 
BRANCH  52  66
ATOM     66  C   UNL A   1      42.688  23.790  27.571  1.00  0.00     0.058 A 
ATOM     67  C   UNL A   1      42.555  22.725  28.476  1.00  0.00     0.135 A 
ATOM     68  C   UNL A   1      42.547  23.505  26.203  1.00  0.00     0.135 A 
ATOM     69  F   UNL A   1      42.692  22.937  29.795  1.00  0.00    -0.206 F 
ATOM     70  C   UNL A   1      42.329  21.422  28.043  1.00  0.00     0.059 A 
ATOM     71  C   UNL A   1      42.296  22.213  25.747  1.00  0.00     0.059 A 
ATOM     72  F   UNL A   1      42.660  24.484  25.293  1.00  0.00    -0.206 F 
ATOM     73  C   UNL A   1      42.206  21.175  26.674  1.00  0.00     0.060 A 
BRANCH  73  74
ATOM     74  S   UNL A   1      41.927  19.478  26.125  1.00  0.00     0.124 S 
ATOM     75  O   UNL A   1      42.795  19.405  24.954  1.00  0.00    -0.237 OA
ATOM     76  O   UNL A   1      42.359  18.699  27.282  1.00  0.00    -0.237 OA
ATOM     77  O   UNL A   1      40.494  19.441  25.850  1.00  0.00    -0.744 OA
ENDBRANCH  73  74
ENDBRANCH  52  66
BRANCH  53  78
ATOM     78  C   UNL A   1      43.919  33.119  31.007  1.00  0.00     0.058 A 
ATOM     79  C   UNL A   1      44.063  34.205  30.131  1.00  0.00     0.135 A 
ATOM     80  C   UNL A   1      43.922  33.386  32.384  1.00  0.00     0.135 A 
ATOM     81  F   UNL A   1      44.064  34.001  28.805  1.00  0.00    -0.206 F 
ATOM     82  C   UNL A   1      44.227  35.505  30.601  1.00  0.00     0.059 A 
ATOM     83  C   UNL A   1      44.059  34.679  32.879  1.00  0.00     0.059 A 
ATOM     84  F   UNL A   1      43.760  32.384  33.263  1.00  0.00    -0.206 F 
ATOM     85  C   UNL A   1      44.224  35.732  31.978  1.00  0.00     0.060 A 
BRANCH  85  86
ATOM     86  S   UNL A   1      44.393  37.426  32.580  1.00  0.00     0.124 S 
ATOM     87  O   UNL A   1      43.469  37.429  33.707  1.00  0.00    -0.237 OA
ATOM     88  O   UNL A   1      45.812  37.492  32.918  1.00  0.00    -0.237 OA
ATOM     89  O   UNL A   1      43.994  38.231  31.430  1.00  0.00    -0.744 OA
ENDBRANCH  85  86
ENDBRANCH  53  78
BRANCH  65  90
ATOM     90  C   UNL A   1      48.315  28.017  29.212  1.00  0.00     0.058 A 
ATOM     91  C   UNL A   1      49.040  28.393  28.072  1.00  0.00     0.135 A 
ATOM     92  C   UNL A   1      49.036  27.584  30.337  1.00  0.00     0.135 A 
ATOM     93  F   UNL A   1      48.398  28.807  26.968  1.00  0.00    -0.206 F 
ATOM     94  C   UNL A   1      50.428  28.311  28.035  1.00  0.00     0.059 A 
ATOM     95  C   UNL A   1      50.425  27.519  30.331  1.00  0.00     0.059 A 
ATOM     96  F   UNL A   1      48.390  27.223  31.457  1.00  0.00    -0.206 F 
ATOM     97  C   UNL A   1      51.112  27.869  29.170  1.00  0.00     0.060 A 
BRANCH  97  98
ATOM     98  S   UNL A   1      52.914  27.777  29.118  1.00  0.00     0.124 S 
ATOM     99  O   UNL A   1      53.164  27.745  27.681  1.00  0.00    -0.237 OA
ATOM    100  O   UNL A   1      53.312  29.004  29.804  1.00  0.00    -0.237 OA
ATOM    101  O   UNL A   1      53.211  26.541  29.836  1.00  0.00    -0.744 OA
ENDBRANCH  97  98
ENDBRANCH  65  90
ENDBRANCH  39  40
ENDBRANCH  31  34
ENDBRANCH  29  30
ENDBRANCH   1  29
TORSDOF 16
ENDMDL
MODEL 2
REMARK VINA RESULT:     -12.6      5.121      9.695
REMARK SMILES O=C(C[C@H]1c2ccccc2CCN1C(=O)Nc1ccccc1Br)NCCCNC(=O)c1ccc(-c2c3nc(c(-c4c(F)cc(S(=O)(=O)[O-])cc4F)c4ccc([nH]4)c(-c4c(F)cc(S(=O)(=O)[O-])cc4F)c4nc(c(-c5c(F)cc(S(=O)(=O)[O-])cc5F)c5ccc2[nH]5)C=C4)C=C3)cc1
REMARK SMILES IDX 26 1 25 2 24 3 1 4 2 5 3 7 4 8 5 9 13 10 6 11 10 12 12 13
REMARK SMILES IDX 7 14 9 15 11 16 8 17 14 18 15 19 16 20 17 22 18 23 22 24
REMARK SMILES IDX 19 25 21 26 23 27 20 28 27 29 28 30 29 31 30 33 31 34 32 35
REMARK SMILES IDX 96 36 33 37 95 38 34 39 35 40 36 41 89 42 37 43 94 44 88 45
REMARK SMILES IDX 90 46 38 47 93 48 87 49 86 50 39 52 73 53 52 54 72 55 53 56
REMARK SMILES IDX 56 57 71 58 91 59 54 60 55 61 70 63 92 64 57 65 40 66 41 67
REMARK SMILES IDX 50 68 42 69 43 70 49 71 51 72 44 73 45 74 46 75 47 76 48 77
REMARK SMILES IDX 74 78 75 79 84 80 76 81 77 82 83 83 85 84 78 85 79 86 80 87
REMARK SMILES IDX 81 88 82 89 58 90 59 91 68 92 60 93 61 94 67 95 69 96 62 97
REMARK SMILES IDX 63 98 64 99 65 100 66 101
REMARK H PARENT 24 6 16 21 28 32 90 51 56 62
REMARK Flexibility Score: inf
ROOT
ATOM      1  C   UNL A   1      39.852  22.924  26.972  1.00  0.00     0.042 C 
ENDROOT
BRANCH   1   2
ATOM      2  C   UNL A   1      39.072  22.235  25.850  1.00  0.00     0.117 C 
BRANCH   2   3
ATOM      3  N   UNL A   1      37.687  21.903  26.145  1.00  0.00    -0.356 N 
ATOM      4  O   UNL A   1      36.915  24.034  25.785  1.00  0.00    -0.275 OA
ATOM      5  C   UNL A   1      36.685  22.845  25.996  1.00  0.00     0.222 C 
ATOM      6  H   UNL A   1      37.460  20.996  26.456  1.00  0.00     0.163 HD
BRANCH   5   7
ATOM      7  C   UNL A   1      35.267  22.324  26.096  1.00  0.00     0.130 C 
BRANCH   7   8
ATOM      8  C   UNL A   1      34.679  21.756  24.789  1.00  0.00     0.127 C 
ATOM      9  C   UNL A   1      34.272  20.286  24.811  1.00  0.00    -0.022 A 
ATOM     10  N   UNL A   1      33.628  22.624  24.204  1.00  0.00    -0.317 N 
ATOM     11  C   UNL A   1      35.189  19.269  24.516  1.00  0.00     0.006 A 
ATOM     12  C   UNL A   1      32.942  19.934  25.088  1.00  0.00    -0.041 A 
ATOM     13  C   UNL A   1      32.224  22.204  24.386  1.00  0.00     0.127 C 
ATOM     14  C   UNL A   1      34.789  17.930  24.521  1.00  0.00     0.000 A 
ATOM     15  C   UNL A   1      32.555  18.591  25.140  1.00  0.00     0.004 A 
ATOM     16  C   UNL A   1      31.961  21.033  25.334  1.00  0.00     0.057 C 
ATOM     17  C   UNL A   1      33.477  17.591  24.848  1.00  0.00     0.000 A 
BRANCH  10  18
ATOM     18  C   UNL A   1      34.060  23.572  23.278  1.00  0.00     0.322 C 
ATOM     19  O   UNL A   1      34.854  23.293  22.375  1.00  0.00    -0.248 OA
ATOM     20  N   UNL A   1      33.506  24.819  23.249  1.00  0.00    -0.307 N 
ATOM     21  H   UNL A   1      33.407  25.202  22.347  1.00  0.00     0.171 HD
BRANCH  20  22
ATOM     22  C   UNL A   1      33.057  25.645  24.288  1.00  0.00     0.057 A 
ATOM     23  C   UNL A   1      34.009  26.067  25.221  1.00  0.00     0.027 A 
ATOM     24  C   UNL A   1      31.734  26.078  24.420  1.00  0.00     0.041 A 
ATOM     25  C   UNL A   1      33.690  27.069  26.141  1.00  0.00     0.002 A 
ATOM     26  C   UNL A   1      31.428  27.097  25.321  1.00  0.00     0.018 A 
ATOM     27  Br  UNL A   1      30.309  25.233  23.496  1.00  0.00    -0.049 Br
ATOM     28  C   UNL A   1      32.413  27.621  26.153  1.00  0.00     0.001 A 
ENDBRANCH  20  22
ENDBRANCH  10  18
ENDBRANCH   7   8
ENDBRANCH   5   7
ENDBRANCH   2   3
ENDBRANCH   1   2
BRANCH   1  29
ATOM     29  C   UNL A   1      41.301  23.300  26.656  1.00  0.00     0.118 C 
BRANCH  29  30
ATOM     30  N   UNL A   1      41.436  24.427  25.746  1.00  0.00    -0.352 N 
ATOM     31  C   UNL A   1      41.470  25.778  25.981  1.00  0.00     0.251 C 
ATOM     32  H   UNL A   1      41.516  24.176  24.798  1.00  0.00     0.163 HD
ATOM     33  O   UNL A   1      41.556  26.529  25.008  1.00  0.00    -0.269 OA
BRANCH  31  34
ATOM     34  C   UNL A   1      41.388  26.364  27.344  1.00  0.00     0.039 A 
ATOM     35  C   UNL A   1      42.349  27.327  27.682  1.00  0.00     0.014 A 
ATOM     36  C   UNL A   1      40.429  26.001  28.291  1.00  0.00     0.014 A 
ATOM     37  C   UNL A   1      42.277  27.995  28.905  1.00  0.00     0.010 A 
ATOM     38  C   UNL A   1      40.320  26.707  29.492  1.00  0.00     0.010 A 
ATOM     39  C   UNL A   1      41.219  27.736  29.790  1.00  0.00    -0.014 A 
BRANCH  39  40
ATOM     40  C   UNL A   1      40.983  28.635  30.945  1.00  0.00     0.031 A 
ATOM     41  C   UNL A   1      41.805  28.543  32.196  1.00  0.00     0.074 A 
ATOM     42  C   UNL A   1      39.969  29.519  30.856  1.00  0.00     0.049 A 
ATOM     43  N   UNL A   1      41.757  29.295  33.265  1.00  0.00    -0.248 NA
ATOM     44  C   UNL A   1      42.793  27.457  32.266  1.00  0.00     0.031 C 
ATOM     45  C   UNL A   1      39.053  29.636  29.716  1.00  0.00     0.029 A 
ATOM     46  N   UNL A   1      39.537  30.488  31.724  1.00  0.00    -0.354 N 
ATOM     47  C   UNL A   1      42.709  28.780  34.136  1.00  0.00     0.074 A 
ATOM     48  C   UNL A   1      43.285  27.620  33.488  1.00  0.00     0.031 C 
ATOM     49  C   UNL A   1      38.197  30.645  29.938  1.00  0.00     0.029 A 
ATOM     50  C   UNL A   1      38.486  31.230  31.241  1.00  0.00     0.049 A 
ATOM     51  H   UNL A   1      39.944  30.639  32.609  1.00  0.00     0.167 HD
ATOM     52  C   UNL A   1      43.079  29.247  35.353  1.00  0.00     0.037 A 
ATOM     53  C   UNL A   1      37.835  32.278  31.783  1.00  0.00     0.037 A 
ATOM     54  C   UNL A   1      42.492  30.404  35.984  1.00  0.00     0.049 A 
ATOM     55  C   UNL A   1      38.294  32.804  33.113  1.00  0.00     0.074 A 
ATOM     56  C   UNL A   1      42.816  30.984  37.198  1.00  0.00     0.029 A 
ATOM     57  N   UNL A   1      41.456  31.157  35.448  1.00  0.00    -0.354 N 
ATOM     58  N   UNL A   1      39.252  32.354  33.888  1.00  0.00    -0.248 NA
ATOM     59  C   UNL A   1      37.602  33.989  33.632  1.00  0.00     0.031 C 
ATOM     60  C   UNL A   1      41.957  32.069  37.410  1.00  0.00     0.029 A 
ATOM     61  C   UNL A   1      41.124  32.191  36.309  1.00  0.00     0.049 A 
ATOM     62  H   UNL A   1      41.020  30.981  34.583  1.00  0.00     0.167 HD
ATOM     63  C   UNL A   1      39.298  33.219  34.974  1.00  0.00     0.074 A 
ATOM     64  C   UNL A   1      38.278  34.224  34.748  1.00  0.00     0.031 C 
ATOM     65  C   UNL A   1      40.111  33.187  36.059  1.00  0.00     0.037 A 
BRANCH  52  66
ATOM     66  C   UNL A   1      44.173  28.510  36.076  1.00  0.00     0.058 A 
ATOM     67  C   UNL A   1      43.887  27.444  36.944  1.00  0.00     0.135 A 
ATOM     68  C   UNL A   1      45.521  28.853  35.885  1.00  0.00     0.135 A 
ATOM     69  F   UNL A   1      42.615  27.081  37.174  1.00  0.00    -0.206 F 
ATOM     70  C   UNL A   1      44.895  26.767  37.626  1.00  0.00     0.059 A 
ATOM     71  C   UNL A   1      46.548  28.174  36.537  1.00  0.00     0.059 A 
ATOM     72  F   UNL A   1      45.853  29.861  35.064  1.00  0.00    -0.206 F 
ATOM     73  C   UNL A   1      46.223  27.144  37.420  1.00  0.00     0.060 A 
BRANCH  73  74
ATOM     74  S   UNL A   1      47.518  26.267  38.320  1.00  0.00     0.124 S 
ATOM     75  O   UNL A   1      46.732  25.494  39.278  1.00  0.00    -0.237 OA
ATOM     76  O   UNL A   1      48.167  25.494  37.265  1.00  0.00    -0.237 OA
ATOM     77  O   UNL A   1      48.324  27.341  38.891  1.00  0.00    -0.744 OA
ENDBRANCH  73  74
ENDBRANCH  52  66
BRANCH  53  78
ATOM     78  C   UNL A   1      36.725  32.925  31.037  1.00  0.00     0.058 A 
ATOM     79  C   UNL A   1      35.389  32.727  31.415  1.00  0.00     0.135 A 
ATOM     80  C   UNL A   1      36.977  33.775  29.950  1.00  0.00     0.135 A 
ATOM     81  F   UNL A   1      35.098  31.925  32.451  1.00  0.00    -0.206 F 
ATOM     82  C   UNL A   1      34.340  33.331  30.730  1.00  0.00     0.059 A 
ATOM     83  C   UNL A   1      35.946  34.410  29.263  1.00  0.00     0.059 A 
ATOM     84  F   UNL A   1      38.239  34.018  29.565  1.00  0.00    -0.206 F 
ATOM     85  C   UNL A   1      34.628  34.171  29.654  1.00  0.00     0.060 A 
BRANCH  85  86
ATOM     86  S   UNL A   1      33.263  34.985  28.796  1.00  0.00     0.124 S 
ATOM     87  O   UNL A   1      32.823  33.935  27.884  1.00  0.00    -0.237 OA
ATOM     88  O   UNL A   1      32.354  35.299  29.894  1.00  0.00    -0.237 OA
ATOM     89  O   UNL A   1      33.902  36.140  28.172  1.00  0.00    -0.744 OA
ENDBRANCH  85  86
ENDBRANCH  53  78
BRANCH  65  90
ATOM     90  C   UNL A   1      39.956  34.297  37.060  1.00  0.00     0.058 A 
ATOM     91  C   UNL A   1      39.127  34.168  38.184  1.00  0.00     0.135 A 
ATOM     92  C   UNL A   1      40.665  35.498  36.899  1.00  0.00     0.135 A 
ATOM     93  F   UNL A   1      38.422  33.042  38.379  1.00  0.00    -0.206 F 
ATOM     94  C   UNL A   1      38.980  35.205  39.099  1.00  0.00     0.059 A 
ATOM     95  C   UNL A   1      40.553  36.538  37.815  1.00  0.00     0.059 A 
ATOM     96  F   UNL A   1      41.480  35.667  35.845  1.00  0.00    -0.206 F 
ATOM     97  C   UNL A   1      39.696  36.389  38.904  1.00  0.00     0.060 A 
BRANCH  97  98
ATOM     98  S   UNL A   1      39.509  37.725  40.103  1.00  0.00     0.124 S 
ATOM     99  O   UNL A   1      39.206  36.983  41.323  1.00  0.00    -0.237 OA
ATOM    100  O   UNL A   1      40.818  38.371  40.062  1.00  0.00    -0.237 OA
ATOM    101  O   UNL A   1      38.410  38.517  39.559  1.00  0.00    -0.744 OA
ENDBRANCH  97  98
ENDBRANCH  65  90
ENDBRANCH  39  40
ENDBRANCH  31  34
ENDBRANCH  29  30
ENDBRANCH   1  29
TORSDOF 16
ENDMDL
MODEL 3
REMARK VINA RESULT:     -12.6      1.431      2.963
REMARK SMILES O=C(C[C@H]1c2ccccc2CCN1C(=O)Nc1ccccc1Br)NCCCNC(=O)c1ccc(-c2c3nc(c(-c4c(F)cc(S(=O)(=O)[O-])cc4F)c4ccc([nH]4)c(-c4c(F)cc(S(=O)(=O)[O-])cc4F)c4nc(c(-c5c(F)cc(S(=O)(=O)[O-])cc5F)c5ccc2[nH]5)C=C4)C=C3)cc1
REMARK SMILES IDX 26 1 25 2 24 3 1 4 2 5 3 7 4 8 5 9 13 10 6 11 10 12 12 13
REMARK SMILES IDX 7 14 9 15 11 16 8 17 14 18 15 19 16 20 17 22 18 23 22 24
REMARK SMILES IDX 19 25 21 26 23 27 20 28 27 29 28 30 29 31 30 33 31 34 32 35
REMARK SMILES IDX 96 36 33 37 95 38 34 39 35 40 36 41 89 42 37 43 94 44 88 45
REMARK SMILES IDX 90 46 38 47 93 48 87 49 86 50 39 52 73 53 52 54 72 55 53 56
REMARK SMILES IDX 56 57 71 58 91 59 54 60 55 61 70 63 92 64 57 65 40 66 41 67
REMARK SMILES IDX 50 68 42 69 43 70 49 71 51 72 44 73 45 74 46 75 47 76 48 77
REMARK SMILES IDX 74 78 75 79 84 80 76 81 77 82 83 83 85 84 78 85 79 86 80 87
REMARK SMILES IDX 81 88 82 89 58 90 59 91 68 92 60 93 61 94 67 95 69 96 62 97
REMARK SMILES IDX 63 98 64 99 65 100 66 101
REMARK H PARENT 24 6 16 21 28 32 90 51 56 62
REMARK Flexibility Score: inf
ROOT
ATOM      1  C   UNL A   1      31.999  28.273  26.276  1.00  0.00     0.042 C 
ENDROOT
BRANCH   1   2
ATOM      2  C   UNL A   1      31.137  27.039  26.556  1.00  0.00     0.117 C 
BRANCH   2   3
ATOM      3  N   UNL A   1      31.271  25.939  25.614  1.00  0.00    -0.356 N 
ATOM      4  O   UNL A   1      30.998  24.310  27.208  1.00  0.00    -0.275 OA
ATOM      5  C   UNL A   1      31.096  24.629  26.025  1.00  0.00     0.222 C 
ATOM      6  H   UNL A   1      31.490  26.129  24.673  1.00  0.00     0.163 HD
BRANCH   5   7
ATOM      7  C   UNL A   1      31.019  23.596  24.922  1.00  0.00     0.130 C 
BRANCH   7   8
ATOM      8  C   UNL A   1      32.368  22.977  24.502  1.00  0.00     0.127 C 
ATOM      9  C   UNL A   1      32.387  21.463  24.310  1.00  0.00    -0.022 A 
ATOM     10  N   UNL A   1      33.008  23.697  23.374  1.00  0.00    -0.317 N 
ATOM     11  C   UNL A   1      32.635  20.594  25.381  1.00  0.00     0.006 A 
ATOM     12  C   UNL A   1      32.199  20.918  23.031  1.00  0.00    -0.041 A 
ATOM     13  C   UNL A   1      32.919  23.076  22.037  1.00  0.00     0.127 C 
ATOM     14  C   UNL A   1      32.671  19.212  25.178  1.00  0.00     0.000 A 
ATOM     15  C   UNL A   1      32.186  19.533  22.839  1.00  0.00     0.004 A 
ATOM     16  C   UNL A   1      32.003  21.860  21.889  1.00  0.00     0.057 C 
ATOM     17  C   UNL A   1      32.431  18.682  23.912  1.00  0.00     0.000 A 
BRANCH  10  18
ATOM     18  C   UNL A   1      33.893  24.715  23.721  1.00  0.00     0.322 C 
ATOM     19  O   UNL A   1      33.718  25.885  23.369  1.00  0.00    -0.248 OA
ATOM     20  N   UNL A   1      34.918  24.481  24.591  1.00  0.00    -0.307 N 
ATOM     21  H   UNL A   1      35.123  25.230  25.195  1.00  0.00     0.171 HD
BRANCH  20  22
ATOM     22  C   UNL A   1      35.728  23.350  24.765  1.00  0.00     0.057 A 
ATOM     23  C   UNL A   1      36.474  22.926  23.661  1.00  0.00     0.027 A 
ATOM     24  C   UNL A   1      35.843  22.654  25.973  1.00  0.00     0.041 A 
ATOM     25  C   UNL A   1      37.471  21.961  23.819  1.00  0.00     0.002 A 
ATOM     26  C   UNL A   1      36.857  21.712  26.133  1.00  0.00     0.018 A 
ATOM     27  Br  UNL A   1      34.578  22.864  27.370  1.00  0.00    -0.049 Br
ATOM     28  C   UNL A   1      37.697  21.393  25.070  1.00  0.00     0.001 A 
ENDBRANCH  20  22
ENDBRANCH  10  18
ENDBRANCH   7   8
ENDBRANCH   5   7
ENDBRANCH   2   3
ENDBRANCH   1   2
BRANCH   1  29
ATOM     29  C   UNL A   1      33.138  28.540  27.262  1.00  0.00     0.118 C 
BRANCH  29  30
ATOM     30  N   UNL A   1      33.271  29.936  27.649  1.00  0.00    -0.352 N 
ATOM     31  C   UNL A   1      34.341  30.638  28.146  1.00  0.00     0.251 C 
ATOM     32  H   UNL A   1      32.452  30.470  27.537  1.00  0.00     0.163 HD
ATOM     33  O   UNL A   1      34.168  31.824  28.431  1.00  0.00    -0.269 OA
BRANCH  31  34
ATOM     34  C   UNL A   1      35.676  30.025  28.368  1.00  0.00     0.039 A 
ATOM     35  C   UNL A   1      36.526  29.928  27.257  1.00  0.00     0.014 A 
ATOM     36  C   UNL A   1      36.114  29.539  29.601  1.00  0.00     0.014 A 
ATOM     37  C   UNL A   1      37.831  29.458  27.408  1.00  0.00     0.010 A 
ATOM     38  C   UNL A   1      37.437  29.122  29.766  1.00  0.00     0.010 A 
ATOM     39  C   UNL A   1      38.316  29.116  28.679  1.00  0.00    -0.014 A 
BRANCH  39  40
ATOM     40  C   UNL A   1      39.768  28.892  28.881  1.00  0.00     0.031 A 
ATOM     41  C   UNL A   1      40.418  27.584  28.544  1.00  0.00     0.074 A 
ATOM     42  C   UNL A   1      40.488  29.895  29.423  1.00  0.00     0.049 A 
ATOM     43  N   UNL A   1      41.683  27.256  28.611  1.00  0.00    -0.248 NA
ATOM     44  C   UNL A   1      39.536  26.497  28.094  1.00  0.00     0.031 C 
ATOM     45  C   UNL A   1      39.939  31.181  29.866  1.00  0.00     0.029 A 
ATOM     46  N   UNL A   1      41.828  30.001  29.692  1.00  0.00    -0.354 N 
ATOM     47  C   UNL A   1      41.754  25.929  28.207  1.00  0.00     0.074 A 
ATOM     48  C   UNL A   1      40.397  25.497  27.946  1.00  0.00     0.031 C 
ATOM     49  C   UNL A   1      40.938  31.959  30.311  1.00  0.00     0.029 A 
ATOM     50  C   UNL A   1      42.191  31.222  30.208  1.00  0.00     0.049 A 
ATOM     51  H   UNL A   1      42.470  29.272  29.528  1.00  0.00     0.167 HD
ATOM     52  C   UNL A   1      42.854  25.152  28.052  1.00  0.00     0.037 A 
ATOM     53  C   UNL A   1      43.403  31.701  30.548  1.00  0.00     0.037 A 
ATOM     54  C   UNL A   1      44.199  25.599  28.321  1.00  0.00     0.049 A 
ATOM     55  C   UNL A   1      44.610  30.836  30.324  1.00  0.00     0.074 A 
ATOM     56  C   UNL A   1      45.387  24.906  28.163  1.00  0.00     0.029 A 
ATOM     57  N   UNL A   1      44.533  26.856  28.805  1.00  0.00    -0.354 N 
ATOM     58  N   UNL A   1      44.667  29.609  29.865  1.00  0.00    -0.248 NA
ATOM     59  C   UNL A   1      45.916  31.426  30.644  1.00  0.00     0.031 C 
ATOM     60  C   UNL A   1      46.436  25.734  28.580  1.00  0.00     0.029 A 
ATOM     61  C   UNL A   1      45.907  26.958  28.958  1.00  0.00     0.049 A 
ATOM     62  H   UNL A   1      43.888  27.572  29.009  1.00  0.00     0.167 HD
ATOM     63  C   UNL A   1      46.018  29.288  29.811  1.00  0.00     0.074 A 
ATOM     64  C   UNL A   1      46.742  30.455  30.275  1.00  0.00     0.031 C 
ATOM     65  C   UNL A   1      46.607  28.133  29.413  1.00  0.00     0.037 A 
BRANCH  52  66
ATOM     66  C   UNL A   1      42.646  23.744  27.565  1.00  0.00     0.058 A 
ATOM     67  C   UNL A   1      42.531  22.669  28.460  1.00  0.00     0.135 A 
ATOM     68  C   UNL A   1      42.537  23.466  26.192  1.00  0.00     0.135 A 
ATOM     69  F   UNL A   1      42.639  22.876  29.782  1.00  0.00    -0.206 F 
ATOM     70  C   UNL A   1      42.351  21.363  28.013  1.00  0.00     0.059 A 
ATOM     71  C   UNL A   1      42.333  22.170  25.724  1.00  0.00     0.059 A 
ATOM     72  F   UNL A   1      42.636  24.455  25.291  1.00  0.00    -0.206 F 
ATOM     73  C   UNL A   1      42.260  21.123  26.641  1.00  0.00     0.060 A 
BRANCH  73  74
ATOM     74  S   UNL A   1      42.041  19.422  26.076  1.00  0.00     0.124 S 
ATOM     75  O   UNL A   1      42.485  18.669  27.245  1.00  0.00    -0.237 OA
ATOM     76  O   UNL A   1      40.609  19.366  25.794  1.00  0.00    -0.237 OA
ATOM     77  O   UNL A   1      42.910  19.338  24.907  1.00  0.00    -0.744 OA
ENDBRANCH  73  74
ENDBRANCH  52  66
BRANCH  53  78
ATOM     78  C   UNL A   1      43.530  33.084  31.077  1.00  0.00     0.058 A 
ATOM     79  C   UNL A   1      43.487  33.337  32.456  1.00  0.00     0.135 A 
ATOM     80  C   UNL A   1      43.723  34.177  30.219  1.00  0.00     0.135 A 
ATOM     81  F   UNL A   1      43.306  32.323  33.317  1.00  0.00    -0.206 F 
ATOM     82  C   UNL A   1      43.610  34.625  32.966  1.00  0.00     0.059 A 
ATOM     83  C   UNL A   1      43.873  35.473  30.706  1.00  0.00     0.059 A 
ATOM     84  F   UNL A   1      43.798  33.986  28.892  1.00  0.00    -0.206 F 
ATOM     85  C   UNL A   1      43.802  35.688  32.082  1.00  0.00     0.060 A 
BRANCH  85  86
ATOM     86  S   UNL A   1      44.004  37.352  32.754  1.00  0.00     0.124 S 
ATOM     87  O   UNL A   1      45.372  37.301  33.255  1.00  0.00    -0.237 OA
ATOM     88  O   UNL A   1      43.786  38.187  31.577  1.00  0.00    -0.237 OA
ATOM     89  O   UNL A   1      42.959  37.431  33.770  1.00  0.00    -0.744 OA
ENDBRANCH  85  86
ENDBRANCH  53  78
BRANCH  65  90
ATOM     90  C   UNL A   1      48.109  28.097  29.421  1.00  0.00     0.058 A 
ATOM     91  C   UNL A   1      48.831  27.666  30.544  1.00  0.00     0.135 A 
ATOM     92  C   UNL A   1      48.832  28.478  28.280  1.00  0.00     0.135 A 
ATOM     93  F   UNL A   1      48.187  27.298  31.662  1.00  0.00    -0.206 F 
ATOM     94  C   UNL A   1      50.222  27.646  30.547  1.00  0.00     0.059 A 
ATOM     95  C   UNL A   1      50.222  28.442  28.252  1.00  0.00     0.059 A 
ATOM     96  F   UNL A   1      48.188  28.888  27.176  1.00  0.00    -0.206 F 
ATOM     97  C   UNL A   1      50.909  28.040  29.397  1.00  0.00     0.060 A 
BRANCH  97  98
ATOM     98  S   UNL A   1      52.714  27.999  29.405  1.00  0.00     0.124 S 
ATOM     99  O   UNL A   1      53.013  28.548  30.724  1.00  0.00    -0.237 OA
ATOM    100  O   UNL A   1      52.998  26.578  29.230  1.00  0.00    -0.237 OA
ATOM    101  O   UNL A   1      53.077  28.848  28.274  1.00  0.00    -0.744 OA
ENDBRANCH  97  98
ENDBRANCH  65  90
ENDBRANCH  39  40
ENDBRANCH  31  34
ENDBRANCH  29  30
ENDBRANCH   1  29
TORSDOF 16
ENDMDL
