MODEL 1
REMARK VINA RESULT:     -13.2      0.000      0.000
REMARK SMILES O=C(NCCCNC(=O)[C@H]1CC=CC[C@H]1C(=O)Nc1ccc(S(=O)(=O)N2CCc3ccccc32)cc1)c1ccc(-c2c3nc(c(-c4c(F)cc(S(=O)(=O)[O-])cc4F)c4ccc([nH]4)c(-c4c(F)cc(S(=O)(=O)[O-])cc4F)c4nc(c(-c5c(F)cc(S(=O)(=O)[O-])cc5F)c5ccc2[nH]5)C=C4)C=C3)cc1
REMARK SMILES IDX 5 1 4 2 3 3 1 4 2 5 37 7 38 8 102 9 39 10 101 11 40 12 41 13
REMARK SMILES IDX 42 14 95 15 43 16 100 17 94 18 96 19 44 20 99 21 93 22 92 23
REMARK SMILES IDX 45 25 79 26 58 27 78 28 59 29 62 30 77 31 97 32 60 33 61 34
REMARK SMILES IDX 76 36 98 37 63 38 46 39 47 40 56 41 48 42 49 43 55 44 57 45
REMARK SMILES IDX 50 46 51 47 52 48 53 49 54 50 80 51 81 52 90 53 82 54 83 55
REMARK SMILES IDX 89 56 91 57 84 58 85 59 86 60 87 61 88 62 64 63 65 64 74 65
REMARK SMILES IDX 66 66 67 67 73 68 75 69 68 70 69 71 70 72 71 73 72 74 6 75
REMARK SMILES IDX 7 76 8 77 9 79 10 80 11 81 15 82 12 83 14 84 13 85 16 86
REMARK SMILES IDX 17 87 18 88 19 90 20 91 36 92 21 93 35 94 22 95 23 96 24 97
REMARK SMILES IDX 25 98 26 99 27 100 34 101 28 102 29 103 33 104 30 105 32 106
REMARK SMILES IDX 31 107
REMARK H PARENT 3 6 96 24 62 35 7 78 18 89
REMARK Flexibility Score: inf
ROOT
ATOM      1  C   UNL A   1      34.051  29.876  27.084  1.00  0.00     0.042 C 
ENDROOT
BRANCH   1   2
ATOM      2  C   UNL A   1      35.300  30.615  27.591  1.00  0.00     0.118 C 
BRANCH   2   3
ATOM      3  N   UNL A   1      35.326  30.738  29.043  1.00  0.00    -0.352 N 
ATOM      4  O   UNL A   1      35.943  30.456  31.167  1.00  0.00    -0.269 OA
ATOM      5  C   UNL A   1      36.290  30.466  29.985  1.00  0.00     0.251 C 
ATOM      6  H   UNL A   1      34.488  31.085  29.425  1.00  0.00     0.163 HD
BRANCH   5   7
ATOM      7  C   UNL A   1      37.715  30.175  29.661  1.00  0.00     0.039 A 
ATOM      8  C   UNL A   1      38.693  29.972  30.637  1.00  0.00     0.014 A 
ATOM      9  C   UNL A   1      38.043  29.917  28.321  1.00  0.00     0.014 A 
ATOM     10  C   UNL A   1      40.000  29.591  30.267  1.00  0.00     0.010 A 
ATOM     11  C   UNL A   1      39.333  29.496  27.959  1.00  0.00     0.010 A 
ATOM     12  C   UNL A   1      40.341  29.346  28.923  1.00  0.00    -0.014 A 
BRANCH  12  13
ATOM     13  C   UNL A   1      41.722  28.912  28.527  1.00  0.00     0.031 A 
ATOM     14  C   UNL A   1      42.865  29.903  28.475  1.00  0.00     0.074 A 
ATOM     15  C   UNL A   1      41.965  27.630  28.175  1.00  0.00     0.049 A 
ATOM     16  N   UNL A   1      44.120  29.710  28.146  1.00  0.00    -0.248 NA
ATOM     17  C   UNL A   1      42.553  31.296  28.828  1.00  0.00     0.031 C 
ATOM     18  C   UNL A   1      40.965  26.563  28.136  1.00  0.00     0.029 A 
ATOM     19  N   UNL A   1      43.128  27.005  27.781  1.00  0.00    -0.354 N 
ATOM     20  C   UNL A   1      44.741  30.954  28.234  1.00  0.00     0.074 A 
ATOM     21  C   UNL A   1      43.714  31.900  28.616  1.00  0.00     0.031 C 
ATOM     22  C   UNL A   1      41.560  25.414  27.772  1.00  0.00     0.029 A 
ATOM     23  C   UNL A   1      42.975  25.664  27.508  1.00  0.00     0.049 A 
ATOM     24  H   UNL A   1      43.989  27.475  27.703  1.00  0.00     0.167 HD
ATOM     25  C   UNL A   1      46.042  31.282  28.029  1.00  0.00     0.037 A 
ATOM     26  C   UNL A   1      43.861  24.738  27.084  1.00  0.00     0.037 A 
ATOM     27  C   UNL A   1      47.075  30.343  27.660  1.00  0.00     0.049 A 
ATOM     28  C   UNL A   1      45.299  25.127  26.852  1.00  0.00     0.074 A 
ATOM     29  C   UNL A   1      48.430  30.580  27.488  1.00  0.00     0.029 A 
ATOM     30  N   UNL A   1      46.874  28.997  27.394  1.00  0.00    -0.354 N 
ATOM     31  N   UNL A   1      45.874  26.295  27.004  1.00  0.00    -0.248 NA
ATOM     32  C   UNL A   1      46.210  24.066  26.397  1.00  0.00     0.031 C 
ATOM     33  C   UNL A   1      49.037  29.391  27.066  1.00  0.00     0.029 A 
ATOM     34  C   UNL A   1      48.073  28.398  27.038  1.00  0.00     0.049 A 
ATOM     35  H   UNL A   1      46.007  28.535  27.451  1.00  0.00     0.167 HD
ATOM     36  C   UNL A   1      47.220  26.101  26.702  1.00  0.00     0.074 A 
ATOM     37  C   UNL A   1      47.373  24.702  26.365  1.00  0.00     0.031 C 
ATOM     38  C   UNL A   1      48.234  27.002  26.714  1.00  0.00     0.037 A 
BRANCH  25  39
ATOM     39  C   UNL A   1      46.436  32.730  28.184  1.00  0.00     0.058 A 
ATOM     40  C   UNL A   1      46.926  33.242  29.396  1.00  0.00     0.135 A 
ATOM     41  C   UNL A   1      46.371  33.608  27.087  1.00  0.00     0.135 A 
ATOM     42  F   UNL A   1      47.007  32.453  30.480  1.00  0.00    -0.206 F 
ATOM     43  C   UNL A   1      47.300  34.576  29.528  1.00  0.00     0.059 A 
ATOM     44  C   UNL A   1      46.770  34.939  27.187  1.00  0.00     0.059 A 
ATOM     45  F   UNL A   1      45.922  33.174  25.900  1.00  0.00    -0.206 F 
ATOM     46  C   UNL A   1      47.217  35.419  28.418  1.00  0.00     0.060 A 
BRANCH  46  47
ATOM     47  S   UNL A   1      47.699  37.148  28.608  1.00  0.00     0.124 S 
ATOM     48  O   UNL A   1      46.525  37.837  28.082  1.00  0.00    -0.237 OA
ATOM     49  O   UNL A   1      47.905  37.259  30.048  1.00  0.00    -0.237 OA
ATOM     50  O   UNL A   1      48.907  37.257  27.794  1.00  0.00    -0.744 OA
ENDBRANCH  46  47
ENDBRANCH  25  39
BRANCH  26  51
ATOM     51  C   UNL A   1      43.423  23.329  26.873  1.00  0.00     0.058 A 
ATOM     52  C   UNL A   1      43.164  22.481  27.961  1.00  0.00     0.135 A 
ATOM     53  C   UNL A   1      43.258  22.801  25.583  1.00  0.00     0.135 A 
ATOM     54  F   UNL A   1      43.322  22.933  29.215  1.00  0.00    -0.206 F 
ATOM     55  C   UNL A   1      42.771  21.159  27.780  1.00  0.00     0.059 A 
ATOM     56  C   UNL A   1      42.837  21.490  25.377  1.00  0.00     0.059 A 
ATOM     57  F   UNL A   1      43.485  23.570  24.507  1.00  0.00    -0.206 F 
ATOM     58  C   UNL A   1      42.605  20.674  26.482  1.00  0.00     0.060 A 
BRANCH  58  59
ATOM     59  S   UNL A   1      42.045  18.970  26.260  1.00  0.00     0.124 S 
ATOM     60  O   UNL A   1      40.671  19.166  25.816  1.00  0.00    -0.237 OA
ATOM     61  O   UNL A   1      42.977  18.471  25.253  1.00  0.00    -0.237 OA
ATOM     62  O   UNL A   1      42.202  18.390  27.591  1.00  0.00    -0.744 OA
ENDBRANCH  58  59
ENDBRANCH  26  51
BRANCH  38  63
ATOM     63  C   UNL A   1      49.622  26.496  26.415  1.00  0.00     0.058 A 
ATOM     64  C   UNL A   1      50.444  25.930  27.404  1.00  0.00     0.135 A 
ATOM     65  C   UNL A   1      50.128  26.552  25.105  1.00  0.00     0.135 A 
ATOM     66  F   UNL A   1      50.016  25.852  28.674  1.00  0.00    -0.206 F 
ATOM     67  C   UNL A   1      51.728  25.473  27.112  1.00  0.00     0.059 A 
ATOM     68  C   UNL A   1      51.395  26.074  24.785  1.00  0.00     0.059 A 
ATOM     69  F   UNL A   1      49.384  27.071  24.115  1.00  0.00    -0.206 F 
ATOM     70  C   UNL A   1      52.195  25.552  25.799  1.00  0.00     0.060 A 
BRANCH  70  71
ATOM     71  S   UNL A   1      53.857  24.948  25.430  1.00  0.00     0.124 S 
ATOM     72  O   UNL A   1      54.546  25.192  26.693  1.00  0.00    -0.237 OA
ATOM     73  O   UNL A   1      53.615  23.547  25.100  1.00  0.00    -0.237 OA
ATOM     74  O   UNL A   1      54.282  25.784  24.311  1.00  0.00    -0.744 OA
ENDBRANCH  70  71
ENDBRANCH  38  63
ENDBRANCH  12  13
ENDBRANCH   5   7
ENDBRANCH   2   3
ENDBRANCH   1   2
BRANCH   1  75
ATOM     75  C   UNL A   1      34.219  28.478  26.433  1.00  0.00     0.117 C 
BRANCH  75  76
ATOM     76  N   UNL A   1      33.364  28.155  25.284  1.00  0.00    -0.356 N 
ATOM     77  C   UNL A   1      32.654  29.082  24.563  1.00  0.00     0.224 C 
ATOM     78  H   UNL A   1      33.294  27.211  25.013  1.00  0.00     0.163 HD
ATOM     79  O   UNL A   1      33.216  29.544  23.561  1.00  0.00    -0.275 OA
BRANCH  77  80
ATOM     80  C   UNL A   1      31.154  29.434  24.835  1.00  0.00     0.095 C 
ATOM     81  C   UNL A   1      31.057  30.765  25.649  1.00  0.00     0.041 C 
ATOM     82  C   UNL A   1      30.040  29.290  23.785  1.00  0.00     0.095 C 
ATOM     83  C   UNL A   1      30.322  31.915  25.025  1.00  0.00    -0.030 C 
ATOM     84  C   UNL A   1      29.039  30.436  23.519  1.00  0.00     0.041 C 
ATOM     85  C   UNL A   1      29.414  31.767  24.057  1.00  0.00    -0.030 C 
BRANCH  82  86
ATOM     86  C   UNL A   1      30.425  28.704  22.465  1.00  0.00     0.228 C 
ATOM     87  O   UNL A   1      30.301  29.398  21.447  1.00  0.00    -0.274 OA
ATOM     88  N   UNL A   1      31.015  27.490  22.331  1.00  0.00    -0.326 N 
ATOM     89  H   UNL A   1      31.473  27.409  21.463  1.00  0.00     0.169 HD
BRANCH  88  90
ATOM     90  C   UNL A   1      31.148  26.318  23.094  1.00  0.00     0.041 A 
ATOM     91  C   UNL A   1      32.034  25.403  22.546  1.00  0.00     0.027 A 
ATOM     92  C   UNL A   1      30.436  25.930  24.241  1.00  0.00     0.027 A 
ATOM     93  C   UNL A   1      32.204  24.163  23.131  1.00  0.00     0.024 A 
ATOM     94  C   UNL A   1      30.570  24.648  24.828  1.00  0.00     0.024 A 
ATOM     95  C   UNL A   1      31.474  23.768  24.267  1.00  0.00     0.088 A 
BRANCH  95  96
ATOM     96  S   UNL A   1      31.839  22.106  24.749  1.00  0.00     0.264 S 
ATOM     97  O   UNL A   1      30.642  21.768  25.499  1.00  0.00    -0.201 OA
ATOM     98  O   UNL A   1      32.175  21.407  23.525  1.00  0.00    -0.201 OA
BRANCH  96  99
ATOM     99  N   UNL A   1      33.143  21.922  25.829  1.00  0.00    -0.266 N 
ATOM    100  C   UNL A   1      33.104  22.571  27.186  1.00  0.00     0.140 C 
ATOM    101  C   UNL A   1      34.400  22.406  25.258  1.00  0.00     0.055 A 
ATOM    102  C   UNL A   1      34.589  22.787  27.587  1.00  0.00     0.060 C 
ATOM    103  C   UNL A   1      35.255  22.866  26.253  1.00  0.00    -0.022 A 
ATOM    104  C   UNL A   1      34.815  22.413  23.932  1.00  0.00     0.027 A 
ATOM    105  C   UNL A   1      36.540  23.306  25.949  1.00  0.00     0.006 A 
ATOM    106  C   UNL A   1      36.075  22.906  23.603  1.00  0.00     0.002 A 
ATOM    107  C   UNL A   1      36.943  23.332  24.609  1.00  0.00     0.000 A 
ENDBRANCH  96  99
ENDBRANCH  95  96
ENDBRANCH  88  90
ENDBRANCH  82  86
ENDBRANCH  77  80
ENDBRANCH  75  76
ENDBRANCH   1  75
TORSDOF 17
ENDMDL
MODEL 2
REMARK VINA RESULT:     -12.9      6.271     12.026
REMARK SMILES O=C(NCCCNC(=O)[C@H]1CC=CC[C@H]1C(=O)Nc1ccc(S(=O)(=O)N2CCc3ccccc32)cc1)c1ccc(-c2c3nc(c(-c4c(F)cc(S(=O)(=O)[O-])cc4F)c4ccc([nH]4)c(-c4c(F)cc(S(=O)(=O)[O-])cc4F)c4nc(c(-c5c(F)cc(S(=O)(=O)[O-])cc5F)c5ccc2[nH]5)C=C4)C=C3)cc1
REMARK SMILES IDX 5 1 4 2 3 3 1 4 2 5 37 7 38 8 102 9 39 10 101 11 40 12 41 13
REMARK SMILES IDX 42 14 95 15 43 16 100 17 94 18 96 19 44 20 99 21 93 22 92 23
REMARK SMILES IDX 45 25 79 26 58 27 78 28 59 29 62 30 77 31 97 32 60 33 61 34
REMARK SMILES IDX 76 36 98 37 63 38 46 39 47 40 56 41 48 42 49 43 55 44 57 45
REMARK SMILES IDX 50 46 51 47 52 48 53 49 54 50 80 51 81 52 90 53 82 54 83 55
REMARK SMILES IDX 89 56 91 57 84 58 85 59 86 60 87 61 88 62 64 63 65 64 74 65
REMARK SMILES IDX 66 66 67 67 73 68 75 69 68 70 69 71 70 72 71 73 72 74 6 75
REMARK SMILES IDX 7 76 8 77 9 79 10 80 11 81 15 82 12 83 14 84 13 85 16 86
REMARK SMILES IDX 17 87 18 88 19 90 20 91 36 92 21 93 35 94 22 95 23 96 24 97
REMARK SMILES IDX 25 98 26 99 27 100 34 101 28 102 29 103 33 104 30 105 32 106
REMARK SMILES IDX 31 107
REMARK H PARENT 3 6 96 24 62 35 7 78 18 89
REMARK Flexibility Score: inf
ROOT
ATOM      1  C   UNL A   1      40.915  22.016  26.575  1.00  0.00     0.042 C 
ENDROOT
BRANCH   1   2
ATOM      2  C   UNL A   1      42.063  22.966  26.951  1.00  0.00     0.118 C 
BRANCH   2   3
ATOM      3  N   UNL A   1      42.366  23.921  25.893  1.00  0.00    -0.352 N 
ATOM      4  O   UNL A   1      42.325  25.781  24.662  1.00  0.00    -0.269 OA
ATOM      5  C   UNL A   1      42.170  25.278  25.776  1.00  0.00     0.251 C 
ATOM      6  H   UNL A   1      42.797  23.516  25.107  1.00  0.00     0.163 HD
BRANCH   5   7
ATOM      7  C   UNL A   1      41.775  26.165  26.906  1.00  0.00     0.039 A 
ATOM      8  C   UNL A   1      40.825  25.803  27.864  1.00  0.00     0.014 A 
ATOM      9  C   UNL A   1      42.523  27.335  27.112  1.00  0.00     0.014 A 
ATOM     10  C   UNL A   1      40.576  26.641  28.971  1.00  0.00     0.010 A 
ATOM     11  C   UNL A   1      42.303  28.146  28.238  1.00  0.00     0.010 A 
ATOM     12  C   UNL A   1      41.311  27.825  29.176  1.00  0.00    -0.014 A 
BRANCH  12  13
ATOM     13  C   UNL A   1      41.070  28.705  30.368  1.00  0.00     0.031 A 
ATOM     14  C   UNL A   1      41.920  28.578  31.615  1.00  0.00     0.074 A 
ATOM     15  C   UNL A   1      40.064  29.607  30.365  1.00  0.00     0.049 A 
ATOM     16  N   UNL A   1      41.850  29.244  32.742  1.00  0.00    -0.248 NA
ATOM     17  C   UNL A   1      42.981  27.559  31.594  1.00  0.00     0.031 C 
ATOM     18  C   UNL A   1      39.132  29.825  29.259  1.00  0.00     0.029 A 
ATOM     19  N   UNL A   1      39.654  30.507  31.323  1.00  0.00    -0.354 N 
ATOM     20  C   UNL A   1      42.840  28.717  33.569  1.00  0.00     0.074 A 
ATOM     21  C   UNL A   1      43.474  27.651  32.821  1.00  0.00     0.031 C 
ATOM     22  C   UNL A   1      38.283  30.814  29.586  1.00  0.00     0.029 A 
ATOM     23  C   UNL A   1      38.576  31.275  30.942  1.00  0.00     0.049 A 
ATOM     24  H   UNL A   1      40.092  30.595  32.200  1.00  0.00     0.167 HD
ATOM     25  C   UNL A   1      43.199  29.087  34.824  1.00  0.00     0.037 A 
ATOM     26  C   UNL A   1      37.890  32.233  31.601  1.00  0.00     0.037 A 
ATOM     27  C   UNL A   1      42.581  30.156  35.571  1.00  0.00     0.049 A 
ATOM     28  C   UNL A   1      38.299  32.620  32.999  1.00  0.00     0.074 A 
ATOM     29  C   UNL A   1      42.920  30.635  36.827  1.00  0.00     0.029 A 
ATOM     30  N   UNL A   1      41.494  30.905  35.145  1.00  0.00    -0.354 N 
ATOM     31  N   UNL A   1      39.279  32.150  33.733  1.00  0.00    -0.248 NA
ATOM     32  C   UNL A   1      37.511  33.675  33.655  1.00  0.00     0.031 C 
ATOM     33  C   UNL A   1      42.005  31.634  37.182  1.00  0.00     0.029 A 
ATOM     34  C   UNL A   1      41.136  31.823  36.121  1.00  0.00     0.049 A 
ATOM     35  H   UNL A   1      41.042  30.799  34.276  1.00  0.00     0.167 HD
ATOM     36  C   UNL A   1      39.249  32.879  34.920  1.00  0.00     0.074 A 
ATOM     37  C   UNL A   1      38.159  33.824  34.802  1.00  0.00     0.031 C 
ATOM     38  C   UNL A   1      40.060  32.776  36.003  1.00  0.00     0.037 A 
BRANCH  25  39
ATOM     39  C   UNL A   1      44.312  28.319  35.493  1.00  0.00     0.058 A 
ATOM     40  C   UNL A   1      45.662  28.669  35.324  1.00  0.00     0.135 A 
ATOM     41  C   UNL A   1      44.022  27.249  36.358  1.00  0.00     0.135 A 
ATOM     42  F   UNL A   1      46.003  29.678  34.507  1.00  0.00    -0.206 F 
ATOM     43  C   UNL A   1      46.684  27.964  35.955  1.00  0.00     0.059 A 
ATOM     44  C   UNL A   1      45.026  26.550  37.024  1.00  0.00     0.059 A 
ATOM     45  F   UNL A   1      42.751  26.876  36.567  1.00  0.00    -0.206 F 
ATOM     46  C   UNL A   1      46.356  26.904  36.802  1.00  0.00     0.060 A 
BRANCH  46  47
ATOM     47  S   UNL A   1      47.693  25.996  37.607  1.00  0.00     0.124 S 
ATOM     48  O   UNL A   1      48.672  27.055  37.829  1.00  0.00    -0.237 OA
ATOM     49  O   UNL A   1      47.041  25.476  38.804  1.00  0.00    -0.237 OA
ATOM     50  O   UNL A   1      48.069  24.992  36.615  1.00  0.00    -0.744 OA
ENDBRANCH  46  47
ENDBRANCH  25  39
BRANCH  26  51
ATOM     51  C   UNL A   1      36.748  32.923  30.936  1.00  0.00     0.058 A 
ATOM     52  C   UNL A   1      36.967  33.886  29.938  1.00  0.00     0.135 A 
ATOM     53  C   UNL A   1      35.419  32.640  31.286  1.00  0.00     0.135 A 
ATOM     54  F   UNL A   1      38.220  34.204  29.577  1.00  0.00    -0.206 F 
ATOM     55  C   UNL A   1      35.913  34.551  29.320  1.00  0.00     0.059 A 
ATOM     56  C   UNL A   1      34.347  33.271  30.662  1.00  0.00     0.059 A 
ATOM     57  F   UNL A   1      35.153  31.724  32.230  1.00  0.00    -0.206 F 
ATOM     58  C   UNL A   1      34.604  34.232  29.686  1.00  0.00     0.060 A 
BRANCH  58  59
ATOM     59  S   UNL A   1      33.243  35.067  28.841  1.00  0.00     0.124 S 
ATOM     60  O   UNL A   1      32.848  34.066  27.858  1.00  0.00    -0.237 OA
ATOM     61  O   UNL A   1      32.301  35.296  29.933  1.00  0.00    -0.237 OA
ATOM     62  O   UNL A   1      33.870  36.270  28.301  1.00  0.00    -0.744 OA
ENDBRANCH  58  59
ENDBRANCH  26  51
BRANCH  38  63
ATOM     63  C   UNL A   1      39.848  33.754  37.130  1.00  0.00     0.058 A 
ATOM     64  C   UNL A   1      39.021  33.466  38.229  1.00  0.00     0.135 A 
ATOM     65  C   UNL A   1      40.511  34.994  37.124  1.00  0.00     0.135 A 
ATOM     66  F   UNL A   1      38.360  32.299  38.288  1.00  0.00    -0.206 F 
ATOM     67  C   UNL A   1      38.831  34.385  39.259  1.00  0.00     0.059 A 
ATOM     68  C   UNL A   1      40.360  35.913  38.158  1.00  0.00     0.059 A 
ATOM     69  F   UNL A   1      41.325  35.320  36.106  1.00  0.00    -0.206 F 
ATOM     70  C   UNL A   1      39.503  35.607  39.213  1.00  0.00     0.060 A 
BRANCH  70  71
ATOM     71  S   UNL A   1      39.258  36.786  40.559  1.00  0.00     0.124 S 
ATOM     72  O   UNL A   1      38.400  36.027  41.463  1.00  0.00    -0.237 OA
ATOM     73  O   UNL A   1      40.621  37.018  41.025  1.00  0.00    -0.237 OA
ATOM     74  O   UNL A   1      38.625  37.926  39.902  1.00  0.00    -0.744 OA
ENDBRANCH  70  71
ENDBRANCH  38  63
ENDBRANCH  12  13
ENDBRANCH   5   7
ENDBRANCH   2   3
ENDBRANCH   1   2
BRANCH   1  75
ATOM     75  C   UNL A   1      39.454  22.456  26.856  1.00  0.00     0.117 C 
BRANCH  75  76
ATOM     76  N   UNL A   1      38.751  23.196  25.801  1.00  0.00    -0.356 N 
ATOM     77  C   UNL A   1      37.386  23.289  25.697  1.00  0.00     0.224 C 
ATOM     78  H   UNL A   1      39.295  23.657  25.121  1.00  0.00     0.163 HD
ATOM     79  O   UNL A   1      36.860  24.269  26.240  1.00  0.00    -0.275 OA
BRANCH  77  80
ATOM     80  C   UNL A   1      36.515  22.344  24.805  1.00  0.00     0.095 C 
ATOM     81  C   UNL A   1      37.394  21.182  24.239  1.00  0.00     0.041 C 
ATOM     82  C   UNL A   1      35.091  21.895  25.174  1.00  0.00     0.095 C 
ATOM     83  C   UNL A   1      37.012  19.776  24.601  1.00  0.00    -0.030 C 
ATOM     84  C   UNL A   1      34.677  20.409  25.098  1.00  0.00     0.041 C 
ATOM     85  C   UNL A   1      35.786  19.427  24.995  1.00  0.00    -0.030 C 
BRANCH  82  86
ATOM     86  C   UNL A   1      34.501  22.470  26.422  1.00  0.00     0.228 C 
ATOM     87  O   UNL A   1      34.764  21.933  27.506  1.00  0.00    -0.274 OA
ATOM     88  N   UNL A   1      33.786  23.621  26.447  1.00  0.00    -0.326 N 
ATOM     89  H   UNL A   1      33.755  24.004  27.354  1.00  0.00     0.169 HD
BRANCH  88  90
ATOM     90  C   UNL A   1      33.077  24.416  25.530  1.00  0.00     0.041 A 
ATOM     91  C   UNL A   1      33.836  25.445  24.993  1.00  0.00     0.027 A 
ATOM     92  C   UNL A   1      31.715  24.364  25.189  1.00  0.00     0.027 A 
ATOM     93  C   UNL A   1      33.255  26.369  24.145  1.00  0.00     0.024 A 
ATOM     94  C   UNL A   1      31.097  25.326  24.354  1.00  0.00     0.024 A 
ATOM     95  C   UNL A   1      31.886  26.328  23.823  1.00  0.00     0.088 A 
BRANCH  95  96
ATOM     96  S   UNL A   1      31.405  27.675  22.784  1.00  0.00     0.264 S 
ATOM     97  O   UNL A   1      32.686  28.321  22.559  1.00  0.00    -0.201 OA
ATOM     98  O   UNL A   1      30.666  27.081  21.688  1.00  0.00    -0.201 OA
BRANCH  96  99
ATOM     99  N   UNL A   1      30.405  28.846  23.512  1.00  0.00    -0.266 N 
ATOM    100  C   UNL A   1      29.947  30.047  22.729  1.00  0.00     0.140 C 
ATOM    101  C   UNL A   1      31.025  29.433  24.700  1.00  0.00     0.055 A 
ATOM    102  C   UNL A   1      29.685  31.156  23.783  1.00  0.00     0.060 C 
ATOM    103  C   UNL A   1      30.592  30.741  24.894  1.00  0.00    -0.022 A 
ATOM    104  C   UNL A   1      31.900  28.853  25.611  1.00  0.00     0.027 A 
ATOM    105  C   UNL A   1      30.994  31.473  26.007  1.00  0.00     0.006 A 
ATOM    106  C   UNL A   1      32.359  29.591  26.698  1.00  0.00     0.002 A 
ATOM    107  C   UNL A   1      31.893  30.889  26.907  1.00  0.00     0.000 A 
ENDBRANCH  96  99
ENDBRANCH  95  96
ENDBRANCH  88  90
ENDBRANCH  82  86
ENDBRANCH  77  80
ENDBRANCH  75  76
ENDBRANCH   1  75
TORSDOF 17
ENDMDL
MODEL 3
REMARK VINA RESULT:     -12.9      1.789      2.441
REMARK SMILES O=C(NCCCNC(=O)[C@H]1CC=CC[C@H]1C(=O)Nc1ccc(S(=O)(=O)N2CCc3ccccc32)cc1)c1ccc(-c2c3nc(c(-c4c(F)cc(S(=O)(=O)[O-])cc4F)c4ccc([nH]4)c(-c4c(F)cc(S(=O)(=O)[O-])cc4F)c4nc(c(-c5c(F)cc(S(=O)(=O)[O-])cc5F)c5ccc2[nH]5)C=C4)C=C3)cc1
REMARK SMILES IDX 5 1 4 2 3 3 1 4 2 5 37 7 38 8 102 9 39 10 101 11 40 12 41 13
REMARK SMILES IDX 42 14 95 15 43 16 100 17 94 18 96 19 44 20 99 21 93 22 92 23
REMARK SMILES IDX 45 25 79 26 58 27 78 28 59 29 62 30 77 31 97 32 60 33 61 34
REMARK SMILES IDX 76 36 98 37 63 38 46 39 47 40 56 41 48 42 49 43 55 44 57 45
REMARK SMILES IDX 50 46 51 47 52 48 53 49 54 50 80 51 81 52 90 53 82 54 83 55
REMARK SMILES IDX 89 56 91 57 84 58 85 59 86 60 87 61 88 62 64 63 65 64 74 65
REMARK SMILES IDX 66 66 67 67 73 68 75 69 68 70 69 71 70 72 71 73 72 74 6 75
REMARK SMILES IDX 7 76 8 77 9 79 10 80 11 81 15 82 12 83 14 84 13 85 16 86
REMARK SMILES IDX 17 87 18 88 19 90 20 91 36 92 21 93 35 94 22 95 23 96 24 97
REMARK SMILES IDX 25 98 26 99 27 100 34 101 28 102 29 103 33 104 30 105 32 106
REMARK SMILES IDX 31 107
REMARK H PARENT 3 6 96 24 62 35 7 78 18 89
REMARK Flexibility Score: inf
ROOT
ATOM      1  C   UNL A   1      34.077  30.528  27.420  1.00  0.00     0.042 C 
ENDROOT
BRANCH   1   2
ATOM      2  C   UNL A   1      35.292  31.233  28.043  1.00  0.00     0.118 C 
BRANCH   2   3
ATOM      3  N   UNL A   1      35.341  31.087  29.492  1.00  0.00    -0.352 N 
ATOM      4  O   UNL A   1      35.977  30.401  31.517  1.00  0.00    -0.269 OA
ATOM      5  C   UNL A   1      36.308  30.617  30.350  1.00  0.00     0.251 C 
ATOM      6  H   UNL A   1      34.521  31.384  29.947  1.00  0.00     0.163 HD
BRANCH   5   7
ATOM      7  C   UNL A   1      37.718  30.345  29.951  1.00  0.00     0.039 A 
ATOM      8  C   UNL A   1      38.794  30.447  30.836  1.00  0.00     0.014 A 
ATOM      9  C   UNL A   1      37.944  29.792  28.681  1.00  0.00     0.014 A 
ATOM     10  C   UNL A   1      40.090  30.070  30.427  1.00  0.00     0.010 A 
ATOM     11  C   UNL A   1      39.229  29.377  28.291  1.00  0.00     0.010 A 
ATOM     12  C   UNL A   1      40.328  29.528  29.149  1.00  0.00    -0.014 A 
BRANCH  12  13
ATOM     13  C   UNL A   1      41.700  29.098  28.719  1.00  0.00     0.031 A 
ATOM     14  C   UNL A   1      42.845  30.087  28.662  1.00  0.00     0.074 A 
ATOM     15  C   UNL A   1      41.934  27.822  28.340  1.00  0.00     0.049 A 
ATOM     16  N   UNL A   1      44.093  29.898  28.305  1.00  0.00    -0.248 NA
ATOM     17  C   UNL A   1      42.543  31.475  29.046  1.00  0.00     0.031 C 
ATOM     18  C   UNL A   1      40.931  26.758  28.301  1.00  0.00     0.029 A 
ATOM     19  N   UNL A   1      43.087  27.202  27.912  1.00  0.00    -0.354 N 
ATOM     20  C   UNL A   1      44.719  31.139  28.403  1.00  0.00     0.074 A 
ATOM     21  C   UNL A   1      43.701  32.080  28.822  1.00  0.00     0.031 C 
ATOM     22  C   UNL A   1      41.516  25.615  27.906  1.00  0.00     0.029 A 
ATOM     23  C   UNL A   1      42.926  25.866  27.618  1.00  0.00     0.049 A 
ATOM     24  H   UNL A   1      43.948  27.671  27.825  1.00  0.00     0.167 HD
ATOM     25  C   UNL A   1      46.016  31.467  28.179  1.00  0.00     0.037 A 
ATOM     26  C   UNL A   1      43.802  24.946  27.162  1.00  0.00     0.037 A 
ATOM     27  C   UNL A   1      47.039  30.533  27.774  1.00  0.00     0.049 A 
ATOM     28  C   UNL A   1      45.236  25.336  26.909  1.00  0.00     0.074 A 
ATOM     29  C   UNL A   1      48.392  30.770  27.580  1.00  0.00     0.029 A 
ATOM     30  N   UNL A   1      46.830  29.193  27.488  1.00  0.00    -0.354 N 
ATOM     31  N   UNL A   1      45.816  26.500  27.071  1.00  0.00    -0.248 NA
ATOM     32  C   UNL A   1      46.135  24.281  26.417  1.00  0.00     0.031 C 
ATOM     33  C   UNL A   1      48.987  29.588  27.125  1.00  0.00     0.029 A 
ATOM     34  C   UNL A   1      48.021  28.597  27.099  1.00  0.00     0.049 A 
ATOM     35  H   UNL A   1      45.963  28.731  27.554  1.00  0.00     0.167 HD
ATOM     36  C   UNL A   1      47.156  26.308  26.739  1.00  0.00     0.074 A 
ATOM     37  C   UNL A   1      47.299  24.915  26.374  1.00  0.00     0.031 C 
ATOM     38  C   UNL A   1      48.172  27.207  26.747  1.00  0.00     0.037 A 
BRANCH  25  39
ATOM     39  C   UNL A   1      46.416  32.912  28.352  1.00  0.00     0.058 A 
ATOM     40  C   UNL A   1      46.880  33.414  29.579  1.00  0.00     0.135 A 
ATOM     41  C   UNL A   1      46.385  33.797  27.259  1.00  0.00     0.135 A 
ATOM     42  F   UNL A   1      46.928  32.618  30.660  1.00  0.00    -0.206 F 
ATOM     43  C   UNL A   1      47.260  34.745  29.727  1.00  0.00     0.059 A 
ATOM     44  C   UNL A   1      46.790  35.124  27.376  1.00  0.00     0.059 A 
ATOM     45  F   UNL A   1      45.962  33.372  26.059  1.00  0.00    -0.206 F 
ATOM     46  C   UNL A   1      47.210  35.594  28.620  1.00  0.00     0.060 A 
BRANCH  46  47
ATOM     47  S   UNL A   1      47.700  37.319  28.832  1.00  0.00     0.124 S 
ATOM     48  O   UNL A   1      49.108  37.180  29.185  1.00  0.00    -0.237 OA
ATOM     49  O   UNL A   1      47.430  37.883  27.513  1.00  0.00    -0.237 OA
ATOM     50  O   UNL A   1      46.828  37.792  29.903  1.00  0.00    -0.744 OA
ENDBRANCH  46  47
ENDBRANCH  25  39
BRANCH  26  51
ATOM     51  C   UNL A   1      43.356  23.542  26.934  1.00  0.00     0.058 A 
ATOM     52  C   UNL A   1      43.084  23.070  25.640  1.00  0.00     0.135 A 
ATOM     53  C   UNL A   1      43.189  22.646  28.001  1.00  0.00     0.135 A 
ATOM     54  F   UNL A   1      43.214  23.891  24.587  1.00  0.00    -0.206 F 
ATOM     55  C   UNL A   1      42.651  21.768  25.413  1.00  0.00     0.059 A 
ATOM     56  C   UNL A   1      42.786  21.330  27.796  1.00  0.00     0.059 A 
ATOM     57  F   UNL A   1      43.442  23.043  29.258  1.00  0.00    -0.206 F 
ATOM     58  C   UNL A   1      42.510  20.902  26.499  1.00  0.00     0.060 A 
BRANCH  58  59
ATOM     59  S   UNL A   1      41.996  19.199  26.186  1.00  0.00     0.124 S 
ATOM     60  O   UNL A   1      42.810  18.852  25.028  1.00  0.00    -0.237 OA
ATOM     61  O   UNL A   1      42.352  18.537  27.438  1.00  0.00    -0.237 OA
ATOM     62  O   UNL A   1      40.563  19.321  25.936  1.00  0.00    -0.744 OA
ENDBRANCH  58  59
ENDBRANCH  26  51
BRANCH  38  63
ATOM     63  C   UNL A   1      49.553  26.703  26.413  1.00  0.00     0.058 A 
ATOM     64  C   UNL A   1      50.383  26.096  27.370  1.00  0.00     0.135 A 
ATOM     65  C   UNL A   1      50.043  26.804  25.099  1.00  0.00     0.135 A 
ATOM     66  F   UNL A   1      49.970  25.974  28.642  1.00  0.00    -0.206 F 
ATOM     67  C   UNL A   1      51.660  25.643  27.046  1.00  0.00     0.059 A 
ATOM     68  C   UNL A   1      51.303  26.330  24.747  1.00  0.00     0.059 A 
ATOM     69  F   UNL A   1      49.290  27.364  24.138  1.00  0.00    -0.206 F 
ATOM     70  C   UNL A   1      52.112  25.767  25.731  1.00  0.00     0.060 A 
BRANCH  70  71
ATOM     71  S   UNL A   1      53.765  25.166  25.320  1.00  0.00     0.124 S 
ATOM     72  O   UNL A   1      54.560  25.723  26.408  1.00  0.00    -0.237 OA
ATOM     73  O   UNL A   1      53.586  23.718  25.343  1.00  0.00    -0.237 OA
ATOM     74  O   UNL A   1      54.016  25.739  24.001  1.00  0.00    -0.744 OA
ENDBRANCH  70  71
ENDBRANCH  38  63
ENDBRANCH  12  13
ENDBRANCH   5   7
ENDBRANCH   2   3
ENDBRANCH   1   2
BRANCH   1  75
ATOM     75  C   UNL A   1      34.057  28.977  27.364  1.00  0.00     0.117 C 
BRANCH  75  76
ATOM     76  N   UNL A   1      34.119  28.343  26.042  1.00  0.00    -0.356 N 
ATOM     77  C   UNL A   1      33.406  28.763  24.947  1.00  0.00     0.224 C 
ATOM     78  H   UNL A   1      34.711  27.564  25.932  1.00  0.00     0.163 HD
ATOM     79  O   UNL A   1      33.976  29.564  24.196  1.00  0.00    -0.275 OA
BRANCH  77  80
ATOM     80  C   UNL A   1      32.025  28.161  24.524  1.00  0.00     0.095 C 
ATOM     81  C   UNL A   1      30.890  29.210  24.758  1.00  0.00     0.041 C 
ATOM     82  C   UNL A   1      31.814  27.321  23.253  1.00  0.00     0.095 C 
ATOM     83  C   UNL A   1      30.092  29.654  23.567  1.00  0.00    -0.030 C 
ATOM     84  C   UNL A   1      30.653  27.623  22.280  1.00  0.00     0.041 C 
ATOM     85  C   UNL A   1      29.990  28.941  22.444  1.00  0.00    -0.030 C 
BRANCH  82  86
ATOM     86  C   UNL A   1      33.027  27.013  22.436  1.00  0.00     0.228 C 
ATOM     87  O   UNL A   1      33.415  27.847  21.608  1.00  0.00    -0.274 OA
ATOM     88  N   UNL A   1      33.799  25.916  22.632  1.00  0.00    -0.326 N 
ATOM     89  H   UNL A   1      34.696  26.034  22.241  1.00  0.00     0.169 HD
BRANCH  88  90
ATOM     90  C   UNL A   1      33.667  24.656  23.241  1.00  0.00     0.041 A 
ATOM     91  C   UNL A   1      33.347  23.645  22.348  1.00  0.00     0.027 A 
ATOM     92  C   UNL A   1      33.706  24.332  24.607  1.00  0.00     0.027 A 
ATOM     93  C   UNL A   1      33.092  22.366  22.806  1.00  0.00     0.024 A 
ATOM     94  C   UNL A   1      33.409  23.036  25.095  1.00  0.00     0.024 A 
ATOM     95  C   UNL A   1      33.111  22.048  24.177  1.00  0.00     0.088 A 
BRANCH  95  96
ATOM     96  S   UNL A   1      32.673  20.362  24.476  1.00  0.00     0.264 S 
ATOM     97  O   UNL A   1      31.669  20.517  25.514  1.00  0.00    -0.201 OA
ATOM     98  O   UNL A   1      32.329  19.810  23.181  1.00  0.00    -0.201 OA
BRANCH  96  99
ATOM     99  N   UNL A   1      33.900  19.389  25.146  1.00  0.00    -0.266 N 
ATOM    100  C   UNL A   1      35.287  19.405  24.563  1.00  0.00     0.140 C 
ATOM    101  C   UNL A   1      33.544  17.970  25.132  1.00  0.00     0.055 A 
ATOM    102  C   UNL A   1      35.900  18.020  24.906  1.00  0.00     0.060 C 
ATOM    103  C   UNL A   1      34.678  17.171  25.037  1.00  0.00    -0.022 A 
ATOM    104  C   UNL A   1      32.290  17.379  25.239  1.00  0.00     0.027 A 
ATOM    105  C   UNL A   1      34.585  15.783  25.080  1.00  0.00     0.006 A 
ATOM    106  C   UNL A   1      32.174  15.992  25.224  1.00  0.00     0.002 A 
ATOM    107  C   UNL A   1      33.318  15.196  25.165  1.00  0.00     0.000 A 
ENDBRANCH  96  99
ENDBRANCH  95  96
ENDBRANCH  88  90
ENDBRANCH  82  86
ENDBRANCH  77  80
ENDBRANCH  75  76
ENDBRANCH   1  75
TORSDOF 17
ENDMDL
