MODEL 1
REMARK VINA RESULT:     -11.9      0.000      0.000
REMARK SMILES COCC[C@@]1(C(=O)NCCCNC(=O)c2ccc(-c3c4nc(c(-c5c(F)cc(S(=O)(=O)[O-])cc5F)c5ccc([nH]5)c(-c5c(F)cc(S(=O)(=O)[O-])cc5F)c5nc(c(-c6c(F)cc(S(=O)(=O)[O-])cc6F)c6ccc3[nH]6)C=C5)C=C4)cc2)CCCN(C(=O)NCc2ccc(OC)cc2)C1
REMARK SMILES IDX 9 1 8 2 6 3 7 4 5 6 81 7 97 8 82 9 84 10 83 11 4 12 3 13
REMARK SMILES IDX 2 14 1 15 85 16 86 17 87 18 88 20 89 21 90 22 96 23 91 24
REMARK SMILES IDX 95 25 92 26 93 27 94 28 10 29 11 30 12 31 13 32 14 34 15 35
REMARK SMILES IDX 16 36 80 37 17 38 79 39 18 40 19 41 20 42 73 43 21 44 78 45
REMARK SMILES IDX 72 46 74 47 22 48 77 49 71 50 70 51 23 53 57 54 36 55 56 56
REMARK SMILES IDX 37 57 40 58 55 59 75 60 38 61 39 62 54 64 76 65 41 66 24 67
REMARK SMILES IDX 25 68 34 69 26 70 27 71 33 72 35 73 28 74 29 75 30 76 31 77
REMARK SMILES IDX 32 78 58 79 59 80 68 81 60 82 61 83 67 84 69 85 62 86 63 87
REMARK SMILES IDX 64 88 65 89 66 90 42 91 43 92 52 93 44 94 45 95 51 96 53 97
REMARK SMILES IDX 46 98 47 99 48 100 49 101 50 102
REMARK H PARENT 8 5 87 19 12 33 74 52 40 63
REMARK Flexibility Score: inf
ROOT
ATOM      1  C   UNL A   1      31.794  26.688  26.334  1.00  0.00     0.117 C 
ENDROOT
BRANCH   1   2
ATOM      2  N   UNL A   1      31.336  25.445  26.910  1.00  0.00    -0.355 N 
ATOM      3  C   UNL A   1      31.376  24.150  26.546  1.00  0.00     0.228 C 
ATOM      4  O   UNL A   1      30.754  23.415  27.330  1.00  0.00    -0.274 OA
ATOM      5  H   UNL A   1      30.886  25.577  27.776  1.00  0.00     0.163 HD
BRANCH   3   6
ATOM      6  C   UNL A   1      32.173  23.508  25.370  1.00  0.00     0.069 C 
ATOM      7  C   UNL A   1      33.665  23.589  25.782  1.00  0.00     0.021 C 
ATOM      8  C   UNL A   1      31.951  24.062  23.952  1.00  0.00     0.138 C 
ATOM      9  C   UNL A   1      34.327  24.912  25.384  1.00  0.00     0.023 C 
ATOM     10  N   UNL A   1      32.734  25.240  23.565  1.00  0.00    -0.324 N 
ATOM     11  C   UNL A   1      34.147  25.172  23.897  1.00  0.00     0.121 C 
BRANCH   6  12
ATOM     12  C   UNL A   1      31.657  22.010  25.413  1.00  0.00     0.047 C 
BRANCH  12  13
ATOM     13  C   UNL A   1      32.491  20.879  24.807  1.00  0.00     0.161 C 
BRANCH  13  14
ATOM     14  O   UNL A   1      32.845  19.912  25.788  1.00  0.00    -0.385 OA
ATOM     15  C   UNL A   1      32.705  18.572  25.345  1.00  0.00     0.194 C 
ENDBRANCH  13  14
ENDBRANCH  12  13
ENDBRANCH   6  12
BRANCH  10  16
ATOM     16  C   UNL A   1      32.180  26.019  22.586  1.00  0.00     0.317 C 
ATOM     17  O   UNL A   1      32.766  26.222  21.518  1.00  0.00    -0.249 OA
ATOM     18  N   UNL A   1      30.923  26.468  22.641  1.00  0.00    -0.334 N 
ATOM     19  H   UNL A   1      30.610  26.739  21.748  1.00  0.00     0.165 HD
BRANCH  18  20
ATOM     20  C   UNL A   1      29.886  26.672  23.631  1.00  0.00     0.153 C 
BRANCH  20  21
ATOM     21  C   UNL A   1      29.250  28.016  23.357  1.00  0.00    -0.028 A 
ATOM     22  C   UNL A   1      30.046  29.172  23.423  1.00  0.00     0.009 A 
ATOM     23  C   UNL A   1      27.876  28.162  23.143  1.00  0.00     0.009 A 
ATOM     24  C   UNL A   1      29.476  30.438  23.334  1.00  0.00     0.047 A 
ATOM     25  C   UNL A   1      27.307  29.440  23.031  1.00  0.00     0.047 A 
ATOM     26  C   UNL A   1      28.104  30.582  23.138  1.00  0.00     0.118 A 
BRANCH  26  27
ATOM     27  O   UNL A   1      27.678  31.879  23.089  1.00  0.00    -0.497 OA
ATOM     28  C   UNL A   1      28.390  32.758  22.233  1.00  0.00     0.278 C 
ENDBRANCH  26  27
ENDBRANCH  20  21
ENDBRANCH  18  20
ENDBRANCH  10  16
ENDBRANCH   3   6
ENDBRANCH   1   2
BRANCH   1  29
ATOM     29  C   UNL A   1      32.080  27.728  27.406  1.00  0.00     0.042 C 
BRANCH  29  30
ATOM     30  C   UNL A   1      33.400  28.446  27.228  1.00  0.00     0.118 C 
BRANCH  30  31
ATOM     31  N   UNL A   1      33.354  29.856  27.581  1.00  0.00    -0.352 N 
ATOM     32  C   UNL A   1      34.343  30.654  28.107  1.00  0.00     0.251 C 
ATOM     33  H   UNL A   1      32.492  30.304  27.420  1.00  0.00     0.163 HD
ATOM     34  O   UNL A   1      34.070  31.811  28.428  1.00  0.00    -0.269 OA
BRANCH  32  35
ATOM     35  C   UNL A   1      35.705  30.112  28.338  1.00  0.00     0.039 A 
ATOM     36  C   UNL A   1      36.625  30.133  27.285  1.00  0.00     0.014 A 
ATOM     37  C   UNL A   1      36.096  29.619  29.584  1.00  0.00     0.014 A 
ATOM     38  C   UNL A   1      37.949  29.741  27.510  1.00  0.00     0.010 A 
ATOM     39  C   UNL A   1      37.435  29.346  29.837  1.00  0.00     0.010 A 
ATOM     40  C   UNL A   1      38.377  29.390  28.800  1.00  0.00    -0.014 A 
BRANCH  40  41
ATOM     41  C   UNL A   1      39.791  29.040  29.092  1.00  0.00     0.031 A 
ATOM     42  C   UNL A   1      40.709  30.079  29.685  1.00  0.00     0.074 A 
ATOM     43  C   UNL A   1      40.266  27.827  28.747  1.00  0.00     0.049 A 
ATOM     44  N   UNL A   1      41.996  30.015  29.907  1.00  0.00    -0.248 NA
ATOM     45  C   UNL A   1      40.110  31.378  30.036  1.00  0.00     0.031 C 
ATOM     46  C   UNL A   1      39.492  26.763  28.098  1.00  0.00     0.029 A 
ATOM     47  N   UNL A   1      41.518  27.283  28.883  1.00  0.00    -0.354 N 
ATOM     48  C   UNL A   1      42.362  31.268  30.385  1.00  0.00     0.074 A 
ATOM     49  C   UNL A   1      41.174  32.091  30.370  1.00  0.00     0.031 C 
ATOM     50  C   UNL A   1      40.278  25.688  27.924  1.00  0.00     0.029 A 
ATOM     51  C   UNL A   1      41.618  25.995  28.409  1.00  0.00     0.049 A 
ATOM     52  H   UNL A   1      42.276  27.769  29.282  1.00  0.00     0.167 HD
ATOM     53  C   UNL A   1      43.571  31.686  30.825  1.00  0.00     0.037 A 
ATOM     54  C   UNL A   1      42.675  25.159  28.370  1.00  0.00     0.037 A 
ATOM     55  C   UNL A   1      44.729  30.839  30.902  1.00  0.00     0.049 A 
ATOM     56  C   UNL A   1      43.994  25.630  28.920  1.00  0.00     0.074 A 
ATOM     57  C   UNL A   1      45.980  31.135  31.413  1.00  0.00     0.029 A 
ATOM     58  N   UNL A   1      44.774  29.521  30.470  1.00  0.00    -0.354 N 
ATOM     59  N   UNL A   1      44.303  26.799  29.430  1.00  0.00    -0.248 NA
ATOM     60  C   UNL A   1      45.106  24.670  28.898  1.00  0.00     0.031 C 
ATOM     61  C   UNL A   1      46.790  30.004  31.264  1.00  0.00     0.029 A 
ATOM     62  C   UNL A   1      46.032  28.992  30.696  1.00  0.00     0.049 A 
ATOM     63  H   UNL A   1      44.020  29.034  30.063  1.00  0.00     0.167 HD
ATOM     64  C   UNL A   1      45.636  26.705  29.814  1.00  0.00     0.074 A 
ATOM     65  C   UNL A   1      46.070  25.361  29.490  1.00  0.00     0.031 C 
ATOM     66  C   UNL A   1      46.431  27.645  30.382  1.00  0.00     0.037 A 
BRANCH  53  67
ATOM     67  C   UNL A   1      43.697  33.113  31.285  1.00  0.00     0.058 A 
ATOM     68  C   UNL A   1      43.424  33.487  32.610  1.00  0.00     0.135 A 
ATOM     69  C   UNL A   1      44.142  34.112  30.403  1.00  0.00     0.135 A 
ATOM     70  F   UNL A   1      42.977  32.577  33.491  1.00  0.00    -0.206 F 
ATOM     71  C   UNL A   1      43.564  34.802  33.041  1.00  0.00     0.059 A 
ATOM     72  C   UNL A   1      44.317  35.428  30.819  1.00  0.00     0.059 A 
ATOM     73  F   UNL A   1      44.415  33.810  29.124  1.00  0.00    -0.206 F 
ATOM     74  C   UNL A   1      44.014  35.766  32.137  1.00  0.00     0.060 A 
BRANCH  74  75
ATOM     75  S   UNL A   1      44.215  37.463  32.719  1.00  0.00     0.124 S 
ATOM     76  O   UNL A   1      43.898  38.223  31.514  1.00  0.00    -0.237 OA
ATOM     77  O   UNL A   1      43.233  37.544  33.794  1.00  0.00    -0.237 OA
ATOM     78  O   UNL A   1      45.610  37.514  33.142  1.00  0.00    -0.744 OA
ENDBRANCH  74  75
ENDBRANCH  53  67
BRANCH  54  79
ATOM     79  C   UNL A   1      42.527  23.784  27.820  1.00  0.00     0.058 A 
ATOM     80  C   UNL A   1      42.470  23.567  26.436  1.00  0.00     0.135 A 
ATOM     81  C   UNL A   1      42.431  22.664  28.661  1.00  0.00     0.135 A 
ATOM     82  F   UNL A   1      42.556  24.604  25.590  1.00  0.00    -0.206 F 
ATOM     83  C   UNL A   1      42.293  22.294  25.902  1.00  0.00     0.059 A 
ATOM     84  C   UNL A   1      42.278  21.378  28.151  1.00  0.00     0.059 A 
ATOM     85  F   UNL A   1      42.499  22.815  29.993  1.00  0.00    -0.206 F 
ATOM     86  C   UNL A   1      42.193  21.204  26.770  1.00  0.00     0.060 A 
BRANCH  86  87
ATOM     87  S   UNL A   1      41.979  19.554  26.069  1.00  0.00     0.124 S 
ATOM     88  O   UNL A   1      42.474  18.711  27.150  1.00  0.00    -0.237 OA
ATOM     89  O   UNL A   1      40.540  19.503  25.828  1.00  0.00    -0.237 OA
ATOM     90  O   UNL A   1      42.806  19.592  24.867  1.00  0.00    -0.744 OA
ENDBRANCH  86  87
ENDBRANCH  54  79
BRANCH  66  91
ATOM     91  C   UNL A   1      47.835  27.241  30.727  1.00  0.00     0.058 A 
ATOM     92  C   UNL A   1      48.151  26.659  31.963  1.00  0.00     0.135 A 
ATOM     93  C   UNL A   1      48.865  27.386  29.783  1.00  0.00     0.135 A 
ATOM     94  F   UNL A   1      47.201  26.504  32.899  1.00  0.00    -0.206 F 
ATOM     95  C   UNL A   1      49.447  26.251  32.261  1.00  0.00     0.059 A 
ATOM     96  C   UNL A   1      50.162  26.962  30.050  1.00  0.00     0.059 A 
ATOM     97  F   UNL A   1      48.610  27.927  28.581  1.00  0.00    -0.206 F 
ATOM     98  C   UNL A   1      50.445  26.406  31.297  1.00  0.00     0.060 A 
BRANCH  98  99
ATOM     99  S   UNL A   1      52.115  25.837  31.680  1.00  0.00     0.124 S 
ATOM    100  O   UNL A   1      51.871  24.451  32.066  1.00  0.00    -0.237 OA
ATOM    101  O   UNL A   1      52.811  26.029  30.412  1.00  0.00    -0.237 OA
ATOM    102  O   UNL A   1      52.536  26.726  32.759  1.00  0.00    -0.744 OA
ENDBRANCH  98  99
ENDBRANCH  66  91
ENDBRANCH  40  41
ENDBRANCH  32  35
ENDBRANCH  30  31
ENDBRANCH  29  30
ENDBRANCH   1  29
TORSDOF 20
ENDMDL
MODEL 2
REMARK VINA RESULT:     -11.7      2.877      5.397
REMARK SMILES COCC[C@@]1(C(=O)NCCCNC(=O)c2ccc(-c3c4nc(c(-c5c(F)cc(S(=O)(=O)[O-])cc5F)c5ccc([nH]5)c(-c5c(F)cc(S(=O)(=O)[O-])cc5F)c5nc(c(-c6c(F)cc(S(=O)(=O)[O-])cc6F)c6ccc3[nH]6)C=C5)C=C4)cc2)CCCN(C(=O)NCc2ccc(OC)cc2)C1
REMARK SMILES IDX 9 1 8 2 6 3 7 4 5 6 81 7 97 8 82 9 84 10 83 11 4 12 3 13
REMARK SMILES IDX 2 14 1 15 85 16 86 17 87 18 88 20 89 21 90 22 96 23 91 24
REMARK SMILES IDX 95 25 92 26 93 27 94 28 10 29 11 30 12 31 13 32 14 34 15 35
REMARK SMILES IDX 16 36 80 37 17 38 79 39 18 40 19 41 20 42 73 43 21 44 78 45
REMARK SMILES IDX 72 46 74 47 22 48 77 49 71 50 70 51 23 53 57 54 36 55 56 56
REMARK SMILES IDX 37 57 40 58 55 59 75 60 38 61 39 62 54 64 76 65 41 66 24 67
REMARK SMILES IDX 25 68 34 69 26 70 27 71 33 72 35 73 28 74 29 75 30 76 31 77
REMARK SMILES IDX 32 78 58 79 59 80 68 81 60 82 61 83 67 84 69 85 62 86 63 87
REMARK SMILES IDX 64 88 65 89 66 90 42 91 43 92 52 93 44 94 45 95 51 96 53 97
REMARK SMILES IDX 46 98 47 99 48 100 49 101 50 102
REMARK H PARENT 8 5 87 19 12 33 74 52 40 63
REMARK Flexibility Score: inf
ROOT
ATOM      1  C   UNL A   1      33.993  28.655  26.140  1.00  0.00     0.117 C 
ENDROOT
BRANCH   1   2
ATOM      2  N   UNL A   1      32.934  27.814  26.648  1.00  0.00    -0.355 N 
ATOM      3  C   UNL A   1      31.752  27.376  26.176  1.00  0.00     0.228 C 
ATOM      4  O   UNL A   1      31.111  26.731  27.022  1.00  0.00    -0.274 OA
ATOM      5  H   UNL A   1      33.120  27.485  27.556  1.00  0.00     0.163 HD
BRANCH   3   6
ATOM      6  C   UNL A   1      31.195  27.493  24.725  1.00  0.00     0.069 C 
ATOM      7  C   UNL A   1      29.894  26.649  24.707  1.00  0.00     0.021 C 
ATOM      8  C   UNL A   1      32.123  27.118  23.556  1.00  0.00     0.138 C 
ATOM      9  C   UNL A   1      30.141  25.171  24.392  1.00  0.00     0.023 C 
ATOM     10  N   UNL A   1      32.199  25.699  23.191  1.00  0.00    -0.324 N 
ATOM     11  C   UNL A   1      30.916  25.024  23.092  1.00  0.00     0.121 C 
BRANCH   6  12
ATOM     12  C   UNL A   1      30.865  29.040  24.631  1.00  0.00     0.047 C 
BRANCH  12  13
ATOM     13  C   UNL A   1      30.366  29.654  23.322  1.00  0.00     0.161 C 
BRANCH  13  14
ATOM     14  O   UNL A   1      29.040  30.151  23.454  1.00  0.00    -0.385 OA
ATOM     15  C   UNL A   1      28.069  29.378  22.765  1.00  0.00     0.194 C 
ENDBRANCH  13  14
ENDBRANCH  12  13
ENDBRANCH   6  12
BRANCH  10  16
ATOM     16  C   UNL A   1      33.355  25.312  22.571  1.00  0.00     0.317 C 
ATOM     17  O   UNL A   1      33.814  25.944  21.615  1.00  0.00    -0.249 OA
ATOM     18  N   UNL A   1      34.145  24.345  23.048  1.00  0.00    -0.334 N 
ATOM     19  H   UNL A   1      35.048  24.411  22.661  1.00  0.00     0.165 HD
BRANCH  18  20
ATOM     20  C   UNL A   1      34.060  23.229  23.967  1.00  0.00     0.153 C 
BRANCH  20  21
ATOM     21  C   UNL A   1      35.454  22.956  24.483  1.00  0.00    -0.028 A 
ATOM     22  C   UNL A   1      35.941  21.638  24.462  1.00  0.00     0.009 A 
ATOM     23  C   UNL A   1      36.238  23.949  25.079  1.00  0.00     0.009 A 
ATOM     24  C   UNL A   1      37.151  21.315  25.069  1.00  0.00     0.047 A 
ATOM     25  C   UNL A   1      37.468  23.623  25.670  1.00  0.00     0.047 A 
ATOM     26  C   UNL A   1      37.922  22.302  25.677  1.00  0.00     0.118 A 
BRANCH  26  27
ATOM     27  O   UNL A   1      39.075  21.841  26.249  1.00  0.00    -0.497 OA
ATOM     28  C   UNL A   1      39.764  22.729  27.114  1.00  0.00     0.278 C 
ENDBRANCH  26  27
ENDBRANCH  20  21
ENDBRANCH  18  20
ENDBRANCH  10  16
ENDBRANCH   3   6
ENDBRANCH   1   2
BRANCH   1  29
ATOM     29  C   UNL A   1      34.313  29.790  27.099  1.00  0.00     0.042 C 
BRANCH  29  30
ATOM     30  C   UNL A   1      35.560  29.562  27.926  1.00  0.00     0.118 C 
BRANCH  30  31
ATOM     31  N   UNL A   1      35.461  30.062  29.289  1.00  0.00    -0.352 N 
ATOM     32  C   UNL A   1      36.459  30.283  30.209  1.00  0.00     0.251 C 
ATOM     33  H   UNL A   1      34.550  30.273  29.596  1.00  0.00     0.163 HD
ATOM     34  O   UNL A   1      36.153  30.622  31.352  1.00  0.00    -0.269 OA
BRANCH  32  35
ATOM     35  C   UNL A   1      37.881  30.062  29.846  1.00  0.00     0.039 A 
ATOM     36  C   UNL A   1      38.787  29.716  30.853  1.00  0.00     0.014 A 
ATOM     37  C   UNL A   1      38.323  30.157  28.525  1.00  0.00     0.014 A 
ATOM     38  C   UNL A   1      40.104  29.385  30.520  1.00  0.00     0.010 A 
ATOM     39  C   UNL A   1      39.594  29.712  28.182  1.00  0.00     0.010 A 
ATOM     40  C   UNL A   1      40.506  29.333  29.176  1.00  0.00    -0.014 A 
BRANCH  40  41
ATOM     41  C   UNL A   1      41.875  28.913  28.780  1.00  0.00     0.031 A 
ATOM     42  C   UNL A   1      42.981  29.937  28.721  1.00  0.00     0.074 A 
ATOM     43  C   UNL A   1      42.102  27.641  28.396  1.00  0.00     0.049 A 
ATOM     44  N   UNL A   1      44.209  29.803  28.292  1.00  0.00    -0.248 NA
ATOM     45  C   UNL A   1      42.650  31.303  29.162  1.00  0.00     0.031 C 
ATOM     46  C   UNL A   1      41.094  26.577  28.339  1.00  0.00     0.029 A 
ATOM     47  N   UNL A   1      43.251  27.025  27.967  1.00  0.00    -0.354 N 
ATOM     48  C   UNL A   1      44.780  31.068  28.377  1.00  0.00     0.074 A 
ATOM     49  C   UNL A   1      43.750  31.968  28.846  1.00  0.00     0.031 C 
ATOM     50  C   UNL A   1      41.677  25.437  27.934  1.00  0.00     0.029 A 
ATOM     51  C   UNL A   1      43.086  25.694  27.663  1.00  0.00     0.049 A 
ATOM     52  H   UNL A   1      44.113  27.493  27.885  1.00  0.00     0.167 HD
ATOM     53  C   UNL A   1      46.055  31.440  28.119  1.00  0.00     0.037 A 
ATOM     54  C   UNL A   1      43.975  24.785  27.214  1.00  0.00     0.037 A 
ATOM     55  C   UNL A   1      47.089  30.524  27.722  1.00  0.00     0.049 A 
ATOM     56  C   UNL A   1      45.400  25.213  26.990  1.00  0.00     0.074 A 
ATOM     57  C   UNL A   1      48.433  30.779  27.518  1.00  0.00     0.029 A 
ATOM     58  N   UNL A   1      46.896  29.171  27.484  1.00  0.00    -0.354 N 
ATOM     59  N   UNL A   1      45.937  26.400  27.140  1.00  0.00    -0.248 NA
ATOM     60  C   UNL A   1      46.343  24.179  26.543  1.00  0.00     0.031 C 
ATOM     61  C   UNL A   1      49.048  29.584  27.129  1.00  0.00     0.029 A 
ATOM     62  C   UNL A   1      48.095  28.578  27.128  1.00  0.00     0.049 A 
ATOM     63  H   UNL A   1      46.033  28.701  27.557  1.00  0.00     0.167 HD
ATOM     64  C   UNL A   1      47.284  26.250  26.833  1.00  0.00     0.074 A 
ATOM     65  C   UNL A   1      47.483  24.854  26.502  1.00  0.00     0.031 C 
ATOM     66  C   UNL A   1      48.269  27.182  26.824  1.00  0.00     0.037 A 
BRANCH  53  67
ATOM     67  C   UNL A   1      46.411  32.892  28.284  1.00  0.00     0.058 A 
ATOM     68  C   UNL A   1      46.904  33.396  29.498  1.00  0.00     0.135 A 
ATOM     69  C   UNL A   1      46.303  33.782  27.202  1.00  0.00     0.135 A 
ATOM     70  F   UNL A   1      47.011  32.594  30.569  1.00  0.00    -0.206 F 
ATOM     71  C   UNL A   1      47.257  34.734  29.642  1.00  0.00     0.059 A 
ATOM     72  C   UNL A   1      46.676  35.119  27.317  1.00  0.00     0.059 A 
ATOM     73  F   UNL A   1      45.834  33.355  26.020  1.00  0.00    -0.206 F 
ATOM     74  C   UNL A   1      47.140  35.588  28.544  1.00  0.00     0.060 A 
BRANCH  74  75
ATOM     75  S   UNL A   1      47.626  37.315  28.742  1.00  0.00     0.124 S 
ATOM     76  O   UNL A   1      46.555  37.822  29.594  1.00  0.00    -0.237 OA
ATOM     77  O   UNL A   1      48.937  37.201  29.374  1.00  0.00    -0.237 OA
ATOM     78  O   UNL A   1      47.634  37.825  27.375  1.00  0.00    -0.744 OA
ENDBRANCH  74  75
ENDBRANCH  53  67
BRANCH  54  79
ATOM     79  C   UNL A   1      43.556  23.377  26.975  1.00  0.00     0.058 A 
ATOM     80  C   UNL A   1      43.298  22.915  25.676  1.00  0.00     0.135 A 
ATOM     81  C   UNL A   1      43.395  22.470  28.034  1.00  0.00     0.135 A 
ATOM     82  F   UNL A   1      43.435  23.744  24.630  1.00  0.00    -0.206 F 
ATOM     83  C   UNL A   1      42.868  21.614  25.435  1.00  0.00     0.059 A 
ATOM     84  C   UNL A   1      42.990  21.156  27.816  1.00  0.00     0.059 A 
ATOM     85  F   UNL A   1      43.647  22.856  29.295  1.00  0.00    -0.206 F 
ATOM     86  C   UNL A   1      42.712  20.742  26.515  1.00  0.00     0.060 A 
BRANCH  86  87
ATOM     87  S   UNL A   1      42.168  19.051  26.191  1.00  0.00     0.124 S 
ATOM     88  O   UNL A   1      43.080  18.649  25.127  1.00  0.00    -0.237 OA
ATOM     89  O   UNL A   1      42.373  18.406  27.485  1.00  0.00    -0.237 OA
ATOM     90  O   UNL A   1      40.771  19.218  25.798  1.00  0.00    -0.744 OA
ENDBRANCH  86  87
ENDBRANCH  54  79
BRANCH  66  91
ATOM     91  C   UNL A   1      49.655  26.715  26.485  1.00  0.00     0.058 A 
ATOM     92  C   UNL A   1      50.476  26.096  27.439  1.00  0.00     0.135 A 
ATOM     93  C   UNL A   1      50.142  26.837  25.174  1.00  0.00     0.135 A 
ATOM     94  F   UNL A   1      50.056  25.961  28.707  1.00  0.00    -0.206 F 
ATOM     95  C   UNL A   1      51.744  25.630  27.108  1.00  0.00     0.059 A 
ATOM     96  C   UNL A   1      51.397  26.356  24.816  1.00  0.00     0.059 A 
ATOM     97  F   UNL A   1      49.388  27.412  24.223  1.00  0.00    -0.206 F 
ATOM     98  C   UNL A   1      52.194  25.764  25.794  1.00  0.00     0.060 A 
BRANCH  98  99
ATOM     99  S   UNL A   1      53.827  25.120  25.367  1.00  0.00     0.124 S 
ATOM    100  O   UNL A   1      54.622  25.561  26.508  1.00  0.00    -0.237 OA
ATOM    101  O   UNL A   1      53.584  23.683  25.280  1.00  0.00    -0.237 OA
ATOM    102  O   UNL A   1      54.128  25.775  24.098  1.00  0.00    -0.744 OA
ENDBRANCH  98  99
ENDBRANCH  66  91
ENDBRANCH  40  41
ENDBRANCH  32  35
ENDBRANCH  30  31
ENDBRANCH  29  30
ENDBRANCH   1  29
TORSDOF 20
ENDMDL
MODEL 3
REMARK VINA RESULT:     -11.4      3.113      9.551
REMARK SMILES COCC[C@@]1(C(=O)NCCCNC(=O)c2ccc(-c3c4nc(c(-c5c(F)cc(S(=O)(=O)[O-])cc5F)c5ccc([nH]5)c(-c5c(F)cc(S(=O)(=O)[O-])cc5F)c5nc(c(-c6c(F)cc(S(=O)(=O)[O-])cc6F)c6ccc3[nH]6)C=C5)C=C4)cc2)CCCN(C(=O)NCc2ccc(OC)cc2)C1
REMARK SMILES IDX 9 1 8 2 6 3 7 4 5 6 81 7 97 8 82 9 84 10 83 11 4 12 3 13
REMARK SMILES IDX 2 14 1 15 85 16 86 17 87 18 88 20 89 21 90 22 96 23 91 24
REMARK SMILES IDX 95 25 92 26 93 27 94 28 10 29 11 30 12 31 13 32 14 34 15 35
REMARK SMILES IDX 16 36 80 37 17 38 79 39 18 40 19 41 20 42 73 43 21 44 78 45
REMARK SMILES IDX 72 46 74 47 22 48 77 49 71 50 70 51 23 53 57 54 36 55 56 56
REMARK SMILES IDX 37 57 40 58 55 59 75 60 38 61 39 62 54 64 76 65 41 66 24 67
REMARK SMILES IDX 25 68 34 69 26 70 27 71 33 72 35 73 28 74 29 75 30 76 31 77
REMARK SMILES IDX 32 78 58 79 59 80 68 81 60 82 61 83 67 84 69 85 62 86 63 87
REMARK SMILES IDX 64 88 65 89 66 90 42 91 43 92 52 93 44 94 45 95 51 96 53 97
REMARK SMILES IDX 46 98 47 99 48 100 49 101 50 102
REMARK H PARENT 8 5 87 19 12 33 74 52 40 63
REMARK Flexibility Score: inf
ROOT
ATOM      1  C   UNL A   1      33.821  28.586  26.004  1.00  0.00     0.117 C 
ENDROOT
BRANCH   1   2
ATOM      2  N   UNL A   1      32.954  27.565  26.546  1.00  0.00    -0.355 N 
ATOM      3  C   UNL A   1      31.823  26.959  26.142  1.00  0.00     0.228 C 
ATOM      4  O   UNL A   1      31.365  26.185  27.000  1.00  0.00    -0.274 OA
ATOM      5  H   UNL A   1      33.266  27.234  27.419  1.00  0.00     0.163 HD
BRANCH   3   6
ATOM      6  C   UNL A   1      31.135  27.040  24.745  1.00  0.00     0.069 C 
ATOM      7  C   UNL A   1      29.900  26.108  24.832  1.00  0.00     0.021 C 
ATOM      8  C   UNL A   1      31.983  26.735  23.498  1.00  0.00     0.138 C 
ATOM      9  C   UNL A   1      30.221  24.652  24.484  1.00  0.00     0.023 C 
ATOM     10  N   UNL A   1      32.125  25.326  23.115  1.00  0.00    -0.324 N 
ATOM     11  C   UNL A   1      30.889  24.563  23.121  1.00  0.00     0.121 C 
BRANCH   6  12
ATOM     12  C   UNL A   1      30.692  28.561  24.694  1.00  0.00     0.047 C 
BRANCH  12  13
ATOM     13  C   UNL A   1      30.709  29.335  23.374  1.00  0.00     0.161 C 
BRANCH  13  14
ATOM     14  O   UNL A   1      29.545  29.068  22.602  1.00  0.00    -0.385 OA
ATOM     15  C   UNL A   1      28.997  30.219  21.978  1.00  0.00     0.194 C 
ENDBRANCH  13  14
ENDBRANCH  12  13
ENDBRANCH   6  12
BRANCH  10  16
ATOM     16  C   UNL A   1      33.248  25.023  22.395  1.00  0.00     0.317 C 
ATOM     17  O   UNL A   1      33.648  25.759  21.488  1.00  0.00    -0.249 OA
ATOM     18  N   UNL A   1      34.070  24.021  22.721  1.00  0.00    -0.334 N 
ATOM     19  H   UNL A   1      34.949  24.138  22.295  1.00  0.00     0.165 HD
BRANCH  18  20
ATOM     20  C   UNL A   1      34.045  22.812  23.518  1.00  0.00     0.153 C 
BRANCH  20  21
ATOM     21  C   UNL A   1      35.291  22.802  24.373  1.00  0.00    -0.028 A 
ATOM     22  C   UNL A   1      35.539  23.891  25.226  1.00  0.00     0.009 A 
ATOM     23  C   UNL A   1      36.260  21.799  24.268  1.00  0.00     0.009 A 
ATOM     24  C   UNL A   1      36.746  24.000  25.911  1.00  0.00     0.047 A 
ATOM     25  C   UNL A   1      37.467  21.902  24.978  1.00  0.00     0.047 A 
ATOM     26  C   UNL A   1      37.718  23.009  25.792  1.00  0.00     0.118 A 
BRANCH  26  27
ATOM     27  O   UNL A   1      38.858  23.255  26.503  1.00  0.00    -0.497 OA
ATOM     28  C   UNL A   1      39.802  22.199  26.590  1.00  0.00     0.278 C 
ENDBRANCH  26  27
ENDBRANCH  20  21
ENDBRANCH  18  20
ENDBRANCH  10  16
ENDBRANCH   3   6
ENDBRANCH   1   2
BRANCH   1  29
ATOM     29  C   UNL A   1      34.016  29.731  26.985  1.00  0.00     0.042 C 
BRANCH  29  30
ATOM     30  C   UNL A   1      35.406  29.801  27.578  1.00  0.00     0.118 C 
BRANCH  30  31
ATOM     31  N   UNL A   1      35.422  29.965  29.023  1.00  0.00    -0.352 N 
ATOM     32  C   UNL A   1      36.445  29.742  29.914  1.00  0.00     0.251 C 
ATOM     33  H   UNL A   1      34.578  30.282  29.421  1.00  0.00     0.163 HD
ATOM     34  O   UNL A   1      36.222  29.850  31.120  1.00  0.00    -0.269 OA
BRANCH  32  35
ATOM     35  C   UNL A   1      37.784  29.322  29.432  1.00  0.00     0.039 A 
ATOM     36  C   UNL A   1      38.150  29.618  28.116  1.00  0.00     0.014 A 
ATOM     37  C   UNL A   1      38.694  28.674  30.271  1.00  0.00     0.014 A 
ATOM     38  C   UNL A   1      39.448  29.341  27.675  1.00  0.00     0.010 A 
ATOM     39  C   UNL A   1      40.015  28.512  29.872  1.00  0.00     0.010 A 
ATOM     40  C   UNL A   1      40.407  28.830  28.565  1.00  0.00    -0.014 A 
BRANCH  40  41
ATOM     41  C   UNL A   1      41.815  28.594  28.153  1.00  0.00     0.031 A 
ATOM     42  C   UNL A   1      42.249  27.210  27.741  1.00  0.00     0.074 A 
ATOM     43  C   UNL A   1      42.713  29.596  28.229  1.00  0.00     0.049 A 
ATOM     44  N   UNL A   1      43.447  26.768  27.459  1.00  0.00    -0.248 NA
ATOM     45  C   UNL A   1      41.204  26.172  27.680  1.00  0.00     0.031 C 
ATOM     46  C   UNL A   1      42.428  30.961  28.684  1.00  0.00     0.029 A 
ATOM     47  N   UNL A   1      44.053  29.622  27.938  1.00  0.00    -0.354 N 
ATOM     48  C   UNL A   1      43.304  25.405  27.226  1.00  0.00     0.074 A 
ATOM     49  C   UNL A   1      41.914  25.079  27.452  1.00  0.00     0.031 C 
ATOM     50  C   UNL A   1      43.550  31.695  28.610  1.00  0.00     0.029 A 
ATOM     51  C   UNL A   1      44.642  30.849  28.141  1.00  0.00     0.049 A 
ATOM     52  H   UNL A   1      44.549  28.836  27.613  1.00  0.00     0.167 HD
ATOM     53  C   UNL A   1      44.240  24.512  26.829  1.00  0.00     0.037 A 
ATOM     54  C   UNL A   1      45.919  31.244  27.971  1.00  0.00     0.037 A 
ATOM     55  C   UNL A   1      45.604  24.861  26.538  1.00  0.00     0.049 A 
ATOM     56  C   UNL A   1      46.928  30.243  27.473  1.00  0.00     0.074 A 
ATOM     57  C   UNL A   1      46.613  24.052  26.047  1.00  0.00     0.029 A 
ATOM     58  N   UNL A   1      46.146  26.128  26.698  1.00  0.00    -0.354 N 
ATOM     59  N   UNL A   1      46.758  28.973  27.194  1.00  0.00    -0.248 NA
ATOM     60  C   UNL A   1      48.297  30.729  27.259  1.00  0.00     0.031 C 
ATOM     61  C   UNL A   1      47.774  24.825  25.935  1.00  0.00     0.029 A 
ATOM     62  C   UNL A   1      47.478  26.123  26.321  1.00  0.00     0.049 A 
ATOM     63  H   UNL A   1      45.655  26.915  27.030  1.00  0.00     0.167 HD
ATOM     64  C   UNL A   1      47.992  28.514  26.745  1.00  0.00     0.074 A 
ATOM     65  C   UNL A   1      48.894  29.647  26.778  1.00  0.00     0.031 C 
ATOM     66  C   UNL A   1      48.348  27.270  26.344  1.00  0.00     0.037 A 
BRANCH  53  67
ATOM     67  C   UNL A   1      43.816  23.079  26.657  1.00  0.00     0.058 A 
ATOM     68  C   UNL A   1      43.491  22.269  27.757  1.00  0.00     0.135 A 
ATOM     69  C   UNL A   1      43.688  22.521  25.374  1.00  0.00     0.135 A 
ATOM     70  F   UNL A   1      43.614  22.745  29.006  1.00  0.00    -0.206 F 
ATOM     71  C   UNL A   1      43.076  20.952  27.595  1.00  0.00     0.059 A 
ATOM     72  C   UNL A   1      43.247  21.214  25.187  1.00  0.00     0.059 A 
ATOM     73  F   UNL A   1      43.988  23.249  24.287  1.00  0.00    -0.206 F 
ATOM     74  C   UNL A   1      42.955  20.433  26.304  1.00  0.00     0.060 A 
BRANCH  74  75
ATOM     75  S   UNL A   1      42.390  18.730  26.111  1.00  0.00     0.124 S 
ATOM     76  O   UNL A   1      42.638  18.189  27.444  1.00  0.00    -0.237 OA
ATOM     77  O   UNL A   1      40.987  18.905  25.750  1.00  0.00    -0.237 OA
ATOM     78  O   UNL A   1      43.246  18.206  25.053  1.00  0.00    -0.744 OA
ENDBRANCH  74  75
ENDBRANCH  53  67
BRANCH  54  79
ATOM     79  C   UNL A   1      46.315  32.652  28.242  1.00  0.00     0.058 A 
ATOM     80  C   UNL A   1      46.809  33.030  29.499  1.00  0.00     0.135 A 
ATOM     81  C   UNL A   1      46.199  33.649  27.260  1.00  0.00     0.135 A 
ATOM     82  F   UNL A   1      46.937  32.116  30.472  1.00  0.00    -0.206 F 
ATOM     83  C   UNL A   1      47.148  34.350  29.785  1.00  0.00     0.059 A 
ATOM     84  C   UNL A   1      46.554  34.970  27.514  1.00  0.00     0.059 A 
ATOM     85  F   UNL A   1      45.749  33.336  26.035  1.00  0.00    -0.206 F 
ATOM     86  C   UNL A   1      47.011  35.315  28.785  1.00  0.00     0.060 A 
BRANCH  86  87
ATOM     87  S   UNL A   1      47.467  37.021  29.160  1.00  0.00     0.124 S 
ATOM     88  O   UNL A   1      46.769  37.749  28.106  1.00  0.00    -0.237 OA
ATOM     89  O   UNL A   1      46.941  37.193  30.511  1.00  0.00    -0.237 OA
ATOM     90  O   UNL A   1      48.924  37.008  29.060  1.00  0.00    -0.744 OA
ENDBRANCH  86  87
ENDBRANCH  54  79
BRANCH  66  91
ATOM     91  C   UNL A   1      49.759  27.076  25.870  1.00  0.00     0.058 A 
ATOM     92  C   UNL A   1      50.794  26.746  26.756  1.00  0.00     0.135 A 
ATOM     93  C   UNL A   1      50.064  27.164  24.502  1.00  0.00     0.135 A 
ATOM     94  F   UNL A   1      50.552  26.655  28.074  1.00  0.00    -0.206 F 
ATOM     95  C   UNL A   1      52.091  26.529  26.305  1.00  0.00     0.059 A 
ATOM     96  C   UNL A   1      51.349  26.927  24.026  1.00  0.00     0.059 A 
ATOM     97  F   UNL A   1      49.104  27.466  23.612  1.00  0.00    -0.206 F 
ATOM     98  C   UNL A   1      52.358  26.621  24.938  1.00  0.00     0.060 A 
BRANCH  98  99
ATOM     99  S   UNL A   1      54.038  26.298  24.360  1.00  0.00     0.124 S 
ATOM    100  O   UNL A   1      54.180  24.876  24.652  1.00  0.00    -0.237 OA
ATOM    101  O   UNL A   1      53.956  26.651  22.945  1.00  0.00    -0.237 OA
ATOM    102  O   UNL A   1      54.854  27.193  25.175  1.00  0.00    -0.744 OA
ENDBRANCH  98  99
ENDBRANCH  66  91
ENDBRANCH  40  41
ENDBRANCH  32  35
ENDBRANCH  30  31
ENDBRANCH  29  30
ENDBRANCH   1  29
TORSDOF 20
ENDMDL
