MODEL 1
REMARK VINA RESULT:     -11.9      0.000      0.000
REMARK SMILES CC[C@H]1CCC[C@H](O[C@@H]2CC[C@]([NH2+]C(C)C)(C(=O)NCCCNC(=O)c3ccc(-c4c5nc(c(-c6c(F)cc(S(=O)(=O)[O-])cc6F)c6ccc([nH]6)c(-c6c(F)cc(S(=O)(=O)[O-])cc6F)c6nc(c(-c7c(F)cc(S(=O)(=O)[O-])cc7F)c7ccc4[nH]7)C=C6)C=C5)cc3)C2)C1
REMARK SMILES IDX 21 1 20 2 19 3 17 4 18 5 12 7 9 8 10 9 92 10 11 11 8 12 7 13
REMARK SMILES IDX 3 14 4 15 93 16 5 17 6 18 2 19 1 20 13 21 14 24 15 25 16 26
REMARK SMILES IDX 22 27 23 28 24 29 25 31 26 32 27 33 91 34 28 35 90 36 29 37
REMARK SMILES IDX 30 38 31 39 84 40 32 41 89 42 83 43 85 44 33 45 88 46 82 47
REMARK SMILES IDX 81 48 34 50 68 51 47 52 67 53 48 54 51 55 66 56 86 57 49 58
REMARK SMILES IDX 50 59 65 61 87 62 52 63 35 64 36 65 45 66 37 67 38 68 44 69
REMARK SMILES IDX 46 70 39 71 40 72 41 73 42 74 43 75 69 76 70 77 79 78 71 79
REMARK SMILES IDX 72 80 78 81 80 82 73 83 74 84 75 85 76 86 77 87 53 88 54 89
REMARK SMILES IDX 63 90 55 91 56 92 62 93 64 94 57 95 58 96 59 97 60 98 61 99
REMARK H PARENT 19 6 13 22 13 23 23 30 85 49 51 60
REMARK Flexibility Score: inf
ROOT
ATOM      1  C   UNL A   1      38.190  22.280  25.657  1.00  0.00     0.042 C 
ENDROOT
BRANCH   1   2
ATOM      2  C   UNL A   1      36.680  22.347  25.320  1.00  0.00     0.118 C 
BRANCH   2   3
ATOM      3  N   UNL A   1      35.809  22.075  26.453  1.00  0.00    -0.351 N 
ATOM      4  C   UNL A   1      34.516  22.275  26.791  1.00  0.00     0.281 C 
ATOM      5  O   UNL A   1      34.264  21.799  27.914  1.00  0.00    -0.268 OA
ATOM      6  H   UNL A   1      36.298  21.618  27.174  1.00  0.00     0.163 HD
BRANCH   4   7
ATOM      7  C   UNL A   1      33.351  22.907  25.948  1.00  0.00     0.178 C 
ATOM      8  C   UNL A   1      31.993  24.963  25.872  1.00  0.00     0.125 C 
ATOM      9  C   UNL A   1      31.073  23.844  26.371  1.00  0.00     0.039 C 
ATOM     10  C   UNL A   1      33.394  24.444  26.144  1.00  0.00     0.111 C 
ATOM     11  C   UNL A   1      31.977  22.611  26.603  1.00  0.00     0.082 C 
BRANCH   8  12
ATOM     12  O   UNL A   1      31.658  26.284  26.287  1.00  0.00    -0.375 OA
BRANCH  12  13
ATOM     13  C   UNL A   1      30.892  27.191  25.482  1.00  0.00     0.118 C 
ATOM     14  C   UNL A   1      29.799  27.534  23.126  1.00  0.00    -0.009 C 
ATOM     15  C   UNL A   1      30.668  28.798  23.039  1.00  0.00     0.004 C 
ATOM     16  C   UNL A   1      30.334  26.553  24.188  1.00  0.00     0.035 C 
ATOM     17  C   UNL A   1      30.814  29.478  24.392  1.00  0.00     0.003 C 
ATOM     18  C   UNL A   1      31.563  28.558  25.338  1.00  0.00     0.032 C 
BRANCH  14  19
ATOM     19  C   UNL A   1      28.300  27.809  23.348  1.00  0.00     0.000 C 
ATOM     20  C   UNL A   1      27.786  29.043  22.620  1.00  0.00     0.004 C 
ENDBRANCH  14  19
ENDBRANCH  12  13
ENDBRANCH   8  12
BRANCH   7  21
ATOM     21  N   UNL A   1      33.251  22.580  24.508  1.00  0.00    -0.332 N 
ATOM     22  H   UNL A   1      34.206  22.535  24.151  1.00  0.00     0.347 HD
ATOM     23  H   UNL A   1      32.644  23.317  24.147  1.00  0.00     0.347 HD
BRANCH  21  24
ATOM     24  C   UNL A   1      32.585  21.364  24.076  1.00  0.00     0.176 C 
ATOM     25  C   UNL A   1      32.130  21.511  22.621  1.00  0.00     0.075 C 
ATOM     26  C   UNL A   1      33.266  20.016  24.303  1.00  0.00     0.075 C 
ENDBRANCH  21  24
ENDBRANCH   7  21
ENDBRANCH   4   7
ENDBRANCH   2   3
ENDBRANCH   1   2
BRANCH   1  27
ATOM     27  C   UNL A   1      38.767  23.453  26.454  1.00  0.00     0.118 C 
BRANCH  27  28
ATOM     28  N   UNL A   1      40.211  23.497  26.338  1.00  0.00    -0.352 N 
ATOM     29  C   UNL A   1      41.085  24.518  26.619  1.00  0.00     0.251 C 
ATOM     30  H   UNL A   1      40.628  22.670  26.007  1.00  0.00     0.163 HD
ATOM     31  O   UNL A   1      42.194  24.495  26.087  1.00  0.00    -0.269 OA
BRANCH  29  32
ATOM     32  C   UNL A   1      40.747  25.631  27.547  1.00  0.00     0.039 A 
ATOM     33  C   UNL A   1      41.557  26.775  27.531  1.00  0.00     0.014 A 
ATOM     34  C   UNL A   1      39.767  25.507  28.537  1.00  0.00     0.014 A 
ATOM     35  C   UNL A   1      41.397  27.775  28.500  1.00  0.00     0.010 A 
ATOM     36  C   UNL A   1      39.572  26.532  29.473  1.00  0.00     0.010 A 
ATOM     37  C   UNL A   1      40.408  27.661  29.489  1.00  0.00    -0.014 A 
BRANCH  37  38
ATOM     38  C   UNL A   1      40.297  28.667  30.584  1.00  0.00     0.031 A 
ATOM     39  C   UNL A   1      41.180  28.560  31.804  1.00  0.00     0.074 A 
ATOM     40  C   UNL A   1      39.395  29.666  30.507  1.00  0.00     0.049 A 
ATOM     41  N   UNL A   1      41.194  29.296  32.888  1.00  0.00    -0.248 NA
ATOM     42  C   UNL A   1      42.164  27.466  31.815  1.00  0.00     0.031 C 
ATOM     43  C   UNL A   1      38.464  29.879  29.399  1.00  0.00     0.029 A 
ATOM     44  N   UNL A   1      39.106  30.685  31.383  1.00  0.00    -0.354 N 
ATOM     45  C   UNL A   1      42.165  28.741  33.716  1.00  0.00     0.074 A 
ATOM     46  C   UNL A   1      42.694  27.585  33.024  1.00  0.00     0.031 C 
ATOM     47  C   UNL A   1      37.715  30.965  29.657  1.00  0.00     0.029 A 
ATOM     48  C   UNL A   1      38.090  31.509  30.960  1.00  0.00     0.049 A 
ATOM     49  H   UNL A   1      39.583  30.813  32.235  1.00  0.00     0.167 HD
ATOM     50  C   UNL A   1      42.591  29.162  34.933  1.00  0.00     0.037 A 
ATOM     51  C   UNL A   1      37.518  32.575  31.554  1.00  0.00     0.037 A 
ATOM     52  C   UNL A   1      42.097  30.336  35.605  1.00  0.00     0.049 A 
ATOM     53  C   UNL A   1      38.020  33.038  32.895  1.00  0.00     0.074 A 
ATOM     54  C   UNL A   1      42.510  30.875  36.812  1.00  0.00     0.029 A 
ATOM     55  N   UNL A   1      41.087  31.157  35.127  1.00  0.00    -0.354 N 
ATOM     56  N   UNL A   1      38.968  32.524  33.642  1.00  0.00    -0.248 NA
ATOM     57  C   UNL A   1      37.380  34.229  33.472  1.00  0.00     0.031 C 
ATOM     58  C   UNL A   1      41.726  32.004  37.078  1.00  0.00     0.029 A 
ATOM     59  C   UNL A   1      40.853  32.190  36.020  1.00  0.00     0.049 A 
ATOM     60  H   UNL A   1      40.606  31.025  34.277  1.00  0.00     0.167 HD
ATOM     61  C   UNL A   1      39.053  33.342  34.764  1.00  0.00     0.074 A 
ATOM     62  C   UNL A   1      38.069  34.390  34.595  1.00  0.00     0.031 C 
ATOM     63  C   UNL A   1      39.875  33.234  35.837  1.00  0.00     0.037 A 
BRANCH  50  64
ATOM     64  C   UNL A   1      43.651  28.345  35.621  1.00  0.00     0.058 A 
ATOM     65  C   UNL A   1      45.019  28.562  35.389  1.00  0.00     0.135 A 
ATOM     66  C   UNL A   1      43.296  27.351  36.549  1.00  0.00     0.135 A 
ATOM     67  F   UNL A   1      45.414  29.492  34.503  1.00  0.00    -0.206 F 
ATOM     68  C   UNL A   1      45.995  27.802  36.023  1.00  0.00     0.059 A 
ATOM     69  C   UNL A   1      44.257  26.595  37.215  1.00  0.00     0.059 A 
ATOM     70  F   UNL A   1      42.004  27.105  36.813  1.00  0.00    -0.206 F 
ATOM     71  C   UNL A   1      45.605  26.817  36.931  1.00  0.00     0.060 A 
BRANCH  71  72
ATOM     72  S   UNL A   1      46.879  25.828  37.745  1.00  0.00     0.124 S 
ATOM     73  O   UNL A   1      46.123  24.631  38.114  1.00  0.00    -0.237 OA
ATOM     74  O   UNL A   1      47.863  25.645  36.677  1.00  0.00    -0.237 OA
ATOM     75  O   UNL A   1      47.308  26.665  38.850  1.00  0.00    -0.744 OA
ENDBRANCH  71  72
ENDBRANCH  50  64
BRANCH  51  76
ATOM     76  C   UNL A   1      36.412  33.295  30.869  1.00  0.00     0.058 A 
ATOM     77  C   UNL A   1      35.090  33.190  31.324  1.00  0.00     0.135 A 
ATOM     78  C   UNL A   1      36.658  34.119  29.758  1.00  0.00     0.135 A 
ATOM     79  F   UNL A   1      34.805  32.407  32.376  1.00  0.00    -0.206 F 
ATOM     80  C   UNL A   1      34.048  33.868  30.702  1.00  0.00     0.059 A 
ATOM     81  C   UNL A   1      35.636  34.825  29.132  1.00  0.00     0.059 A 
ATOM     82  F   UNL A   1      37.908  34.262  29.292  1.00  0.00    -0.206 F 
ATOM     83  C   UNL A   1      34.332  34.688  29.607  1.00  0.00     0.060 A 
BRANCH  83  84
ATOM     84  S   UNL A   1      32.984  35.619  28.848  1.00  0.00     0.124 S 
ATOM     85  O   UNL A   1      32.333  34.591  28.044  1.00  0.00    -0.237 OA
ATOM     86  O   UNL A   1      32.238  36.088  30.011  1.00  0.00    -0.237 OA
ATOM     87  O   UNL A   1      33.680  36.661  28.098  1.00  0.00    -0.744 OA
ENDBRANCH  83  84
ENDBRANCH  51  76
BRANCH  63  88
ATOM     88  C   UNL A   1      39.772  34.290  36.901  1.00  0.00     0.058 A 
ATOM     89  C   UNL A   1      39.009  34.093  38.062  1.00  0.00     0.135 A 
ATOM     90  C   UNL A   1      40.488  35.492  36.782  1.00  0.00     0.135 A 
ATOM     91  F   UNL A   1      38.300  32.964  38.221  1.00  0.00    -0.206 F 
ATOM     92  C   UNL A   1      38.947  35.058  39.062  1.00  0.00     0.059 A 
ATOM     93  C   UNL A   1      40.458  36.462  37.779  1.00  0.00     0.059 A 
ATOM     94  F   UNL A   1      41.240  35.725  35.695  1.00  0.00    -0.206 F 
ATOM     95  C   UNL A   1      39.675  36.240  38.912  1.00  0.00     0.060 A 
BRANCH  95  96
ATOM     96  S   UNL A   1      39.616  37.471  40.232  1.00  0.00     0.124 S 
ATOM     97  O   UNL A   1      41.029  37.790  40.399  1.00  0.00    -0.237 OA
ATOM     98  O   UNL A   1      38.794  38.525  39.643  1.00  0.00    -0.237 OA
ATOM     99  O   UNL A   1      38.998  36.750  41.341  1.00  0.00    -0.744 OA
ENDBRANCH  95  96
ENDBRANCH  63  88
ENDBRANCH  37  38
ENDBRANCH  29  32
ENDBRANCH  27  28
ENDBRANCH   1  27
TORSDOF 18
ENDMDL
MODEL 2
REMARK VINA RESULT:     -11.8      6.642     12.246
REMARK SMILES CC[C@H]1CCC[C@H](O[C@@H]2CC[C@]([NH2+]C(C)C)(C(=O)NCCCNC(=O)c3ccc(-c4c5nc(c(-c6c(F)cc(S(=O)(=O)[O-])cc6F)c6ccc([nH]6)c(-c6c(F)cc(S(=O)(=O)[O-])cc6F)c6nc(c(-c7c(F)cc(S(=O)(=O)[O-])cc7F)c7ccc4[nH]7)C=C6)C=C5)cc3)C2)C1
REMARK SMILES IDX 21 1 20 2 19 3 17 4 18 5 12 7 9 8 10 9 92 10 11 11 8 12 7 13
REMARK SMILES IDX 3 14 4 15 93 16 5 17 6 18 2 19 1 20 13 21 14 24 15 25 16 26
REMARK SMILES IDX 22 27 23 28 24 29 25 31 26 32 27 33 91 34 28 35 90 36 29 37
REMARK SMILES IDX 30 38 31 39 84 40 32 41 89 42 83 43 85 44 33 45 88 46 82 47
REMARK SMILES IDX 81 48 34 50 68 51 47 52 67 53 48 54 51 55 66 56 86 57 49 58
REMARK SMILES IDX 50 59 65 61 87 62 52 63 35 64 36 65 45 66 37 67 38 68 44 69
REMARK SMILES IDX 46 70 39 71 40 72 41 73 42 74 43 75 69 76 70 77 79 78 71 79
REMARK SMILES IDX 72 80 78 81 80 82 73 83 74 84 75 85 76 86 77 87 53 88 54 89
REMARK SMILES IDX 63 90 55 91 56 92 62 93 64 94 57 95 58 96 59 97 60 98 61 99
REMARK H PARENT 19 6 13 22 13 23 23 30 85 49 51 60
REMARK Flexibility Score: inf
ROOT
ATOM      1  C   UNL A   1      33.996  30.177  27.135  1.00  0.00     0.042 C 
ENDROOT
BRANCH   1   2
ATOM      2  C   UNL A   1      33.390  29.067  26.243  1.00  0.00     0.118 C 
BRANCH   2   3
ATOM      3  N   UNL A   1      33.933  29.030  24.894  1.00  0.00    -0.351 N 
ATOM      4  C   UNL A   1      33.783  28.286  23.775  1.00  0.00     0.281 C 
ATOM      5  O   UNL A   1      34.492  28.718  22.847  1.00  0.00    -0.268 OA
ATOM      6  H   UNL A   1      34.594  29.746  24.758  1.00  0.00     0.163 HD
BRANCH   4   7
ATOM      7  C   UNL A   1      32.810  27.084  23.500  1.00  0.00     0.178 C 
ATOM      8  C   UNL A   1      32.878  24.630  23.279  1.00  0.00     0.125 C 
ATOM      9  C   UNL A   1      32.637  25.193  21.875  1.00  0.00     0.039 C 
ATOM     10  C   UNL A   1      33.470  25.796  24.052  1.00  0.00     0.111 C 
ATOM     11  C   UNL A   1      32.792  26.728  21.991  1.00  0.00     0.082 C 
BRANCH   8  12
ATOM     12  O   UNL A   1      33.526  23.362  23.345  1.00  0.00    -0.375 OA
BRANCH  12  13
ATOM     13  C   UNL A   1      34.582  23.066  24.269  1.00  0.00     0.118 C 
ATOM     14  C   UNL A   1      37.163  22.667  24.485  1.00  0.00    -0.009 C 
ATOM     15  C   UNL A   1      36.781  21.304  25.081  1.00  0.00     0.004 C 
ATOM     16  C   UNL A   1      35.997  23.278  23.682  1.00  0.00     0.035 C 
ATOM     17  C   UNL A   1      35.516  21.387  25.922  1.00  0.00     0.003 C 
ATOM     18  C   UNL A   1      34.345  21.762  25.032  1.00  0.00     0.032 C 
BRANCH  14  19
ATOM     19  C   UNL A   1      37.701  23.679  25.513  1.00  0.00     0.000 C 
ATOM     20  C   UNL A   1      38.794  23.120  26.414  1.00  0.00     0.004 C 
ENDBRANCH  14  19
ENDBRANCH  12  13
ENDBRANCH   8  12
BRANCH   7  21
ATOM     21  N   UNL A   1      31.408  27.177  23.964  1.00  0.00    -0.332 N 
ATOM     22  H   UNL A   1      31.419  27.733  24.820  1.00  0.00     0.347 HD
ATOM     23  H   UNL A   1      31.125  26.200  24.036  1.00  0.00     0.347 HD
BRANCH  21  24
ATOM     24  C   UNL A   1      30.387  27.753  23.105  1.00  0.00     0.176 C 
ATOM     25  C   UNL A   1      29.007  27.244  23.528  1.00  0.00     0.075 C 
ATOM     26  C   UNL A   1      30.367  29.263  22.875  1.00  0.00     0.075 C 
ENDBRANCH  21  24
ENDBRANCH   7  21
ENDBRANCH   4   7
ENDBRANCH   2   3
ENDBRANCH   1   2
BRANCH   1  27
ATOM     27  C   UNL A   1      35.333  29.861  27.810  1.00  0.00     0.118 C 
BRANCH  27  28
ATOM     28  N   UNL A   1      35.318  30.264  29.202  1.00  0.00    -0.352 N 
ATOM     29  C   UNL A   1      36.294  30.147  30.162  1.00  0.00     0.251 C 
ATOM     30  H   UNL A   1      34.482  30.685  29.506  1.00  0.00     0.163 HD
ATOM     31  O   UNL A   1      35.951  30.178  31.343  1.00  0.00    -0.269 OA
BRANCH  29  32
ATOM     32  C   UNL A   1      37.736  30.002  29.827  1.00  0.00     0.039 A 
ATOM     33  C   UNL A   1      38.100  29.960  28.474  1.00  0.00     0.014 A 
ATOM     34  C   UNL A   1      38.707  29.739  30.799  1.00  0.00     0.014 A 
ATOM     35  C   UNL A   1      39.413  29.647  28.099  1.00  0.00     0.010 A 
ATOM     36  C   UNL A   1      40.032  29.479  30.425  1.00  0.00     0.010 A 
ATOM     37  C   UNL A   1      40.394  29.394  29.071  1.00  0.00    -0.014 A 
BRANCH  37  38
ATOM     38  C   UNL A   1      41.767  28.960  28.682  1.00  0.00     0.031 A 
ATOM     39  C   UNL A   1      42.900  29.957  28.665  1.00  0.00     0.074 A 
ATOM     40  C   UNL A   1      42.004  27.682  28.321  1.00  0.00     0.049 A 
ATOM     41  N   UNL A   1      44.147  29.792  28.297  1.00  0.00    -0.248 NA
ATOM     42  C   UNL A   1      42.583  31.327  29.097  1.00  0.00     0.031 C 
ATOM     43  C   UNL A   1      41.001  26.619  28.272  1.00  0.00     0.029 A 
ATOM     44  N   UNL A   1      43.163  27.064  27.918  1.00  0.00    -0.354 N 
ATOM     45  C   UNL A   1      44.754  31.037  28.430  1.00  0.00     0.074 A 
ATOM     46  C   UNL A   1      43.730  31.956  28.878  1.00  0.00     0.031 C 
ATOM     47  C   UNL A   1      41.589  25.479  27.871  1.00  0.00     0.029 A 
ATOM     48  C   UNL A   1      43.003  25.735  27.607  1.00  0.00     0.049 A 
ATOM     49  H   UNL A   1      44.029  27.531  27.858  1.00  0.00     0.167 HD
ATOM     50  C   UNL A   1      46.048  31.383  28.217  1.00  0.00     0.037 A 
ATOM     51  C   UNL A   1      43.889  24.825  27.154  1.00  0.00     0.037 A 
ATOM     52  C   UNL A   1      47.079  30.462  27.814  1.00  0.00     0.049 A 
ATOM     53  C   UNL A   1      45.325  25.225  26.943  1.00  0.00     0.074 A 
ATOM     54  C   UNL A   1      48.429  30.708  27.631  1.00  0.00     0.029 A 
ATOM     55  N   UNL A   1      46.878  29.119  27.537  1.00  0.00    -0.354 N 
ATOM     56  N   UNL A   1      45.886  26.397  27.115  1.00  0.00    -0.248 NA
ATOM     57  C   UNL A   1      46.248  24.178  26.483  1.00  0.00     0.031 C 
ATOM     58  C   UNL A   1      49.039  29.519  27.212  1.00  0.00     0.029 A 
ATOM     59  C   UNL A   1      48.075  28.525  27.171  1.00  0.00     0.049 A 
ATOM     60  H   UNL A   1      46.011  28.654  27.592  1.00  0.00     0.167 HD
ATOM     61  C   UNL A   1      47.232  26.223  26.808  1.00  0.00     0.074 A 
ATOM     62  C   UNL A   1      47.403  24.831  26.448  1.00  0.00     0.031 C 
ATOM     63  C   UNL A   1      48.235  27.135  26.824  1.00  0.00     0.037 A 
BRANCH  50  64
ATOM     64  C   UNL A   1      46.425  32.826  28.418  1.00  0.00     0.058 A 
ATOM     65  C   UNL A   1      46.356  33.760  27.372  1.00  0.00     0.135 A 
ATOM     66  C   UNL A   1      46.834  33.288  29.680  1.00  0.00     0.135 A 
ATOM     67  F   UNL A   1      45.982  33.370  26.142  1.00  0.00    -0.206 F 
ATOM     68  C   UNL A   1      46.710  35.092  27.559  1.00  0.00     0.059 A 
ATOM     69  C   UNL A   1      47.169  34.622  29.897  1.00  0.00     0.059 A 
ATOM     70  F   UNL A   1      46.914  32.440  30.716  1.00  0.00    -0.206 F 
ATOM     71  C   UNL A   1      47.121  35.513  28.825  1.00  0.00     0.060 A 
BRANCH  71  72
ATOM     72  S   UNL A   1      47.587  37.242  29.059  1.00  0.00     0.124 S 
ATOM     73  O   UNL A   1      46.641  37.657  30.096  1.00  0.00    -0.237 OA
ATOM     74  O   UNL A   1      48.982  37.135  29.489  1.00  0.00    -0.237 OA
ATOM     75  O   UNL A   1      47.381  37.833  27.750  1.00  0.00    -0.744 OA
ENDBRANCH  71  72
ENDBRANCH  50  64
BRANCH  51  76
ATOM     76  C   UNL A   1      43.443  23.432  26.887  1.00  0.00     0.058 A 
ATOM     77  C   UNL A   1      43.276  22.966  25.574  1.00  0.00     0.135 A 
ATOM     78  C   UNL A   1      43.196  22.533  27.936  1.00  0.00     0.135 A 
ATOM     79  F   UNL A   1      43.492  23.792  24.539  1.00  0.00    -0.206 F 
ATOM     80  C   UNL A   1      42.873  21.662  25.309  1.00  0.00     0.059 A 
ATOM     81  C   UNL A   1      42.813  21.218  27.696  1.00  0.00     0.059 A 
ATOM     82  F   UNL A   1      43.353  22.927  29.209  1.00  0.00    -0.206 F 
ATOM     83  C   UNL A   1      42.647  20.792  26.378  1.00  0.00     0.060 A 
BRANCH  83  84
ATOM     84  S   UNL A   1      42.191  19.082  26.024  1.00  0.00     0.124 S 
ATOM     85  O   UNL A   1      40.745  19.188  25.873  1.00  0.00    -0.237 OA
ATOM     86  O   UNL A   1      42.942  18.807  24.803  1.00  0.00    -0.237 OA
ATOM     87  O   UNL A   1      42.653  18.361  27.207  1.00  0.00    -0.744 OA
ENDBRANCH  83  84
ENDBRANCH  51  76
BRANCH  63  88
ATOM     88  C   UNL A   1      49.616  26.656  26.472  1.00  0.00     0.058 A 
ATOM     89  C   UNL A   1      50.424  25.991  27.407  1.00  0.00     0.135 A 
ATOM     90  C   UNL A   1      50.114  26.816  25.170  1.00  0.00     0.135 A 
ATOM     91  F   UNL A   1      49.996  25.818  28.668  1.00  0.00    -0.206 F 
ATOM     92  C   UNL A   1      51.686  25.515  27.067  1.00  0.00     0.059 A 
ATOM     93  C   UNL A   1      51.365  26.330  24.802  1.00  0.00     0.059 A 
ATOM     94  F   UNL A   1      49.377  27.438  24.236  1.00  0.00    -0.206 F 
ATOM     95  C   UNL A   1      52.149  25.690  25.761  1.00  0.00     0.060 A 
BRANCH  95  96
ATOM     96  S   UNL A   1      53.773  25.037  25.320  1.00  0.00     0.124 S 
ATOM     97  O   UNL A   1      53.519  23.601  25.304  1.00  0.00    -0.237 OA
ATOM     98  O   UNL A   1      54.016  25.651  24.017  1.00  0.00    -0.237 OA
ATOM     99  O   UNL A   1      54.634  25.512  26.398  1.00  0.00    -0.744 OA
ENDBRANCH  95  96
ENDBRANCH  63  88
ENDBRANCH  37  38
ENDBRANCH  29  32
ENDBRANCH  27  28
ENDBRANCH   1  27
TORSDOF 18
ENDMDL
MODEL 3
REMARK VINA RESULT:     -11.7      6.669     12.243
REMARK SMILES CC[C@H]1CCC[C@H](O[C@@H]2CC[C@]([NH2+]C(C)C)(C(=O)NCCCNC(=O)c3ccc(-c4c5nc(c(-c6c(F)cc(S(=O)(=O)[O-])cc6F)c6ccc([nH]6)c(-c6c(F)cc(S(=O)(=O)[O-])cc6F)c6nc(c(-c7c(F)cc(S(=O)(=O)[O-])cc7F)c7ccc4[nH]7)C=C6)C=C5)cc3)C2)C1
REMARK SMILES IDX 21 1 20 2 19 3 17 4 18 5 12 7 9 8 10 9 92 10 11 11 8 12 7 13
REMARK SMILES IDX 3 14 4 15 93 16 5 17 6 18 2 19 1 20 13 21 14 24 15 25 16 26
REMARK SMILES IDX 22 27 23 28 24 29 25 31 26 32 27 33 91 34 28 35 90 36 29 37
REMARK SMILES IDX 30 38 31 39 84 40 32 41 89 42 83 43 85 44 33 45 88 46 82 47
REMARK SMILES IDX 81 48 34 50 68 51 47 52 67 53 48 54 51 55 66 56 86 57 49 58
REMARK SMILES IDX 50 59 65 61 87 62 52 63 35 64 36 65 45 66 37 67 38 68 44 69
REMARK SMILES IDX 46 70 39 71 40 72 41 73 42 74 43 75 69 76 70 77 79 78 71 79
REMARK SMILES IDX 72 80 78 81 80 82 73 83 74 84 75 85 76 86 77 87 53 88 54 89
REMARK SMILES IDX 63 90 55 91 56 92 62 93 64 94 57 95 58 96 59 97 60 98 61 99
REMARK H PARENT 19 6 13 22 13 23 23 30 85 49 51 60
REMARK Flexibility Score: inf
ROOT
ATOM      1  C   UNL A   1      34.714  29.024  27.198  1.00  0.00     0.042 C 
ENDROOT
BRANCH   1   2
ATOM      2  C   UNL A   1      33.513  29.175  26.233  1.00  0.00     0.118 C 
BRANCH   2   3
ATOM      3  N   UNL A   1      33.886  29.226  24.828  1.00  0.00    -0.351 N 
ATOM      4  C   UNL A   1      33.775  28.440  23.734  1.00  0.00     0.281 C 
ATOM      5  O   UNL A   1      34.254  28.996  22.728  1.00  0.00    -0.268 OA
ATOM      6  H   UNL A   1      34.347  30.069  24.614  1.00  0.00     0.163 HD
BRANCH   4   7
ATOM      7  C   UNL A   1      33.073  27.044  23.577  1.00  0.00     0.178 C 
ATOM      8  C   UNL A   1      33.666  24.669  23.281  1.00  0.00     0.125 C 
ATOM      9  C   UNL A   1      33.089  25.151  21.945  1.00  0.00     0.039 C 
ATOM     10  C   UNL A   1      34.088  25.946  23.987  1.00  0.00     0.111 C 
ATOM     11  C   UNL A   1      32.906  26.680  22.078  1.00  0.00     0.082 C 
BRANCH   8  12
ATOM     12  O   UNL A   1      34.589  23.586  23.213  1.00  0.00    -0.375 OA
BRANCH  12  13
ATOM     13  C   UNL A   1      34.510  22.431  24.058  1.00  0.00     0.118 C 
ATOM     14  C   UNL A   1      32.876  20.652  25.074  1.00  0.00    -0.009 C 
ATOM     15  C   UNL A   1      33.386  21.138  26.439  1.00  0.00     0.004 C 
ATOM     16  C   UNL A   1      33.158  21.685  23.965  1.00  0.00     0.035 C 
ATOM     17  C   UNL A   1      34.860  21.508  26.393  1.00  0.00     0.003 C 
ATOM     18  C   UNL A   1      35.052  22.694  25.464  1.00  0.00     0.032 C 
BRANCH  14  19
ATOM     19  C   UNL A   1      33.395  19.261  24.663  1.00  0.00     0.000 C 
ATOM     20  C   UNL A   1      32.785  18.116  25.459  1.00  0.00     0.004 C 
ENDBRANCH  14  19
ENDBRANCH  12  13
ENDBRANCH   8  12
BRANCH   7  21
ATOM     21  N   UNL A   1      31.776  26.815  24.250  1.00  0.00    -0.332 N 
ATOM     22  H   UNL A   1      31.775  27.396  25.089  1.00  0.00     0.347 HD
ATOM     23  H   UNL A   1      31.756  25.803  24.374  1.00  0.00     0.347 HD
BRANCH  21  24
ATOM     24  C   UNL A   1      30.529  27.086  23.554  1.00  0.00     0.176 C 
ATOM     25  C   UNL A   1      29.475  26.051  23.958  1.00  0.00     0.075 C 
ATOM     26  C   UNL A   1      29.949  28.498  23.579  1.00  0.00     0.075 C 
ENDBRANCH  21  24
ENDBRANCH   7  21
ENDBRANCH   4   7
ENDBRANCH   2   3
ENDBRANCH   1   2
BRANCH   1  27
ATOM     27  C   UNL A   1      35.411  30.316  27.632  1.00  0.00     0.118 C 
BRANCH  27  28
ATOM     28  N   UNL A   1      35.361  30.473  29.072  1.00  0.00    -0.352 N 
ATOM     29  C   UNL A   1      36.293  30.144  30.026  1.00  0.00     0.251 C 
ATOM     30  H   UNL A   1      34.533  30.877  29.419  1.00  0.00     0.163 HD
ATOM     31  O   UNL A   1      35.907  29.989  31.183  1.00  0.00    -0.269 OA
BRANCH  29  32
ATOM     32  C   UNL A   1      37.739  29.987  29.713  1.00  0.00     0.039 A 
ATOM     33  C   UNL A   1      38.128  29.976  28.367  1.00  0.00     0.014 A 
ATOM     34  C   UNL A   1      38.687  29.685  30.696  1.00  0.00     0.014 A 
ATOM     35  C   UNL A   1      39.444  29.654  28.008  1.00  0.00     0.010 A 
ATOM     36  C   UNL A   1      40.015  29.416  30.340  1.00  0.00     0.010 A 
ATOM     37  C   UNL A   1      40.402  29.361  28.991  1.00  0.00    -0.014 A 
BRANCH  37  38
ATOM     38  C   UNL A   1      41.776  28.917  28.616  1.00  0.00     0.031 A 
ATOM     39  C   UNL A   1      42.911  29.912  28.584  1.00  0.00     0.074 A 
ATOM     40  C   UNL A   1      42.013  27.633  28.282  1.00  0.00     0.049 A 
ATOM     41  N   UNL A   1      44.159  29.739  28.226  1.00  0.00    -0.248 NA
ATOM     42  C   UNL A   1      42.594  31.291  28.989  1.00  0.00     0.031 C 
ATOM     43  C   UNL A   1      41.009  26.570  28.248  1.00  0.00     0.029 A 
ATOM     44  N   UNL A   1      43.173  27.005  27.895  1.00  0.00    -0.354 N 
ATOM     45  C   UNL A   1      44.767  30.985  28.337  1.00  0.00     0.074 A 
ATOM     46  C   UNL A   1      43.742  31.914  28.763  1.00  0.00     0.031 C 
ATOM     47  C   UNL A   1      41.597  25.422  27.872  1.00  0.00     0.029 A 
ATOM     48  C   UNL A   1      43.012  25.670  27.610  1.00  0.00     0.049 A 
ATOM     49  H   UNL A   1      44.039  27.470  27.830  1.00  0.00     0.167 HD
ATOM     50  C   UNL A   1      46.062  31.325  28.123  1.00  0.00     0.037 A 
ATOM     51  C   UNL A   1      43.898  24.751  27.177  1.00  0.00     0.037 A 
ATOM     52  C   UNL A   1      47.094  30.395  27.742  1.00  0.00     0.049 A 
ATOM     53  C   UNL A   1      45.336  25.145  26.965  1.00  0.00     0.074 A 
ATOM     54  C   UNL A   1      48.445  30.636  27.559  1.00  0.00     0.029 A 
ATOM     55  N   UNL A   1      46.892  29.047  27.490  1.00  0.00    -0.354 N 
ATOM     56  N   UNL A   1      45.898  26.320  27.117  1.00  0.00    -0.248 NA
ATOM     57  C   UNL A   1      46.259  24.087  26.529  1.00  0.00     0.031 C 
ATOM     58  C   UNL A   1      49.054  29.438  27.166  1.00  0.00     0.029 A 
ATOM     59  C   UNL A   1      48.090  28.445  27.141  1.00  0.00     0.049 A 
ATOM     60  H   UNL A   1      46.024  28.585  27.550  1.00  0.00     0.167 HD
ATOM     61  C   UNL A   1      47.244  26.137  26.818  1.00  0.00     0.074 A 
ATOM     62  C   UNL A   1      47.415  24.738  26.487  1.00  0.00     0.031 C 
ATOM     63  C   UNL A   1      48.249  27.048  26.821  1.00  0.00     0.037 A 
BRANCH  50  64
ATOM     64  C   UNL A   1      46.441  32.771  28.297  1.00  0.00     0.058 A 
ATOM     65  C   UNL A   1      46.925  33.266  29.519  1.00  0.00     0.135 A 
ATOM     66  C   UNL A   1      46.349  33.669  27.220  1.00  0.00     0.135 A 
ATOM     67  F   UNL A   1      47.023  32.455  30.585  1.00  0.00    -0.206 F 
ATOM     68  C   UNL A   1      47.269  34.604  29.678  1.00  0.00     0.059 A 
ATOM     69  C   UNL A   1      46.713  35.007  27.349  1.00  0.00     0.059 A 
ATOM     70  F   UNL A   1      45.898  33.249  26.028  1.00  0.00    -0.206 F 
ATOM     71  C   UNL A   1      47.155  35.469  28.588  1.00  0.00     0.060 A 
BRANCH  71  72
ATOM     72  S   UNL A   1      47.597  37.206  28.805  1.00  0.00     0.124 S 
ATOM     73  O   UNL A   1      46.985  37.809  27.620  1.00  0.00    -0.237 OA
ATOM     74  O   UNL A   1      46.956  37.536  30.079  1.00  0.00    -0.237 OA
ATOM     75  O   UNL A   1      49.048  37.191  28.822  1.00  0.00    -0.744 OA
ENDBRANCH  71  72
ENDBRANCH  50  64
BRANCH  51  76
ATOM     76  C   UNL A   1      43.452  23.353  26.935  1.00  0.00     0.058 A 
ATOM     77  C   UNL A   1      43.290  22.862  25.632  1.00  0.00     0.135 A 
ATOM     78  C   UNL A   1      43.198  22.476  28.001  1.00  0.00     0.135 A 
ATOM     79  F   UNL A   1      43.512  23.667  24.581  1.00  0.00    -0.206 F 
ATOM     80  C   UNL A   1      42.886  21.554  25.390  1.00  0.00     0.059 A 
ATOM     81  C   UNL A   1      42.814  21.156  27.785  1.00  0.00     0.059 A 
ATOM     82  F   UNL A   1      43.350  22.894  29.267  1.00  0.00    -0.206 F 
ATOM     83  C   UNL A   1      42.654  20.706  26.474  1.00  0.00     0.060 A 
BRANCH  83  84
ATOM     84  S   UNL A   1      42.197  18.989  26.152  1.00  0.00     0.124 S 
ATOM     85  O   UNL A   1      42.465  18.366  27.443  1.00  0.00    -0.237 OA
ATOM     86  O   UNL A   1      40.791  19.108  25.780  1.00  0.00    -0.237 OA
ATOM     87  O   UNL A   1      43.093  18.603  25.065  1.00  0.00    -0.744 OA
ENDBRANCH  83  84
ENDBRANCH  51  76
BRANCH  63  88
ATOM     88  C   UNL A   1      49.631  26.560  26.485  1.00  0.00     0.058 A 
ATOM     89  C   UNL A   1      50.486  26.040  27.467  1.00  0.00     0.135 A 
ATOM     90  C   UNL A   1      50.082  26.564  25.155  1.00  0.00     0.135 A 
ATOM     91  F   UNL A   1      50.104  26.019  28.754  1.00  0.00    -0.206 F 
ATOM     92  C   UNL A   1      51.749  25.554  27.146  1.00  0.00     0.059 A 
ATOM     93  C   UNL A   1      51.333  26.064  24.808  1.00  0.00     0.059 A 
ATOM     94  F   UNL A   1      49.298  27.044  24.177  1.00  0.00    -0.206 F 
ATOM     95  C   UNL A   1      52.165  25.570  25.813  1.00  0.00     0.060 A 
BRANCH  95  96
ATOM     96  S   UNL A   1      53.792  24.905  25.401  1.00  0.00     0.124 S 
ATOM     97  O   UNL A   1      54.183  25.756  24.283  1.00  0.00    -0.237 OA
ATOM     98  O   UNL A   1      54.538  25.105  26.640  1.00  0.00    -0.237 OA
ATOM     99  O   UNL A   1      53.513  23.512  25.063  1.00  0.00    -0.744 OA
ENDBRANCH  95  96
ENDBRANCH  63  88
ENDBRANCH  37  38
ENDBRANCH  29  32
ENDBRANCH  27  28
ENDBRANCH   1  27
TORSDOF 18
ENDMDL
