MODEL 1
REMARK VINA RESULT:     -11.1      0.000      0.000
REMARK SMILES COc1ccc2c(C[NH2+]Cc3cccs3)c(C(=O)NCCCNC(=O)c3ccc(-c4c5nc(c(-c6c(F)cc(S(=O)(=O)[O-])cc6F)c6ccc([nH]6)c(-c6c(F)cc(S(=O)(=O)[O-])cc6F)c6nc(c(-c7c(F)cc(S(=O)(=O)[O-])cc7F)c7ccc4[nH]7)C=C6)C=C5)cc3)[nH]c2c1
REMARK SMILES IDX 20 1 19 2 17 3 18 4 16 6 3 7 4 8 94 9 5 10 93 11 6 12 92 13
REMARK SMILES IDX 7 14 2 16 1 17 8 18 9 19 10 22 11 23 12 24 15 25 13 26 14 27
REMARK SMILES IDX 21 28 22 29 23 30 24 31 25 33 26 34 27 35 91 36 28 37 90 38
REMARK SMILES IDX 29 39 30 40 31 41 84 42 32 43 89 44 83 45 85 46 33 47 88 48
REMARK SMILES IDX 82 49 81 50 34 52 68 53 47 54 67 55 48 56 51 57 66 58 86 59
REMARK SMILES IDX 49 60 50 61 65 63 87 64 52 65 35 66 36 67 45 68 37 69 38 70
REMARK SMILES IDX 44 71 46 72 39 73 40 74 41 75 42 76 43 77 69 78 70 79 79 80
REMARK SMILES IDX 71 81 72 82 78 83 80 84 73 85 74 86 75 87 76 88 77 89 53 90
REMARK SMILES IDX 54 91 63 92 55 93 56 94 62 95 64 96 57 97 58 98 59 99 60 100
REMARK SMILES IDX 61 101
REMARK H PARENT 19 5 92 15 9 20 9 21 23 32 85 51 51 62
REMARK Flexibility Score: inf
ROOT
ATOM      1  C   UNL A   1      32.448  26.683  25.235  1.00  0.00     0.118 C 
ENDROOT
BRANCH   1   2
ATOM      2  N   UNL A   1      32.996  26.667  23.896  1.00  0.00    -0.351 N 
ATOM      3  C   UNL A   1      33.503  25.691  23.083  1.00  0.00     0.268 C 
ATOM      4  O   UNL A   1      34.012  26.110  22.042  1.00  0.00    -0.268 OA
ATOM      5  H   UNL A   1      33.008  27.557  23.476  1.00  0.00     0.163 HD
BRANCH   3   6
ATOM      6  C   UNL A   1      33.430  24.277  23.416  1.00  0.00     0.114 A 
ATOM      7  C   UNL A   1      32.684  19.725  23.812  1.00  0.00     0.120 A 
ATOM      8  C   UNL A   1      33.723  19.823  24.735  1.00  0.00     0.047 A 
ATOM      9  C   UNL A   1      32.234  20.848  23.113  1.00  0.00     0.073 A 
ATOM     10  C   UNL A   1      34.320  21.063  25.002  1.00  0.00     0.015 A 
ATOM     11  C   UNL A   1      32.832  22.079  23.409  1.00  0.00     0.050 A 
ATOM     12  C   UNL A   1      33.866  22.217  24.327  1.00  0.00     0.009 A 
ATOM     13  N   UNL A   1      32.552  23.337  22.932  1.00  0.00    -0.350 N 
ATOM     14  C   UNL A   1      34.236  23.603  24.343  1.00  0.00     0.045 A 
ATOM     15  H   UNL A   1      31.810  23.539  22.317  1.00  0.00     0.167 HD
BRANCH   7  16
ATOM     16  O   UNL A   1      32.097  18.529  23.489  1.00  0.00    -0.497 OA
ATOM     17  C   UNL A   1      33.052  17.546  23.093  1.00  0.00     0.278 C 
ENDBRANCH   7  16
BRANCH  14  18
ATOM     18  C   UNL A   1      35.314  24.207  25.192  1.00  0.00     0.300 C 
BRANCH  18  19
ATOM     19  N   UNL A   1      36.599  23.737  24.679  1.00  0.00    -0.338 N 
ATOM     20  H   UNL A   1      36.999  24.462  24.083  1.00  0.00     0.346 HD
ATOM     21  H   UNL A   1      36.432  22.877  24.156  1.00  0.00     0.346 HD
BRANCH  19  22
ATOM     22  C   UNL A   1      37.543  23.435  25.750  1.00  0.00     0.308 C 
BRANCH  22  23
ATOM     23  C   UNL A   1      38.181  22.070  25.658  1.00  0.00     0.059 A 
ATOM     24  C   UNL A   1      37.671  20.953  25.023  1.00  0.00     0.021 A 
ATOM     25  S   UNL A   1      39.675  21.709  26.428  1.00  0.00    -0.143 S 
ATOM     26  C   UNL A   1      38.547  19.832  25.099  1.00  0.00     0.012 A 
ATOM     27  C   UNL A   1      39.693  20.121  25.801  1.00  0.00     0.065 A 
ENDBRANCH  22  23
ENDBRANCH  19  22
ENDBRANCH  18  19
ENDBRANCH  14  18
ENDBRANCH   3   6
ENDBRANCH   1   2
BRANCH   1  28
ATOM     28  C   UNL A   1      33.441  27.315  26.209  1.00  0.00     0.042 C 
BRANCH  28  29
ATOM     29  C   UNL A   1      34.240  28.462  25.583  1.00  0.00     0.118 C 
BRANCH  29  30
ATOM     30  N   UNL A   1      33.838  29.757  26.121  1.00  0.00    -0.352 N 
ATOM     31  C   UNL A   1      34.293  30.437  27.220  1.00  0.00     0.251 C 
ATOM     32  H   UNL A   1      33.129  30.216  25.613  1.00  0.00     0.163 HD
ATOM     33  O   UNL A   1      33.638  31.377  27.662  1.00  0.00    -0.269 OA
BRANCH  31  34
ATOM     34  C   UNL A   1      35.561  30.045  27.870  1.00  0.00     0.039 A 
ATOM     35  C   UNL A   1      36.766  30.287  27.206  1.00  0.00     0.014 A 
ATOM     36  C   UNL A   1      35.560  29.401  29.110  1.00  0.00     0.014 A 
ATOM     37  C   UNL A   1      37.973  29.930  27.812  1.00  0.00     0.010 A 
ATOM     38  C   UNL A   1      36.765  29.121  29.747  1.00  0.00     0.010 A 
ATOM     39  C   UNL A   1      37.983  29.375  29.102  1.00  0.00    -0.014 A 
BRANCH  39  40
ATOM     40  C   UNL A   1      39.260  29.054  29.792  1.00  0.00     0.031 A 
ATOM     41  C   UNL A   1      39.707  29.869  30.975  1.00  0.00     0.074 A 
ATOM     42  C   UNL A   1      40.043  28.069  29.309  1.00  0.00     0.049 A 
ATOM     43  N   UNL A   1      40.816  29.784  31.664  1.00  0.00    -0.248 NA
ATOM     44  C   UNL A   1      38.802  30.937  31.430  1.00  0.00     0.031 C 
ATOM     45  C   UNL A   1      39.736  27.244  28.137  1.00  0.00     0.029 A 
ATOM     46  N   UNL A   1      41.260  27.601  29.734  1.00  0.00    -0.354 N 
ATOM     47  C   UNL A   1      40.749  30.791  32.619  1.00  0.00     0.074 A 
ATOM     48  C   UNL A   1      39.516  31.511  32.386  1.00  0.00     0.031 C 
ATOM     49  C   UNL A   1      40.726  26.356  27.953  1.00  0.00     0.029 A 
ATOM     50  C   UNL A   1      41.756  26.576  28.963  1.00  0.00     0.049 A 
ATOM     51  H   UNL A   1      41.733  27.964  30.517  1.00  0.00     0.167 HD
ATOM     52  C   UNL A   1      41.623  31.074  33.614  1.00  0.00     0.037 A 
ATOM     53  C   UNL A   1      42.917  25.896  29.053  1.00  0.00     0.037 A 
ATOM     54  C   UNL A   1      42.839  30.337  33.848  1.00  0.00     0.049 A 
ATOM     55  C   UNL A   1      43.875  26.235  30.161  1.00  0.00     0.074 A 
ATOM     56  C   UNL A   1      43.765  30.506  34.862  1.00  0.00     0.029 A 
ATOM     57  N   UNL A   1      43.300  29.295  33.056  1.00  0.00    -0.354 N 
ATOM     58  N   UNL A   1      43.765  27.148  31.098  1.00  0.00    -0.248 NA
ATOM     59  C   UNL A   1      45.114  25.448  30.232  1.00  0.00     0.031 C 
ATOM     60  C   UNL A   1      44.812  29.603  34.653  1.00  0.00     0.029 A 
ATOM     61  C   UNL A   1      44.509  28.827  33.545  1.00  0.00     0.049 A 
ATOM     62  H   UNL A   1      42.835  28.940  32.264  1.00  0.00     0.167 HD
ATOM     63  C   UNL A   1      44.903  27.024  31.886  1.00  0.00     0.074 A 
ATOM     64  C   UNL A   1      45.683  25.940  31.323  1.00  0.00     0.031 C 
ATOM     65  C   UNL A   1      45.271  27.742  32.976  1.00  0.00     0.037 A 
BRANCH  52  66
ATOM     66  C   UNL A   1      41.298  32.228  34.527  1.00  0.00     0.058 A 
ATOM     67  C   UNL A   1      41.816  33.514  34.306  1.00  0.00     0.135 A 
ATOM     68  C   UNL A   1      40.426  32.054  35.615  1.00  0.00     0.135 A 
ATOM     69  F   UNL A   1      42.667  33.735  33.290  1.00  0.00    -0.206 F 
ATOM     70  C   UNL A   1      41.507  34.579  35.146  1.00  0.00     0.059 A 
ATOM     71  C   UNL A   1      40.078  33.112  36.449  1.00  0.00     0.059 A 
ATOM     72  F   UNL A   1      39.900  30.846  35.875  1.00  0.00    -0.206 F 
ATOM     73  C   UNL A   1      40.635  34.368  36.215  1.00  0.00     0.060 A 
BRANCH  73  74
ATOM     74  S   UNL A   1      40.239  35.763  37.290  1.00  0.00     0.124 S 
ATOM     75  O   UNL A   1      41.542  36.056  37.879  1.00  0.00    -0.237 OA
ATOM     76  O   UNL A   1      39.736  36.753  36.343  1.00  0.00    -0.237 OA
ATOM     77  O   UNL A   1      39.246  35.215  38.208  1.00  0.00    -0.744 OA
ENDBRANCH  73  74
ENDBRANCH  52  66
BRANCH  53  78
ATOM     78  C   UNL A   1      43.223  24.816  28.076  1.00  0.00     0.058 A 
ATOM     79  C   UNL A   1      43.853  25.103  26.856  1.00  0.00     0.135 A 
ATOM     80  C   UNL A   1      42.907  23.476  28.347  1.00  0.00     0.135 A 
ATOM     81  F   UNL A   1      44.172  26.369  26.548  1.00  0.00    -0.206 F 
ATOM     82  C   UNL A   1      44.142  24.104  25.931  1.00  0.00     0.059 A 
ATOM     83  C   UNL A   1      43.211  22.455  27.452  1.00  0.00     0.059 A 
ATOM     84  F   UNL A   1      42.321  23.144  29.509  1.00  0.00    -0.206 F 
ATOM     85  C   UNL A   1      43.819  22.782  26.241  1.00  0.00     0.060 A 
BRANCH  85  86
ATOM     86  S   UNL A   1      44.240  21.488  25.053  1.00  0.00     0.124 S 
ATOM     87  O   UNL A   1      43.215  20.489  25.332  1.00  0.00    -0.237 OA
ATOM     88  O   UNL A   1      44.117  22.191  23.779  1.00  0.00    -0.237 OA
ATOM     89  O   UNL A   1      45.602  21.119  25.428  1.00  0.00    -0.744 OA
ENDBRANCH  85  86
ENDBRANCH  53  78
BRANCH  65  90
ATOM     90  C   UNL A   1      46.554  27.355  33.661  1.00  0.00     0.058 A 
ATOM     91  C   UNL A   1      47.768  28.000  33.379  1.00  0.00     0.135 A 
ATOM     92  C   UNL A   1      46.556  26.359  34.651  1.00  0.00     0.135 A 
ATOM     93  F   UNL A   1      47.823  28.955  32.438  1.00  0.00    -0.206 F 
ATOM     94  C   UNL A   1      48.944  27.653  34.035  1.00  0.00     0.059 A 
ATOM     95  C   UNL A   1      47.713  26.017  35.343  1.00  0.00     0.059 A 
ATOM     96  F   UNL A   1      45.419  25.717  34.968  1.00  0.00    -0.206 F 
ATOM     97  C   UNL A   1      48.906  26.662  35.018  1.00  0.00     0.060 A 
BRANCH  97  98
ATOM     98  S   UNL A   1      50.433  26.244  35.884  1.00  0.00     0.124 S 
ATOM     99  O   UNL A   1      49.959  25.276  36.867  1.00  0.00    -0.237 OA
ATOM    100  O   UNL A   1      51.263  25.704  34.811  1.00  0.00    -0.237 OA
ATOM    101  O   UNL A   1      50.878  27.524  36.428  1.00  0.00    -0.744 OA
ENDBRANCH  97  98
ENDBRANCH  65  90
ENDBRANCH  39  40
ENDBRANCH  31  34
ENDBRANCH  29  30
ENDBRANCH  28  29
ENDBRANCH   1  28
TORSDOF 18
ENDMDL
MODEL 2
REMARK VINA RESULT:     -10.9      5.224      7.063
REMARK SMILES COc1ccc2c(C[NH2+]Cc3cccs3)c(C(=O)NCCCNC(=O)c3ccc(-c4c5nc(c(-c6c(F)cc(S(=O)(=O)[O-])cc6F)c6ccc([nH]6)c(-c6c(F)cc(S(=O)(=O)[O-])cc6F)c6nc(c(-c7c(F)cc(S(=O)(=O)[O-])cc7F)c7ccc4[nH]7)C=C6)C=C5)cc3)[nH]c2c1
REMARK SMILES IDX 20 1 19 2 17 3 18 4 16 6 3 7 4 8 94 9 5 10 93 11 6 12 92 13
REMARK SMILES IDX 7 14 2 16 1 17 8 18 9 19 10 22 11 23 12 24 15 25 13 26 14 27
REMARK SMILES IDX 21 28 22 29 23 30 24 31 25 33 26 34 27 35 91 36 28 37 90 38
REMARK SMILES IDX 29 39 30 40 31 41 84 42 32 43 89 44 83 45 85 46 33 47 88 48
REMARK SMILES IDX 82 49 81 50 34 52 68 53 47 54 67 55 48 56 51 57 66 58 86 59
REMARK SMILES IDX 49 60 50 61 65 63 87 64 52 65 35 66 36 67 45 68 37 69 38 70
REMARK SMILES IDX 44 71 46 72 39 73 40 74 41 75 42 76 43 77 69 78 70 79 79 80
REMARK SMILES IDX 71 81 72 82 78 83 80 84 73 85 74 86 75 87 76 88 77 89 53 90
REMARK SMILES IDX 54 91 63 92 55 93 56 94 62 95 64 96 57 97 58 98 59 99 60 100
REMARK SMILES IDX 61 101
REMARK H PARENT 19 5 92 15 9 20 9 21 23 32 85 51 51 62
REMARK Flexibility Score: inf
ROOT
ATOM      1  C   UNL A   1      33.146  29.407  26.119  1.00  0.00     0.118 C 
ENDROOT
BRANCH   1   2
ATOM      2  N   UNL A   1      33.626  29.456  24.756  1.00  0.00    -0.351 N 
ATOM      3  C   UNL A   1      33.805  28.523  23.772  1.00  0.00     0.268 C 
ATOM      4  O   UNL A   1      34.383  28.946  22.769  1.00  0.00    -0.268 OA
ATOM      5  H   UNL A   1      33.882  30.363  24.473  1.00  0.00     0.163 HD
BRANCH   3   6
ATOM      6  C   UNL A   1      33.336  27.152  23.897  1.00  0.00     0.114 A 
ATOM      7  C   UNL A   1      32.478  22.702  24.842  1.00  0.00     0.120 A 
ATOM      8  C   UNL A   1      31.309  22.969  24.133  1.00  0.00     0.047 A 
ATOM      9  C   UNL A   1      33.433  23.699  25.058  1.00  0.00     0.073 A 
ATOM     10  C   UNL A   1      31.081  24.243  23.596  1.00  0.00     0.015 A 
ATOM     11  C   UNL A   1      33.193  24.959  24.495  1.00  0.00     0.050 A 
ATOM     12  C   UNL A   1      32.042  25.261  23.778  1.00  0.00     0.009 A 
ATOM     13  N   UNL A   1      33.973  26.090  24.492  1.00  0.00    -0.350 N 
ATOM     14  C   UNL A   1      32.136  26.639  23.388  1.00  0.00     0.045 A 
ATOM     15  H   UNL A   1      34.881  26.133  24.871  1.00  0.00     0.167 HD
BRANCH   7  16
ATOM     16  O   UNL A   1      32.727  21.484  25.419  1.00  0.00    -0.497 OA
ATOM     17  C   UNL A   1      32.205  20.403  24.648  1.00  0.00     0.278 C 
ENDBRANCH   7  16
BRANCH  14  18
ATOM     18  C   UNL A   1      31.110  27.391  22.595  1.00  0.00     0.300 C 
BRANCH  18  19
ATOM     19  N   UNL A   1      30.347  28.219  23.527  1.00  0.00    -0.338 N 
ATOM     20  H   UNL A   1      30.864  29.083  23.697  1.00  0.00     0.346 HD
ATOM     21  H   UNL A   1      30.221  27.687  24.388  1.00  0.00     0.346 HD
BRANCH  19  22
ATOM     22  C   UNL A   1      29.026  28.557  23.009  1.00  0.00     0.308 C 
BRANCH  22  23
ATOM     23  C   UNL A   1      28.798  30.031  22.781  1.00  0.00     0.059 A 
ATOM     24  C   UNL A   1      28.977  31.054  23.695  1.00  0.00     0.021 A 
ATOM     25  S   UNL A   1      28.199  30.642  21.289  1.00  0.00    -0.143 S 
ATOM     26  C   UNL A   1      28.703  32.337  23.142  1.00  0.00     0.012 A 
ATOM     27  C   UNL A   1      28.311  32.259  21.826  1.00  0.00     0.065 A 
ENDBRANCH  22  23
ENDBRANCH  19  22
ENDBRANCH  18  19
ENDBRANCH  14  18
ENDBRANCH   3   6
ENDBRANCH   1   2
BRANCH   1  28
ATOM     28  C   UNL A   1      34.144  28.669  27.010  1.00  0.00     0.042 C 
BRANCH  28  29
ATOM     29  C   UNL A   1      35.357  29.527  27.380  1.00  0.00     0.118 C 
BRANCH  29  30
ATOM     30  N   UNL A   1      35.298  29.978  28.766  1.00  0.00    -0.352 N 
ATOM     31  C   UNL A   1      36.238  29.902  29.761  1.00  0.00     0.251 C 
ATOM     32  H   UNL A   1      34.449  30.404  29.028  1.00  0.00     0.163 HD
ATOM     33  O   UNL A   1      35.897  30.083  30.927  1.00  0.00    -0.269 OA
BRANCH  31  34
ATOM     34  C   UNL A   1      37.648  29.606  29.436  1.00  0.00     0.039 A 
ATOM     35  C   UNL A   1      38.512  29.213  30.462  1.00  0.00     0.014 A 
ATOM     36  C   UNL A   1      38.129  29.757  28.133  1.00  0.00     0.014 A 
ATOM     37  C   UNL A   1      39.846  28.921  30.168  1.00  0.00     0.010 A 
ATOM     38  C   UNL A   1      39.436  29.387  27.829  1.00  0.00     0.010 A 
ATOM     39  C   UNL A   1      40.309  28.973  28.844  1.00  0.00    -0.014 A 
BRANCH  39  40
ATOM     40  C   UNL A   1      41.706  28.598  28.501  1.00  0.00     0.031 A 
ATOM     41  C   UNL A   1      42.785  29.646  28.466  1.00  0.00     0.074 A 
ATOM     42  C   UNL A   1      41.983  27.324  28.159  1.00  0.00     0.049 A 
ATOM     43  N   UNL A   1      44.043  29.524  28.126  1.00  0.00    -0.248 NA
ATOM     44  C   UNL A   1      42.396  31.016  28.836  1.00  0.00     0.031 C 
ATOM     45  C   UNL A   1      41.008  26.231  28.108  1.00  0.00     0.029 A 
ATOM     46  N   UNL A   1      43.161  26.733  27.780  1.00  0.00    -0.354 N 
ATOM     47  C   UNL A   1      44.589  30.798  28.228  1.00  0.00     0.074 A 
ATOM     48  C   UNL A   1      43.514  31.689  28.606  1.00  0.00     0.031 C 
ATOM     49  C   UNL A   1      41.633  25.101  27.745  1.00  0.00     0.029 A 
ATOM     50  C   UNL A   1      43.040  25.394  27.494  1.00  0.00     0.049 A 
ATOM     51  H   UNL A   1      44.014  27.222  27.718  1.00  0.00     0.167 HD
ATOM     52  C   UNL A   1      45.874  31.185  28.046  1.00  0.00     0.037 A 
ATOM     53  C   UNL A   1      43.957  24.502  27.067  1.00  0.00     0.037 A 
ATOM     54  C   UNL A   1      46.941  30.286  27.688  1.00  0.00     0.049 A 
ATOM     55  C   UNL A   1      45.376  24.959  26.864  1.00  0.00     0.074 A 
ATOM     56  C   UNL A   1      48.287  30.565  27.534  1.00  0.00     0.029 A 
ATOM     57  N   UNL A   1      46.782  28.932  27.423  1.00  0.00    -0.354 N 
ATOM     58  N   UNL A   1      45.890  26.155  27.029  1.00  0.00    -0.248 NA
ATOM     59  C   UNL A   1      46.343  23.944  26.423  1.00  0.00     0.031 C 
ATOM     60  C   UNL A   1      48.933  29.395  27.125  1.00  0.00     0.029 A 
ATOM     61  C   UNL A   1      48.001  28.369  27.084  1.00  0.00     0.049 A 
ATOM     62  H   UNL A   1      45.928  28.444  27.470  1.00  0.00     0.167 HD
ATOM     63  C   UNL A   1      47.244  26.030  26.742  1.00  0.00     0.074 A 
ATOM     64  C   UNL A   1      47.472  24.640  26.406  1.00  0.00     0.031 C 
ATOM     65  C   UNL A   1      48.212  26.980  26.756  1.00  0.00     0.037 A 
BRANCH  52  66
ATOM     66  C   UNL A   1      46.200  32.644  28.232  1.00  0.00     0.058 A 
ATOM     67  C   UNL A   1      46.093  33.566  27.179  1.00  0.00     0.135 A 
ATOM     68  C   UNL A   1      46.589  33.134  29.490  1.00  0.00     0.135 A 
ATOM     69  F   UNL A   1      45.741  33.151  25.950  1.00  0.00    -0.206 F 
ATOM     70  C   UNL A   1      46.387  34.914  27.355  1.00  0.00     0.059 A 
ATOM     71  C   UNL A   1      46.857  34.484  29.698  1.00  0.00     0.059 A 
ATOM     72  F   UNL A   1      46.709  32.299  30.534  1.00  0.00    -0.206 F 
ATOM     73  C   UNL A   1      46.767  35.364  28.621  1.00  0.00     0.060 A 
BRANCH  73  74
ATOM     74  S   UNL A   1      47.138  37.118  28.835  1.00  0.00     0.124 S 
ATOM     75  O   UNL A   1      47.284  37.211  30.284  1.00  0.00    -0.237 OA
ATOM     76  O   UNL A   1      48.368  37.272  28.063  1.00  0.00    -0.237 OA
ATOM     77  O   UNL A   1      45.965  37.784  28.279  1.00  0.00    -0.744 OA
ENDBRANCH  73  74
ENDBRANCH  52  66
BRANCH  53  78
ATOM     78  C   UNL A   1      43.563  23.088  26.823  1.00  0.00     0.058 A 
ATOM     79  C   UNL A   1      43.239  22.235  27.888  1.00  0.00     0.135 A 
ATOM     80  C   UNL A   1      43.488  22.566  25.522  1.00  0.00     0.135 A 
ATOM     81  F   UNL A   1      43.299  22.686  29.150  1.00  0.00    -0.206 F 
ATOM     82  C   UNL A   1      42.872  20.910  27.675  1.00  0.00     0.059 A 
ATOM     83  C   UNL A   1      43.097  21.252  25.282  1.00  0.00     0.059 A 
ATOM     84  F   UNL A   1      43.769  23.345  24.466  1.00  0.00    -0.206 F 
ATOM     85  C   UNL A   1      42.802  20.429  26.367  1.00  0.00     0.060 A 
BRANCH  85  86
ATOM     86  S   UNL A   1      42.282  18.720  26.100  1.00  0.00     0.124 S 
ATOM     87  O   UNL A   1      42.483  18.142  27.424  1.00  0.00    -0.237 OA
ATOM     88  O   UNL A   1      40.893  18.886  25.680  1.00  0.00    -0.237 OA
ATOM     89  O   UNL A   1      43.191  18.251  25.060  1.00  0.00    -0.744 OA
ENDBRANCH  85  86
ENDBRANCH  53  78
BRANCH  65  90
ATOM     90  C   UNL A   1      49.617  26.543  26.437  1.00  0.00     0.058 A 
ATOM     91  C   UNL A   1      50.160  26.679  25.151  1.00  0.00     0.135 A 
ATOM     92  C   UNL A   1      50.445  26.029  27.448  1.00  0.00     0.135 A 
ATOM     93  F   UNL A   1      49.410  27.159  24.147  1.00  0.00    -0.206 F 
ATOM     94  C   UNL A   1      51.468  26.296  24.871  1.00  0.00     0.059 A 
ATOM     95  C   UNL A   1      51.766  25.669  27.199  1.00  0.00     0.059 A 
ATOM     96  F   UNL A   1      49.979  25.888  28.700  1.00  0.00    -0.206 F 
ATOM     97  C   UNL A   1      52.264  25.794  25.903  1.00  0.00     0.060 A 
BRANCH  97  98
ATOM     98  S   UNL A   1      53.968  25.331  25.532  1.00  0.00     0.124 S 
ATOM     99  O   UNL A   1      54.541  25.221  26.870  1.00  0.00    -0.237 OA
ATOM    100  O   UNL A   1      53.800  24.074  24.809  1.00  0.00    -0.237 OA
ATOM    101  O   UNL A   1      54.458  26.449  24.730  1.00  0.00    -0.744 OA
ENDBRANCH  97  98
ENDBRANCH  65  90
ENDBRANCH  39  40
ENDBRANCH  31  34
ENDBRANCH  29  30
ENDBRANCH  28  29
ENDBRANCH   1  28
TORSDOF 18
ENDMDL
MODEL 3
REMARK VINA RESULT:     -10.8      2.648      3.889
REMARK SMILES COc1ccc2c(C[NH2+]Cc3cccs3)c(C(=O)NCCCNC(=O)c3ccc(-c4c5nc(c(-c6c(F)cc(S(=O)(=O)[O-])cc6F)c6ccc([nH]6)c(-c6c(F)cc(S(=O)(=O)[O-])cc6F)c6nc(c(-c7c(F)cc(S(=O)(=O)[O-])cc7F)c7ccc4[nH]7)C=C6)C=C5)cc3)[nH]c2c1
REMARK SMILES IDX 20 1 19 2 17 3 18 4 16 6 3 7 4 8 94 9 5 10 93 11 6 12 92 13
REMARK SMILES IDX 7 14 2 16 1 17 8 18 9 19 10 22 11 23 12 24 15 25 13 26 14 27
REMARK SMILES IDX 21 28 22 29 23 30 24 31 25 33 26 34 27 35 91 36 28 37 90 38
REMARK SMILES IDX 29 39 30 40 31 41 84 42 32 43 89 44 83 45 85 46 33 47 88 48
REMARK SMILES IDX 82 49 81 50 34 52 68 53 47 54 67 55 48 56 51 57 66 58 86 59
REMARK SMILES IDX 49 60 50 61 65 63 87 64 52 65 35 66 36 67 45 68 37 69 38 70
REMARK SMILES IDX 44 71 46 72 39 73 40 74 41 75 42 76 43 77 69 78 70 79 79 80
REMARK SMILES IDX 71 81 72 82 78 83 80 84 73 85 74 86 75 87 76 88 77 89 53 90
REMARK SMILES IDX 54 91 63 92 55 93 56 94 62 95 64 96 57 97 58 98 59 99 60 100
REMARK SMILES IDX 61 101
REMARK H PARENT 19 5 92 15 9 20 9 21 23 32 85 51 51 62
REMARK Flexibility Score: inf
ROOT
ATOM      1  C   UNL A   1      32.765  28.149  24.837  1.00  0.00     0.118 C 
ENDROOT
BRANCH   1   2
ATOM      2  N   UNL A   1      31.920  27.125  25.411  1.00  0.00    -0.351 N 
ATOM      3  C   UNL A   1      32.018  25.767  25.542  1.00  0.00     0.268 C 
ATOM      4  O   UNL A   1      31.001  25.223  25.974  1.00  0.00    -0.268 OA
ATOM      5  H   UNL A   1      31.088  27.486  25.792  1.00  0.00     0.163 HD
BRANCH   3   6
ATOM      6  C   UNL A   1      33.230  25.034  25.211  1.00  0.00     0.114 A 
ATOM      7  C   UNL A   1      37.180  22.630  24.995  1.00  0.00     0.120 A 
ATOM      8  C   UNL A   1      36.846  22.558  23.644  1.00  0.00     0.047 A 
ATOM      9  C   UNL A   1      36.352  23.288  25.907  1.00  0.00     0.073 A 
ATOM     10  C   UNL A   1      35.680  23.173  23.169  1.00  0.00     0.015 A 
ATOM     11  C   UNL A   1      35.202  23.911  25.407  1.00  0.00     0.050 A 
ATOM     12  C   UNL A   1      34.839  23.866  24.067  1.00  0.00     0.009 A 
ATOM     13  N   UNL A   1      34.255  24.670  26.051  1.00  0.00    -0.350 N 
ATOM     14  C   UNL A   1      33.603  24.583  23.938  1.00  0.00     0.045 A 
ATOM     15  H   UNL A   1      34.307  24.924  27.001  1.00  0.00     0.167 HD
BRANCH   7  16
ATOM     16  O   UNL A   1      38.289  22.012  25.512  1.00  0.00    -0.497 OA
ATOM     17  C   UNL A   1      38.957  22.819  26.480  1.00  0.00     0.278 C 
ENDBRANCH   7  16
BRANCH  14  18
ATOM     18  C   UNL A   1      32.843  24.789  22.662  1.00  0.00     0.300 C 
BRANCH  18  19
ATOM     19  N   UNL A   1      32.367  23.482  22.214  1.00  0.00    -0.338 N 
ATOM     20  H   UNL A   1      33.173  22.873  22.064  1.00  0.00     0.346 HD
ATOM     21  H   UNL A   1      31.841  23.620  21.350  1.00  0.00     0.346 HD
BRANCH  19  22
ATOM     22  C   UNL A   1      31.478  22.856  23.186  1.00  0.00     0.308 C 
BRANCH  22  23
ATOM     23  C   UNL A   1      31.977  21.543  23.740  1.00  0.00     0.059 A 
ATOM     24  C   UNL A   1      32.305  21.265  25.054  1.00  0.00     0.021 A 
ATOM     25  S   UNL A   1      32.269  20.180  22.733  1.00  0.00    -0.143 S 
ATOM     26  C   UNL A   1      32.713  19.913  25.242  1.00  0.00     0.012 A 
ATOM     27  C   UNL A   1      32.697  19.201  24.065  1.00  0.00     0.065 A 
ENDBRANCH  22  23
ENDBRANCH  19  22
ENDBRANCH  18  19
ENDBRANCH  14  18
ENDBRANCH   3   6
ENDBRANCH   1   2
BRANCH   1  28
ATOM     28  C   UNL A   1      34.067  28.270  25.627  1.00  0.00     0.042 C 
BRANCH  28  29
ATOM     29  C   UNL A   1      33.836  28.481  27.125  1.00  0.00     0.118 C 
BRANCH  29  30
ATOM     30  N   UNL A   1      33.738  29.896  27.464  1.00  0.00    -0.352 N 
ATOM     31  C   UNL A   1      34.589  30.694  28.182  1.00  0.00     0.251 C 
ATOM     32  H   UNL A   1      32.933  30.350  27.121  1.00  0.00     0.163 HD
ATOM     33  O   UNL A   1      34.194  31.782  28.591  1.00  0.00    -0.269 OA
BRANCH  31  34
ATOM     34  C   UNL A   1      35.971  30.252  28.463  1.00  0.00     0.039 A 
ATOM     35  C   UNL A   1      36.927  30.328  27.446  1.00  0.00     0.014 A 
ATOM     36  C   UNL A   1      36.313  29.721  29.709  1.00  0.00     0.014 A 
ATOM     37  C   UNL A   1      38.239  29.921  27.699  1.00  0.00     0.010 A 
ATOM     38  C   UNL A   1      37.638  29.395  29.984  1.00  0.00     0.010 A 
ATOM     39  C   UNL A   1      38.612  29.484  28.980  1.00  0.00    -0.014 A 
BRANCH  39  40
ATOM     40  C   UNL A   1      40.018  29.114  29.288  1.00  0.00     0.031 A 
ATOM     41  C   UNL A   1      40.944  30.117  29.923  1.00  0.00     0.074 A 
ATOM     42  C   UNL A   1      40.474  27.896  28.935  1.00  0.00     0.049 A 
ATOM     43  N   UNL A   1      42.216  30.003  30.205  1.00  0.00    -0.248 NA
ATOM     44  C   UNL A   1      40.372  31.430  30.262  1.00  0.00     0.031 C 
ATOM     45  C   UNL A   1      39.682  26.858  28.269  1.00  0.00     0.029 A 
ATOM     46  N   UNL A   1      41.714  27.326  29.076  1.00  0.00    -0.354 N 
ATOM     47  C   UNL A   1      42.598  31.227  30.739  1.00  0.00     0.074 A 
ATOM     48  C   UNL A   1      41.438  32.090  30.689  1.00  0.00     0.031 C 
ATOM     49  C   UNL A   1      40.449  25.772  28.083  1.00  0.00     0.029 A 
ATOM     50  C   UNL A   1      41.795  26.049  28.574  1.00  0.00     0.049 A 
ATOM     51  H   UNL A   1      42.474  27.789  29.498  1.00  0.00     0.167 HD
ATOM     52  C   UNL A   1      43.800  31.592  31.246  1.00  0.00     0.037 A 
ATOM     53  C   UNL A   1      42.839  25.199  28.506  1.00  0.00     0.037 A 
ATOM     54  C   UNL A   1      44.944  30.718  31.307  1.00  0.00     0.049 A 
ATOM     55  C   UNL A   1      44.166  25.631  29.068  1.00  0.00     0.074 A 
ATOM     56  C   UNL A   1      46.191  30.970  31.852  1.00  0.00     0.029 A 
ATOM     57  N   UNL A   1      44.983  29.425  30.803  1.00  0.00    -0.354 N 
ATOM     58  N   UNL A   1      44.493  26.770  29.631  1.00  0.00    -0.248 NA
ATOM     59  C   UNL A   1      45.266  24.659  28.994  1.00  0.00     0.031 C 
ATOM     60  C   UNL A   1      46.999  29.851  31.631  1.00  0.00     0.029 A 
ATOM     61  C   UNL A   1      46.238  28.876  31.003  1.00  0.00     0.049 A 
ATOM     62  H   UNL A   1      44.228  28.966  30.368  1.00  0.00     0.167 HD
ATOM     63  C   UNL A   1      45.826  26.642  30.004  1.00  0.00     0.074 A 
ATOM     64  C   UNL A   1      46.240  25.309  29.615  1.00  0.00     0.031 C 
ATOM     65  C   UNL A   1      46.634  27.544  30.614  1.00  0.00     0.037 A 
BRANCH  52  66
ATOM     66  C   UNL A   1      43.942  32.995  31.776  1.00  0.00     0.058 A 
ATOM     67  C   UNL A   1      43.738  33.297  33.132  1.00  0.00     0.135 A 
ATOM     68  C   UNL A   1      44.325  34.045  30.925  1.00  0.00     0.135 A 
ATOM     69  F   UNL A   1      43.355  32.336  33.989  1.00  0.00    -0.206 F 
ATOM     70  C   UNL A   1      43.877  34.592  33.620  1.00  0.00     0.059 A 
ATOM     71  C   UNL A   1      44.502  35.342  31.397  1.00  0.00     0.059 A 
ATOM     72  F   UNL A   1      44.535  33.815  29.619  1.00  0.00    -0.206 F 
ATOM     73  C   UNL A   1      44.261  35.609  32.744  1.00  0.00     0.060 A 
BRANCH  73  74
ATOM     74  S   UNL A   1      44.445  37.282  33.396  1.00  0.00     0.124 S 
ATOM     75  O   UNL A   1      43.595  37.228  34.581  1.00  0.00    -0.237 OA
ATOM     76  O   UNL A   1      45.881  37.360  33.650  1.00  0.00    -0.237 OA
ATOM     77  O   UNL A   1      43.956  38.126  32.312  1.00  0.00    -0.744 OA
ENDBRANCH  73  74
ENDBRANCH  52  66
BRANCH  53  78
ATOM     78  C   UNL A   1      42.663  23.852  27.900  1.00  0.00     0.058 A 
ATOM     79  C   UNL A   1      42.694  23.676  26.509  1.00  0.00     0.135 A 
ATOM     80  C   UNL A   1      42.477  22.712  28.698  1.00  0.00     0.135 A 
ATOM     81  F   UNL A   1      42.865  24.734  25.703  1.00  0.00    -0.206 F 
ATOM     82  C   UNL A   1      42.527  22.422  25.929  1.00  0.00     0.059 A 
ATOM     83  C   UNL A   1      42.336  21.444  28.143  1.00  0.00     0.059 A 
ATOM     84  F   UNL A   1      42.459  22.822  30.036  1.00  0.00    -0.206 F 
ATOM     85  C   UNL A   1      42.351  21.312  26.756  1.00  0.00     0.060 A 
BRANCH  85  86
ATOM     86  S   UNL A   1      42.180  19.684  25.993  1.00  0.00     0.124 S 
ATOM     87  O   UNL A   1      40.764  19.669  25.645  1.00  0.00    -0.237 OA
ATOM     88  O   UNL A   1      43.113  19.772  24.873  1.00  0.00    -0.237 OA
ATOM     89  O   UNL A   1      42.579  18.770  27.060  1.00  0.00    -0.744 OA
ENDBRANCH  85  86
ENDBRANCH  53  78
BRANCH  65  90
ATOM     90  C   UNL A   1      48.038  27.110  30.938  1.00  0.00     0.058 A 
ATOM     91  C   UNL A   1      48.385  26.600  32.199  1.00  0.00     0.135 A 
ATOM     92  C   UNL A   1      49.039  27.160  29.954  1.00  0.00     0.135 A 
ATOM     93  F   UNL A   1      47.467  26.537  33.176  1.00  0.00    -0.206 F 
ATOM     94  C   UNL A   1      49.679  26.179  32.481  1.00  0.00     0.059 A 
ATOM     95  C   UNL A   1      50.333  26.714  30.203  1.00  0.00     0.059 A 
ATOM     96  F   UNL A   1      48.760  27.629  28.726  1.00  0.00    -0.206 F 
ATOM     97  C   UNL A   1      50.647  26.237  31.475  1.00  0.00     0.060 A 
BRANCH  97  98
ATOM     98  S   UNL A   1      52.315  25.656  31.846  1.00  0.00     0.124 S 
ATOM     99  O   UNL A   1      52.085  24.236  32.090  1.00  0.00    -0.237 OA
ATOM    100  O   UNL A   1      53.038  25.981  30.620  1.00  0.00    -0.237 OA
ATOM    101  O   UNL A   1      52.696  26.440  33.018  1.00  0.00    -0.744 OA
ENDBRANCH  97  98
ENDBRANCH  65  90
ENDBRANCH  39  40
ENDBRANCH  31  34
ENDBRANCH  29  30
ENDBRANCH  28  29
ENDBRANCH   1  28
TORSDOF 18
ENDMDL
