MODEL 1
REMARK VINA RESULT:     -10.9      0.000      0.000
REMARK SMILES O=C(NCCCNC(=O)c1csc(CNc2ccc(-n3cccn3)nc2)c1)c1ccc(-c2c3nc(c(-c4c(F)cc(S(=O)(=O)[O-])cc4F)c4ccc([nH]4)c(-c4c(F)cc(S(=O)(=O)[O-])cc4F)c4nc(c(-c5c(F)cc(S(=O)(=O)[O-])cc5F)c5ccc2[nH]5)C=C4)C=C3)cc1
REMARK SMILES IDX 5 1 4 2 3 3 1 4 2 5 28 7 29 8 93 9 30 10 92 11 31 12 32 13
REMARK SMILES IDX 33 14 86 15 34 16 91 17 85 18 87 19 35 20 90 21 84 22 83 23
REMARK SMILES IDX 36 25 70 26 49 27 69 28 50 29 53 30 68 31 88 32 51 33 52 34
REMARK SMILES IDX 67 36 89 37 54 38 37 39 38 40 47 41 39 42 40 43 46 44 48 45
REMARK SMILES IDX 41 46 42 47 43 48 44 49 45 50 71 51 72 52 81 53 73 54 74 55
REMARK SMILES IDX 80 56 82 57 75 58 76 59 77 60 78 61 79 62 55 63 56 64 65 65
REMARK SMILES IDX 57 66 58 67 64 68 66 69 59 70 60 71 61 72 62 73 63 74 6 75
REMARK SMILES IDX 7 76 8 77 9 79 10 80 11 81 27 82 12 83 13 84 14 85 15 86
REMARK SMILES IDX 16 88 17 89 26 90 18 91 25 92 19 93 20 94 21 95 24 96 22 97
REMARK SMILES IDX 23 98
REMARK H PARENT 3 6 87 24 53 35 7 78 15 87
REMARK Flexibility Score: inf
ROOT
ATOM      1  C   UNL A   1      33.295  34.501  29.135  1.00  0.00     0.042 C 
ENDROOT
BRANCH   1   2
ATOM      2  C   UNL A   1      34.220  33.283  29.117  1.00  0.00     0.118 C 
BRANCH   2   3
ATOM      3  N   UNL A   1      33.750  32.155  28.338  1.00  0.00    -0.352 N 
ATOM      4  O   UNL A   1      33.550  30.166  27.396  1.00  0.00    -0.269 OA
ATOM      5  C   UNL A   1      34.306  30.967  27.949  1.00  0.00     0.251 C 
ATOM      6  H   UNL A   1      32.827  32.270  28.017  1.00  0.00     0.163 HD
BRANCH   5   7
ATOM      7  C   UNL A   1      35.747  30.631  28.080  1.00  0.00     0.039 A 
ATOM      8  C   UNL A   1      36.304  29.364  27.892  1.00  0.00     0.014 A 
ATOM      9  C   UNL A   1      36.588  31.689  28.463  1.00  0.00     0.014 A 
ATOM     10  C   UNL A   1      37.635  29.121  28.209  1.00  0.00     0.010 A 
ATOM     11  C   UNL A   1      37.928  31.461  28.741  1.00  0.00     0.010 A 
ATOM     12  C   UNL A   1      38.433  30.162  28.672  1.00  0.00    -0.014 A 
BRANCH  12  13
ATOM     13  C   UNL A   1      39.823  29.877  29.023  1.00  0.00     0.031 A 
ATOM     14  C   UNL A   1      40.135  29.775  30.485  1.00  0.00     0.074 A 
ATOM     15  C   UNL A   1      40.700  29.511  28.066  1.00  0.00     0.049 A 
ATOM     16  N   UNL A   1      41.114  30.294  31.160  1.00  0.00    -0.248 NA
ATOM     17  C   UNL A   1      39.180  29.020  31.317  1.00  0.00     0.031 C 
ATOM     18  C   UNL A   1      40.421  29.279  26.643  1.00  0.00     0.029 A 
ATOM     19  N   UNL A   1      41.995  29.113  28.192  1.00  0.00    -0.354 N 
ATOM     20  C   UNL A   1      41.004  29.783  32.456  1.00  0.00     0.074 A 
ATOM     21  C   UNL A   1      39.737  29.104  32.525  1.00  0.00     0.031 C 
ATOM     22  C   UNL A   1      41.421  28.544  26.113  1.00  0.00     0.029 A 
ATOM     23  C   UNL A   1      42.451  28.361  27.119  1.00  0.00     0.049 A 
ATOM     24  H   UNL A   1      42.554  29.336  28.971  1.00  0.00     0.167 HD
ATOM     25  C   UNL A   1      42.031  29.779  33.351  1.00  0.00     0.037 A 
ATOM     26  C   UNL A   1      43.531  27.541  27.109  1.00  0.00     0.037 A 
ATOM     27  C   UNL A   1      43.048  30.737  33.025  1.00  0.00     0.049 A 
ATOM     28  C   UNL A   1      44.401  27.932  28.249  1.00  0.00     0.074 A 
ATOM     29  C   UNL A   1      43.084  32.112  32.903  1.00  0.00     0.029 A 
ATOM     30  N   UNL A   1      44.216  30.291  32.458  1.00  0.00    -0.354 N 
ATOM     31  N   UNL A   1      45.015  29.080  28.348  1.00  0.00    -0.248 NA
ATOM     32  C   UNL A   1      44.248  27.200  29.497  1.00  0.00     0.031 C 
ATOM     33  C   UNL A   1      44.000  32.366  31.842  1.00  0.00     0.029 A 
ATOM     34  C   UNL A   1      44.481  31.131  31.406  1.00  0.00     0.049 A 
ATOM     35  H   UNL A   1      44.757  29.521  32.749  1.00  0.00     0.167 HD
ATOM     36  C   UNL A   1      44.973  29.397  29.698  1.00  0.00     0.074 A 
ATOM     37  C   UNL A   1      44.572  28.161  30.365  1.00  0.00     0.031 C 
ATOM     38  C   UNL A   1      45.003  30.693  30.131  1.00  0.00     0.037 A 
BRANCH  25  39
ATOM     39  C   UNL A   1      42.248  28.682  34.366  1.00  0.00     0.058 A 
ATOM     40  C   UNL A   1      42.270  28.977  35.743  1.00  0.00     0.135 A 
ATOM     41  C   UNL A   1      42.711  27.394  34.008  1.00  0.00     0.135 A 
ATOM     42  F   UNL A   1      41.869  30.177  36.191  1.00  0.00    -0.206 F 
ATOM     43  C   UNL A   1      42.773  28.081  36.689  1.00  0.00     0.059 A 
ATOM     44  C   UNL A   1      43.165  26.468  34.939  1.00  0.00     0.059 A 
ATOM     45  F   UNL A   1      42.834  27.019  32.728  1.00  0.00    -0.206 F 
ATOM     46  C   UNL A   1      43.237  26.835  36.273  1.00  0.00     0.060 A 
BRANCH  46  47
ATOM     47  S   UNL A   1      44.014  25.730  37.467  1.00  0.00     0.124 S 
ATOM     48  O   UNL A   1      43.560  26.304  38.728  1.00  0.00    -0.237 OA
ATOM     49  O   UNL A   1      43.437  24.439  37.109  1.00  0.00    -0.237 OA
ATOM     50  O   UNL A   1      45.437  25.876  37.181  1.00  0.00    -0.744 OA
ENDBRANCH  46  47
ENDBRANCH  25  39
BRANCH  26  51
ATOM     51  C   UNL A   1      43.614  26.218  26.433  1.00  0.00     0.058 A 
ATOM     52  C   UNL A   1      44.573  25.955  25.443  1.00  0.00     0.135 A 
ATOM     53  C   UNL A   1      42.902  25.100  26.919  1.00  0.00     0.135 A 
ATOM     54  F   UNL A   1      45.327  26.952  24.954  1.00  0.00    -0.206 F 
ATOM     55  C   UNL A   1      44.822  24.659  24.972  1.00  0.00     0.059 A 
ATOM     56  C   UNL A   1      43.116  23.807  26.453  1.00  0.00     0.059 A 
ATOM     57  F   UNL A   1      42.029  25.218  27.932  1.00  0.00    -0.206 F 
ATOM     58  C   UNL A   1      44.093  23.589  25.492  1.00  0.00     0.060 A 
BRANCH  58  59
ATOM     59  S   UNL A   1      44.498  21.900  24.991  1.00  0.00     0.124 S 
ATOM     60  O   UNL A   1      45.764  21.677  25.679  1.00  0.00    -0.237 OA
ATOM     61  O   UNL A   1      43.355  21.147  25.496  1.00  0.00    -0.237 OA
ATOM     62  O   UNL A   1      44.586  21.989  23.535  1.00  0.00    -0.744 OA
ENDBRANCH  58  59
ENDBRANCH  26  51
BRANCH  38  63
ATOM     63  C   UNL A   1      45.315  31.773  29.127  1.00  0.00     0.058 A 
ATOM     64  C   UNL A   1      46.626  32.139  28.771  1.00  0.00     0.135 A 
ATOM     65  C   UNL A   1      44.272  32.317  28.364  1.00  0.00     0.135 A 
ATOM     66  F   UNL A   1      47.683  31.574  29.368  1.00  0.00    -0.206 F 
ATOM     67  C   UNL A   1      46.888  33.031  27.733  1.00  0.00     0.059 A 
ATOM     68  C   UNL A   1      44.512  33.186  27.301  1.00  0.00     0.059 A 
ATOM     69  F   UNL A   1      43.003  31.951  28.605  1.00  0.00    -0.206 F 
ATOM     70  C   UNL A   1      45.824  33.545  26.997  1.00  0.00     0.060 A 
BRANCH  70  71
ATOM     71  S   UNL A   1      46.180  34.600  25.575  1.00  0.00     0.124 S 
ATOM     72  O   UNL A   1      47.556  34.231  25.258  1.00  0.00    -0.237 OA
ATOM     73  O   UNL A   1      45.169  34.181  24.608  1.00  0.00    -0.237 OA
ATOM     74  O   UNL A   1      46.000  35.951  26.101  1.00  0.00    -0.744 OA
ENDBRANCH  70  71
ENDBRANCH  38  63
ENDBRANCH  12  13
ENDBRANCH   5   7
ENDBRANCH   2   3
ENDBRANCH   1   2
BRANCH   1  75
ATOM     75  C   UNL A   1      34.008  35.843  29.301  1.00  0.00     0.118 C 
BRANCH  75  76
ATOM     76  N   UNL A   1      33.386  36.669  30.325  1.00  0.00    -0.352 N 
ATOM     77  C   UNL A   1      33.222  36.458  31.669  1.00  0.00     0.252 C 
ATOM     78  H   UNL A   1      33.021  37.522  29.997  1.00  0.00     0.163 HD
ATOM     79  O   UNL A   1      32.394  37.136  32.269  1.00  0.00    -0.269 OA
BRANCH  77  80
ATOM     80  C   UNL A   1      34.023  35.454  32.354  1.00  0.00     0.050 A 
ATOM     81  C   UNL A   1      33.540  34.256  32.846  1.00  0.00     0.079 A 
ATOM     82  C   UNL A   1      35.451  35.518  32.503  1.00  0.00     0.031 A 
ATOM     83  S   UNL A   1      34.762  33.270  33.517  1.00  0.00    -0.146 S 
ATOM     84  C   UNL A   1      35.980  34.414  33.141  1.00  0.00     0.024 A 
BRANCH  84  85
ATOM     85  C   UNL A   1      37.410  34.136  33.511  1.00  0.00     0.159 C 
BRANCH  85  86
ATOM     86  N   UNL A   1      38.099  33.311  32.530  1.00  0.00    -0.379 N 
ATOM     87  H   UNL A   1      37.970  32.336  32.533  1.00  0.00     0.160 HD
BRANCH  86  88
ATOM     88  C   UNL A   1      38.935  33.894  31.591  1.00  0.00     0.053 A 
ATOM     89  C   UNL A   1      38.476  34.335  30.352  1.00  0.00     0.031 A 
ATOM     90  C   UNL A   1      40.308  34.007  31.815  1.00  0.00     0.139 A 
ATOM     91  C   UNL A   1      39.358  34.914  29.435  1.00  0.00     0.051 A 
ATOM     92  N   UNL A   1      41.200  34.499  30.925  1.00  0.00    -0.235 NA
ATOM     93  C   UNL A   1      40.713  34.981  29.757  1.00  0.00     0.153 A 
BRANCH  93  94
ATOM     94  N   UNL A   1      41.622  35.585  28.835  1.00  0.00    -0.223 N 
ATOM     95  C   UNL A   1      41.463  35.706  27.465  1.00  0.00     0.117 A 
ATOM     96  N   UNL A   1      42.804  36.123  29.237  1.00  0.00    -0.175 NA
ATOM     97  C   UNL A   1      42.581  36.345  26.984  1.00  0.00     0.042 A 
ATOM     98  C   UNL A   1      43.380  36.556  28.117  1.00  0.00     0.135 A 
ENDBRANCH  93  94
ENDBRANCH  86  88
ENDBRANCH  85  86
ENDBRANCH  84  85
ENDBRANCH  77  80
ENDBRANCH  75  76
ENDBRANCH   1  75
TORSDOF 17
ENDMDL
MODEL 2
REMARK VINA RESULT:     -10.8      4.447      7.425
REMARK SMILES O=C(NCCCNC(=O)c1csc(CNc2ccc(-n3cccn3)nc2)c1)c1ccc(-c2c3nc(c(-c4c(F)cc(S(=O)(=O)[O-])cc4F)c4ccc([nH]4)c(-c4c(F)cc(S(=O)(=O)[O-])cc4F)c4nc(c(-c5c(F)cc(S(=O)(=O)[O-])cc5F)c5ccc2[nH]5)C=C4)C=C3)cc1
REMARK SMILES IDX 5 1 4 2 3 3 1 4 2 5 28 7 29 8 93 9 30 10 92 11 31 12 32 13
REMARK SMILES IDX 33 14 86 15 34 16 91 17 85 18 87 19 35 20 90 21 84 22 83 23
REMARK SMILES IDX 36 25 70 26 49 27 69 28 50 29 53 30 68 31 88 32 51 33 52 34
REMARK SMILES IDX 67 36 89 37 54 38 37 39 38 40 47 41 39 42 40 43 46 44 48 45
REMARK SMILES IDX 41 46 42 47 43 48 44 49 45 50 71 51 72 52 81 53 73 54 74 55
REMARK SMILES IDX 80 56 82 57 75 58 76 59 77 60 78 61 79 62 55 63 56 64 65 65
REMARK SMILES IDX 57 66 58 67 64 68 66 69 59 70 60 71 61 72 62 73 63 74 6 75
REMARK SMILES IDX 7 76 8 77 9 79 10 80 11 81 27 82 12 83 13 84 14 85 15 86
REMARK SMILES IDX 16 88 17 89 26 90 18 91 25 92 19 93 20 94 21 95 24 96 22 97
REMARK SMILES IDX 23 98
REMARK H PARENT 3 6 87 24 53 35 7 78 15 87
REMARK Flexibility Score: inf
ROOT
ATOM      1  C   UNL A   1      35.282  32.080  27.929  1.00  0.00     0.042 C 
ENDROOT
BRANCH   1   2
ATOM      2  C   UNL A   1      34.408  33.192  28.509  1.00  0.00     0.118 C 
BRANCH   2   3
ATOM      3  N   UNL A   1      33.978  32.996  29.880  1.00  0.00    -0.352 N 
ATOM      4  O   UNL A   1      33.947  32.716  32.072  1.00  0.00    -0.269 OA
ATOM      5  C   UNL A   1      34.618  32.652  31.040  1.00  0.00     0.251 C 
ATOM      6  H   UNL A   1      33.013  33.141  30.002  1.00  0.00     0.163 HD
BRANCH   5   7
ATOM      7  C   UNL A   1      36.012  32.143  31.112  1.00  0.00     0.039 A 
ATOM      8  C   UNL A   1      37.165  32.930  31.060  1.00  0.00     0.014 A 
ATOM      9  C   UNL A   1      36.148  30.748  31.203  1.00  0.00     0.014 A 
ATOM     10  C   UNL A   1      38.420  32.341  30.960  1.00  0.00     0.010 A 
ATOM     11  C   UNL A   1      37.401  30.156  31.145  1.00  0.00     0.010 A 
ATOM     12  C   UNL A   1      38.531  30.954  30.962  1.00  0.00    -0.014 A 
BRANCH  12  13
ATOM     13  C   UNL A   1      39.858  30.357  30.830  1.00  0.00     0.031 A 
ATOM     14  C   UNL A   1      40.652  30.205  32.091  1.00  0.00     0.074 A 
ATOM     15  C   UNL A   1      40.228  29.784  29.666  1.00  0.00     0.049 A 
ATOM     16  N   UNL A   1      41.895  30.490  32.326  1.00  0.00    -0.248 NA
ATOM     17  C   UNL A   1      39.929  29.705  33.275  1.00  0.00     0.031 C 
ATOM     18  C   UNL A   1      39.408  29.604  28.461  1.00  0.00     0.029 A 
ATOM     19  N   UNL A   1      41.363  29.096  29.367  1.00  0.00    -0.354 N 
ATOM     20  C   UNL A   1      42.159  30.036  33.621  1.00  0.00     0.074 A 
ATOM     21  C   UNL A   1      40.890  29.673  34.196  1.00  0.00     0.031 C 
ATOM     22  C   UNL A   1      39.965  28.648  27.687  1.00  0.00     0.029 A 
ATOM     23  C   UNL A   1      41.227  28.244  28.281  1.00  0.00     0.049 A 
ATOM     24  H   UNL A   1      42.201  29.193  29.874  1.00  0.00     0.167 HD
ATOM     25  C   UNL A   1      43.415  29.804  34.094  1.00  0.00     0.037 A 
ATOM     26  C   UNL A   1      42.028  27.195  27.972  1.00  0.00     0.037 A 
ATOM     27  C   UNL A   1      44.422  30.495  33.341  1.00  0.00     0.049 A 
ATOM     28  C   UNL A   1      43.315  27.387  28.690  1.00  0.00     0.074 A 
ATOM     29  C   UNL A   1      44.703  31.822  33.081  1.00  0.00     0.029 A 
ATOM     30  N   UNL A   1      45.181  29.781  32.446  1.00  0.00    -0.354 N 
ATOM     31  N   UNL A   1      44.151  28.361  28.456  1.00  0.00    -0.248 NA
ATOM     32  C   UNL A   1      43.475  26.728  29.978  1.00  0.00     0.031 C 
ATOM     33  C   UNL A   1      45.201  31.840  31.746  1.00  0.00     0.029 A 
ATOM     34  C   UNL A   1      45.216  30.521  31.292  1.00  0.00     0.049 A 
ATOM     35  H   UNL A   1      45.613  28.910  32.602  1.00  0.00     0.167 HD
ATOM     36  C   UNL A   1      44.673  28.697  29.697  1.00  0.00     0.074 A 
ATOM     37  C   UNL A   1      44.288  27.598  30.579  1.00  0.00     0.031 C 
ATOM     38  C   UNL A   1      45.133  29.956  29.964  1.00  0.00     0.037 A 
BRANCH  25  39
ATOM     39  C   UNL A   1      43.748  28.701  35.070  1.00  0.00     0.058 A 
ATOM     40  C   UNL A   1      44.443  28.987  36.262  1.00  0.00     0.135 A 
ATOM     41  C   UNL A   1      43.648  27.331  34.733  1.00  0.00     0.135 A 
ATOM     42  F   UNL A   1      44.612  30.255  36.666  1.00  0.00    -0.206 F 
ATOM     43  C   UNL A   1      45.045  27.988  37.031  1.00  0.00     0.059 A 
ATOM     44  C   UNL A   1      44.194  26.319  35.513  1.00  0.00     0.059 A 
ATOM     45  F   UNL A   1      43.099  26.926  33.580  1.00  0.00    -0.206 F 
ATOM     46  C   UNL A   1      44.931  26.658  36.635  1.00  0.00     0.060 A 
BRANCH  46  47
ATOM     47  S   UNL A   1      45.821  25.380  37.543  1.00  0.00     0.124 S 
ATOM     48  O   UNL A   1      47.154  25.487  36.960  1.00  0.00    -0.237 OA
ATOM     49  O   UNL A   1      45.689  25.835  38.923  1.00  0.00    -0.237 OA
ATOM     50  O   UNL A   1      45.085  24.163  37.217  1.00  0.00    -0.744 OA
ENDBRANCH  46  47
ENDBRANCH  25  39
BRANCH  26  51
ATOM     51  C   UNL A   1      41.576  25.880  27.442  1.00  0.00     0.058 A 
ATOM     52  C   UNL A   1      42.326  25.171  26.490  1.00  0.00     0.135 A 
ATOM     53  C   UNL A   1      40.510  25.175  28.042  1.00  0.00     0.135 A 
ATOM     54  F   UNL A   1      43.384  25.749  25.902  1.00  0.00    -0.206 F 
ATOM     55  C   UNL A   1      42.045  23.838  26.162  1.00  0.00     0.059 A 
ATOM     56  C   UNL A   1      40.198  23.858  27.718  1.00  0.00     0.059 A 
ATOM     57  F   UNL A   1      39.785  25.719  29.031  1.00  0.00    -0.206 F 
ATOM     58  C   UNL A   1      40.982  23.187  26.791  1.00  0.00     0.060 A 
BRANCH  58  59
ATOM     59  S   UNL A   1      40.694  21.430  26.475  1.00  0.00     0.124 S 
ATOM     60  O   UNL A   1      39.401  21.453  25.802  1.00  0.00    -0.237 OA
ATOM     61  O   UNL A   1      41.840  21.076  25.645  1.00  0.00    -0.237 OA
ATOM     62  O   UNL A   1      40.692  20.840  27.812  1.00  0.00    -0.744 OA
ENDBRANCH  58  59
ENDBRANCH  26  51
BRANCH  38  63
ATOM     63  C   UNL A   1      45.280  30.920  28.814  1.00  0.00     0.058 A 
ATOM     64  C   UNL A   1      44.229  31.730  28.348  1.00  0.00     0.135 A 
ATOM     65  C   UNL A   1      46.559  31.174  28.297  1.00  0.00     0.135 A 
ATOM     66  F   UNL A   1      43.003  31.636  28.875  1.00  0.00    -0.206 F 
ATOM     67  C   UNL A   1      44.429  32.719  27.386  1.00  0.00     0.059 A 
ATOM     68  C   UNL A   1      46.789  32.179  27.359  1.00  0.00     0.059 A 
ATOM     69  F   UNL A   1      47.617  30.485  28.755  1.00  0.00    -0.206 F 
ATOM     70  C   UNL A   1      45.716  32.943  26.902  1.00  0.00     0.060 A 
BRANCH  70  71
ATOM     71  S   UNL A   1      45.987  34.308  25.752  1.00  0.00     0.124 S 
ATOM     72  O   UNL A   1      45.545  35.458  26.534  1.00  0.00    -0.237 OA
ATOM     73  O   UNL A   1      47.422  34.226  25.495  1.00  0.00    -0.237 OA
ATOM     74  O   UNL A   1      45.140  33.964  24.611  1.00  0.00    -0.744 OA
ENDBRANCH  70  71
ENDBRANCH  38  63
ENDBRANCH  12  13
ENDBRANCH   5   7
ENDBRANCH   2   3
ENDBRANCH   1   2
BRANCH   1  75
ATOM     75  C   UNL A   1      34.548  30.767  27.655  1.00  0.00     0.118 C 
BRANCH  75  76
ATOM     76  N   UNL A   1      33.153  30.984  27.304  1.00  0.00    -0.352 N 
ATOM     77  C   UNL A   1      32.382  30.432  26.314  1.00  0.00     0.252 C 
ATOM     78  H   UNL A   1      32.684  31.637  27.871  1.00  0.00     0.163 HD
ATOM     79  O   UNL A   1      31.336  30.996  26.007  1.00  0.00    -0.269 OA
BRANCH  77  80
ATOM     80  C   UNL A   1      32.805  29.204  25.657  1.00  0.00     0.050 A 
ATOM     81  C   UNL A   1      33.149  29.098  24.322  1.00  0.00     0.079 A 
ATOM     82  C   UNL A   1      33.040  27.960  26.336  1.00  0.00     0.031 A 
ATOM     83  S   UNL A   1      33.682  27.533  23.894  1.00  0.00    -0.146 S 
ATOM     84  C   UNL A   1      33.490  26.961  25.497  1.00  0.00     0.024 A 
BRANCH  84  85
ATOM     85  C   UNL A   1      33.806  25.528  25.824  1.00  0.00     0.159 C 
BRANCH  85  86
ATOM     86  N   UNL A   1      32.617  24.693  25.914  1.00  0.00    -0.379 N 
ATOM     87  H   UNL A   1      31.752  25.096  26.154  1.00  0.00     0.160 HD
BRANCH  86  88
ATOM     88  C   UNL A   1      32.699  23.332  25.664  1.00  0.00     0.053 A 
ATOM     89  C   UNL A   1      33.898  22.702  25.337  1.00  0.00     0.031 A 
ATOM     90  C   UNL A   1      31.559  22.528  25.659  1.00  0.00     0.139 A 
ATOM     91  C   UNL A   1      33.931  21.327  25.090  1.00  0.00     0.051 A 
ATOM     92  N   UNL A   1      31.544  21.208  25.359  1.00  0.00    -0.235 NA
ATOM     93  C   UNL A   1      32.735  20.612  25.111  1.00  0.00     0.153 A 
BRANCH  93  94
ATOM     94  N   UNL A   1      32.757  19.204  24.876  1.00  0.00    -0.223 N 
ATOM     95  C   UNL A   1      33.053  18.561  23.686  1.00  0.00     0.117 A 
ATOM     96  N   UNL A   1      32.465  18.305  25.853  1.00  0.00    -0.175 NA
ATOM     97  C   UNL A   1      32.947  17.211  23.919  1.00  0.00     0.042 A 
ATOM     98  C   UNL A   1      32.561  17.116  25.263  1.00  0.00     0.135 A 
ENDBRANCH  93  94
ENDBRANCH  86  88
ENDBRANCH  85  86
ENDBRANCH  84  85
ENDBRANCH  77  80
ENDBRANCH  75  76
ENDBRANCH   1  75
TORSDOF 17
ENDMDL
MODEL 3
REMARK VINA RESULT:     -10.8      4.875      7.982
REMARK SMILES O=C(NCCCNC(=O)c1csc(CNc2ccc(-n3cccn3)nc2)c1)c1ccc(-c2c3nc(c(-c4c(F)cc(S(=O)(=O)[O-])cc4F)c4ccc([nH]4)c(-c4c(F)cc(S(=O)(=O)[O-])cc4F)c4nc(c(-c5c(F)cc(S(=O)(=O)[O-])cc5F)c5ccc2[nH]5)C=C4)C=C3)cc1
REMARK SMILES IDX 5 1 4 2 3 3 1 4 2 5 28 7 29 8 93 9 30 10 92 11 31 12 32 13
REMARK SMILES IDX 33 14 86 15 34 16 91 17 85 18 87 19 35 20 90 21 84 22 83 23
REMARK SMILES IDX 36 25 70 26 49 27 69 28 50 29 53 30 68 31 88 32 51 33 52 34
REMARK SMILES IDX 67 36 89 37 54 38 37 39 38 40 47 41 39 42 40 43 46 44 48 45
REMARK SMILES IDX 41 46 42 47 43 48 44 49 45 50 71 51 72 52 81 53 73 54 74 55
REMARK SMILES IDX 80 56 82 57 75 58 76 59 77 60 78 61 79 62 55 63 56 64 65 65
REMARK SMILES IDX 57 66 58 67 64 68 66 69 59 70 60 71 61 72 62 73 63 74 6 75
REMARK SMILES IDX 7 76 8 77 9 79 10 80 11 81 27 82 12 83 13 84 14 85 15 86
REMARK SMILES IDX 16 88 17 89 26 90 18 91 25 92 19 93 20 94 21 95 24 96 22 97
REMARK SMILES IDX 23 98
REMARK H PARENT 3 6 87 24 53 35 7 78 15 87
REMARK Flexibility Score: inf
ROOT
ATOM      1  C   UNL A   1      33.262  28.209  25.991  1.00  0.00     0.042 C 
ENDROOT
BRANCH   1   2
ATOM      2  C   UNL A   1      33.466  28.734  27.412  1.00  0.00     0.118 C 
BRANCH   2   3
ATOM      3  N   UNL A   1      33.412  30.176  27.557  1.00  0.00    -0.352 N 
ATOM      4  O   UNL A   1      33.960  32.308  27.756  1.00  0.00    -0.269 OA
ATOM      5  C   UNL A   1      34.336  31.138  27.860  1.00  0.00     0.251 C 
ATOM      6  H   UNL A   1      32.513  30.542  27.403  1.00  0.00     0.163 HD
BRANCH   5   7
ATOM      7  C   UNL A   1      35.702  30.860  28.373  1.00  0.00     0.039 A 
ATOM      8  C   UNL A   1      36.521  31.777  29.037  1.00  0.00     0.014 A 
ATOM      9  C   UNL A   1      36.198  29.570  28.120  1.00  0.00     0.014 A 
ATOM     10  C   UNL A   1      37.846  31.469  29.319  1.00  0.00     0.010 A 
ATOM     11  C   UNL A   1      37.508  29.243  28.437  1.00  0.00     0.010 A 
ATOM     12  C   UNL A   1      38.348  30.215  28.981  1.00  0.00    -0.014 A 
BRANCH  12  13
ATOM     13  C   UNL A   1      39.751  29.923  29.265  1.00  0.00     0.031 A 
ATOM     14  C   UNL A   1      40.133  29.812  30.709  1.00  0.00     0.074 A 
ATOM     15  C   UNL A   1      40.580  29.558  28.265  1.00  0.00     0.049 A 
ATOM     16  N   UNL A   1      41.145  30.324  31.339  1.00  0.00    -0.248 NA
ATOM     17  C   UNL A   1      39.216  29.057  31.583  1.00  0.00     0.031 C 
ATOM     18  C   UNL A   1      40.232  29.334  26.856  1.00  0.00     0.029 A 
ATOM     19  N   UNL A   1      41.878  29.154  28.326  1.00  0.00    -0.354 N 
ATOM     20  C   UNL A   1      41.096  29.806  32.637  1.00  0.00     0.074 A 
ATOM     21  C   UNL A   1      39.830  29.132  32.763  1.00  0.00     0.031 C 
ATOM     22  C   UNL A   1      41.203  28.598  26.274  1.00  0.00     0.029 A 
ATOM     23  C   UNL A   1      42.279  28.406  27.229  1.00  0.00     0.049 A 
ATOM     24  H   UNL A   1      42.475  29.371  29.078  1.00  0.00     0.167 HD
ATOM     25  C   UNL A   1      42.165  29.793  33.481  1.00  0.00     0.037 A 
ATOM     26  C   UNL A   1      43.353  27.582  27.163  1.00  0.00     0.037 A 
ATOM     27  C   UNL A   1      43.168  30.749  33.111  1.00  0.00     0.049 A 
ATOM     28  C   UNL A   1      44.279  27.963  28.262  1.00  0.00     0.074 A 
ATOM     29  C   UNL A   1      43.204  32.125  32.994  1.00  0.00     0.029 A 
ATOM     30  N   UNL A   1      44.306  30.301  32.486  1.00  0.00    -0.354 N 
ATOM     31  N   UNL A   1      44.901  29.108  28.337  1.00  0.00    -0.248 NA
ATOM     32  C   UNL A   1      44.183  27.225  29.513  1.00  0.00     0.031 C 
ATOM     33  C   UNL A   1      44.069  32.380  31.891  1.00  0.00     0.029 A 
ATOM     34  C   UNL A   1      44.524  31.145  31.427  1.00  0.00     0.049 A 
ATOM     35  H   UNL A   1      44.857  29.527  32.747  1.00  0.00     0.167 HD
ATOM     36  C   UNL A   1      44.926  29.418  29.689  1.00  0.00     0.074 A 
ATOM     37  C   UNL A   1      44.552  28.181  30.368  1.00  0.00     0.031 C 
ATOM     38  C   UNL A   1      44.982  30.712  30.127  1.00  0.00     0.037 A 
BRANCH  25  39
ATOM     39  C   UNL A   1      42.425  28.690  34.479  1.00  0.00     0.058 A 
ATOM     40  C   UNL A   1      42.481  28.973  35.858  1.00  0.00     0.135 A 
ATOM     41  C   UNL A   1      42.897  27.413  34.096  1.00  0.00     0.135 A 
ATOM     42  F   UNL A   1      42.076  30.163  36.328  1.00  0.00    -0.206 F 
ATOM     43  C   UNL A   1      43.023  28.076  36.781  1.00  0.00     0.059 A 
ATOM     44  C   UNL A   1      43.390  26.485  35.005  1.00  0.00     0.059 A 
ATOM     45  F   UNL A   1      42.990  27.052  32.809  1.00  0.00    -0.206 F 
ATOM     46  C   UNL A   1      43.493  26.841  36.340  1.00  0.00     0.060 A 
BRANCH  46  47
ATOM     47  S   UNL A   1      44.318  25.736  37.501  1.00  0.00     0.124 S 
ATOM     48  O   UNL A   1      45.720  25.979  37.181  1.00  0.00    -0.237 OA
ATOM     49  O   UNL A   1      43.859  26.246  38.788  1.00  0.00    -0.237 OA
ATOM     50  O   UNL A   1      43.804  24.420  37.135  1.00  0.00    -0.744 OA
ENDBRANCH  46  47
ENDBRANCH  25  39
BRANCH  26  51
ATOM     51  C   UNL A   1      43.398  26.262  26.477  1.00  0.00     0.058 A 
ATOM     52  C   UNL A   1      44.325  25.991  25.459  1.00  0.00     0.135 A 
ATOM     53  C   UNL A   1      42.684  25.151  26.977  1.00  0.00     0.135 A 
ATOM     54  F   UNL A   1      45.079  26.980  24.955  1.00  0.00    -0.206 F 
ATOM     55  C   UNL A   1      44.542  24.695  24.974  1.00  0.00     0.059 A 
ATOM     56  C   UNL A   1      42.866  23.858  26.498  1.00  0.00     0.059 A 
ATOM     57  F   UNL A   1      41.842  25.275  28.014  1.00  0.00    -0.206 F 
ATOM     58  C   UNL A   1      43.812  23.632  25.508  1.00  0.00     0.060 A 
BRANCH  58  59
ATOM     59  S   UNL A   1      44.179  21.940  24.986  1.00  0.00     0.124 S 
ATOM     60  O   UNL A   1      44.361  22.102  23.548  1.00  0.00    -0.237 OA
ATOM     61  O   UNL A   1      45.382  21.636  25.752  1.00  0.00    -0.237 OA
ATOM     62  O   UNL A   1      42.986  21.196  25.383  1.00  0.00    -0.744 OA
ENDBRANCH  58  59
ENDBRANCH  26  51
BRANCH  38  63
ATOM     63  C   UNL A   1      45.251  31.796  29.114  1.00  0.00     0.058 A 
ATOM     64  C   UNL A   1      46.544  32.156  28.695  1.00  0.00     0.135 A 
ATOM     65  C   UNL A   1      44.174  32.350  28.407  1.00  0.00     0.135 A 
ATOM     66  F   UNL A   1      47.626  31.581  29.234  1.00  0.00    -0.206 F 
ATOM     67  C   UNL A   1      46.759  33.052  27.650  1.00  0.00     0.059 A 
ATOM     68  C   UNL A   1      44.365  33.224  27.338  1.00  0.00     0.059 A 
ATOM     69  F   UNL A   1      42.916  31.991  28.710  1.00  0.00    -0.206 F 
ATOM     70  C   UNL A   1      45.663  33.577  26.970  1.00  0.00     0.060 A 
BRANCH  70  71
ATOM     71  S   UNL A   1      45.954  34.638  25.538  1.00  0.00     0.124 S 
ATOM     72  O   UNL A   1      47.366  34.396  25.261  1.00  0.00    -0.237 OA
ATOM     73  O   UNL A   1      45.012  34.109  24.556  1.00  0.00    -0.237 OA
ATOM     74  O   UNL A   1      45.633  35.975  26.035  1.00  0.00    -0.744 OA
ENDBRANCH  70  71
ENDBRANCH  38  63
ENDBRANCH  12  13
ENDBRANCH   5   7
ENDBRANCH   2   3
ENDBRANCH   1   2
BRANCH   1  75
ATOM     75  C   UNL A   1      32.895  29.277  24.960  1.00  0.00     0.118 C 
BRANCH  75  76
ATOM     76  N   UNL A   1      31.462  29.325  24.711  1.00  0.00    -0.352 N 
ATOM     77  C   UNL A   1      30.686  28.635  23.817  1.00  0.00     0.252 C 
ATOM     78  H   UNL A   1      30.968  29.959  25.278  1.00  0.00     0.163 HD
ATOM     79  O   UNL A   1      29.565  29.065  23.565  1.00  0.00    -0.269 OA
BRANCH  77  80
ATOM     80  C   UNL A   1      31.191  27.420  23.195  1.00  0.00     0.050 A 
ATOM     81  C   UNL A   1      31.969  27.379  22.053  1.00  0.00     0.079 A 
ATOM     82  C   UNL A   1      31.052  26.103  23.754  1.00  0.00     0.031 A 
ATOM     83  S   UNL A   1      32.464  25.798  21.640  1.00  0.00    -0.146 S 
ATOM     84  C   UNL A   1      31.668  25.126  23.000  1.00  0.00     0.024 A 
BRANCH  84  85
ATOM     85  C   UNL A   1      31.709  23.641  23.235  1.00  0.00     0.159 C 
BRANCH  85  86
ATOM     86  N   UNL A   1      32.781  23.239  24.134  1.00  0.00    -0.379 N 
ATOM     87  H   UNL A   1      33.324  23.924  24.586  1.00  0.00     0.160 HD
BRANCH  86  88
ATOM     88  C   UNL A   1      33.040  21.896  24.356  1.00  0.00     0.053 A 
ATOM     89  C   UNL A   1      34.320  21.415  24.622  1.00  0.00     0.031 A 
ATOM     90  C   UNL A   1      32.031  20.938  24.254  1.00  0.00     0.139 A 
ATOM     91  C   UNL A   1      34.534  20.051  24.838  1.00  0.00     0.051 A 
ATOM     92  N   UNL A   1      32.214  19.604  24.388  1.00  0.00    -0.235 NA
ATOM     93  C   UNL A   1      33.456  19.175  24.713  1.00  0.00     0.153 A 
BRANCH  93  94
ATOM     94  N   UNL A   1      33.659  17.780  24.946  1.00  0.00    -0.223 N 
ATOM     95  C   UNL A   1      32.752  16.885  25.487  1.00  0.00     0.117 A 
ATOM     96  N   UNL A   1      34.832  17.163  24.648  1.00  0.00    -0.175 NA
ATOM     97  C   UNL A   1      33.372  15.659  25.531  1.00  0.00     0.042 A 
ATOM     98  C   UNL A   1      34.657  15.897  25.022  1.00  0.00     0.135 A 
ENDBRANCH  93  94
ENDBRANCH  86  88
ENDBRANCH  85  86
ENDBRANCH  84  85
ENDBRANCH  77  80
ENDBRANCH  75  76
ENDBRANCH   1  75
TORSDOF 17
ENDMDL
