MODEL 1
REMARK VINA RESULT:     -11.5      0.000      0.000
REMARK SMILES [N-]=[N+]=NC[C@@H](Nc1ccccc1Br)C(=O)NCCCNC(=O)c1ccc(-c2c3nc(c(-c4c(F)cc(S(=O)(=O)[O-])cc4F)c4ccc([nH]4)c(-c4c(F)cc(S(=O)(=O)[O-])cc4F)c4nc(c(-c5c(F)cc(S(=O)(=O)[O-])cc5F)c5ccc2[nH]5)C=C4)C=C3)cc1
REMARK SMILES IDX 18 1 17 2 16 3 14 4 15 5 5 7 4 8 3 9 1 10 2 11 6 12 7 14
REMARK SMILES IDX 8 15 12 16 9 17 11 18 13 19 10 20 19 21 20 22 21 23 22 25
REMARK SMILES IDX 23 26 24 27 88 28 25 29 87 30 26 31 27 32 28 33 81 34 29 35
REMARK SMILES IDX 86 36 80 37 82 38 30 39 85 40 79 41 78 42 31 44 65 45 44 46
REMARK SMILES IDX 64 47 45 48 48 49 63 50 83 51 46 52 47 53 62 55 84 56 49 57
REMARK SMILES IDX 32 58 33 59 42 60 34 61 35 62 41 63 43 64 36 65 37 66 38 67
REMARK SMILES IDX 39 68 40 69 66 70 67 71 76 72 68 73 69 74 75 75 77 76 70 77
REMARK SMILES IDX 71 78 72 79 73 80 74 81 50 82 51 83 60 84 52 85 53 86 59 87
REMARK SMILES IDX 61 88 54 89 55 90 56 91 57 92 58 93
REMARK H PARENT 16 6 6 13 20 24 82 43 48 54
REMARK Flexibility Score: inf
ROOT
ATOM      1  C   UNL A   1      34.509  32.396  27.929  1.00  0.00     0.042 C 
ENDROOT
BRANCH   1   2
ATOM      2  C   UNL A   1      34.893  33.861  28.016  1.00  0.00     0.117 C 
BRANCH   2   3
ATOM      3  N   UNL A   1      33.726  34.720  28.033  1.00  0.00    -0.354 N 
ATOM      4  C   UNL A   1      33.212  35.484  29.039  1.00  0.00     0.242 C 
ATOM      5  O   UNL A   1      32.147  36.067  28.805  1.00  0.00    -0.273 OA
ATOM      6  H   UNL A   1      33.225  34.759  27.186  1.00  0.00     0.163 HD
BRANCH   4   7
ATOM      7  C   UNL A   1      33.865  35.561  30.433  1.00  0.00     0.174 C 
BRANCH   7   8
ATOM      8  C   UNL A   1      32.883  36.324  31.352  1.00  0.00     0.125 C 
BRANCH   8   9
ATOM      9  N   UNL A   1      31.956  35.404  32.044  1.00  0.00    -0.091 NA
ATOM     10  N   UNL A   1      30.175  36.457  33.223  1.00  0.00    -0.003 NA
ATOM     11  N   UNL A   1      31.037  35.944  32.682  1.00  0.00     0.001 N 
ENDBRANCH   8   9
ENDBRANCH   7   8
BRANCH   7  12
ATOM     12  N   UNL A   1      34.283  34.266  31.032  1.00  0.00    -0.373 N 
ATOM     13  H   UNL A   1      33.852  33.458  30.670  1.00  0.00     0.161 HD
BRANCH  12  14
ATOM     14  C   UNL A   1      35.211  34.070  32.041  1.00  0.00     0.049 A 
ATOM     15  C   UNL A   1      34.697  33.996  33.351  1.00  0.00     0.027 A 
ATOM     16  C   UNL A   1      36.578  33.792  31.876  1.00  0.00     0.041 A 
ATOM     17  C   UNL A   1      35.470  33.541  34.423  1.00  0.00     0.002 A 
ATOM     18  C   UNL A   1      37.355  33.329  32.948  1.00  0.00     0.018 A 
ATOM     19  Br  UNL A   1      37.510  34.164  30.258  1.00  0.00    -0.049 Br
ATOM     20  C   UNL A   1      36.793  33.178  34.214  1.00  0.00     0.001 A 
ENDBRANCH  12  14
ENDBRANCH   7  12
ENDBRANCH   4   7
ENDBRANCH   2   3
ENDBRANCH   1   2
BRANCH   1  21
ATOM     21  C   UNL A   1      35.607  31.469  28.423  1.00  0.00     0.118 C 
BRANCH  21  22
ATOM     22  N   UNL A   1      35.455  31.122  29.831  1.00  0.00    -0.352 N 
ATOM     23  C   UNL A   1      36.341  30.493  30.673  1.00  0.00     0.251 C 
ATOM     24  H   UNL A   1      34.595  31.376  30.238  1.00  0.00     0.163 HD
ATOM     25  O   UNL A   1      35.969  30.103  31.776  1.00  0.00    -0.269 OA
BRANCH  23  26
ATOM     26  C   UNL A   1      37.730  30.268  30.226  1.00  0.00     0.039 A 
ATOM     27  C   UNL A   1      38.751  30.213  31.176  1.00  0.00     0.014 A 
ATOM     28  C   UNL A   1      38.015  30.079  28.871  1.00  0.00     0.014 A 
ATOM     29  C   UNL A   1      40.049  29.897  30.770  1.00  0.00     0.010 A 
ATOM     30  C   UNL A   1      39.282  29.662  28.485  1.00  0.00     0.010 A 
ATOM     31  C   UNL A   1      40.315  29.576  29.428  1.00  0.00    -0.014 A 
BRANCH  31  32
ATOM     32  C   UNL A   1      41.668  29.154  28.986  1.00  0.00     0.031 A 
ATOM     33  C   UNL A   1      42.781  30.163  28.901  1.00  0.00     0.074 A 
ATOM     34  C   UNL A   1      41.873  27.882  28.590  1.00  0.00     0.049 A 
ATOM     35  N   UNL A   1      44.008  30.005  28.476  1.00  0.00    -0.248 NA
ATOM     36  C   UNL A   1      42.464  31.539  29.317  1.00  0.00     0.031 C 
ATOM     37  C   UNL A   1      40.855  26.828  28.568  1.00  0.00     0.029 A 
ATOM     38  N   UNL A   1      43.001  27.261  28.118  1.00  0.00    -0.354 N 
ATOM     39  C   UNL A   1      44.600  31.261  28.557  1.00  0.00     0.074 A 
ATOM     40  C   UNL A   1      43.581  32.181  29.010  1.00  0.00     0.031 C 
ATOM     41  C   UNL A   1      41.412  25.688  28.133  1.00  0.00     0.029 A 
ATOM     42  C   UNL A   1      42.812  25.936  27.803  1.00  0.00     0.049 A 
ATOM     43  H   UNL A   1      43.866  27.720  28.016  1.00  0.00     0.167 HD
ATOM     44  C   UNL A   1      45.883  31.610  28.301  1.00  0.00     0.037 A 
ATOM     45  C   UNL A   1      43.665  25.026  27.295  1.00  0.00     0.037 A 
ATOM     46  C   UNL A   1      46.895  30.679  27.869  1.00  0.00     0.049 A 
ATOM     47  C   UNL A   1      45.087  25.432  27.021  1.00  0.00     0.074 A 
ATOM     48  C   UNL A   1      48.239  30.914  27.648  1.00  0.00     0.029 A 
ATOM     49  N   UNL A   1      46.670  29.340  27.584  1.00  0.00    -0.354 N 
ATOM     50  N   UNL A   1      45.654  26.606  27.178  1.00  0.00    -0.248 NA
ATOM     51  C   UNL A   1      45.990  24.392  26.512  1.00  0.00     0.031 C 
ATOM     52  C   UNL A   1      48.815  29.732  27.174  1.00  0.00     0.029 A 
ATOM     53  C   UNL A   1      47.845  28.742  27.161  1.00  0.00     0.049 A 
ATOM     54  H   UNL A   1      45.803  28.882  27.670  1.00  0.00     0.167 HD
ATOM     55  C   UNL A   1      46.984  26.440  26.811  1.00  0.00     0.074 A 
ATOM     56  C   UNL A   1      47.140  25.049  26.435  1.00  0.00     0.031 C 
ATOM     57  C   UNL A   1      47.986  27.355  26.790  1.00  0.00     0.037 A 
BRANCH  44  58
ATOM     58  C   UNL A   1      46.259  33.058  28.475  1.00  0.00     0.058 A 
ATOM     59  C   UNL A   1      46.712  33.565  29.703  1.00  0.00     0.135 A 
ATOM     60  C   UNL A   1      46.176  33.950  27.392  1.00  0.00     0.135 A 
ATOM     61  F   UNL A   1      46.798  32.763  30.777  1.00  0.00    -0.206 F 
ATOM     62  C   UNL A   1      47.028  34.910  29.865  1.00  0.00     0.059 A 
ATOM     63  C   UNL A   1      46.520  35.292  27.522  1.00  0.00     0.059 A 
ATOM     64  F   UNL A   1      45.750  33.522  26.194  1.00  0.00    -0.206 F 
ATOM     65  C   UNL A   1      46.925  35.767  28.768  1.00  0.00     0.060 A 
BRANCH  65  66
ATOM     66  S   UNL A   1      47.325  37.512  28.999  1.00  0.00     0.124 S 
ATOM     67  O   UNL A   1      48.362  37.439  30.024  1.00  0.00    -0.237 OA
ATOM     68  O   UNL A   1      47.777  37.906  27.669  1.00  0.00    -0.237 OA
ATOM     69  O   UNL A   1      46.059  38.098  29.428  1.00  0.00    -0.744 OA
ENDBRANCH  65  66
ENDBRANCH  44  58
BRANCH  45  70
ATOM     70  C   UNL A   1      43.195  23.638  27.040  1.00  0.00     0.058 A 
ATOM     71  C   UNL A   1      42.914  23.197  25.739  1.00  0.00     0.135 A 
ATOM     72  C   UNL A   1      43.062  22.711  28.087  1.00  0.00     0.135 A 
ATOM     73  F   UNL A   1      43.019  24.046  24.706  1.00  0.00    -0.206 F 
ATOM     74  C   UNL A   1      42.513  21.889  25.483  1.00  0.00     0.059 A 
ATOM     75  C   UNL A   1      42.689  21.391  27.853  1.00  0.00     0.059 A 
ATOM     76  F   UNL A   1      43.337  23.078  29.349  1.00  0.00    -0.206 F 
ATOM     77  C   UNL A   1      42.412  20.991  26.547  1.00  0.00     0.060 A 
BRANCH  77  78
ATOM     78  S   UNL A   1      41.966  19.278  26.193  1.00  0.00     0.124 S 
ATOM     79  O   UNL A   1      42.330  18.614  27.439  1.00  0.00    -0.237 OA
ATOM     80  O   UNL A   1      40.536  19.386  25.920  1.00  0.00    -0.237 OA
ATOM     81  O   UNL A   1      42.793  18.947  25.036  1.00  0.00    -0.744 OA
ENDBRANCH  77  78
ENDBRANCH  45  70
BRANCH  57  82
ATOM     82  C   UNL A   1      49.352  26.879  26.378  1.00  0.00     0.058 A 
ATOM     83  C   UNL A   1      50.219  26.242  27.280  1.00  0.00     0.135 A 
ATOM     84  C   UNL A   1      49.776  27.013  25.046  1.00  0.00     0.135 A 
ATOM     85  F   UNL A   1      49.866  26.096  28.567  1.00  0.00    -0.206 F 
ATOM     86  C   UNL A   1      51.467  25.774  26.881  1.00  0.00     0.059 A 
ATOM     87  C   UNL A   1      51.006  26.523  24.616  1.00  0.00     0.059 A 
ATOM     88  F   UNL A   1      48.982  27.605  24.139  1.00  0.00    -0.206 F 
ATOM     89  C   UNL A   1      51.849  25.916  25.545  1.00  0.00     0.060 A 
BRANCH  89  90
ATOM     90  S   UNL A   1      53.456  25.272  25.032  1.00  0.00     0.124 S 
ATOM     91  O   UNL A   1      54.361  26.014  25.902  1.00  0.00    -0.237 OA
ATOM     92  O   UNL A   1      53.326  23.847  25.321  1.00  0.00    -0.237 OA
ATOM     93  O   UNL A   1      53.524  25.614  23.615  1.00  0.00    -0.744 OA
ENDBRANCH  89  90
ENDBRANCH  57  82
ENDBRANCH  31  32
ENDBRANCH  23  26
ENDBRANCH  21  22
ENDBRANCH   1  21
TORSDOF 17
ENDMDL
MODEL 2
REMARK VINA RESULT:     -11.3      6.404     14.127
REMARK SMILES [N-]=[N+]=NC[C@@H](Nc1ccccc1Br)C(=O)NCCCNC(=O)c1ccc(-c2c3nc(c(-c4c(F)cc(S(=O)(=O)[O-])cc4F)c4ccc([nH]4)c(-c4c(F)cc(S(=O)(=O)[O-])cc4F)c4nc(c(-c5c(F)cc(S(=O)(=O)[O-])cc5F)c5ccc2[nH]5)C=C4)C=C3)cc1
REMARK SMILES IDX 18 1 17 2 16 3 14 4 15 5 5 7 4 8 3 9 1 10 2 11 6 12 7 14
REMARK SMILES IDX 8 15 12 16 9 17 11 18 13 19 10 20 19 21 20 22 21 23 22 25
REMARK SMILES IDX 23 26 24 27 88 28 25 29 87 30 26 31 27 32 28 33 81 34 29 35
REMARK SMILES IDX 86 36 80 37 82 38 30 39 85 40 79 41 78 42 31 44 65 45 44 46
REMARK SMILES IDX 64 47 45 48 48 49 63 50 83 51 46 52 47 53 62 55 84 56 49 57
REMARK SMILES IDX 32 58 33 59 42 60 34 61 35 62 41 63 43 64 36 65 37 66 38 67
REMARK SMILES IDX 39 68 40 69 66 70 67 71 76 72 68 73 69 74 75 75 77 76 70 77
REMARK SMILES IDX 71 78 72 79 73 80 74 81 50 82 51 83 60 84 52 85 53 86 59 87
REMARK SMILES IDX 61 88 54 89 55 90 56 91 57 92 58 93
REMARK H PARENT 16 6 6 13 20 24 82 43 48 54
REMARK Flexibility Score: inf
ROOT
ATOM      1  C   UNL A   1      40.994  22.312  27.708  1.00  0.00     0.042 C 
ENDROOT
BRANCH   1   2
ATOM      2  C   UNL A   1      41.315  21.315  26.610  1.00  0.00     0.117 C 
BRANCH   2   3
ATOM      3  N   UNL A   1      41.942  21.956  25.472  1.00  0.00    -0.354 N 
ATOM      4  C   UNL A   1      43.261  22.080  25.150  1.00  0.00     0.242 C 
ATOM      5  O   UNL A   1      43.527  22.753  24.147  1.00  0.00    -0.273 OA
ATOM      6  H   UNL A   1      41.318  22.367  24.830  1.00  0.00     0.163 HD
BRANCH   4   7
ATOM      7  C   UNL A   1      44.384  21.492  26.027  1.00  0.00     0.174 C 
BRANCH   7   8
ATOM      8  C   UNL A   1      45.235  20.574  25.118  1.00  0.00     0.125 C 
BRANCH   8   9
ATOM      9  N   UNL A   1      44.396  19.605  24.381  1.00  0.00    -0.091 NA
ATOM     10  N   UNL A   1      43.110  18.137  25.746  1.00  0.00    -0.003 NA
ATOM     11  N   UNL A   1      43.739  18.819  25.085  1.00  0.00     0.001 N 
ENDBRANCH   8   9
ENDBRANCH   7   8
BRANCH   7  12
ATOM     12  N   UNL A   1      45.226  22.475  26.756  1.00  0.00    -0.373 N 
ATOM     13  H   UNL A   1      46.196  22.425  26.593  1.00  0.00     0.161 HD
BRANCH  12  14
ATOM     14  C   UNL A   1      44.799  23.453  27.639  1.00  0.00     0.049 A 
ATOM     15  C   UNL A   1      44.397  23.006  28.914  1.00  0.00     0.027 A 
ATOM     16  C   UNL A   1      44.867  24.842  27.443  1.00  0.00     0.041 A 
ATOM     17  C   UNL A   1      44.201  23.890  29.978  1.00  0.00     0.002 A 
ATOM     18  C   UNL A   1      44.677  25.732  28.510  1.00  0.00     0.018 A 
ATOM     19  Br  UNL A   1      45.061  25.624  25.717  1.00  0.00    -0.049 Br
ATOM     20  C   UNL A   1      44.371  25.253  29.782  1.00  0.00     0.001 A 
ENDBRANCH  12  14
ENDBRANCH   7  12
ENDBRANCH   4   7
ENDBRANCH   2   3
ENDBRANCH   1   2
BRANCH   1  21
ATOM     21  C   UNL A   1      40.130  23.464  27.222  1.00  0.00     0.118 C 
BRANCH  21  22
ATOM     22  N   UNL A   1      40.743  24.196  26.118  1.00  0.00    -0.352 N 
ATOM     23  C   UNL A   1      41.119  25.516  26.053  1.00  0.00     0.251 C 
ATOM     24  H   UNL A   1      40.911  23.669  25.304  1.00  0.00     0.163 HD
ATOM     25  O   UNL A   1      41.437  26.011  24.976  1.00  0.00    -0.269 OA
BRANCH  23  26
ATOM     26  C   UNL A   1      41.111  26.333  27.283  1.00  0.00     0.039 A 
ATOM     27  C   UNL A   1      41.978  27.422  27.383  1.00  0.00     0.014 A 
ATOM     28  C   UNL A   1      40.223  26.041  28.321  1.00  0.00     0.014 A 
ATOM     29  C   UNL A   1      41.902  28.260  28.497  1.00  0.00     0.010 A 
ATOM     30  C   UNL A   1      40.077  26.932  29.375  1.00  0.00     0.010 A 
ATOM     31  C   UNL A   1      40.921  28.046  29.480  1.00  0.00    -0.014 A 
BRANCH  31  32
ATOM     32  C   UNL A   1      40.763  28.970  30.631  1.00  0.00     0.031 A 
ATOM     33  C   UNL A   1      41.643  28.822  31.842  1.00  0.00     0.074 A 
ATOM     34  C   UNL A   1      39.779  29.892  30.615  1.00  0.00     0.049 A 
ATOM     35  N   UNL A   1      41.615  29.485  32.970  1.00  0.00    -0.248 NA
ATOM     36  C   UNL A   1      42.668  27.766  31.794  1.00  0.00     0.031 C 
ATOM     37  C   UNL A   1      38.823  30.090  29.523  1.00  0.00     0.029 A 
ATOM     38  N   UNL A   1      39.411  30.826  31.549  1.00  0.00    -0.354 N 
ATOM     39  C   UNL A   1      42.602  28.916  33.766  1.00  0.00     0.074 A 
ATOM     40  C   UNL A   1      43.167  27.814  33.020  1.00  0.00     0.031 C 
ATOM     41  C   UNL A   1      37.997  31.100  29.839  1.00  0.00     0.029 A 
ATOM     42  C   UNL A   1      38.334  31.592  31.171  1.00  0.00     0.049 A 
ATOM     43  H   UNL A   1      39.876  30.939  32.410  1.00  0.00     0.167 HD
ATOM     44  C   UNL A   1      43.016  29.293  34.999  1.00  0.00     0.037 A 
ATOM     45  C   UNL A   1      37.683  32.572  31.825  1.00  0.00     0.037 A 
ATOM     46  C   UNL A   1      42.460  30.406  35.725  1.00  0.00     0.049 A 
ATOM     47  C   UNL A   1      38.161  32.980  33.192  1.00  0.00     0.074 A 
ATOM     48  C   UNL A   1      42.852  30.915  36.949  1.00  0.00     0.029 A 
ATOM     49  N   UNL A   1      41.385  31.172  35.298  1.00  0.00    -0.354 N 
ATOM     50  N   UNL A   1      39.149  32.485  33.901  1.00  0.00    -0.248 NA
ATOM     51  C   UNL A   1      37.448  34.085  33.845  1.00  0.00     0.031 C 
ATOM     52  C   UNL A   1      41.978  31.953  37.289  1.00  0.00     0.029 A 
ATOM     53  C   UNL A   1      41.082  32.134  36.248  1.00  0.00     0.049 A 
ATOM     54  H   UNL A   1      40.908  31.052  34.445  1.00  0.00     0.167 HD
ATOM     55  C   UNL A   1      39.191  33.233  35.072  1.00  0.00     0.074 A 
ATOM     56  C   UNL A   1      38.137  34.222  34.970  1.00  0.00     0.031 C 
ATOM     57  C   UNL A   1      40.028  33.113  36.133  1.00  0.00     0.037 A 
BRANCH  44  58
ATOM     58  C   UNL A   1      44.120  28.492  35.638  1.00  0.00     0.058 A 
ATOM     59  C   UNL A   1      45.475  28.786  35.418  1.00  0.00     0.135 A 
ATOM     60  C   UNL A   1      43.817  27.420  36.495  1.00  0.00     0.135 A 
ATOM     61  F   UNL A   1      45.825  29.790  34.598  1.00  0.00    -0.206 F 
ATOM     62  C   UNL A   1      46.489  28.022  35.987  1.00  0.00     0.059 A 
ATOM     63  C   UNL A   1      44.815  26.664  37.103  1.00  0.00     0.059 A 
ATOM     64  F   UNL A   1      42.539  27.093  36.743  1.00  0.00    -0.206 F 
ATOM     65  C   UNL A   1      46.148  26.960  36.826  1.00  0.00     0.060 A 
BRANCH  65  66
ATOM     66  S   UNL A   1      47.476  25.971  37.545  1.00  0.00     0.124 S 
ATOM     67  O   UNL A   1      48.385  25.837  36.411  1.00  0.00    -0.237 OA
ATOM     68  O   UNL A   1      47.943  26.821  38.635  1.00  0.00    -0.237 OA
ATOM     69  O   UNL A   1      46.801  24.743  37.956  1.00  0.00    -0.744 OA
ENDBRANCH  65  66
ENDBRANCH  44  58
BRANCH  45  70
ATOM     70  C   UNL A   1      36.526  33.248  31.179  1.00  0.00     0.058 A 
ATOM     71  C   UNL A   1      35.225  33.094  31.682  1.00  0.00     0.135 A 
ATOM     72  C   UNL A   1      36.702  34.095  30.074  1.00  0.00     0.135 A 
ATOM     73  F   UNL A   1      35.003  32.290  32.732  1.00  0.00    -0.206 F 
ATOM     74  C   UNL A   1      34.140  33.753  31.111  1.00  0.00     0.059 A 
ATOM     75  C   UNL A   1      35.638  34.785  29.503  1.00  0.00     0.059 A 
ATOM     76  F   UNL A   1      37.930  34.291  29.566  1.00  0.00    -0.206 F 
ATOM     77  C   UNL A   1      34.359  34.604  30.026  1.00  0.00     0.060 A 
BRANCH  77  78
ATOM     78  S   UNL A   1      32.955  35.511  29.343  1.00  0.00     0.124 S 
ATOM     79  O   UNL A   1      32.470  34.584  28.328  1.00  0.00    -0.237 OA
ATOM     80  O   UNL A   1      32.103  35.680  30.515  1.00  0.00    -0.237 OA
ATOM     81  O   UNL A   1      33.563  36.739  28.838  1.00  0.00    -0.744 OA
ENDBRANCH  77  78
ENDBRANCH  45  70
BRANCH  57  82
ATOM     82  C   UNL A   1      39.865  34.096  37.260  1.00  0.00     0.058 A 
ATOM     83  C   UNL A   1      40.420  35.384  37.208  1.00  0.00     0.135 A 
ATOM     84  C   UNL A   1      39.093  33.761  38.385  1.00  0.00     0.135 A 
ATOM     85  F   UNL A   1      41.174  35.753  36.160  1.00  0.00    -0.206 F 
ATOM     86  C   UNL A   1      40.234  36.298  38.240  1.00  0.00     0.059 A 
ATOM     87  C   UNL A   1      38.866  34.670  39.414  1.00  0.00     0.059 A 
ATOM     88  F   UNL A   1      38.529  32.546  38.482  1.00  0.00    -0.206 F 
ATOM     89  C   UNL A   1      39.451  35.932  39.337  1.00  0.00     0.060 A 
BRANCH  89  90
ATOM     90  S   UNL A   1      39.188  37.140  40.652  1.00  0.00     0.124 S 
ATOM     91  O   UNL A   1      38.279  38.082  40.009  1.00  0.00    -0.237 OA
ATOM     92  O   UNL A   1      38.608  36.323  41.714  1.00  0.00    -0.237 OA
ATOM     93  O   UNL A   1      40.530  37.647  40.924  1.00  0.00    -0.744 OA
ENDBRANCH  89  90
ENDBRANCH  57  82
ENDBRANCH  31  32
ENDBRANCH  23  26
ENDBRANCH  21  22
ENDBRANCH   1  21
TORSDOF 17
ENDMDL
MODEL 3
REMARK VINA RESULT:     -11.1      3.047      3.954
REMARK SMILES [N-]=[N+]=NC[C@@H](Nc1ccccc1Br)C(=O)NCCCNC(=O)c1ccc(-c2c3nc(c(-c4c(F)cc(S(=O)(=O)[O-])cc4F)c4ccc([nH]4)c(-c4c(F)cc(S(=O)(=O)[O-])cc4F)c4nc(c(-c5c(F)cc(S(=O)(=O)[O-])cc5F)c5ccc2[nH]5)C=C4)C=C3)cc1
REMARK SMILES IDX 18 1 17 2 16 3 14 4 15 5 5 7 4 8 3 9 1 10 2 11 6 12 7 14
REMARK SMILES IDX 8 15 12 16 9 17 11 18 13 19 10 20 19 21 20 22 21 23 22 25
REMARK SMILES IDX 23 26 24 27 88 28 25 29 87 30 26 31 27 32 28 33 81 34 29 35
REMARK SMILES IDX 86 36 80 37 82 38 30 39 85 40 79 41 78 42 31 44 65 45 44 46
REMARK SMILES IDX 64 47 45 48 48 49 63 50 83 51 46 52 47 53 62 55 84 56 49 57
REMARK SMILES IDX 32 58 33 59 42 60 34 61 35 62 41 63 43 64 36 65 37 66 38 67
REMARK SMILES IDX 39 68 40 69 66 70 67 71 76 72 68 73 69 74 75 75 77 76 70 77
REMARK SMILES IDX 71 78 72 79 73 80 74 81 50 82 51 83 60 84 52 85 53 86 59 87
REMARK SMILES IDX 61 88 54 89 55 90 56 91 57 92 58 93
REMARK H PARENT 16 6 6 13 20 24 82 43 48 54
REMARK Flexibility Score: inf
ROOT
ATOM      1  C   UNL A   1      35.681  33.334  29.615  1.00  0.00     0.042 C 
ENDROOT
BRANCH   1   2
ATOM      2  C   UNL A   1      34.703  34.295  30.264  1.00  0.00     0.117 C 
BRANCH   2   3
ATOM      3  N   UNL A   1      33.887  33.633  31.263  1.00  0.00    -0.354 N 
ATOM      4  C   UNL A   1      34.002  33.619  32.621  1.00  0.00     0.242 C 
ATOM      5  O   UNL A   1      33.207  32.901  33.239  1.00  0.00    -0.273 OA
ATOM      6  H   UNL A   1      33.132  33.113  30.905  1.00  0.00     0.163 HD
BRANCH   4   7
ATOM      7  C   UNL A   1      35.114  34.385  33.365  1.00  0.00     0.174 C 
BRANCH   7   8
ATOM      8  C   UNL A   1      34.493  35.707  33.873  1.00  0.00     0.125 C 
BRANCH   8   9
ATOM      9  N   UNL A   1      34.803  36.837  32.972  1.00  0.00    -0.091 NA
ATOM     10  N   UNL A   1      32.909  37.966  32.073  1.00  0.00    -0.003 NA
ATOM     11  N   UNL A   1      33.822  37.418  32.479  1.00  0.00     0.001 N 
ENDBRANCH   8   9
ENDBRANCH   7   8
BRANCH   7  12
ATOM     12  N   UNL A   1      35.799  33.646  34.457  1.00  0.00    -0.373 N 
ATOM     13  H   UNL A   1      35.506  33.851  35.374  1.00  0.00     0.161 HD
BRANCH  12  14
ATOM     14  C   UNL A   1      36.803  32.700  34.328  1.00  0.00     0.049 A 
ATOM     15  C   UNL A   1      36.855  32.014  33.098  1.00  0.00     0.027 A 
ATOM     16  C   UNL A   1      37.852  32.467  35.233  1.00  0.00     0.041 A 
ATOM     17  C   UNL A   1      37.958  31.238  32.731  1.00  0.00     0.002 A 
ATOM     18  C   UNL A   1      38.963  31.694  34.866  1.00  0.00     0.018 A 
ATOM     19  Br  UNL A   1      37.782  33.034  37.049  1.00  0.00    -0.049 Br
ATOM     20  C   UNL A   1      39.027  31.103  33.605  1.00  0.00     0.001 A 
ENDBRANCH  12  14
ENDBRANCH   7  12
ENDBRANCH   4   7
ENDBRANCH   2   3
ENDBRANCH   1   2
BRANCH   1  21
ATOM     21  C   UNL A   1      35.330  33.027  28.168  1.00  0.00     0.118 C 
BRANCH  21  22
ATOM     22  N   UNL A   1      34.352  31.951  28.045  1.00  0.00    -0.352 N 
ATOM     23  C   UNL A   1      34.557  30.595  27.963  1.00  0.00     0.251 C 
ATOM     24  H   UNL A   1      33.411  32.238  28.017  1.00  0.00     0.163 HD
ATOM     25  O   UNL A   1      33.628  29.851  27.664  1.00  0.00    -0.269 OA
BRANCH  23  26
ATOM     26  C   UNL A   1      35.906  30.049  28.213  1.00  0.00     0.039 A 
ATOM     27  C   UNL A   1      36.837  30.030  27.174  1.00  0.00     0.014 A 
ATOM     28  C   UNL A   1      36.258  29.587  29.484  1.00  0.00     0.014 A 
ATOM     29  C   UNL A   1      38.145  29.614  27.431  1.00  0.00     0.010 A 
ATOM     30  C   UNL A   1      37.581  29.273  29.761  1.00  0.00     0.010 A 
ATOM     31  C   UNL A   1      38.537  29.273  28.736  1.00  0.00    -0.014 A 
BRANCH  31  32
ATOM     32  C   UNL A   1      39.941  28.908  29.053  1.00  0.00     0.031 A 
ATOM     33  C   UNL A   1      40.862  29.924  29.672  1.00  0.00     0.074 A 
ATOM     34  C   UNL A   1      40.405  27.689  28.713  1.00  0.00     0.049 A 
ATOM     35  N   UNL A   1      42.134  29.820  29.960  1.00  0.00    -0.248 NA
ATOM     36  C   UNL A   1      40.286  31.245  29.978  1.00  0.00     0.031 C 
ATOM     37  C   UNL A   1      39.625  26.640  28.052  1.00  0.00     0.029 A 
ATOM     38  N   UNL A   1      41.648  27.129  28.866  1.00  0.00    -0.354 N 
ATOM     39  C   UNL A   1      42.510  31.061  30.461  1.00  0.00     0.074 A 
ATOM     40  C   UNL A   1      41.351  31.921  30.379  1.00  0.00     0.031 C 
ATOM     41  C   UNL A   1      40.398  25.558  27.881  1.00  0.00     0.029 A 
ATOM     42  C   UNL A   1      41.740  25.847  28.378  1.00  0.00     0.049 A 
ATOM     43  H   UNL A   1      42.404  27.600  29.287  1.00  0.00     0.167 HD
ATOM     44  C   UNL A   1      43.708  31.441  30.967  1.00  0.00     0.037 A 
ATOM     45  C   UNL A   1      42.788  25.003  28.326  1.00  0.00     0.037 A 
ATOM     46  C   UNL A   1      44.850  30.569  31.062  1.00  0.00     0.049 A 
ATOM     47  C   UNL A   1      44.108  25.442  28.897  1.00  0.00     0.074 A 
ATOM     48  C   UNL A   1      46.087  30.832  31.620  1.00  0.00     0.029 A 
ATOM     49  N   UNL A   1      44.897  29.269  30.579  1.00  0.00    -0.354 N 
ATOM     50  N   UNL A   1      44.428  26.593  29.441  1.00  0.00    -0.248 NA
ATOM     51  C   UNL A   1      45.207  24.469  28.859  1.00  0.00     0.031 C 
ATOM     52  C   UNL A   1      46.901  29.712  31.422  1.00  0.00     0.029 A 
ATOM     53  C   UNL A   1      46.152  28.726  30.800  1.00  0.00     0.049 A 
ATOM     54  H   UNL A   1      44.148  28.800  30.143  1.00  0.00     0.167 HD
ATOM     55  C   UNL A   1      45.757  26.474  29.832  1.00  0.00     0.074 A 
ATOM     56  C   UNL A   1      46.177  25.134  29.472  1.00  0.00     0.031 C 
ATOM     57  C   UNL A   1      46.556  27.390  30.436  1.00  0.00     0.037 A 
BRANCH  44  58
ATOM     58  C   UNL A   1      43.841  32.862  31.448  1.00  0.00     0.058 A 
ATOM     59  C   UNL A   1      44.297  33.891  30.607  1.00  0.00     0.135 A 
ATOM     60  C   UNL A   1      43.494  33.203  32.766  1.00  0.00     0.135 A 
ATOM     61  F   UNL A   1      44.655  33.622  29.342  1.00  0.00    -0.206 F 
ATOM     62  C   UNL A   1      44.446  35.195  31.067  1.00  0.00     0.059 A 
ATOM     63  C   UNL A   1      43.604  34.508  33.237  1.00  0.00     0.059 A 
ATOM     64  F   UNL A   1      43.052  32.262  33.614  1.00  0.00    -0.206 F 
ATOM     65  C   UNL A   1      44.100  35.493  32.386  1.00  0.00     0.060 A 
BRANCH  65  66
ATOM     66  S   UNL A   1      44.314  37.188  32.970  1.00  0.00     0.124 S 
ATOM     67  O   UNL A   1      44.257  37.936  31.718  1.00  0.00    -0.237 OA
ATOM     68  O   UNL A   1      43.170  37.357  33.860  1.00  0.00    -0.237 OA
ATOM     69  O   UNL A   1      45.617  37.160  33.626  1.00  0.00    -0.744 OA
ENDBRANCH  65  66
ENDBRANCH  44  58
BRANCH  45  70
ATOM     70  C   UNL A   1      42.615  23.650  27.732  1.00  0.00     0.058 A 
ATOM     71  C   UNL A   1      42.726  23.448  26.349  1.00  0.00     0.135 A 
ATOM     72  C   UNL A   1      42.381  22.525  28.540  1.00  0.00     0.135 A 
ATOM     73  F   UNL A   1      42.943  24.490  25.534  1.00  0.00    -0.206 F 
ATOM     74  C   UNL A   1      42.607  22.181  25.785  1.00  0.00     0.059 A 
ATOM     75  C   UNL A   1      42.285  21.245  28.003  1.00  0.00     0.059 A 
ATOM     76  F   UNL A   1      42.285  22.662  29.872  1.00  0.00    -0.206 F 
ATOM     77  C   UNL A   1      42.395  21.084  26.622  1.00  0.00     0.060 A 
BRANCH  77  78
ATOM     78  S   UNL A   1      42.319  19.436  25.887  1.00  0.00     0.124 S 
ATOM     79  O   UNL A   1      40.903  19.328  25.553  1.00  0.00    -0.237 OA
ATOM     80  O   UNL A   1      43.234  19.565  24.758  1.00  0.00    -0.237 OA
ATOM     81  O   UNL A   1      42.782  18.566  26.964  1.00  0.00    -0.744 OA
ENDBRANCH  77  78
ENDBRANCH  45  70
BRANCH  57  82
ATOM     82  C   UNL A   1      47.958  26.968  30.780  1.00  0.00     0.058 A 
ATOM     83  C   UNL A   1      49.056  27.319  29.979  1.00  0.00     0.135 A 
ATOM     84  C   UNL A   1      48.212  26.250  31.961  1.00  0.00     0.135 A 
ATOM     85  F   UNL A   1      48.869  27.998  28.836  1.00  0.00    -0.206 F 
ATOM     86  C   UNL A   1      50.353  26.954  30.324  1.00  0.00     0.059 A 
ATOM     87  C   UNL A   1      49.504  25.903  32.343  1.00  0.00     0.059 A 
ATOM     88  F   UNL A   1      47.199  25.897  32.769  1.00  0.00    -0.206 F 
ATOM     89  C   UNL A   1      50.567  26.249  31.511  1.00  0.00     0.060 A 
BRANCH  89  90
ATOM     90  S   UNL A   1      52.259  25.814  31.965  1.00  0.00     0.124 S 
ATOM     91  O   UNL A   1      52.570  26.836  32.958  1.00  0.00    -0.237 OA
ATOM     92  O   UNL A   1      52.103  24.457  32.480  1.00  0.00    -0.237 OA
ATOM     93  O   UNL A   1      52.988  25.919  30.705  1.00  0.00    -0.744 OA
ENDBRANCH  89  90
ENDBRANCH  57  82
ENDBRANCH  31  32
ENDBRANCH  23  26
ENDBRANCH  21  22
ENDBRANCH   1  21
TORSDOF 17
ENDMDL
