MODEL 1
REMARK VINA RESULT:     -12.7      0.000      0.000
REMARK SMILES CC(C)Oc1ccc(-c2ccc(/C(=C\c3ccc(S(C)(=O)=O)cc3)C(=O)NCCCNC(=O)c3ccc(-c4c5nc(c(-c6c(F)cc(S(=O)(=O)[O-])cc6F)c6ccc([nH]6)c(-c6c(F)cc(S(=O)(=O)[O-])cc6F)c6nc(c(-c7c(F)cc(S(=O)(=O)[O-])cc7F)c7ccc4[nH]7)C=C6)C=C5)cc3)cc2)cc1
REMARK SMILES IDX 28 1 27 2 25 3 26 4 13 6 14 7 12 8 9 9 10 10 101 11 11 12
REMARK SMILES IDX 100 13 8 14 5 15 6 16 103 17 7 18 102 19 4 20 2 21 1 22 3 23
REMARK SMILES IDX 15 24 16 25 24 26 17 27 23 28 18 29 19 30 20 31 21 32 22 33
REMARK SMILES IDX 29 34 30 35 31 36 32 37 33 39 34 40 35 41 99 42 36 43 98 44
REMARK SMILES IDX 37 45 38 46 39 47 92 48 40 49 97 50 91 51 93 52 41 53 96 54
REMARK SMILES IDX 90 55 89 56 42 58 76 59 55 60 75 61 56 62 59 63 74 64 94 65
REMARK SMILES IDX 57 66 58 67 73 69 95 70 60 71 43 72 44 73 53 74 45 75 46 76
REMARK SMILES IDX 52 77 54 78 47 79 48 80 49 81 50 82 51 83 77 84 78 85 87 86
REMARK SMILES IDX 79 87 80 88 86 89 88 90 81 91 82 92 83 93 84 94 85 95 61 96
REMARK SMILES IDX 62 97 71 98 63 99 64 100 70 101 72 102 65 103 66 104 67 105
REMARK SMILES IDX 68 106 69 107
REMARK H PARENT 27 5 31 38 93 57 59 68
REMARK Flexibility Score: inf
ROOT
ATOM      1  C   UNL A   1      34.866  24.022  24.582  1.00  0.00     0.118 C 
ENDROOT
BRANCH   1   2
ATOM      2  N   UNL A   1      33.855  23.605  25.535  1.00  0.00    -0.352 N 
ATOM      3  C   UNL A   1      32.693  24.140  25.999  1.00  0.00     0.251 C 
ATOM      4  O   UNL A   1      32.119  23.437  26.834  1.00  0.00    -0.269 OA
ATOM      5  H   UNL A   1      34.056  22.732  25.941  1.00  0.00     0.163 HD
BRANCH   3   6
ATOM      6  C   UNL A   1      32.091  25.450  25.503  1.00  0.00     0.047 C 
ATOM      7  C   UNL A   1      31.357  25.429  24.362  1.00  0.00     0.022 C 
BRANCH   6   8
ATOM      8  C   UNL A   1      32.466  26.747  26.176  1.00  0.00    -0.013 A 
ATOM      9  C   UNL A   1      33.073  29.422  27.063  1.00  0.00    -0.018 A 
ATOM     10  C   UNL A   1      31.823  28.832  27.291  1.00  0.00     0.009 A 
ATOM     11  C   UNL A   1      34.043  28.608  26.470  1.00  0.00     0.009 A 
ATOM     12  C   UNL A   1      31.550  27.508  26.914  1.00  0.00     0.009 A 
ATOM     13  C   UNL A   1      33.736  27.316  26.011  1.00  0.00     0.009 A 
BRANCH   9  14
ATOM     14  C   UNL A   1      33.343  30.834  27.417  1.00  0.00    -0.018 A 
ATOM     15  C   UNL A   1      33.860  33.543  28.096  1.00  0.00     0.119 A 
ATOM     16  C   UNL A   1      34.815  32.559  28.334  1.00  0.00     0.047 A 
ATOM     17  C   UNL A   1      32.656  33.188  27.504  1.00  0.00     0.047 A 
ATOM     18  C   UNL A   1      34.560  31.224  28.001  1.00  0.00     0.012 A 
ATOM     19  C   UNL A   1      32.394  31.848  27.187  1.00  0.00     0.012 A 
BRANCH  15  20
ATOM     20  O   UNL A   1      34.243  34.825  28.348  1.00  0.00    -0.491 OA
BRANCH  20  21
ATOM     21  C   UNL A   1      33.282  35.761  28.860  1.00  0.00     0.167 C 
ATOM     22  C   UNL A   1      32.922  35.520  30.322  1.00  0.00     0.052 C 
ATOM     23  C   UNL A   1      33.607  37.221  28.557  1.00  0.00     0.052 C 
ENDBRANCH  20  21
ENDBRANCH  15  20
ENDBRANCH   9  14
ENDBRANCH   6   8
BRANCH   7  24
ATOM     24  C   UNL A   1      30.557  26.493  23.739  1.00  0.00    -0.025 A 
ATOM     25  C   UNL A   1      29.183  26.543  24.032  1.00  0.00     0.009 A 
ATOM     26  C   UNL A   1      31.131  27.487  22.941  1.00  0.00     0.009 A 
ATOM     27  C   UNL A   1      28.401  27.607  23.582  1.00  0.00     0.021 A 
ATOM     28  C   UNL A   1      30.353  28.558  22.490  1.00  0.00     0.021 A 
ATOM     29  C   UNL A   1      28.995  28.613  22.819  1.00  0.00     0.067 A 
BRANCH  29  30
ATOM     30  S   UNL A   1      28.021  30.026  22.352  1.00  0.00     0.175 S 
ATOM     31  C   UNL A   1      29.026  31.406  22.829  1.00  0.00     0.163 C 
ATOM     32  O   UNL A   1      27.918  30.016  20.905  1.00  0.00    -0.224 OA
ATOM     33  O   UNL A   1      26.827  30.034  23.177  1.00  0.00    -0.224 OA
ENDBRANCH  29  30
ENDBRANCH   7  24
ENDBRANCH   3   6
ENDBRANCH   1   2
BRANCH   1  34
ATOM     34  C   UNL A   1      36.085  23.098  24.643  1.00  0.00     0.042 C 
BRANCH  34  35
ATOM     35  C   UNL A   1      36.954  23.322  25.877  1.00  0.00     0.118 C 
BRANCH  35  36
ATOM     36  N   UNL A   1      37.865  22.211  26.101  1.00  0.00    -0.352 N 
ATOM     37  C   UNL A   1      39.211  22.219  26.362  1.00  0.00     0.251 C 
ATOM     38  H   UNL A   1      37.454  21.318  26.056  1.00  0.00     0.163 HD
ATOM     39  O   UNL A   1      39.853  21.181  26.222  1.00  0.00    -0.269 OA
BRANCH  37  40
ATOM     40  C   UNL A   1      39.883  23.455  26.818  1.00  0.00     0.039 A 
ATOM     41  C   UNL A   1      40.634  23.422  27.995  1.00  0.00     0.014 A 
ATOM     42  C   UNL A   1      39.715  24.661  26.130  1.00  0.00     0.014 A 
ATOM     43  C   UNL A   1      41.238  24.591  28.466  1.00  0.00     0.010 A 
ATOM     44  C   UNL A   1      40.388  25.803  26.552  1.00  0.00     0.010 A 
ATOM     45  C   UNL A   1      41.134  25.788  27.739  1.00  0.00    -0.014 A 
BRANCH  45  46
ATOM     46  C   UNL A   1      41.747  27.047  28.234  1.00  0.00     0.031 A 
ATOM     47  C   UNL A   1      43.231  27.262  28.083  1.00  0.00     0.074 A 
ATOM     48  C   UNL A   1      40.981  27.968  28.849  1.00  0.00     0.049 A 
ATOM     49  N   UNL A   1      43.972  28.248  28.522  1.00  0.00    -0.248 NA
ATOM     50  C   UNL A   1      43.988  26.220  27.368  1.00  0.00     0.031 C 
ATOM     51  C   UNL A   1      39.540  27.854  29.085  1.00  0.00     0.029 A 
ATOM     52  N   UNL A   1      41.309  29.183  29.399  1.00  0.00    -0.354 N 
ATOM     53  C   UNL A   1      45.273  27.942  28.141  1.00  0.00     0.074 A 
ATOM     54  C   UNL A   1      45.235  26.648  27.498  1.00  0.00     0.031 C 
ATOM     55  C   UNL A   1      39.106  28.961  29.711  1.00  0.00     0.029 A 
ATOM     56  C   UNL A   1      40.240  29.844  29.961  1.00  0.00     0.049 A 
ATOM     57  H   UNL A   1      42.224  29.547  29.393  1.00  0.00     0.167 HD
ATOM     58  C   UNL A   1      46.395  28.687  28.284  1.00  0.00     0.037 A 
ATOM     59  C   UNL A   1      40.188  31.021  30.612  1.00  0.00     0.037 A 
ATOM     60  C   UNL A   1      46.420  29.987  28.902  1.00  0.00     0.049 A 
ATOM     61  C   UNL A   1      41.456  31.820  30.774  1.00  0.00     0.074 A 
ATOM     62  C   UNL A   1      47.499  30.835  29.078  1.00  0.00     0.029 A 
ATOM     63  N   UNL A   1      45.313  30.632  29.432  1.00  0.00    -0.354 N 
ATOM     64  N   UNL A   1      42.672  31.530  30.375  1.00  0.00    -0.248 NA
ATOM     65  C   UNL A   1      41.343  33.113  31.463  1.00  0.00     0.031 C 
ATOM     66  C   UNL A   1      47.053  31.977  29.749  1.00  0.00     0.029 A 
ATOM     67  C   UNL A   1      45.685  31.866  29.938  1.00  0.00     0.049 A 
ATOM     68  H   UNL A   1      44.399  30.267  29.446  1.00  0.00     0.167 HD
ATOM     69  C   UNL A   1      43.457  32.626  30.722  1.00  0.00     0.074 A 
ATOM     70  C   UNL A   1      42.577  33.585  31.354  1.00  0.00     0.031 C 
ATOM     71  C   UNL A   1      44.785  32.822  30.533  1.00  0.00     0.037 A 
BRANCH  58  72
ATOM     72  C   UNL A   1      47.684  28.134  27.739  1.00  0.00     0.058 A 
ATOM     73  C   UNL A   1      48.563  27.396  28.549  1.00  0.00     0.135 A 
ATOM     74  C   UNL A   1      48.014  28.280  26.382  1.00  0.00     0.135 A 
ATOM     75  F   UNL A   1      48.309  27.243  29.859  1.00  0.00    -0.206 F 
ATOM     76  C   UNL A   1      49.726  26.832  28.036  1.00  0.00     0.059 A 
ATOM     77  C   UNL A   1      49.157  27.699  25.841  1.00  0.00     0.059 A 
ATOM     78  F   UNL A   1      47.213  28.981  25.563  1.00  0.00    -0.206 F 
ATOM     79  C   UNL A   1      50.010  26.981  26.679  1.00  0.00     0.060 A 
BRANCH  79  80
ATOM     80  S   UNL A   1      51.499  26.199  26.023  1.00  0.00     0.124 S 
ATOM     81  O   UNL A   1      51.402  24.860  26.597  1.00  0.00    -0.237 OA
ATOM     82  O   UNL A   1      51.286  26.288  24.582  1.00  0.00    -0.237 OA
ATOM     83  O   UNL A   1      52.579  27.028  26.548  1.00  0.00    -0.744 OA
ENDBRANCH  79  80
ENDBRANCH  58  72
BRANCH  59  84
ATOM     84  C   UNL A   1      38.898  31.531  31.155  1.00  0.00     0.058 A 
ATOM     85  C   UNL A   1      38.092  32.407  30.410  1.00  0.00     0.135 A 
ATOM     86  C   UNL A   1      38.467  31.191  32.447  1.00  0.00     0.135 A 
ATOM     87  F   UNL A   1      38.459  32.763  29.169  1.00  0.00    -0.206 F 
ATOM     88  C   UNL A   1      36.935  32.968  30.943  1.00  0.00     0.059 A 
ATOM     89  C   UNL A   1      37.296  31.711  32.988  1.00  0.00     0.059 A 
ATOM     90  F   UNL A   1      39.185  30.339  33.194  1.00  0.00    -0.206 F 
ATOM     91  C   UNL A   1      36.550  32.619  32.237  1.00  0.00     0.060 A 
BRANCH  91  92
ATOM     92  S   UNL A   1      35.055  33.361  32.927  1.00  0.00     0.124 S 
ATOM     93  O   UNL A   1      35.188  33.027  34.340  1.00  0.00    -0.237 OA
ATOM     94  O   UNL A   1      35.226  34.769  32.583  1.00  0.00    -0.237 OA
ATOM     95  O   UNL A   1      33.982  32.675  32.213  1.00  0.00    -0.744 OA
ENDBRANCH  91  92
ENDBRANCH  59  84
BRANCH  71  96
ATOM     96  C   UNL A   1      45.355  34.153  30.943  1.00  0.00     0.058 A 
ATOM     97  C   UNL A   1      45.400  35.247  30.067  1.00  0.00     0.135 A 
ATOM     98  C   UNL A   1      45.827  34.341  32.254  1.00  0.00     0.135 A 
ATOM     99  F   UNL A   1      44.966  35.120  28.802  1.00  0.00    -0.206 F 
ATOM    100  C   UNL A   1      45.926  36.472  30.464  1.00  0.00     0.059 A 
ATOM    101  C   UNL A   1      46.324  35.567  32.682  1.00  0.00     0.059 A 
ATOM    102  F   UNL A   1      45.794  33.331  33.137  1.00  0.00    -0.206 F 
ATOM    103  C   UNL A   1      46.385  36.622  31.773  1.00  0.00     0.060 A 
BRANCH 103 104
ATOM    104  S   UNL A   1      47.046  38.223  32.281  1.00  0.00     0.124 S 
ATOM    105  O   UNL A   1      46.298  39.135  31.423  1.00  0.00    -0.237 OA
ATOM    106  O   UNL A   1      46.704  38.265  33.701  1.00  0.00    -0.237 OA
ATOM    107  O   UNL A   1      48.472  38.113  31.990  1.00  0.00    -0.744 OA
ENDBRANCH 103 104
ENDBRANCH  71  96
ENDBRANCH  45  46
ENDBRANCH  37  40
ENDBRANCH  35  36
ENDBRANCH  34  35
ENDBRANCH   1  34
TORSDOF 19
ENDMDL
MODEL 2
REMARK VINA RESULT:     -12.0      4.894      7.679
REMARK SMILES CC(C)Oc1ccc(-c2ccc(/C(=C\c3ccc(S(C)(=O)=O)cc3)C(=O)NCCCNC(=O)c3ccc(-c4c5nc(c(-c6c(F)cc(S(=O)(=O)[O-])cc6F)c6ccc([nH]6)c(-c6c(F)cc(S(=O)(=O)[O-])cc6F)c6nc(c(-c7c(F)cc(S(=O)(=O)[O-])cc7F)c7ccc4[nH]7)C=C6)C=C5)cc3)cc2)cc1
REMARK SMILES IDX 28 1 27 2 25 3 26 4 13 6 14 7 12 8 9 9 10 10 101 11 11 12
REMARK SMILES IDX 100 13 8 14 5 15 6 16 103 17 7 18 102 19 4 20 2 21 1 22 3 23
REMARK SMILES IDX 15 24 16 25 24 26 17 27 23 28 18 29 19 30 20 31 21 32 22 33
REMARK SMILES IDX 29 34 30 35 31 36 32 37 33 39 34 40 35 41 99 42 36 43 98 44
REMARK SMILES IDX 37 45 38 46 39 47 92 48 40 49 97 50 91 51 93 52 41 53 96 54
REMARK SMILES IDX 90 55 89 56 42 58 76 59 55 60 75 61 56 62 59 63 74 64 94 65
REMARK SMILES IDX 57 66 58 67 73 69 95 70 60 71 43 72 44 73 53 74 45 75 46 76
REMARK SMILES IDX 52 77 54 78 47 79 48 80 49 81 50 82 51 83 77 84 78 85 87 86
REMARK SMILES IDX 79 87 80 88 86 89 88 90 81 91 82 92 83 93 84 94 85 95 61 96
REMARK SMILES IDX 62 97 71 98 63 99 64 100 70 101 72 102 65 103 66 104 67 105
REMARK SMILES IDX 68 106 69 107
REMARK H PARENT 27 5 31 38 93 57 59 68
REMARK Flexibility Score: inf
ROOT
ATOM      1  C   UNL A   1      39.791  21.698  26.469  1.00  0.00     0.118 C 
ENDROOT
BRANCH   1   2
ATOM      2  N   UNL A   1      39.193  23.018  26.540  1.00  0.00    -0.352 N 
ATOM      3  C   UNL A   1      37.990  23.548  26.190  1.00  0.00     0.251 C 
ATOM      4  O   UNL A   1      37.888  24.754  26.428  1.00  0.00    -0.269 OA
ATOM      5  H   UNL A   1      39.800  23.686  26.933  1.00  0.00     0.163 HD
BRANCH   3   6
ATOM      6  C   UNL A   1      36.827  22.742  25.623  1.00  0.00     0.047 C 
ATOM      7  C   UNL A   1      36.994  21.407  25.449  1.00  0.00     0.022 C 
BRANCH   6   8
ATOM      8  C   UNL A   1      35.604  23.459  25.106  1.00  0.00    -0.013 A 
ATOM      9  C   UNL A   1      33.518  25.210  24.160  1.00  0.00    -0.018 A 
ATOM     10  C   UNL A   1      34.384  24.547  23.281  1.00  0.00     0.009 A 
ATOM     11  C   UNL A   1      33.656  24.900  25.517  1.00  0.00     0.009 A 
ATOM     12  C   UNL A   1      35.358  23.647  23.740  1.00  0.00     0.009 A 
ATOM     13  C   UNL A   1      34.693  24.071  25.979  1.00  0.00     0.009 A 
BRANCH   9  14
ATOM     14  C   UNL A   1      32.524  26.196  23.678  1.00  0.00    -0.018 A 
ATOM     15  C   UNL A   1      30.618  28.088  22.755  1.00  0.00     0.119 A 
ATOM     16  C   UNL A   1      31.262  27.238  21.861  1.00  0.00     0.047 A 
ATOM     17  C   UNL A   1      30.904  27.988  24.110  1.00  0.00     0.047 A 
ATOM     18  C   UNL A   1      32.202  26.307  22.315  1.00  0.00     0.012 A 
ATOM     19  C   UNL A   1      31.859  27.067  24.562  1.00  0.00     0.012 A 
BRANCH  15  20
ATOM     20  O   UNL A   1      29.638  28.878  22.234  1.00  0.00    -0.491 OA
BRANCH  20  21
ATOM     21  C   UNL A   1      28.754  29.581  23.119  1.00  0.00     0.167 C 
ATOM     22  C   UNL A   1      28.964  31.091  23.113  1.00  0.00     0.052 C 
ATOM     23  C   UNL A   1      27.287  29.180  22.987  1.00  0.00     0.052 C 
ENDBRANCH  20  21
ENDBRANCH  15  20
ENDBRANCH   9  14
ENDBRANCH   6   8
BRANCH   7  24
ATOM     24  C   UNL A   1      36.016  20.381  25.059  1.00  0.00    -0.025 A 
ATOM     25  C   UNL A   1      36.491  19.084  24.798  1.00  0.00     0.009 A 
ATOM     26  C   UNL A   1      34.642  20.637  25.020  1.00  0.00     0.009 A 
ATOM     27  C   UNL A   1      35.598  18.038  24.559  1.00  0.00     0.021 A 
ATOM     28  C   UNL A   1      33.744  19.592  24.784  1.00  0.00     0.021 A 
ATOM     29  C   UNL A   1      34.227  18.299  24.562  1.00  0.00     0.067 A 
BRANCH  29  30
ATOM     30  S   UNL A   1      33.094  16.941  24.377  1.00  0.00     0.175 S 
ATOM     31  C   UNL A   1      33.823  15.649  25.346  1.00  0.00     0.163 C 
ATOM     32  O   UNL A   1      31.848  17.336  25.006  1.00  0.00    -0.224 OA
ATOM     33  O   UNL A   1      33.120  16.528  22.985  1.00  0.00    -0.224 OA
ENDBRANCH  29  30
ENDBRANCH   7  24
ENDBRANCH   3   6
ENDBRANCH   1   2
BRANCH   1  34
ATOM     34  C   UNL A   1      41.317  21.794  26.425  1.00  0.00     0.042 C 
BRANCH  34  35
ATOM     35  C   UNL A   1      41.857  23.123  26.945  1.00  0.00     0.118 C 
BRANCH  35  36
ATOM     36  N   UNL A   1      42.325  23.973  25.860  1.00  0.00    -0.352 N 
ATOM     37  C   UNL A   1      42.291  25.338  25.738  1.00  0.00     0.251 C 
ATOM     38  H   UNL A   1      42.726  23.495  25.099  1.00  0.00     0.163 HD
ATOM     39  O   UNL A   1      42.457  25.843  24.630  1.00  0.00    -0.269 OA
BRANCH  37  40
ATOM     40  C   UNL A   1      42.067  26.196  26.922  1.00  0.00     0.039 A 
ATOM     41  C   UNL A   1      41.005  25.901  27.779  1.00  0.00     0.014 A 
ATOM     42  C   UNL A   1      42.854  27.329  27.149  1.00  0.00     0.014 A 
ATOM     43  C   UNL A   1      40.750  26.726  28.877  1.00  0.00     0.010 A 
ATOM     44  C   UNL A   1      42.653  28.099  28.290  1.00  0.00     0.010 A 
ATOM     45  C   UNL A   1      41.582  27.823  29.151  1.00  0.00    -0.014 A 
BRANCH  45  46
ATOM     46  C   UNL A   1      41.314  28.727  30.298  1.00  0.00     0.031 A 
ATOM     47  C   UNL A   1      42.160  28.624  31.542  1.00  0.00     0.074 A 
ATOM     48  C   UNL A   1      40.293  29.604  30.237  1.00  0.00     0.049 A 
ATOM     49  N   UNL A   1      42.036  29.258  32.680  1.00  0.00    -0.248 NA
ATOM     50  C   UNL A   1      43.277  27.664  31.512  1.00  0.00     0.031 C 
ATOM     51  C   UNL A   1      39.384  29.769  29.100  1.00  0.00     0.029 A 
ATOM     52  N   UNL A   1      39.841  30.518  31.156  1.00  0.00    -0.354 N 
ATOM     53  C   UNL A   1      43.051  28.771  33.496  1.00  0.00     0.074 A 
ATOM     54  C   UNL A   1      43.738  27.740  32.752  1.00  0.00     0.031 C 
ATOM     55  C   UNL A   1      38.498  30.738  29.382  1.00  0.00     0.029 A 
ATOM     56  C   UNL A   1      38.746  31.235  30.731  1.00  0.00     0.049 A 
ATOM     57  H   UNL A   1      40.260  30.648  32.037  1.00  0.00     0.167 HD
ATOM     58  C   UNL A   1      43.401  29.170  34.742  1.00  0.00     0.037 A 
ATOM     59  C   UNL A   1      38.020  32.176  31.365  1.00  0.00     0.037 A 
ATOM     60  C   UNL A   1      42.728  30.216  35.467  1.00  0.00     0.049 A 
ATOM     61  C   UNL A   1      38.421  32.586  32.760  1.00  0.00     0.074 A 
ATOM     62  C   UNL A   1      43.016  30.712  36.726  1.00  0.00     0.029 A 
ATOM     63  N   UNL A   1      41.643  30.936  34.991  1.00  0.00    -0.354 N 
ATOM     64  N   UNL A   1      39.406  32.138  33.501  1.00  0.00    -0.248 NA
ATOM     65  C   UNL A   1      37.619  33.639  33.398  1.00  0.00     0.031 C 
ATOM     66  C   UNL A   1      42.081  31.706  37.029  1.00  0.00     0.029 A 
ATOM     67  C   UNL A   1      41.248  31.869  35.934  1.00  0.00     0.049 A 
ATOM     68  H   UNL A   1      41.217  30.803  34.114  1.00  0.00     0.167 HD
ATOM     69  C   UNL A   1      39.370  32.889  34.673  1.00  0.00     0.074 A 
ATOM     70  C   UNL A   1      38.273  33.823  34.535  1.00  0.00     0.031 C 
ATOM     71  C   UNL A   1      40.173  32.815  35.763  1.00  0.00     0.037 A 
BRANCH  58  72
ATOM     72  C   UNL A   1      44.579  28.498  35.394  1.00  0.00     0.058 A 
ATOM     73  C   UNL A   1      44.419  27.349  36.186  1.00  0.00     0.135 A 
ATOM     74  C   UNL A   1      45.886  28.960  35.170  1.00  0.00     0.135 A 
ATOM     75  F   UNL A   1      43.191  26.876  36.451  1.00  0.00    -0.206 F 
ATOM     76  C   UNL A   1      45.510  26.689  36.742  1.00  0.00     0.059 A 
ATOM     77  C   UNL A   1      46.994  28.298  35.691  1.00  0.00     0.059 A 
ATOM     78  F   UNL A   1      46.097  30.057  34.425  1.00  0.00    -0.206 F 
ATOM     79  C   UNL A   1      46.795  27.166  36.481  1.00  0.00     0.060 A 
BRANCH  79  80
ATOM     80  S   UNL A   1      48.200  26.267  37.170  1.00  0.00     0.124 S 
ATOM     81  O   UNL A   1      47.731  24.887  37.089  1.00  0.00    -0.237 OA
ATOM     82  O   UNL A   1      49.277  26.625  36.253  1.00  0.00    -0.237 OA
ATOM     83  O   UNL A   1      48.323  26.808  38.520  1.00  0.00    -0.744 OA
ENDBRANCH  79  80
ENDBRANCH  58  72
BRANCH  59  84
ATOM     84  C   UNL A   1      36.848  32.808  30.697  1.00  0.00     0.058 A 
ATOM     85  C   UNL A   1      37.016  33.835  29.755  1.00  0.00     0.135 A 
ATOM     86  C   UNL A   1      35.535  32.432  31.022  1.00  0.00     0.135 A 
ATOM     87  F   UNL A   1      38.251  34.231  29.408  1.00  0.00    -0.206 F 
ATOM     88  C   UNL A   1      35.929  34.501  29.198  1.00  0.00     0.059 A 
ATOM     89  C   UNL A   1      34.432  33.059  30.452  1.00  0.00     0.059 A 
ATOM     90  F   UNL A   1      35.316  31.440  31.899  1.00  0.00    -0.206 F 
ATOM     91  C   UNL A   1      34.639  34.110  29.559  1.00  0.00     0.060 A 
BRANCH  91  92
ATOM     92  S   UNL A   1      33.234  34.988  28.843  1.00  0.00     0.124 S 
ATOM     93  O   UNL A   1      32.429  35.267  30.026  1.00  0.00    -0.237 OA
ATOM     94  O   UNL A   1      33.878  36.141  28.220  1.00  0.00    -0.237 OA
ATOM     95  O   UNL A   1      32.672  34.014  27.911  1.00  0.00    -0.744 OA
ENDBRANCH  91  92
ENDBRANCH  59  84
BRANCH  71  96
ATOM     96  C   UNL A   1      39.948  33.819  36.861  1.00  0.00     0.058 A 
ATOM     97  C   UNL A   1      40.528  35.096  36.835  1.00  0.00     0.135 A 
ATOM     98  C   UNL A   1      39.100  33.505  37.937  1.00  0.00     0.135 A 
ATOM     99  F   UNL A   1      41.350  35.446  35.832  1.00  0.00    -0.206 F 
ATOM    100  C   UNL A   1      40.306  36.014  37.856  1.00  0.00     0.059 A 
ATOM    101  C   UNL A   1      38.836  34.420  38.950  1.00  0.00     0.059 A 
ATOM    102  F   UNL A   1      38.508  32.302  38.003  1.00  0.00    -0.206 F 
ATOM    103  C   UNL A   1      39.458  35.666  38.909  1.00  0.00     0.060 A 
BRANCH 103 104
ATOM    104  S   UNL A   1      39.161  36.875  40.216  1.00  0.00     0.124 S 
ATOM    105  O   UNL A   1      38.245  36.146  41.086  1.00  0.00    -0.237 OA
ATOM    106  O   UNL A   1      40.503  37.093  40.749  1.00  0.00    -0.237 OA
ATOM    107  O   UNL A   1      38.583  38.012  39.506  1.00  0.00    -0.744 OA
ENDBRANCH 103 104
ENDBRANCH  71  96
ENDBRANCH  45  46
ENDBRANCH  37  40
ENDBRANCH  35  36
ENDBRANCH  34  35
ENDBRANCH   1  34
TORSDOF 19
ENDMDL
MODEL 3
REMARK VINA RESULT:     -11.8      4.405     11.747
REMARK SMILES CC(C)Oc1ccc(-c2ccc(/C(=C\c3ccc(S(C)(=O)=O)cc3)C(=O)NCCCNC(=O)c3ccc(-c4c5nc(c(-c6c(F)cc(S(=O)(=O)[O-])cc6F)c6ccc([nH]6)c(-c6c(F)cc(S(=O)(=O)[O-])cc6F)c6nc(c(-c7c(F)cc(S(=O)(=O)[O-])cc7F)c7ccc4[nH]7)C=C6)C=C5)cc3)cc2)cc1
REMARK SMILES IDX 28 1 27 2 25 3 26 4 13 6 14 7 12 8 9 9 10 10 101 11 11 12
REMARK SMILES IDX 100 13 8 14 5 15 6 16 103 17 7 18 102 19 4 20 2 21 1 22 3 23
REMARK SMILES IDX 15 24 16 25 24 26 17 27 23 28 18 29 19 30 20 31 21 32 22 33
REMARK SMILES IDX 29 34 30 35 31 36 32 37 33 39 34 40 35 41 99 42 36 43 98 44
REMARK SMILES IDX 37 45 38 46 39 47 92 48 40 49 97 50 91 51 93 52 41 53 96 54
REMARK SMILES IDX 90 55 89 56 42 58 76 59 55 60 75 61 56 62 59 63 74 64 94 65
REMARK SMILES IDX 57 66 58 67 73 69 95 70 60 71 43 72 44 73 53 74 45 75 46 76
REMARK SMILES IDX 52 77 54 78 47 79 48 80 49 81 50 82 51 83 77 84 78 85 87 86
REMARK SMILES IDX 79 87 80 88 86 89 88 90 81 91 82 92 83 93 84 94 85 95 61 96
REMARK SMILES IDX 62 97 71 98 63 99 64 100 70 101 72 102 65 103 66 104 67 105
REMARK SMILES IDX 68 106 69 107
REMARK H PARENT 27 5 31 38 93 57 59 68
REMARK Flexibility Score: inf
ROOT
ATOM      1  C   UNL A   1      35.220  33.703  31.955  1.00  0.00     0.118 C 
ENDROOT
BRANCH   1   2
ATOM      2  N   UNL A   1      36.463  34.254  31.449  1.00  0.00    -0.352 N 
ATOM      3  C   UNL A   1      37.740  34.326  31.910  1.00  0.00     0.251 C 
ATOM      4  O   UNL A   1      38.517  34.899  31.142  1.00  0.00    -0.269 OA
ATOM      5  H   UNL A   1      36.357  34.674  30.565  1.00  0.00     0.163 HD
BRANCH   3   6
ATOM      6  C   UNL A   1      38.219  33.704  33.217  1.00  0.00     0.047 C 
ATOM      7  C   UNL A   1      37.964  34.364  34.375  1.00  0.00     0.022 C 
BRANCH   6   8
ATOM      8  C   UNL A   1      39.108  32.485  33.183  1.00  0.00    -0.013 A 
ATOM      9  C   UNL A   1      40.726  30.131  33.568  1.00  0.00    -0.018 A 
ATOM     10  C   UNL A   1      39.385  30.051  33.173  1.00  0.00     0.009 A 
ATOM     11  C   UNL A   1      41.267  31.417  33.670  1.00  0.00     0.009 A 
ATOM     12  C   UNL A   1      38.617  31.199  32.925  1.00  0.00     0.009 A 
ATOM     13  C   UNL A   1      40.468  32.563  33.512  1.00  0.00     0.009 A 
BRANCH   9  14
ATOM     14  C   UNL A   1      41.521  28.920  33.876  1.00  0.00    -0.018 A 
ATOM     15  C   UNL A   1      43.047  26.598  34.465  1.00  0.00     0.119 A 
ATOM     16  C   UNL A   1      42.261  27.196  35.446  1.00  0.00     0.047 A 
ATOM     17  C   UNL A   1      43.063  27.140  33.187  1.00  0.00     0.047 A 
ATOM     18  C   UNL A   1      41.510  28.341  35.156  1.00  0.00     0.012 A 
ATOM     19  C   UNL A   1      42.325  28.297  32.903  1.00  0.00     0.012 A 
BRANCH  15  20
ATOM     20  O   UNL A   1      43.649  25.426  34.810  1.00  0.00    -0.491 OA
BRANCH  20  21
ATOM     21  C   UNL A   1      44.060  24.515  33.779  1.00  0.00     0.167 C 
ATOM     22  C   UNL A   1      45.574  24.394  33.646  1.00  0.00     0.052 C 
ATOM     23  C   UNL A   1      43.353  23.163  33.821  1.00  0.00     0.052 C 
ENDBRANCH  20  21
ENDBRANCH  15  20
ENDBRANCH   9  14
ENDBRANCH   6   8
BRANCH   7  24
ATOM     24  C   UNL A   1      38.181  33.940  35.766  1.00  0.00    -0.025 A 
ATOM     25  C   UNL A   1      39.010  34.734  36.576  1.00  0.00     0.009 A 
ATOM     26  C   UNL A   1      37.532  32.830  36.317  1.00  0.00     0.009 A 
ATOM     27  C   UNL A   1      39.144  34.460  37.938  1.00  0.00     0.021 A 
ATOM     28  C   UNL A   1      37.660  32.553  37.681  1.00  0.00     0.021 A 
ATOM     29  C   UNL A   1      38.459  33.373  38.483  1.00  0.00     0.067 A 
BRANCH  29  30
ATOM     30  S   UNL A   1      38.537  33.101  40.239  1.00  0.00     0.175 S 
ATOM     31  C   UNL A   1      36.918  33.546  40.806  1.00  0.00     0.163 C 
ATOM     32  O   UNL A   1      38.717  31.677  40.444  1.00  0.00    -0.224 OA
ATOM     33  O   UNL A   1      39.484  34.053  40.793  1.00  0.00    -0.224 OA
ENDBRANCH  29  30
ENDBRANCH   7  24
ENDBRANCH   3   6
ENDBRANCH   1   2
BRANCH   1  34
ATOM     34  C   UNL A   1      34.798  32.476  31.144  1.00  0.00     0.042 C 
BRANCH  34  35
ATOM     35  C   UNL A   1      34.839  32.703  29.636  1.00  0.00     0.118 C 
BRANCH  35  36
ATOM     36  N   UNL A   1      34.142  31.649  28.915  1.00  0.00    -0.352 N 
ATOM     37  C   UNL A   1      34.646  30.584  28.213  1.00  0.00     0.251 C 
ATOM     38  H   UNL A   1      33.160  31.710  28.933  1.00  0.00     0.163 HD
ATOM     39  O   UNL A   1      33.913  29.983  27.431  1.00  0.00    -0.269 OA
BRANCH  37  40
ATOM     40  C   UNL A   1      36.049  30.155  28.400  1.00  0.00     0.039 A 
ATOM     41  C   UNL A   1      36.439  29.641  29.639  1.00  0.00     0.014 A 
ATOM     42  C   UNL A   1      36.995  30.325  27.385  1.00  0.00     0.014 A 
ATOM     43  C   UNL A   1      37.770  29.273  29.849  1.00  0.00     0.010 A 
ATOM     44  C   UNL A   1      38.300  29.877  27.567  1.00  0.00     0.010 A 
ATOM     45  C   UNL A   1      38.708  29.373  28.810  1.00  0.00    -0.014 A 
BRANCH  45  46
ATOM     46  C   UNL A   1      40.133  29.011  29.019  1.00  0.00     0.031 A 
ATOM     47  C   UNL A   1      41.093  30.042  29.558  1.00  0.00     0.074 A 
ATOM     48  C   UNL A   1      40.569  27.780  28.688  1.00  0.00     0.049 A 
ATOM     49  N   UNL A   1      42.387  29.955  29.731  1.00  0.00    -0.248 NA
ATOM     50  C   UNL A   1      40.528  31.351  29.926  1.00  0.00     0.031 C 
ATOM     51  C   UNL A   1      39.741  26.710  28.124  1.00  0.00     0.029 A 
ATOM     52  N   UNL A   1      41.819  27.220  28.769  1.00  0.00    -0.354 N 
ATOM     53  C   UNL A   1      42.786  31.193  30.222  1.00  0.00     0.074 A 
ATOM     54  C   UNL A   1      41.613  32.037  30.253  1.00  0.00     0.031 C 
ATOM     55  C   UNL A   1      40.501  25.620  27.931  1.00  0.00     0.029 A 
ATOM     56  C   UNL A   1      41.876  25.922  28.314  1.00  0.00     0.049 A 
ATOM     57  H   UNL A   1      42.603  27.701  29.120  1.00  0.00     0.167 HD
ATOM     58  C   UNL A   1      44.013  31.582  30.641  1.00  0.00     0.037 A 
ATOM     59  C   UNL A   1      42.921  25.079  28.209  1.00  0.00     0.037 A 
ATOM     60  C   UNL A   1      45.172  30.728  30.632  1.00  0.00     0.049 A 
ATOM     61  C   UNL A   1      44.280  25.546  28.665  1.00  0.00     0.074 A 
ATOM     62  C   UNL A   1      46.458  31.016  31.054  1.00  0.00     0.029 A 
ATOM     63  N   UNL A   1      45.181  29.413  30.191  1.00  0.00    -0.354 N 
ATOM     64  N   UNL A   1      44.631  26.710  29.159  1.00  0.00    -0.248 NA
ATOM     65  C   UNL A   1      45.384  24.582  28.560  1.00  0.00     0.031 C 
ATOM     66  C   UNL A   1      47.254  29.889  30.833  1.00  0.00     0.029 A 
ATOM     67  C   UNL A   1      46.451  28.879  30.327  1.00  0.00     0.049 A 
ATOM     68  H   UNL A   1      44.401  28.931  29.832  1.00  0.00     0.167 HD
ATOM     69  C   UNL A   1      45.983  26.599  29.469  1.00  0.00     0.074 A 
ATOM     70  C   UNL A   1      46.382  25.254  29.114  1.00  0.00     0.031 C 
ATOM     71  C   UNL A   1      46.819  27.525  30.000  1.00  0.00     0.037 A 
BRANCH  58  72
ATOM     72  C   UNL A   1      44.168  32.982  31.172  1.00  0.00     0.058 A 
ATOM     73  C   UNL A   1      44.249  34.087  30.309  1.00  0.00     0.135 A 
ATOM     74  C   UNL A   1      44.163  33.232  32.554  1.00  0.00     0.135 A 
ATOM     75  F   UNL A   1      44.280  33.905  28.979  1.00  0.00    -0.206 F 
ATOM     76  C   UNL A   1      44.331  35.387  30.795  1.00  0.00     0.059 A 
ATOM     77  C   UNL A   1      44.214  34.527  33.062  1.00  0.00     0.059 A 
ATOM     78  F   UNL A   1      44.092  32.213  33.425  1.00  0.00    -0.206 F 
ATOM     79  C   UNL A   1      44.303  35.598  32.174  1.00  0.00     0.060 A 
BRANCH  79  80
ATOM     80  S   UNL A   1      44.361  37.296  32.783  1.00  0.00     0.124 S 
ATOM     81  O   UNL A   1      43.843  38.035  31.636  1.00  0.00    -0.237 OA
ATOM     82  O   UNL A   1      43.483  37.237  33.948  1.00  0.00    -0.237 OA
ATOM     83  O   UNL A   1      45.775  37.506  33.076  1.00  0.00    -0.744 OA
ENDBRANCH  79  80
ENDBRANCH  58  72
BRANCH  59  84
ATOM     84  C   UNL A   1      42.737  23.706  27.661  1.00  0.00     0.058 A 
ATOM     85  C   UNL A   1      42.551  22.605  28.511  1.00  0.00     0.135 A 
ATOM     86  C   UNL A   1      42.790  23.461  26.280  1.00  0.00     0.135 A 
ATOM     87  F   UNL A   1      42.492  22.786  29.840  1.00  0.00    -0.206 F 
ATOM     88  C   UNL A   1      42.477  21.305  28.019  1.00  0.00     0.059 A 
ATOM     89  C   UNL A   1      42.683  22.174  25.761  1.00  0.00     0.059 A 
ATOM     90  F   UNL A   1      42.942  24.479  25.420  1.00  0.00    -0.206 F 
ATOM     91  C   UNL A   1      42.552  21.100  26.641  1.00  0.00     0.060 A 
BRANCH  91  92
ATOM     92  S   UNL A   1      42.469  19.411  26.010  1.00  0.00     0.124 S 
ATOM     93  O   UNL A   1      41.053  19.291  25.681  1.00  0.00    -0.237 OA
ATOM     94  O   UNL A   1      43.387  19.461  24.877  1.00  0.00    -0.237 OA
ATOM     95  O   UNL A   1      42.924  18.608  27.142  1.00  0.00    -0.744 OA
ENDBRANCH  91  92
ENDBRANCH  59  84
BRANCH  71  96
ATOM     96  C   UNL A   1      48.228  27.094  30.305  1.00  0.00     0.058 A 
ATOM     97  C   UNL A   1      49.260  27.190  29.359  1.00  0.00     0.135 A 
ATOM     98  C   UNL A   1      48.555  26.614  31.585  1.00  0.00     0.135 A 
ATOM     99  F   UNL A   1      49.001  27.639  28.119  1.00  0.00    -0.206 F 
ATOM    100  C   UNL A   1      50.558  26.792  29.658  1.00  0.00     0.059 A 
ATOM    101  C   UNL A   1      49.853  26.244  31.916  1.00  0.00     0.059 A 
ATOM    102  F   UNL A   1      47.609  26.514  32.532  1.00  0.00    -0.206 F 
ATOM    103  C   UNL A   1      50.845  26.320  30.941  1.00  0.00     0.060 A 
BRANCH 103 104
ATOM    104  S   UNL A   1      52.538  25.827  31.323  1.00  0.00     0.124 S 
ATOM    105  O   UNL A   1      53.171  25.908  30.011  1.00  0.00    -0.237 OA
ATOM    106  O   UNL A   1      52.948  26.843  32.288  1.00  0.00    -0.237 OA
ATOM    107  O   UNL A   1      52.388  24.480  31.866  1.00  0.00    -0.744 OA
ENDBRANCH 103 104
ENDBRANCH  71  96
ENDBRANCH  45  46
ENDBRANCH  37  40
ENDBRANCH  35  36
ENDBRANCH  34  35
ENDBRANCH   1  34
TORSDOF 19
ENDMDL
