MODEL 1
REMARK VINA RESULT:     -12.7      0.000      0.000
REMARK SMILES C[C@@H](NC(=O)[C@H]1CC=CC[C@@H]1C(=O)NCCCNC(=O)c1ccc(-c2c3nc(c(-c4c(F)cc(S(=O)(=O)[O-])cc4F)c4ccc([nH]4)c(-c4c(F)cc(S(=O)(=O)[O-])cc4F)c4nc(c(-c5c(F)cc(S(=O)(=O)[O-])cc5F)c5ccc2[nH]5)C=C4)C=C3)cc1)c1ccc(-n2ccnc2)cc1
REMARK SMILES IDX 15 1 14 2 12 3 13 4 11 6 6 7 7 8 8 9 10 10 9 11 4 12 3 13
REMARK SMILES IDX 5 15 2 16 1 17 87 18 88 19 97 20 89 21 96 22 90 23 91 24
REMARK SMILES IDX 92 25 95 26 93 27 94 28 16 29 17 30 18 31 19 32 20 34 21 35
REMARK SMILES IDX 22 36 86 37 23 38 85 39 24 40 25 41 26 42 79 43 27 44 84 45
REMARK SMILES IDX 78 46 80 47 28 48 83 49 77 50 76 51 29 53 63 54 42 55 62 56
REMARK SMILES IDX 43 57 46 58 61 59 81 60 44 61 45 62 60 64 82 65 47 66 30 67
REMARK SMILES IDX 31 68 40 69 32 70 33 71 39 72 41 73 34 74 35 75 36 76 37 77
REMARK SMILES IDX 38 78 64 79 65 80 74 81 66 82 67 83 73 84 75 85 68 86 69 87
REMARK SMILES IDX 70 88 71 89 72 90 48 91 49 92 58 93 50 94 51 95 57 96 59 97
REMARK SMILES IDX 52 98 53 99 54 100 55 101 56 102
REMARK H PARENT 14 5 3 14 18 33 80 52 46 63
REMARK Flexibility Score: inf
ROOT
ATOM      1  C   UNL A   1      37.832  21.844  25.524  1.00  0.00     0.117 C 
ENDROOT
BRANCH   1   2
ATOM      2  N   UNL A   1      37.312  21.683  24.172  1.00  0.00    -0.356 N 
ATOM      3  C   UNL A   1      36.474  22.617  23.607  1.00  0.00     0.224 C 
ATOM      4  O   UNL A   1      36.946  23.320  22.705  1.00  0.00    -0.275 OA
ATOM      5  H   UNL A   1      37.568  20.888  23.652  1.00  0.00     0.163 HD
BRANCH   3   6
ATOM      6  C   UNL A   1      34.947  22.668  23.893  1.00  0.00     0.095 C 
ATOM      7  C   UNL A   1      34.118  23.885  23.406  1.00  0.00     0.095 C 
ATOM      8  C   UNL A   1      34.349  25.134  24.271  1.00  0.00     0.041 C 
ATOM      9  C   UNL A   1      34.794  24.885  25.687  1.00  0.00    -0.030 C 
ATOM     10  C   UNL A   1      34.788  22.416  25.405  1.00  0.00     0.041 C 
ATOM     11  C   UNL A   1      34.973  23.665  26.208  1.00  0.00    -0.030 C 
BRANCH   7  12
ATOM     12  C   UNL A   1      32.611  23.588  23.283  1.00  0.00     0.224 C 
ATOM     13  N   UNL A   1      31.693  24.350  22.621  1.00  0.00    -0.349 N 
ATOM     14  H   UNL A   1      30.847  23.851  22.547  1.00  0.00     0.164 HD
ATOM     15  O   UNL A   1      32.135  22.577  23.819  1.00  0.00    -0.275 OA
BRANCH  13  16
ATOM     16  C   UNL A   1      31.538  25.691  21.969  1.00  0.00     0.109 C 
ATOM     17  C   UNL A   1      32.557  25.778  20.821  1.00  0.00     0.036 C 
BRANCH  16  18
ATOM     18  C   UNL A   1      31.683  26.865  22.918  1.00  0.00    -0.026 A 
ATOM     19  C   UNL A   1      30.954  26.787  24.081  1.00  0.00     0.008 A 
ATOM     20  C   UNL A   1      32.508  28.007  22.758  1.00  0.00     0.008 A 
ATOM     21  C   UNL A   1      31.336  27.575  25.146  1.00  0.00     0.027 A 
ATOM     22  C   UNL A   1      32.808  28.877  23.833  1.00  0.00     0.027 A 
ATOM     23  C   UNL A   1      32.286  28.568  25.067  1.00  0.00     0.046 A 
BRANCH  23  24
ATOM     24  N   UNL A   1      32.726  29.063  26.321  1.00  0.00    -0.306 N 
ATOM     25  C   UNL A   1      33.902  28.681  26.942  1.00  0.00     0.113 A 
ATOM     26  C   UNL A   1      32.596  30.413  26.631  1.00  0.00     0.204 A 
ATOM     27  C   UNL A   1      34.434  29.814  27.514  1.00  0.00     0.131 A 
ATOM     28  N   UNL A   1      33.606  30.883  27.331  1.00  0.00    -0.245 NA
ENDBRANCH  23  24
ENDBRANCH  16  18
ENDBRANCH  13  16
ENDBRANCH   7  12
ENDBRANCH   3   6
ENDBRANCH   1   2
BRANCH   1  29
ATOM     29  C   UNL A   1      39.152  21.111  25.843  1.00  0.00     0.042 C 
BRANCH  29  30
ATOM     30  C   UNL A   1      40.214  21.900  26.660  1.00  0.00     0.118 C 
BRANCH  30  31
ATOM     31  N   UNL A   1      41.317  22.509  25.908  1.00  0.00    -0.352 N 
ATOM     32  C   UNL A   1      41.848  23.792  25.890  1.00  0.00     0.251 C 
ATOM     33  H   UNL A   1      41.769  21.886  25.296  1.00  0.00     0.163 HD
ATOM     34  O   UNL A   1      43.014  23.956  25.530  1.00  0.00    -0.269 OA
BRANCH  32  35
ATOM     35  C   UNL A   1      40.990  24.991  26.033  1.00  0.00     0.039 A 
ATOM     36  C   UNL A   1      39.975  24.880  27.000  1.00  0.00     0.014 A 
ATOM     37  C   UNL A   1      41.492  26.234  25.697  1.00  0.00     0.014 A 
ATOM     38  C   UNL A   1      39.744  25.944  27.859  1.00  0.00     0.010 A 
ATOM     39  C   UNL A   1      41.405  27.226  26.646  1.00  0.00     0.010 A 
ATOM     40  C   UNL A   1      40.590  27.051  27.772  1.00  0.00    -0.014 A 
BRANCH  40  41
ATOM     41  C   UNL A   1      40.743  27.988  28.899  1.00  0.00     0.031 A 
ATOM     42  C   UNL A   1      41.845  27.755  29.880  1.00  0.00     0.074 A 
ATOM     43  C   UNL A   1      39.799  28.937  29.082  1.00  0.00     0.049 A 
ATOM     44  N   UNL A   1      42.099  28.387  30.990  1.00  0.00    -0.248 NA
ATOM     45  C   UNL A   1      42.748  26.621  29.609  1.00  0.00     0.031 C 
ATOM     46  C   UNL A   1      38.621  29.147  28.228  1.00  0.00     0.029 A 
ATOM     47  N   UNL A   1      39.667  29.899  30.048  1.00  0.00    -0.354 N 
ATOM     48  C   UNL A   1      43.184  27.726  31.547  1.00  0.00     0.074 A 
ATOM     49  C   UNL A   1      43.475  26.586  30.712  1.00  0.00     0.031 C 
ATOM     50  C   UNL A   1      37.921  30.199  28.681  1.00  0.00     0.029 A 
ATOM     51  C   UNL A   1      38.572  30.717  29.876  1.00  0.00     0.049 A 
ATOM     52  H   UNL A   1      40.297  29.997  30.799  1.00  0.00     0.167 HD
ATOM     53  C   UNL A   1      43.900  28.079  32.635  1.00  0.00     0.037 A 
ATOM     54  C   UNL A   1      38.156  31.770  30.605  1.00  0.00     0.037 A 
ATOM     55  C   UNL A   1      43.595  29.240  33.422  1.00  0.00     0.049 A 
ATOM     56  C   UNL A   1      38.994  32.162  31.792  1.00  0.00     0.074 A 
ATOM     57  C   UNL A   1      44.271  29.742  34.517  1.00  0.00     0.029 A 
ATOM     58  N   UNL A   1      42.516  30.084  33.187  1.00  0.00    -0.354 N 
ATOM     59  N   UNL A   1      40.079  31.584  32.258  1.00  0.00    -0.248 NA
ATOM     60  C   UNL A   1      38.572  33.349  32.544  1.00  0.00     0.031 C 
ATOM     61  C   UNL A   1      43.576  30.868  34.968  1.00  0.00     0.029 A 
ATOM     62  C   UNL A   1      42.498  31.098  34.125  1.00  0.00     0.049 A 
ATOM     63  H   UNL A   1      41.861  29.975  32.460  1.00  0.00     0.167 HD
ATOM     64  C   UNL A   1      40.484  32.351  33.342  1.00  0.00     0.074 A 
ATOM     65  C   UNL A   1      39.538  33.446  33.448  1.00  0.00     0.031 C 
ATOM     66  C   UNL A   1      41.537  32.172  34.179  1.00  0.00     0.037 A 
BRANCH  53  67
ATOM     67  C   UNL A   1      45.076  27.218  32.997  1.00  0.00     0.058 A 
ATOM     68  C   UNL A   1      46.349  27.442  32.442  1.00  0.00     0.135 A 
ATOM     69  C   UNL A   1      44.937  26.156  33.903  1.00  0.00     0.135 A 
ATOM     70  F   UNL A   1      46.533  28.424  31.544  1.00  0.00    -0.206 F 
ATOM     71  C   UNL A   1      47.434  26.632  32.754  1.00  0.00     0.059 A 
ATOM     72  C   UNL A   1      46.017  25.352  34.255  1.00  0.00     0.059 A 
ATOM     73  F   UNL A   1      43.741  25.885  34.448  1.00  0.00    -0.206 F 
ATOM     74  C   UNL A   1      47.259  25.592  33.667  1.00  0.00     0.060 A 
BRANCH  74  75
ATOM     75  S   UNL A   1      48.688  24.571  34.080  1.00  0.00     0.124 S 
ATOM     76  O   UNL A   1      49.204  25.254  35.261  1.00  0.00    -0.237 OA
ATOM     77  O   UNL A   1      48.082  23.268  34.313  1.00  0.00    -0.237 OA
ATOM     78  O   UNL A   1      49.528  24.665  32.885  1.00  0.00    -0.744 OA
ENDBRANCH  74  75
ENDBRANCH  53  67
BRANCH  54  79
ATOM     79  C   UNL A   1      36.939  32.540  30.216  1.00  0.00     0.058 A 
ATOM     80  C   UNL A   1      37.009  33.580  29.275  1.00  0.00     0.135 A 
ATOM     81  C   UNL A   1      35.680  32.253  30.766  1.00  0.00     0.135 A 
ATOM     82  F   UNL A   1      38.186  33.895  28.711  1.00  0.00    -0.206 F 
ATOM     83  C   UNL A   1      35.888  34.325  28.919  1.00  0.00     0.059 A 
ATOM     84  C   UNL A   1      34.539  32.966  30.407  1.00  0.00     0.059 A 
ATOM     85  F   UNL A   1      35.545  31.254  31.653  1.00  0.00    -0.206 F 
ATOM     86  C   UNL A   1      34.655  34.012  29.492  1.00  0.00     0.060 A 
BRANCH  86  87
ATOM     87  S   UNL A   1      33.202  34.969  29.005  1.00  0.00     0.124 S 
ATOM     88  O   UNL A   1      32.497  35.101  30.275  1.00  0.00    -0.237 OA
ATOM     89  O   UNL A   1      33.802  36.191  28.477  1.00  0.00    -0.237 OA
ATOM     90  O   UNL A   1      32.556  34.116  28.011  1.00  0.00    -0.744 OA
ENDBRANCH  86  87
ENDBRANCH  54  79
BRANCH  66  91
ATOM     91  C   UNL A   1      41.729  33.200  35.255  1.00  0.00     0.058 A 
ATOM     92  C   UNL A   1      42.462  34.373  35.026  1.00  0.00     0.135 A 
ATOM     93  C   UNL A   1      41.112  33.034  36.505  1.00  0.00     0.135 A 
ATOM     94  F   UNL A   1      43.073  34.571  33.847  1.00  0.00    -0.206 F 
ATOM     95  C   UNL A   1      42.601  35.339  36.014  1.00  0.00     0.059 A 
ATOM     96  C   UNL A   1      41.210  34.003  37.496  1.00  0.00     0.059 A 
ATOM     97  F   UNL A   1      40.388  31.934  36.763  1.00  0.00    -0.206 F 
ATOM     98  C   UNL A   1      41.967  35.146  37.244  1.00  0.00     0.060 A 
BRANCH  98  99
ATOM     99  S   UNL A   1      42.125  36.427  38.503  1.00  0.00     0.124 S 
ATOM    100  O   UNL A   1      42.302  35.629  39.711  1.00  0.00    -0.237 OA
ATOM    101  O   UNL A   1      43.301  37.165  38.050  1.00  0.00    -0.237 OA
ATOM    102  O   UNL A   1      40.862  37.153  38.408  1.00  0.00    -0.744 OA
ENDBRANCH  98  99
ENDBRANCH  66  91
ENDBRANCH  40  41
ENDBRANCH  32  35
ENDBRANCH  30  31
ENDBRANCH  29  30
ENDBRANCH   1  29
TORSDOF 17
ENDMDL
MODEL 2
REMARK VINA RESULT:     -12.7      4.291     10.418
REMARK SMILES C[C@@H](NC(=O)[C@H]1CC=CC[C@@H]1C(=O)NCCCNC(=O)c1ccc(-c2c3nc(c(-c4c(F)cc(S(=O)(=O)[O-])cc4F)c4ccc([nH]4)c(-c4c(F)cc(S(=O)(=O)[O-])cc4F)c4nc(c(-c5c(F)cc(S(=O)(=O)[O-])cc5F)c5ccc2[nH]5)C=C4)C=C3)cc1)c1ccc(-n2ccnc2)cc1
REMARK SMILES IDX 15 1 14 2 12 3 13 4 11 6 6 7 7 8 8 9 10 10 9 11 4 12 3 13
REMARK SMILES IDX 5 15 2 16 1 17 87 18 88 19 97 20 89 21 96 22 90 23 91 24
REMARK SMILES IDX 92 25 95 26 93 27 94 28 16 29 17 30 18 31 19 32 20 34 21 35
REMARK SMILES IDX 22 36 86 37 23 38 85 39 24 40 25 41 26 42 79 43 27 44 84 45
REMARK SMILES IDX 78 46 80 47 28 48 83 49 77 50 76 51 29 53 63 54 42 55 62 56
REMARK SMILES IDX 43 57 46 58 61 59 81 60 44 61 45 62 60 64 82 65 47 66 30 67
REMARK SMILES IDX 31 68 40 69 32 70 33 71 39 72 41 73 34 74 35 75 36 76 37 77
REMARK SMILES IDX 38 78 64 79 65 80 74 81 66 82 67 83 73 84 75 85 68 86 69 87
REMARK SMILES IDX 70 88 71 89 72 90 48 91 49 92 58 93 50 94 51 95 57 96 59 97
REMARK SMILES IDX 52 98 53 99 54 100 55 101 56 102
REMARK H PARENT 14 5 3 14 18 33 80 52 46 63
REMARK Flexibility Score: inf
ROOT
ATOM      1  C   UNL A   1      33.798  29.766  26.866  1.00  0.00     0.117 C 
ENDROOT
BRANCH   1   2
ATOM      2  N   UNL A   1      33.266  29.638  25.516  1.00  0.00    -0.356 N 
ATOM      3  C   UNL A   1      31.981  29.198  25.287  1.00  0.00     0.224 C 
ATOM      4  O   UNL A   1      31.164  30.039  24.893  1.00  0.00    -0.275 OA
ATOM      5  H   UNL A   1      33.838  29.871  24.750  1.00  0.00     0.163 HD
BRANCH   3   6
ATOM      6  C   UNL A   1      31.586  27.695  25.291  1.00  0.00     0.095 C 
ATOM      7  C   UNL A   1      32.669  26.621  25.573  1.00  0.00     0.095 C 
ATOM      8  C   UNL A   1      33.600  26.401  24.369  1.00  0.00     0.041 C 
ATOM      9  C   UNL A   1      33.026  26.738  23.020  1.00  0.00    -0.030 C 
ATOM     10  C   UNL A   1      30.841  27.446  23.966  1.00  0.00     0.041 C 
ATOM     11  C   UNL A   1      31.781  27.188  22.830  1.00  0.00    -0.030 C 
BRANCH   7  12
ATOM     12  C   UNL A   1      32.087  25.278  26.055  1.00  0.00     0.224 C 
ATOM     13  N   UNL A   1      31.972  24.140  25.312  1.00  0.00    -0.349 N 
ATOM     14  H   UNL A   1      31.736  23.388  25.902  1.00  0.00     0.164 HD
ATOM     15  O   UNL A   1      31.670  25.167  27.216  1.00  0.00    -0.275 OA
BRANCH  13  16
ATOM     16  C   UNL A   1      32.081  23.648  23.900  1.00  0.00     0.109 C 
ATOM     17  C   UNL A   1      30.699  23.791  23.242  1.00  0.00     0.036 C 
BRANCH  16  18
ATOM     18  C   UNL A   1      32.602  22.230  23.773  1.00  0.00    -0.026 A 
ATOM     19  C   UNL A   1      33.737  21.943  24.496  1.00  0.00     0.008 A 
ATOM     20  C   UNL A   1      32.034  21.165  23.029  1.00  0.00     0.008 A 
ATOM     21  C   UNL A   1      34.024  20.622  24.763  1.00  0.00     0.027 A 
ATOM     22  C   UNL A   1      32.415  19.816  23.231  1.00  0.00     0.027 A 
ATOM     23  C   UNL A   1      33.353  19.559  24.202  1.00  0.00     0.046 A 
BRANCH  23  24
ATOM     24  N   UNL A   1      33.615  18.307  24.815  1.00  0.00    -0.306 N 
ATOM     25  C   UNL A   1      32.638  17.433  25.255  1.00  0.00     0.113 A 
ATOM     26  C   UNL A   1      34.621  17.480  24.327  1.00  0.00     0.204 A 
ATOM     27  C   UNL A   1      33.072  16.164  24.946  1.00  0.00     0.131 A 
ATOM     28  N   UNL A   1      34.315  16.202  24.385  1.00  0.00    -0.245 NA
ENDBRANCH  23  24
ENDBRANCH  16  18
ENDBRANCH  13  16
ENDBRANCH   7  12
ENDBRANCH   3   6
ENDBRANCH   1   2
BRANCH   1  29
ATOM     29  C   UNL A   1      33.521  31.101  27.588  1.00  0.00     0.042 C 
BRANCH  29  30
ATOM     30  C   UNL A   1      34.748  31.839  28.195  1.00  0.00     0.118 C 
BRANCH  30  31
ATOM     31  N   UNL A   1      34.850  31.870  29.659  1.00  0.00    -0.352 N 
ATOM     32  C   UNL A   1      35.752  31.308  30.552  1.00  0.00     0.251 C 
ATOM     33  H   UNL A   1      34.137  32.392  30.094  1.00  0.00     0.163 HD
ATOM     34  O   UNL A   1      35.897  31.818  31.663  1.00  0.00    -0.269 OA
BRANCH  32  35
ATOM     35  C   UNL A   1      36.348  29.973  30.318  1.00  0.00     0.039 A 
ATOM     36  C   UNL A   1      36.659  29.690  28.975  1.00  0.00     0.014 A 
ATOM     37  C   UNL A   1      37.045  29.348  31.335  1.00  0.00     0.014 A 
ATOM     38  C   UNL A   1      37.872  29.089  28.677  1.00  0.00     0.010 A 
ATOM     39  C   UNL A   1      38.321  28.919  31.053  1.00  0.00     0.010 A 
ATOM     40  C   UNL A   1      38.766  28.863  29.726  1.00  0.00    -0.014 A 
BRANCH  40  41
ATOM     41  C   UNL A   1      40.208  28.686  29.478  1.00  0.00     0.031 A 
ATOM     42  C   UNL A   1      41.113  29.862  29.646  1.00  0.00     0.074 A 
ATOM     43  C   UNL A   1      40.637  27.508  28.973  1.00  0.00     0.049 A 
ATOM     44  N   UNL A   1      42.386  29.959  29.386  1.00  0.00    -0.248 NA
ATOM     45  C   UNL A   1      40.494  31.117  30.113  1.00  0.00     0.031 C 
ATOM     46  C   UNL A   1      39.786  26.349  28.667  1.00  0.00     0.029 A 
ATOM     47  N   UNL A   1      41.890  27.086  28.616  1.00  0.00    -0.354 N 
ATOM     48  C   UNL A   1      42.714  31.280  29.652  1.00  0.00     0.074 A 
ATOM     49  C   UNL A   1      41.495  31.971  29.994  1.00  0.00     0.031 C 
ATOM     50  C   UNL A   1      40.549  25.340  28.218  1.00  0.00     0.029 A 
ATOM     51  C   UNL A   1      41.934  25.786  28.166  1.00  0.00     0.049 A 
ATOM     52  H   UNL A   1      42.688  27.661  28.675  1.00  0.00     0.167 HD
ATOM     53  C   UNL A   1      43.941  31.844  29.659  1.00  0.00     0.037 A 
ATOM     54  C   UNL A   1      42.984  25.043  27.766  1.00  0.00     0.037 A 
ATOM     55  C   UNL A   1      45.134  31.111  29.342  1.00  0.00     0.049 A 
ATOM     56  C   UNL A   1      44.343  25.687  27.818  1.00  0.00     0.074 A 
ATOM     57  C   UNL A   1      46.444  31.546  29.362  1.00  0.00     0.029 A 
ATOM     58  N   UNL A   1      45.152  29.778  28.949  1.00  0.00    -0.354 N 
ATOM     59  N   UNL A   1      44.657  26.916  28.164  1.00  0.00    -0.248 NA
ATOM     60  C   UNL A   1      45.491  24.854  27.443  1.00  0.00     0.031 C 
ATOM     61  C   UNL A   1      47.253  30.486  28.942  1.00  0.00     0.029 A 
ATOM     62  C   UNL A   1      46.452  29.376  28.710  1.00  0.00     0.049 A 
ATOM     63  H   UNL A   1      44.358  29.205  28.855  1.00  0.00     0.167 HD
ATOM     64  C   UNL A   1      46.040  26.996  28.075  1.00  0.00     0.074 A 
ATOM     65  C   UNL A   1      46.502  25.684  27.661  1.00  0.00     0.031 C 
ATOM     66  C   UNL A   1      46.860  28.052  28.308  1.00  0.00     0.037 A 
BRANCH  53  67
ATOM     67  C   UNL A   1      44.032  33.292  30.044  1.00  0.00     0.058 A 
ATOM     68  C   UNL A   1      44.277  33.685  31.373  1.00  0.00     0.135 A 
ATOM     69  C   UNL A   1      43.873  34.302  29.084  1.00  0.00     0.135 A 
ATOM     70  F   UNL A   1      44.404  32.761  32.339  1.00  0.00    -0.206 F 
ATOM     71  C   UNL A   1      44.337  35.024  31.738  1.00  0.00     0.059 A 
ATOM     72  C   UNL A   1      43.961  35.650  29.422  1.00  0.00     0.059 A 
ATOM     73  F   UNL A   1      43.619  33.985  27.805  1.00  0.00    -0.206 F 
ATOM     74  C   UNL A   1      44.183  36.000  30.753  1.00  0.00     0.060 A 
BRANCH  74  75
ATOM     75  S   UNL A   1      44.294  37.732  31.245  1.00  0.00     0.124 S 
ATOM     76  O   UNL A   1      43.736  38.404  30.077  1.00  0.00    -0.237 OA
ATOM     77  O   UNL A   1      43.477  37.766  32.450  1.00  0.00    -0.237 OA
ATOM     78  O   UNL A   1      45.729  37.932  31.456  1.00  0.00    -0.744 OA
ENDBRANCH  74  75
ENDBRANCH  53  67
BRANCH  54  79
ATOM     79  C   UNL A   1      42.804  23.626  27.338  1.00  0.00     0.058 A 
ATOM     80  C   UNL A   1      42.800  23.274  25.979  1.00  0.00     0.135 A 
ATOM     81  C   UNL A   1      42.637  22.591  28.272  1.00  0.00     0.135 A 
ATOM     82  F   UNL A   1      42.960  24.221  25.041  1.00  0.00    -0.206 F 
ATOM     83  C   UNL A   1      42.608  21.960  25.560  1.00  0.00     0.059 A 
ATOM     84  C   UNL A   1      42.469  21.265  27.880  1.00  0.00     0.059 A 
ATOM     85  F   UNL A   1      42.656  22.862  29.587  1.00  0.00    -0.206 F 
ATOM     86  C   UNL A   1      42.441  20.960  26.520  1.00  0.00     0.060 A 
BRANCH  86  87
ATOM     87  S   UNL A   1      42.217  19.255  25.967  1.00  0.00     0.124 S 
ATOM     88  O   UNL A   1      40.773  19.197  25.770  1.00  0.00    -0.237 OA
ATOM     89  O   UNL A   1      43.029  19.215  24.756  1.00  0.00    -0.237 OA
ATOM     90  O   UNL A   1      42.732  18.469  27.085  1.00  0.00    -0.744 OA
ENDBRANCH  86  87
ENDBRANCH  54  79
BRANCH  66  91
ATOM     91  C   UNL A   1      48.332  27.814  28.149  1.00  0.00     0.058 A 
ATOM     92  C   UNL A   1      48.987  28.058  26.933  1.00  0.00     0.135 A 
ATOM     93  C   UNL A   1      49.102  27.401  29.248  1.00  0.00     0.135 A 
ATOM     94  F   UNL A   1      48.290  28.449  25.855  1.00  0.00    -0.206 F 
ATOM     95  C   UNL A   1      50.357  27.876  26.805  1.00  0.00     0.059 A 
ATOM     96  C   UNL A   1      50.479  27.245  29.150  1.00  0.00     0.059 A 
ATOM     97  F   UNL A   1      48.520  27.171  30.435  1.00  0.00    -0.206 F 
ATOM     98  C   UNL A   1      51.095  27.473  27.921  1.00  0.00     0.060 A 
BRANCH  98  99
ATOM     99  S   UNL A   1      52.879  27.277  27.748  1.00  0.00     0.124 S 
ATOM    100  O   UNL A   1      53.010  25.825  27.703  1.00  0.00    -0.237 OA
ATOM    101  O   UNL A   1      53.148  27.979  26.495  1.00  0.00    -0.237 OA
ATOM    102  O   UNL A   1      53.408  27.921  28.946  1.00  0.00    -0.744 OA
ENDBRANCH  98  99
ENDBRANCH  66  91
ENDBRANCH  40  41
ENDBRANCH  32  35
ENDBRANCH  30  31
ENDBRANCH  29  30
ENDBRANCH   1  29
TORSDOF 17
ENDMDL
MODEL 3
REMARK VINA RESULT:     -12.6      4.231      9.332
REMARK SMILES C[C@@H](NC(=O)[C@H]1CC=CC[C@@H]1C(=O)NCCCNC(=O)c1ccc(-c2c3nc(c(-c4c(F)cc(S(=O)(=O)[O-])cc4F)c4ccc([nH]4)c(-c4c(F)cc(S(=O)(=O)[O-])cc4F)c4nc(c(-c5c(F)cc(S(=O)(=O)[O-])cc5F)c5ccc2[nH]5)C=C4)C=C3)cc1)c1ccc(-n2ccnc2)cc1
REMARK SMILES IDX 15 1 14 2 12 3 13 4 11 6 6 7 7 8 8 9 10 10 9 11 4 12 3 13
REMARK SMILES IDX 5 15 2 16 1 17 87 18 88 19 97 20 89 21 96 22 90 23 91 24
REMARK SMILES IDX 92 25 95 26 93 27 94 28 16 29 17 30 18 31 19 32 20 34 21 35
REMARK SMILES IDX 22 36 86 37 23 38 85 39 24 40 25 41 26 42 79 43 27 44 84 45
REMARK SMILES IDX 78 46 80 47 28 48 83 49 77 50 76 51 29 53 63 54 42 55 62 56
REMARK SMILES IDX 43 57 46 58 61 59 81 60 44 61 45 62 60 64 82 65 47 66 30 67
REMARK SMILES IDX 31 68 40 69 32 70 33 71 39 72 41 73 34 74 35 75 36 76 37 77
REMARK SMILES IDX 38 78 64 79 65 80 74 81 66 82 67 83 73 84 75 85 68 86 69 87
REMARK SMILES IDX 70 88 71 89 72 90 48 91 49 92 58 93 50 94 51 95 57 96 59 97
REMARK SMILES IDX 52 98 53 99 54 100 55 101 56 102
REMARK H PARENT 14 5 3 14 18 33 80 52 46 63
REMARK Flexibility Score: inf
ROOT
ATOM      1  C   UNL A   1      33.417  29.530  26.682  1.00  0.00     0.117 C 
ENDROOT
BRANCH   1   2
ATOM      2  N   UNL A   1      33.114  29.274  25.280  1.00  0.00    -0.356 N 
ATOM      3  C   UNL A   1      31.893  28.773  24.887  1.00  0.00     0.224 C 
ATOM      4  O   UNL A   1      31.134  29.551  24.296  1.00  0.00    -0.275 OA
ATOM      5  H   UNL A   1      33.798  29.463  24.599  1.00  0.00     0.163 HD
BRANCH   3   6
ATOM      6  C   UNL A   1      31.534  27.263  24.958  1.00  0.00     0.095 C 
ATOM      7  C   UNL A   1      32.616  26.239  25.389  1.00  0.00     0.095 C 
ATOM      8  C   UNL A   1      33.642  25.971  24.277  1.00  0.00     0.041 C 
ATOM      9  C   UNL A   1      33.168  26.207  22.869  1.00  0.00    -0.030 C 
ATOM     10  C   UNL A   1      30.900  26.911  23.598  1.00  0.00     0.041 C 
ATOM     11  C   UNL A   1      31.931  26.610  22.556  1.00  0.00    -0.030 C 
BRANCH   7  12
ATOM     12  C   UNL A   1      32.030  24.913  25.911  1.00  0.00     0.224 C 
ATOM     13  N   UNL A   1      31.945  23.743  25.214  1.00  0.00    -0.349 N 
ATOM     14  H   UNL A   1      31.697  23.015  25.829  1.00  0.00     0.164 HD
ATOM     15  O   UNL A   1      31.578  24.848  27.063  1.00  0.00    -0.275 OA
BRANCH  13  16
ATOM     16  C   UNL A   1      32.101  23.193  23.828  1.00  0.00     0.109 C 
ATOM     17  C   UNL A   1      30.737  23.289  23.127  1.00  0.00     0.036 C 
BRANCH  16  18
ATOM     18  C   UNL A   1      32.642  21.777  23.778  1.00  0.00    -0.026 A 
ATOM     19  C   UNL A   1      33.704  21.513  24.611  1.00  0.00     0.008 A 
ATOM     20  C   UNL A   1      32.155  20.695  23.002  1.00  0.00     0.008 A 
ATOM     21  C   UNL A   1      33.974  20.199  24.929  1.00  0.00     0.027 A 
ATOM     22  C   UNL A   1      32.525  19.353  23.264  1.00  0.00     0.027 A 
ATOM     23  C   UNL A   1      33.367  19.120  24.325  1.00  0.00     0.046 A 
BRANCH  23  24
ATOM     24  N   UNL A   1      33.578  17.882  24.983  1.00  0.00    -0.306 N 
ATOM     25  C   UNL A   1      32.579  17.134  25.579  1.00  0.00     0.113 A 
ATOM     26  C   UNL A   1      34.441  16.935  24.442  1.00  0.00     0.204 A 
ATOM     27  C   UNL A   1      32.855  15.814  25.304  1.00  0.00     0.131 A 
ATOM     28  N   UNL A   1      34.024  15.699  24.612  1.00  0.00    -0.245 NA
ENDBRANCH  23  24
ENDBRANCH  16  18
ENDBRANCH  13  16
ENDBRANCH   7  12
ENDBRANCH   3   6
ENDBRANCH   1   2
BRANCH   1  29
ATOM     29  C   UNL A   1      32.959  30.892  27.244  1.00  0.00     0.042 C 
BRANCH  29  30
ATOM     30  C   UNL A   1      34.074  31.870  27.711  1.00  0.00     0.118 C 
BRANCH  30  31
ATOM     31  N   UNL A   1      34.402  31.875  29.142  1.00  0.00    -0.352 N 
ATOM     32  C   UNL A   1      35.478  31.377  29.863  1.00  0.00     0.251 C 
ATOM     33  H   UNL A   1      33.724  32.319  29.700  1.00  0.00     0.163 HD
ATOM     34  O   UNL A   1      35.751  31.871  30.957  1.00  0.00    -0.269 OA
BRANCH  32  35
ATOM     35  C   UNL A   1      36.144  30.107  29.489  1.00  0.00     0.039 A 
ATOM     36  C   UNL A   1      36.628  30.060  28.170  1.00  0.00     0.014 A 
ATOM     37  C   UNL A   1      36.728  29.328  30.470  1.00  0.00     0.014 A 
ATOM     38  C   UNL A   1      37.889  29.532  27.935  1.00  0.00     0.010 A 
ATOM     39  C   UNL A   1      38.043  28.969  30.287  1.00  0.00     0.010 A 
ATOM     40  C   UNL A   1      38.653  29.143  29.038  1.00  0.00    -0.014 A 
BRANCH  40  41
ATOM     41  C   UNL A   1      40.119  29.028  28.952  1.00  0.00     0.031 A 
ATOM     42  C   UNL A   1      40.712  27.713  28.562  1.00  0.00     0.074 A 
ATOM     43  C   UNL A   1      40.874  30.069  29.365  1.00  0.00     0.049 A 
ATOM     44  N   UNL A   1      41.966  27.361  28.522  1.00  0.00    -0.248 NA
ATOM     45  C   UNL A   1      39.768  26.630  28.229  1.00  0.00     0.031 C 
ATOM     46  C   UNL A   1      40.360  31.348  29.877  1.00  0.00     0.029 A 
ATOM     47  N   UNL A   1      42.233  30.223  29.432  1.00  0.00    -0.354 N 
ATOM     48  C   UNL A   1      41.958  26.021  28.166  1.00  0.00     0.074 A 
ATOM     49  C   UNL A   1      40.581  25.595  28.101  1.00  0.00     0.031 C 
ATOM     50  C   UNL A   1      41.388  32.165  30.155  1.00  0.00     0.029 A 
ATOM     51  C   UNL A   1      42.633  31.462  29.881  1.00  0.00     0.049 A 
ATOM     52  H   UNL A   1      42.868  29.512  29.182  1.00  0.00     0.167 HD
ATOM     53  C   UNL A   1      43.015  25.236  27.869  1.00  0.00     0.037 A 
ATOM     54  C   UNL A   1      43.872  31.966  30.042  1.00  0.00     0.037 A 
ATOM     55  C   UNL A   1      44.370  25.708  27.916  1.00  0.00     0.049 A 
ATOM     56  C   UNL A   1      45.030  31.080  29.669  1.00  0.00     0.074 A 
ATOM     57  C   UNL A   1      45.530  25.035  27.588  1.00  0.00     0.029 A 
ATOM     58  N   UNL A   1      44.740  26.987  28.316  1.00  0.00    -0.354 N 
ATOM     59  N   UNL A   1      45.009  29.838  29.240  1.00  0.00    -0.248 NA
ATOM     60  C   UNL A   1      46.375  31.656  29.785  1.00  0.00     0.031 C 
ATOM     61  C   UNL A   1      46.606  25.894  27.830  1.00  0.00     0.029 A 
ATOM     62  C   UNL A   1      46.114  27.120  28.257  1.00  0.00     0.049 A 
ATOM     63  H   UNL A   1      44.116  27.693  28.599  1.00  0.00     0.167 HD
ATOM     64  C   UNL A   1      46.334  29.492  29.009  1.00  0.00     0.074 A 
ATOM     65  C   UNL A   1      47.127  30.664  29.327  1.00  0.00     0.031 C 
ATOM     66  C   UNL A   1      46.855  28.316  28.577  1.00  0.00     0.037 A 
BRANCH  53  67
ATOM     67  C   UNL A   1      42.729  23.823  27.449  1.00  0.00     0.058 A 
ATOM     68  C   UNL A   1      42.549  22.798  28.396  1.00  0.00     0.135 A 
ATOM     69  C   UNL A   1      42.635  23.482  26.092  1.00  0.00     0.135 A 
ATOM     70  F   UNL A   1      42.661  23.060  29.708  1.00  0.00    -0.206 F 
ATOM     71  C   UNL A   1      42.310  21.484  28.012  1.00  0.00     0.059 A 
ATOM     72  C   UNL A   1      42.364  22.179  25.685  1.00  0.00     0.059 A 
ATOM     73  F   UNL A   1      42.817  24.416  25.146  1.00  0.00    -0.206 F 
ATOM     74  C   UNL A   1      42.213  21.185  26.652  1.00  0.00     0.060 A 
BRANCH  74  75
ATOM     75  S   UNL A   1      41.873  19.479  26.177  1.00  0.00     0.124 S 
ATOM     76  O   UNL A   1      40.436  19.525  25.930  1.00  0.00    -0.237 OA
ATOM     77  O   UNL A   1      42.715  19.310  25.001  1.00  0.00    -0.237 OA
ATOM     78  O   UNL A   1      42.282  18.711  27.354  1.00  0.00    -0.744 OA
ENDBRANCH  74  75
ENDBRANCH  53  67
BRANCH  54  79
ATOM     79  C   UNL A   1      44.076  33.362  30.524  1.00  0.00     0.058 A 
ATOM     80  C   UNL A   1      44.187  33.648  31.894  1.00  0.00     0.135 A 
ATOM     81  C   UNL A   1      44.172  34.442  29.630  1.00  0.00     0.135 A 
ATOM     82  F   UNL A   1      44.108  32.656  32.793  1.00  0.00    -0.206 F 
ATOM     83  C   UNL A   1      44.352  34.949  32.362  1.00  0.00     0.059 A 
ATOM     84  C   UNL A   1      44.364  35.749  30.072  1.00  0.00     0.059 A 
ATOM     85  F   UNL A   1      44.099  34.228  28.307  1.00  0.00    -0.206 F 
ATOM     86  C   UNL A   1      44.438  35.995  31.442  1.00  0.00     0.060 A 
BRANCH  86  87
ATOM     87  S   UNL A   1      44.677  37.677  32.059  1.00  0.00     0.124 S 
ATOM     88  O   UNL A   1      46.115  37.699  32.304  1.00  0.00    -0.237 OA
ATOM     89  O   UNL A   1      44.207  38.485  30.938  1.00  0.00    -0.237 OA
ATOM     90  O   UNL A   1      43.835  37.720  33.251  1.00  0.00    -0.744 OA
ENDBRANCH  86  87
ENDBRANCH  54  79
BRANCH  66  91
ATOM     91  C   UNL A   1      48.343  28.259  28.398  1.00  0.00     0.058 A 
ATOM     92  C   UNL A   1      49.191  27.858  29.440  1.00  0.00     0.135 A 
ATOM     93  C   UNL A   1      48.913  28.547  27.149  1.00  0.00     0.135 A 
ATOM     94  F   UNL A   1      48.690  27.579  30.653  1.00  0.00    -0.206 F 
ATOM     95  C   UNL A   1      50.565  27.769  29.255  1.00  0.00     0.059 A 
ATOM     96  C   UNL A   1      50.281  28.431  26.932  1.00  0.00     0.059 A 
ATOM     97  F   UNL A   1      48.138  28.920  26.119  1.00  0.00    -0.206 F 
ATOM     98  C   UNL A   1      51.099  28.053  27.996  1.00  0.00     0.060 A 
BRANCH  98  99
ATOM     99  S   UNL A   1      52.880  27.895  27.762  1.00  0.00     0.124 S 
ATOM    100  O   UNL A   1      53.348  29.212  28.182  1.00  0.00    -0.237 OA
ATOM    101  O   UNL A   1      53.214  26.788  28.653  1.00  0.00    -0.237 OA
ATOM    102  O   UNL A   1      53.010  27.607  26.337  1.00  0.00    -0.744 OA
ENDBRANCH  98  99
ENDBRANCH  66  91
ENDBRANCH  40  41
ENDBRANCH  32  35
ENDBRANCH  30  31
ENDBRANCH  29  30
ENDBRANCH   1  29
TORSDOF 17
ENDMDL
