MODEL 1
REMARK VINA RESULT:     -10.5      0.000      0.000
REMARK SMILES Cc1cc(-c2ccc(/C=C/C(=O)NCCCNC(=O)c3ccc(-c4c5nc(c(-c6c(F)cc(S(=O)(=O)[O-])cc6F)c6ccc([nH]6)c(-c6c(F)cc(S(=O)(=O)[O-])cc6F)c6nc(c(-c7c(F)cc(S(=O)(=O)[O-])cc7F)c7ccc4[nH]7)C=C6)C=C5)cc3)o2)c(C)cc1Br
REMARK SMILES IDX 15 1 14 2 13 3 11 4 12 5 10 7 9 8 8 9 5 10 6 11 86 12 7 13
REMARK SMILES IDX 4 14 1 15 2 16 3 17 90 18 89 19 91 20 87 21 88 22 16 23
REMARK SMILES IDX 17 24 18 25 19 27 20 28 21 29 85 30 22 31 84 32 23 33 24 34
REMARK SMILES IDX 25 35 78 36 26 37 83 38 77 39 79 40 27 41 82 42 76 43 75 44
REMARK SMILES IDX 28 46 62 47 41 48 61 49 42 50 45 51 60 52 80 53 43 54 44 55
REMARK SMILES IDX 59 57 81 58 46 59 29 60 30 61 39 62 31 63 32 64 38 65 40 66
REMARK SMILES IDX 33 67 34 68 35 69 36 70 37 71 63 72 64 73 73 74 65 75 66 76
REMARK SMILES IDX 72 77 74 78 67 79 68 80 69 81 70 82 71 83 47 84 48 85 57 86
REMARK SMILES IDX 49 87 50 88 56 89 58 90 51 91 52 92 53 93 54 94 55 95
REMARK H PARENT 13 6 17 26 79 45 45 56
REMARK Flexibility Score: inf
ROOT
ATOM      1  C   UNL A   1      33.840  34.024  28.024  1.00  0.00     0.042 C 
ENDROOT
BRANCH   1   2
ATOM      2  C   UNL A   1      34.298  35.271  28.775  1.00  0.00     0.118 C 
BRANCH   2   3
ATOM      3  N   UNL A   1      33.227  35.830  29.585  1.00  0.00    -0.352 N 
ATOM      4  C   UNL A   1      33.075  35.910  30.934  1.00  0.00     0.244 C 
ATOM      5  O   UNL A   1      32.130  36.548  31.396  1.00  0.00    -0.270 OA
ATOM      6  H   UNL A   1      32.484  36.217  29.068  1.00  0.00     0.163 HD
BRANCH   4   7
ATOM      7  C   UNL A   1      34.073  35.329  31.856  1.00  0.00     0.075 C 
ATOM      8  C   UNL A   1      34.171  34.027  32.149  1.00  0.00     0.053 C 
BRANCH   8   9
ATOM      9  C   UNL A   1      35.182  33.555  33.026  1.00  0.00     0.127 A 
ATOM     10  C   UNL A   1      36.939  32.413  33.753  1.00  0.00     0.135 A 
ATOM     11  C   UNL A   1      36.526  33.182  34.814  1.00  0.00     0.051 A 
ATOM     12  O   UNL A   1      36.119  32.606  32.686  1.00  0.00    -0.457 OA
ATOM     13  C   UNL A   1      35.423  33.932  34.342  1.00  0.00     0.051 A 
BRANCH  10  14
ATOM     14  C   UNL A   1      38.029  31.474  33.556  1.00  0.00     0.020 A 
ATOM     15  C   UNL A   1      38.342  27.808  32.557  1.00  0.00     0.045 C 
ATOM     16  C   UNL A   1      38.730  29.191  32.996  1.00  0.00    -0.036 A 
ATOM     17  C   UNL A   1      37.724  30.155  33.181  1.00  0.00     0.016 A 
ATOM     18  C   UNL A   1      40.063  29.576  33.193  1.00  0.00     0.021 A 
ATOM     19  C   UNL A   1      40.378  30.886  33.570  1.00  0.00     0.020 A 
ATOM     20  Br  UNL A   1      41.506  28.362  32.957  1.00  0.00    -0.051 Br
ATOM     21  C   UNL A   1      39.371  31.845  33.758  1.00  0.00    -0.039 A 
ATOM     22  C   UNL A   1      39.753  33.247  34.158  1.00  0.00     0.045 C 
ENDBRANCH  10  14
ENDBRANCH   8   9
ENDBRANCH   4   7
ENDBRANCH   2   3
ENDBRANCH   1   2
BRANCH   1  23
ATOM     23  C   UNL A   1      34.437  32.735  28.580  1.00  0.00     0.118 C 
BRANCH  23  24
ATOM     24  N   UNL A   1      33.664  31.560  28.201  1.00  0.00    -0.352 N 
ATOM     25  C   UNL A   1      34.088  30.284  27.905  1.00  0.00     0.251 C 
ATOM     26  H   UNL A   1      32.691  31.698  28.149  1.00  0.00     0.163 HD
ATOM     27  O   UNL A   1      33.303  29.484  27.408  1.00  0.00    -0.269 OA
BRANCH  25  28
ATOM     28  C   UNL A   1      35.492  29.887  28.163  1.00  0.00     0.039 A 
ATOM     29  C   UNL A   1      35.879  29.408  29.415  1.00  0.00     0.014 A 
ATOM     30  C   UNL A   1      36.431  29.991  27.132  1.00  0.00     0.014 A 
ATOM     31  C   UNL A   1      37.227  29.195  29.687  1.00  0.00     0.010 A 
ATOM     32  C   UNL A   1      37.774  29.694  27.384  1.00  0.00     0.010 A 
ATOM     33  C   UNL A   1      38.192  29.337  28.676  1.00  0.00    -0.014 A 
BRANCH  33  34
ATOM     34  C   UNL A   1      39.625  29.109  28.995  1.00  0.00     0.031 A 
ATOM     35  C   UNL A   1      40.288  27.799  28.658  1.00  0.00     0.074 A 
ATOM     36  C   UNL A   1      40.345  30.110  29.540  1.00  0.00     0.049 A 
ATOM     37  N   UNL A   1      41.526  27.426  28.863  1.00  0.00    -0.248 NA
ATOM     38  C   UNL A   1      39.455  26.774  28.009  1.00  0.00     0.031 C 
ATOM     39  C   UNL A   1      39.818  31.430  29.896  1.00  0.00     0.029 A 
ATOM     40  N   UNL A   1      41.675  30.186  29.868  1.00  0.00    -0.354 N 
ATOM     41  C   UNL A   1      41.618  26.124  28.384  1.00  0.00     0.074 A 
ATOM     42  C   UNL A   1      40.303  25.759  27.902  1.00  0.00     0.031 C 
ATOM     43  C   UNL A   1      40.822  32.200  30.341  1.00  0.00     0.029 A 
ATOM     44  C   UNL A   1      42.049  31.412  30.364  1.00  0.00     0.049 A 
ATOM     45  H   UNL A   1      42.301  29.435  29.758  1.00  0.00     0.167 HD
ATOM     46  C   UNL A   1      42.703  25.313  28.337  1.00  0.00     0.037 A 
ATOM     47  C   UNL A   1      43.244  31.853  30.803  1.00  0.00     0.037 A 
ATOM     48  C   UNL A   1      44.014  25.690  28.801  1.00  0.00     0.049 A 
ATOM     49  C   UNL A   1      44.421  30.921  30.776  1.00  0.00     0.074 A 
ATOM     50  C   UNL A   1      45.176  24.936  28.799  1.00  0.00     0.029 A 
ATOM     51  N   UNL A   1      44.341  26.925  29.342  1.00  0.00    -0.354 N 
ATOM     52  N   UNL A   1      44.482  29.685  30.340  1.00  0.00    -0.248 NA
ATOM     53  C   UNL A   1      45.689  31.437  31.308  1.00  0.00     0.031 C 
ATOM     54  C   UNL A   1      46.198  25.704  29.369  1.00  0.00     0.029 A 
ATOM     55  C   UNL A   1      45.683  26.951  29.686  1.00  0.00     0.049 A 
ATOM     56  H   UNL A   1      43.712  27.672  29.463  1.00  0.00     0.167 HD
ATOM     57  C   UNL A   1      45.798  29.280  30.533  1.00  0.00     0.074 A 
ATOM     58  C   UNL A   1      46.502  30.408  31.109  1.00  0.00     0.031 C 
ATOM     59  C   UNL A   1      46.369  28.081  30.259  1.00  0.00     0.037 A 
BRANCH  46  60
ATOM     60  C   UNL A   1      42.524  23.930  27.772  1.00  0.00     0.058 A 
ATOM     61  C   UNL A   1      42.554  23.690  26.390  1.00  0.00     0.135 A 
ATOM     62  C   UNL A   1      42.381  22.823  28.626  1.00  0.00     0.135 A 
ATOM     63  F   UNL A   1      42.669  24.715  25.528  1.00  0.00    -0.206 F 
ATOM     64  C   UNL A   1      42.436  22.405  25.871  1.00  0.00     0.059 A 
ATOM     65  C   UNL A   1      42.285  21.526  28.130  1.00  0.00     0.059 A 
ATOM     66  F   UNL A   1      42.344  22.997  29.956  1.00  0.00    -0.206 F 
ATOM     67  C   UNL A   1      42.304  21.328  26.751  1.00  0.00     0.060 A 
BRANCH  67  68
ATOM     68  S   UNL A   1      42.166  19.665  26.059  1.00  0.00     0.124 S 
ATOM     69  O   UNL A   1      43.093  19.741  24.934  1.00  0.00    -0.237 OA
ATOM     70  O   UNL A   1      42.591  18.827  27.174  1.00  0.00    -0.237 OA
ATOM     71  O   UNL A   1      40.754  19.561  25.701  1.00  0.00    -0.744 OA
ENDBRANCH  67  68
ENDBRANCH  46  60
BRANCH  47  72
ATOM     72  C   UNL A   1      43.376  33.247  31.301  1.00  0.00     0.058 A 
ATOM     73  C   UNL A   1      43.317  33.532  32.671  1.00  0.00     0.135 A 
ATOM     74  C   UNL A   1      43.605  34.314  30.418  1.00  0.00     0.135 A 
ATOM     75  F   UNL A   1      43.092  32.546  33.553  1.00  0.00    -0.206 F 
ATOM     76  C   UNL A   1      43.480  34.827  33.154  1.00  0.00     0.059 A 
ATOM     77  C   UNL A   1      43.796  35.613  30.877  1.00  0.00     0.059 A 
ATOM     78  F   UNL A   1      43.684  34.090  29.097  1.00  0.00    -0.206 F 
ATOM     79  C   UNL A   1      43.727  35.861  32.247  1.00  0.00     0.060 A 
BRANCH  79  80
ATOM     80  S   UNL A   1      44.008  37.525  32.887  1.00  0.00     0.124 S 
ATOM     81  O   UNL A   1      42.934  37.648  33.866  1.00  0.00    -0.237 OA
ATOM     82  O   UNL A   1      45.359  37.420  33.430  1.00  0.00    -0.237 OA
ATOM     83  O   UNL A   1      43.882  38.367  31.701  1.00  0.00    -0.744 OA
ENDBRANCH  79  80
ENDBRANCH  47  72
BRANCH  59  84
ATOM     84  C   UNL A   1      47.833  27.933  30.558  1.00  0.00     0.058 A 
ATOM     85  C   UNL A   1      48.285  27.455  31.797  1.00  0.00     0.135 A 
ATOM     86  C   UNL A   1      48.793  28.226  29.576  1.00  0.00     0.135 A 
ATOM     87  F   UNL A   1      47.406  27.167  32.772  1.00  0.00    -0.206 F 
ATOM     88  C   UNL A   1      49.640  27.291  32.061  1.00  0.00     0.059 A 
ATOM     89  C   UNL A   1      50.152  28.047  29.809  1.00  0.00     0.059 A 
ATOM     90  F   UNL A   1      48.411  28.678  28.371  1.00  0.00    -0.206 F 
ATOM     91  C   UNL A   1      50.567  27.589  31.059  1.00  0.00     0.060 A 
BRANCH  91  92
ATOM     92  S   UNL A   1      52.321  27.343  31.405  1.00  0.00     0.124 S 
ATOM     93  O   UNL A   1      52.506  25.950  31.010  1.00  0.00    -0.237 OA
ATOM     94  O   UNL A   1      52.952  28.336  30.542  1.00  0.00    -0.237 OA
ATOM     95  O   UNL A   1      52.426  27.609  32.836  1.00  0.00    -0.744 OA
ENDBRANCH  91  92
ENDBRANCH  59  84
ENDBRANCH  33  34
ENDBRANCH  25  28
ENDBRANCH  23  24
ENDBRANCH   1  23
TORSDOF 15
ENDMDL
MODEL 2
REMARK VINA RESULT:     -10.5      0.361      8.312
REMARK SMILES Cc1cc(-c2ccc(/C=C/C(=O)NCCCNC(=O)c3ccc(-c4c5nc(c(-c6c(F)cc(S(=O)(=O)[O-])cc6F)c6ccc([nH]6)c(-c6c(F)cc(S(=O)(=O)[O-])cc6F)c6nc(c(-c7c(F)cc(S(=O)(=O)[O-])cc7F)c7ccc4[nH]7)C=C6)C=C5)cc3)o2)c(C)cc1Br
REMARK SMILES IDX 15 1 14 2 13 3 11 4 12 5 10 7 9 8 8 9 5 10 6 11 86 12 7 13
REMARK SMILES IDX 4 14 1 15 2 16 3 17 90 18 89 19 91 20 87 21 88 22 16 23
REMARK SMILES IDX 17 24 18 25 19 27 20 28 21 29 85 30 22 31 84 32 23 33 24 34
REMARK SMILES IDX 25 35 78 36 26 37 83 38 77 39 79 40 27 41 82 42 76 43 75 44
REMARK SMILES IDX 28 46 62 47 41 48 61 49 42 50 45 51 60 52 80 53 43 54 44 55
REMARK SMILES IDX 59 57 81 58 46 59 29 60 30 61 39 62 31 63 32 64 38 65 40 66
REMARK SMILES IDX 33 67 34 68 35 69 36 70 37 71 63 72 64 73 73 74 65 75 66 76
REMARK SMILES IDX 72 77 74 78 67 79 68 80 69 81 70 82 71 83 47 84 48 85 57 86
REMARK SMILES IDX 49 87 50 88 56 89 58 90 51 91 52 92 53 93 54 94 55 95
REMARK H PARENT 13 6 17 26 79 45 45 56
REMARK Flexibility Score: inf
ROOT
ATOM      1  C   UNL A   1      33.993  34.087  27.982  1.00  0.00     0.042 C 
ENDROOT
BRANCH   1   2
ATOM      2  C   UNL A   1      34.428  35.322  28.765  1.00  0.00     0.118 C 
BRANCH   2   3
ATOM      3  N   UNL A   1      33.333  35.872  29.548  1.00  0.00    -0.352 N 
ATOM      4  C   UNL A   1      33.133  35.926  30.892  1.00  0.00     0.244 C 
ATOM      5  O   UNL A   1      32.177  36.561  31.334  1.00  0.00    -0.270 OA
ATOM      6  H   UNL A   1      32.612  36.275  29.013  1.00  0.00     0.163 HD
BRANCH   4   7
ATOM      7  C   UNL A   1      34.095  35.320  31.837  1.00  0.00     0.075 C 
ATOM      8  C   UNL A   1      34.334  34.007  31.941  1.00  0.00     0.053 C 
BRANCH   8   9
ATOM      9  C   UNL A   1      35.297  33.515  32.859  1.00  0.00     0.127 A 
ATOM     10  C   UNL A   1      37.011  32.352  33.654  1.00  0.00     0.135 A 
ATOM     11  C   UNL A   1      36.549  33.107  34.705  1.00  0.00     0.051 A 
ATOM     12  O   UNL A   1      36.246  32.567  32.550  1.00  0.00    -0.457 OA
ATOM     13  C   UNL A   1      35.474  33.870  34.191  1.00  0.00     0.051 A 
BRANCH  10  14
ATOM     14  C   UNL A   1      38.105  31.411  33.496  1.00  0.00     0.020 A 
ATOM     15  C   UNL A   1      38.447  27.748  32.495  1.00  0.00     0.045 C 
ATOM     16  C   UNL A   1      38.821  29.128  32.954  1.00  0.00    -0.036 A 
ATOM     17  C   UNL A   1      37.812  30.095  33.103  1.00  0.00     0.016 A 
ATOM     18  C   UNL A   1      40.146  29.508  33.205  1.00  0.00     0.021 A 
ATOM     19  C   UNL A   1      40.450  30.816  33.600  1.00  0.00     0.020 A 
ATOM     20  Br  UNL A   1      41.594  28.292  33.021  1.00  0.00    -0.051 Br
ATOM     21  C   UNL A   1      39.439  31.778  33.753  1.00  0.00    -0.039 A 
ATOM     22  C   UNL A   1      39.810  33.176  34.173  1.00  0.00     0.045 C 
ENDBRANCH  10  14
ENDBRANCH   8   9
ENDBRANCH   4   7
ENDBRANCH   2   3
ENDBRANCH   1   2
BRANCH   1  23
ATOM     23  C   UNL A   1      34.649  32.801  28.475  1.00  0.00     0.118 C 
BRANCH  23  24
ATOM     24  N   UNL A   1      33.821  31.629  28.227  1.00  0.00    -0.352 N 
ATOM     25  C   UNL A   1      34.189  30.323  27.991  1.00  0.00     0.251 C 
ATOM     26  H   UNL A   1      32.850  31.795  28.229  1.00  0.00     0.163 HD
ATOM     27  O   UNL A   1      33.352  29.518  27.601  1.00  0.00    -0.269 OA
BRANCH  25  28
ATOM     28  C   UNL A   1      35.595  29.901  28.184  1.00  0.00     0.039 A 
ATOM     29  C   UNL A   1      36.030  29.405  29.415  1.00  0.00     0.014 A 
ATOM     30  C   UNL A   1      36.491  29.997  27.114  1.00  0.00     0.014 A 
ATOM     31  C   UNL A   1      37.384  29.167  29.625  1.00  0.00     0.010 A 
ATOM     32  C   UNL A   1      37.838  29.675  27.304  1.00  0.00     0.010 A 
ATOM     33  C   UNL A   1      38.306  29.300  28.573  1.00  0.00    -0.014 A 
BRANCH  33  34
ATOM     34  C   UNL A   1      39.748  29.045  28.827  1.00  0.00     0.031 A 
ATOM     35  C   UNL A   1      40.606  30.085  29.499  1.00  0.00     0.074 A 
ATOM     36  C   UNL A   1      40.270  27.846  28.501  1.00  0.00     0.049 A 
ATOM     37  N   UNL A   1      41.879  30.033  29.798  1.00  0.00    -0.248 NA
ATOM     38  C   UNL A   1      39.953  31.346  29.881  1.00  0.00     0.031 C 
ATOM     39  C   UNL A   1      39.534  26.752  27.861  1.00  0.00     0.029 A 
ATOM     40  N   UNL A   1      41.530  27.336  28.681  1.00  0.00    -0.354 N 
ATOM     41  C   UNL A   1      42.183  31.254  30.390  1.00  0.00     0.074 A 
ATOM     42  C   UNL A   1      40.967  32.039  30.383  1.00  0.00     0.031 C 
ATOM     43  C   UNL A   1      40.339  25.685  27.752  1.00  0.00     0.029 A 
ATOM     44  C   UNL A   1      41.663  26.035  28.252  1.00  0.00     0.049 A 
ATOM     45  H   UNL A   1      42.268  27.850  29.080  1.00  0.00     0.167 HD
ATOM     46  C   UNL A   1      43.364  31.676  30.904  1.00  0.00     0.037 A 
ATOM     47  C   UNL A   1      42.734  25.219  28.249  1.00  0.00     0.037 A 
ATOM     48  C   UNL A   1      44.566  30.882  30.925  1.00  0.00     0.049 A 
ATOM     49  C   UNL A   1      44.041  25.725  28.789  1.00  0.00     0.074 A 
ATOM     50  C   UNL A   1      45.812  31.222  31.421  1.00  0.00     0.029 A 
ATOM     51  N   UNL A   1      44.671  29.587  30.437  1.00  0.00    -0.354 N 
ATOM     52  N   UNL A   1      44.313  26.891  29.324  1.00  0.00    -0.248 NA
ATOM     53  C   UNL A   1      45.188  24.809  28.720  1.00  0.00     0.031 C 
ATOM     54  C   UNL A   1      46.681  30.146  31.204  1.00  0.00     0.029 A 
ATOM     55  C   UNL A   1      45.963  29.119  30.612  1.00  0.00     0.049 A 
ATOM     56  H   UNL A   1      43.936  29.077  30.028  1.00  0.00     0.167 HD
ATOM     57  C   UNL A   1      45.660  26.846  29.666  1.00  0.00     0.074 A 
ATOM     58  C   UNL A   1      46.141  25.531  29.294  1.00  0.00     0.031 C 
ATOM     59  C   UNL A   1      46.427  27.807  30.235  1.00  0.00     0.037 A 
BRANCH  46  60
ATOM     60  C   UNL A   1      43.424  33.064  31.482  1.00  0.00     0.058 A 
ATOM     61  C   UNL A   1      43.360  33.288  32.866  1.00  0.00     0.135 A 
ATOM     62  C   UNL A   1      43.609  34.178  30.646  1.00  0.00     0.135 A 
ATOM     63  F   UNL A   1      43.166  32.260  33.709  1.00  0.00    -0.206 F 
ATOM     64  C   UNL A   1      43.464  34.568  33.402  1.00  0.00     0.059 A 
ATOM     65  C   UNL A   1      43.738  35.464  31.162  1.00  0.00     0.059 A 
ATOM     66  F   UNL A   1      43.674  34.020  29.315  1.00  0.00    -0.206 F 
ATOM     67  C   UNL A   1      43.655  35.650  32.540  1.00  0.00     0.060 A 
BRANCH  67  68
ATOM     68  S   UNL A   1      43.802  37.303  33.256  1.00  0.00     0.124 S 
ATOM     69  O   UNL A   1      42.630  37.348  34.124  1.00  0.00    -0.237 OA
ATOM     70  O   UNL A   1      45.091  37.235  33.935  1.00  0.00    -0.237 OA
ATOM     71  O   UNL A   1      43.753  38.183  32.092  1.00  0.00    -0.744 OA
ENDBRANCH  67  68
ENDBRANCH  46  60
BRANCH  47  72
ATOM     72  C   UNL A   1      42.604  23.838  27.714  1.00  0.00     0.058 A 
ATOM     73  C   UNL A   1      42.453  22.743  28.574  1.00  0.00     0.135 A 
ATOM     74  C   UNL A   1      42.586  23.595  26.331  1.00  0.00     0.135 A 
ATOM     75  F   UNL A   1      42.472  22.925  29.903  1.00  0.00    -0.206 F 
ATOM     76  C   UNL A   1      42.290  21.450  28.085  1.00  0.00     0.059 A 
ATOM     77  C   UNL A   1      42.399  22.316  25.817  1.00  0.00     0.059 A 
ATOM     78  F   UNL A   1      42.713  24.613  25.466  1.00  0.00    -0.206 F 
ATOM     79  C   UNL A   1      42.256  21.249  26.703  1.00  0.00     0.060 A 
BRANCH  79  80
ATOM     80  S   UNL A   1      41.972  19.579  26.078  1.00  0.00     0.124 S 
ATOM     81  O   UNL A   1      42.820  19.560  24.892  1.00  0.00    -0.237 OA
ATOM     82  O   UNL A   1      42.418  18.754  27.196  1.00  0.00    -0.237 OA
ATOM     83  O   UNL A   1      40.534  19.555  25.826  1.00  0.00    -0.744 OA
ENDBRANCH  79  80
ENDBRANCH  47  72
BRANCH  59  84
ATOM     84  C   UNL A   1      47.864  27.467  30.512  1.00  0.00     0.058 A 
ATOM     85  C   UNL A   1      48.877  27.750  29.583  1.00  0.00     0.135 A 
ATOM     86  C   UNL A   1      48.236  26.898  31.740  1.00  0.00     0.135 A 
ATOM     87  F   UNL A   1      48.571  28.289  28.392  1.00  0.00    -0.206 F 
ATOM     88  C   UNL A   1      50.209  27.460  29.854  1.00  0.00     0.059 A 
ATOM     89  C   UNL A   1      49.565  26.621  32.042  1.00  0.00     0.059 A 
ATOM     90  F   UNL A   1      47.304  26.617  32.665  1.00  0.00    -0.206 F 
ATOM     91  C   UNL A   1      50.544  26.896  31.088  1.00  0.00     0.060 A 
BRANCH  91  92
ATOM     92  S   UNL A   1      52.281  26.553  31.438  1.00  0.00     0.124 S 
ATOM     93  O   UNL A   1      52.830  26.417  30.093  1.00  0.00    -0.237 OA
ATOM     94  O   UNL A   1      52.693  27.745  32.173  1.00  0.00    -0.237 OA
ATOM     95  O   UNL A   1      52.233  25.325  32.224  1.00  0.00    -0.744 OA
ENDBRANCH  91  92
ENDBRANCH  59  84
ENDBRANCH  33  34
ENDBRANCH  25  28
ENDBRANCH  23  24
ENDBRANCH   1  23
TORSDOF 15
ENDMDL
MODEL 3
REMARK VINA RESULT:     -10.3      3.060     10.202
REMARK SMILES Cc1cc(-c2ccc(/C=C/C(=O)NCCCNC(=O)c3ccc(-c4c5nc(c(-c6c(F)cc(S(=O)(=O)[O-])cc6F)c6ccc([nH]6)c(-c6c(F)cc(S(=O)(=O)[O-])cc6F)c6nc(c(-c7c(F)cc(S(=O)(=O)[O-])cc7F)c7ccc4[nH]7)C=C6)C=C5)cc3)o2)c(C)cc1Br
REMARK SMILES IDX 15 1 14 2 13 3 11 4 12 5 10 7 9 8 8 9 5 10 6 11 86 12 7 13
REMARK SMILES IDX 4 14 1 15 2 16 3 17 90 18 89 19 91 20 87 21 88 22 16 23
REMARK SMILES IDX 17 24 18 25 19 27 20 28 21 29 85 30 22 31 84 32 23 33 24 34
REMARK SMILES IDX 25 35 78 36 26 37 83 38 77 39 79 40 27 41 82 42 76 43 75 44
REMARK SMILES IDX 28 46 62 47 41 48 61 49 42 50 45 51 60 52 80 53 43 54 44 55
REMARK SMILES IDX 59 57 81 58 46 59 29 60 30 61 39 62 31 63 32 64 38 65 40 66
REMARK SMILES IDX 33 67 34 68 35 69 36 70 37 71 63 72 64 73 73 74 65 75 66 76
REMARK SMILES IDX 72 77 74 78 67 79 68 80 69 81 70 82 71 83 47 84 48 85 57 86
REMARK SMILES IDX 49 87 50 88 56 89 58 90 51 91 52 92 53 93 54 94 55 95
REMARK H PARENT 13 6 17 26 79 45 45 56
REMARK Flexibility Score: inf
ROOT
ATOM      1  C   UNL A   1      41.032  20.181  27.255  1.00  0.00     0.042 C 
ENDROOT
BRANCH   1   2
ATOM      2  C   UNL A   1      42.476  19.732  27.455  1.00  0.00     0.118 C 
BRANCH   2   3
ATOM      3  N   UNL A   1      42.962  18.969  26.316  1.00  0.00    -0.352 N 
ATOM      4  C   UNL A   1      43.901  19.263  25.377  1.00  0.00     0.244 C 
ATOM      5  O   UNL A   1      44.238  18.398  24.571  1.00  0.00    -0.270 OA
ATOM      6  H   UNL A   1      42.538  18.088  26.206  1.00  0.00     0.163 HD
BRANCH   4   7
ATOM      7  C   UNL A   1      44.595  20.568  25.366  1.00  0.00     0.075 C 
ATOM      8  C   UNL A   1      44.060  21.710  24.918  1.00  0.00     0.053 C 
BRANCH   8   9
ATOM      9  C   UNL A   1      44.792  22.925  24.973  1.00  0.00     0.127 A 
ATOM     10  C   UNL A   1      45.271  25.048  25.400  1.00  0.00     0.135 A 
ATOM     11  C   UNL A   1      46.386  24.526  24.787  1.00  0.00     0.051 A 
ATOM     12  O   UNL A   1      44.298  24.102  25.487  1.00  0.00    -0.457 OA
ATOM     13  C   UNL A   1      46.090  23.165  24.540  1.00  0.00     0.051 A 
BRANCH  10  14
ATOM     14  C   UNL A   1      44.942  26.351  25.947  1.00  0.00     0.020 A 
ATOM     15  C   UNL A   1      42.018  28.782  25.669  1.00  0.00     0.045 C 
ATOM     16  C   UNL A   1      43.353  28.217  26.062  1.00  0.00    -0.036 A 
ATOM     17  C   UNL A   1      43.722  26.947  25.586  1.00  0.00     0.016 A 
ATOM     18  C   UNL A   1      44.235  28.887  26.920  1.00  0.00     0.021 A 
ATOM     19  C   UNL A   1      45.455  28.305  27.284  1.00  0.00     0.020 A 
ATOM     20  Br  UNL A   1      43.835  30.600  27.637  1.00  0.00    -0.051 Br
ATOM     21  C   UNL A   1      45.823  27.039  26.803  1.00  0.00    -0.039 A 
ATOM     22  C   UNL A   1      47.142  26.445  27.225  1.00  0.00     0.045 C 
ENDBRANCH  10  14
ENDBRANCH   8   9
ENDBRANCH   4   7
ENDBRANCH   2   3
ENDBRANCH   1   2
BRANCH   1  23
ATOM     23  C   UNL A   1      40.911  21.632  26.800  1.00  0.00     0.118 C 
BRANCH  23  24
ATOM     24  N   UNL A   1      39.734  21.855  25.971  1.00  0.00    -0.352 N 
ATOM     25  C   UNL A   1      38.865  22.923  25.944  1.00  0.00     0.251 C 
ATOM     26  H   UNL A   1      39.529  21.134  25.334  1.00  0.00     0.163 HD
ATOM     27  O   UNL A   1      37.814  22.833  25.319  1.00  0.00    -0.269 OA
BRANCH  25  28
ATOM     28  C   UNL A   1      39.186  24.163  26.687  1.00  0.00     0.039 A 
ATOM     29  C   UNL A   1      40.068  25.105  26.155  1.00  0.00     0.014 A 
ATOM     30  C   UNL A   1      38.590  24.388  27.932  1.00  0.00     0.014 A 
ATOM     31  C   UNL A   1      40.481  26.181  26.934  1.00  0.00     0.010 A 
ATOM     32  C   UNL A   1      38.944  25.516  28.678  1.00  0.00     0.010 A 
ATOM     33  C   UNL A   1      39.927  26.400  28.206  1.00  0.00    -0.014 A 
BRANCH  33  34
ATOM     34  C   UNL A   1      40.391  27.554  29.019  1.00  0.00     0.031 A 
ATOM     35  C   UNL A   1      41.788  27.584  29.583  1.00  0.00     0.074 A 
ATOM     36  C   UNL A   1      39.567  28.604  29.201  1.00  0.00     0.049 A 
ATOM     37  N   UNL A   1      42.361  28.506  30.313  1.00  0.00    -0.248 NA
ATOM     38  C   UNL A   1      42.652  26.429  29.293  1.00  0.00     0.031 C 
ATOM     39  C   UNL A   1      38.197  28.698  28.689  1.00  0.00     0.029 A 
ATOM     40  N   UNL A   1      39.763  29.801  29.841  1.00  0.00    -0.354 N 
ATOM     41  C   UNL A   1      43.644  28.041  30.581  1.00  0.00     0.074 A 
ATOM     42  C   UNL A   1      43.757  26.740  29.959  1.00  0.00     0.031 C 
ATOM     43  C   UNL A   1      37.697  29.906  28.989  1.00  0.00     0.029 A 
ATOM     44  C   UNL A   1      38.682  30.647  29.767  1.00  0.00     0.049 A 
ATOM     45  H   UNL A   1      40.598  30.032  30.309  1.00  0.00     0.167 HD
ATOM     46  C   UNL A   1      44.639  28.650  31.270  1.00  0.00     0.037 A 
ATOM     47  C   UNL A   1      38.496  31.879  30.281  1.00  0.00     0.037 A 
ATOM     48  C   UNL A   1      44.525  29.955  31.871  1.00  0.00     0.049 A 
ATOM     49  C   UNL A   1      39.602  32.514  31.074  1.00  0.00     0.074 A 
ATOM     50  C   UNL A   1      45.478  30.654  32.593  1.00  0.00     0.029 A 
ATOM     51  N   UNL A   1      43.397  30.759  31.814  1.00  0.00    -0.354 N 
ATOM     52  N   UNL A   1      40.799  32.048  31.335  1.00  0.00    -0.248 NA
ATOM     53  C   UNL A   1      39.330  33.839  31.649  1.00  0.00     0.031 C 
ATOM     54  C   UNL A   1      44.914  31.869  33.001  1.00  0.00     0.029 A 
ATOM     55  C   UNL A   1      43.625  31.944  32.496  1.00  0.00     0.049 A 
ATOM     56  H   UNL A   1      42.558  30.524  31.357  1.00  0.00     0.167 HD
ATOM     57  C   UNL A   1      41.429  33.027  32.095  1.00  0.00     0.074 A 
ATOM     58  C   UNL A   1      40.487  34.118  32.236  1.00  0.00     0.031 C 
ATOM     59  C   UNL A   1      42.676  33.020  32.628  1.00  0.00     0.037 A 
BRANCH  46  60
ATOM     60  C   UNL A   1      45.941  27.913  31.424  1.00  0.00     0.058 A 
ATOM     61  C   UNL A   1      46.084  26.853  32.333  1.00  0.00     0.135 A 
ATOM     62  C   UNL A   1      47.042  28.230  30.611  1.00  0.00     0.135 A 
ATOM     63  F   UNL A   1      45.070  26.519  33.148  1.00  0.00    -0.206 F 
ATOM     64  C   UNL A   1      47.275  26.141  32.440  1.00  0.00     0.059 A 
ATOM     65  C   UNL A   1      48.235  27.517  30.685  1.00  0.00     0.059 A 
ATOM     66  F   UNL A   1      46.960  29.236  29.727  1.00  0.00    -0.206 F 
ATOM     67  C   UNL A   1      48.345  26.480  31.609  1.00  0.00     0.060 A 
BRANCH  67  68
ATOM     68  S   UNL A   1      49.878  25.536  31.754  1.00  0.00     0.124 S 
ATOM     69  O   UNL A   1      50.056  25.059  30.386  1.00  0.00    -0.237 OA
ATOM     70  O   UNL A   1      50.828  26.549  32.199  1.00  0.00    -0.237 OA
ATOM     71  O   UNL A   1      49.553  24.508  32.738  1.00  0.00    -0.744 OA
ENDBRANCH  67  68
ENDBRANCH  46  60
BRANCH  47  72
ATOM     72  C   UNL A   1      37.207  32.584  30.053  1.00  0.00     0.058 A 
ATOM     73  C   UNL A   1      36.097  32.339  30.870  1.00  0.00     0.135 A 
ATOM     74  C   UNL A   1      37.077  33.547  29.038  1.00  0.00     0.135 A 
ATOM     75  F   UNL A   1      36.171  31.423  31.847  1.00  0.00    -0.206 F 
ATOM     76  C   UNL A   1      34.897  33.022  30.693  1.00  0.00     0.059 A 
ATOM     77  C   UNL A   1      35.898  34.260  28.857  1.00  0.00     0.059 A 
ATOM     78  F   UNL A   1      38.118  33.826  28.238  1.00  0.00    -0.206 F 
ATOM     79  C   UNL A   1      34.811  33.988  29.687  1.00  0.00     0.060 A 
BRANCH  79  80
ATOM     80  S   UNL A   1      33.274  34.919  29.511  1.00  0.00     0.124 S 
ATOM     81  O   UNL A   1      32.791  34.951  30.887  1.00  0.00    -0.237 OA
ATOM     82  O   UNL A   1      33.746  36.189  28.970  1.00  0.00    -0.237 OA
ATOM     83  O   UNL A   1      32.493  34.104  28.585  1.00  0.00    -0.744 OA
ENDBRANCH  79  80
ENDBRANCH  47  72
BRANCH  59  84
ATOM     84  C   UNL A   1      43.102  34.239  33.396  1.00  0.00     0.058 A 
ATOM     85  C   UNL A   1      42.981  34.307  34.791  1.00  0.00     0.135 A 
ATOM     86  C   UNL A   1      43.684  35.330  32.732  1.00  0.00     0.135 A 
ATOM     87  F   UNL A   1      42.425  33.291  35.472  1.00  0.00    -0.206 F 
ATOM     88  C   UNL A   1      43.403  35.425  35.502  1.00  0.00     0.059 A 
ATOM     89  C   UNL A   1      44.135  36.449  33.424  1.00  0.00     0.059 A 
ATOM     90  F   UNL A   1      43.830  35.310  31.397  1.00  0.00    -0.206 F 
ATOM     91  C   UNL A   1      43.980  36.492  34.809  1.00  0.00     0.060 A 
BRANCH  91  92
ATOM     92  S   UNL A   1      44.551  37.924  35.748  1.00  0.00     0.124 S 
ATOM     93  O   UNL A   1      45.962  37.606  35.937  1.00  0.00    -0.237 OA
ATOM     94  O   UNL A   1      44.266  39.028  34.837  1.00  0.00    -0.237 OA
ATOM     95  O   UNL A   1      43.731  37.888  36.955  1.00  0.00    -0.744 OA
ENDBRANCH  91  92
ENDBRANCH  59  84
ENDBRANCH  33  34
ENDBRANCH  25  28
ENDBRANCH  23  24
ENDBRANCH   1  23
TORSDOF 15
ENDMDL
