MODEL 1
REMARK VINA RESULT:     -13.8      0.000      0.000
REMARK SMILES O=C(NCCCNC(=O)c1cc(N2C(=O)[C@H]3[C@@H]4C=C[C@@H]([C@@H]5C[C@H]45)[C@@H]3C2=O)ccc1Cl)c1ccc(-c2c3nc(c(-c4c(F)cc(S(=O)(=O)[O-])cc4F)c4ccc([nH]4)c(-c4c(F)cc(S(=O)(=O)[O-])cc4F)c4nc(c(-c5c(F)cc(S(=O)(=O)[O-])cc5F)c5ccc2[nH]5)C=C4)C=C3)cc1
REMARK SMILES IDX 4 1 3 2 1 3 2 4 31 6 32 7 96 8 33 9 95 10 34 11 35 12 36 13
REMARK SMILES IDX 89 14 37 15 94 16 88 17 90 18 38 19 93 20 87 21 86 22 39 24
REMARK SMILES IDX 73 25 52 26 72 27 53 28 56 29 71 30 91 31 54 32 55 33 70 35
REMARK SMILES IDX 92 36 57 37 40 38 41 39 50 40 42 41 43 42 49 43 51 44 44 45
REMARK SMILES IDX 45 46 46 47 47 48 48 49 74 50 75 51 84 52 76 53 77 54 83 55
REMARK SMILES IDX 85 56 78 57 79 58 80 59 81 60 82 61 58 62 59 63 68 64 60 65
REMARK SMILES IDX 61 66 67 67 69 68 62 69 63 70 64 71 65 72 66 73 5 74 6 75
REMARK SMILES IDX 7 76 8 77 9 79 10 80 11 81 29 82 12 83 28 84 30 85 27 86
REMARK SMILES IDX 13 87 14 88 25 89 15 90 16 91 24 92 26 93 17 94 20 95 18 96
REMARK SMILES IDX 23 97 19 98 21 99 22 100
REMARK H PARENT 3 5 90 23 56 34 7 78
REMARK Flexibility Score: inf
ROOT
ATOM      1  C   UNL A   1      38.202  24.093  26.499  1.00  0.00     0.118 C 
ENDROOT
BRANCH   1   2
ATOM      2  N   UNL A   1      39.594  24.058  26.065  1.00  0.00    -0.352 N 
ATOM      3  O   UNL A   1      41.716  24.772  25.812  1.00  0.00    -0.269 OA
ATOM      4  C   UNL A   1      40.655  24.857  26.425  1.00  0.00     0.251 C 
ATOM      5  H   UNL A   1      39.808  23.354  25.412  1.00  0.00     0.163 HD
BRANCH   4   6
ATOM      6  C   UNL A   1      40.506  25.830  27.528  1.00  0.00     0.039 A 
ATOM      7  C   UNL A   1      41.313  26.965  27.581  1.00  0.00     0.014 A 
ATOM      8  C   UNL A   1      39.550  25.605  28.521  1.00  0.00     0.014 A 
ATOM      9  C   UNL A   1      41.306  27.764  28.715  1.00  0.00     0.010 A 
ATOM     10  C   UNL A   1      39.454  26.486  29.604  1.00  0.00     0.010 A 
ATOM     11  C   UNL A   1      40.357  27.554  29.728  1.00  0.00    -0.014 A 
BRANCH  11  12
ATOM     12  C   UNL A   1      40.282  28.522  30.852  1.00  0.00     0.031 A 
ATOM     13  C   UNL A   1      41.190  28.413  32.043  1.00  0.00     0.074 A 
ATOM     14  C   UNL A   1      39.389  29.529  30.765  1.00  0.00     0.049 A 
ATOM     15  N   UNL A   1      41.253  29.185  33.099  1.00  0.00    -0.248 NA
ATOM     16  C   UNL A   1      42.147  27.295  32.063  1.00  0.00     0.031 C 
ATOM     17  C   UNL A   1      38.447  29.724  29.658  1.00  0.00     0.029 A 
ATOM     18  N   UNL A   1      39.135  30.583  31.602  1.00  0.00    -0.354 N 
ATOM     19  C   UNL A   1      42.235  28.637  33.918  1.00  0.00     0.074 A 
ATOM     20  C   UNL A   1      42.725  27.452  33.247  1.00  0.00     0.031 C 
ATOM     21  C   UNL A   1      37.754  30.852  29.860  1.00  0.00     0.029 A 
ATOM     22  C   UNL A   1      38.141  31.417  31.146  1.00  0.00     0.049 A 
ATOM     23  H   UNL A   1      39.616  30.730  32.448  1.00  0.00     0.167 HD
ATOM     24  C   UNL A   1      42.683  29.088  35.115  1.00  0.00     0.037 A 
ATOM     25  C   UNL A   1      37.577  32.501  31.710  1.00  0.00     0.037 A 
ATOM     26  C   UNL A   1      42.189  30.278  35.764  1.00  0.00     0.049 A 
ATOM     27  C   UNL A   1      38.075  32.962  33.047  1.00  0.00     0.074 A 
ATOM     28  C   UNL A   1      42.608  30.842  36.957  1.00  0.00     0.029 A 
ATOM     29  N   UNL A   1      41.164  31.082  35.283  1.00  0.00    -0.354 N 
ATOM     30  N   UNL A   1      39.029  32.452  33.789  1.00  0.00    -0.248 NA
ATOM     31  C   UNL A   1      37.422  34.142  33.626  1.00  0.00     0.031 C 
ATOM     32  C   UNL A   1      41.795  31.948  37.229  1.00  0.00     0.029 A 
ATOM     33  C   UNL A   1      40.915  32.117  36.171  1.00  0.00     0.049 A 
ATOM     34  H   UNL A   1      40.684  30.938  34.436  1.00  0.00     0.167 HD
ATOM     35  C   UNL A   1      39.105  33.261  34.916  1.00  0.00     0.074 A 
ATOM     36  C   UNL A   1      38.112  34.304  34.747  1.00  0.00     0.031 C 
ATOM     37  C   UNL A   1      39.922  33.148  35.992  1.00  0.00     0.037 A 
BRANCH  24  38
ATOM     38  C   UNL A   1      43.744  28.285  35.822  1.00  0.00     0.058 A 
ATOM     39  C   UNL A   1      43.425  27.238  36.701  1.00  0.00     0.135 A 
ATOM     40  C   UNL A   1      45.105  28.529  35.567  1.00  0.00     0.135 A 
ATOM     41  F   UNL A   1      42.143  26.966  36.993  1.00  0.00    -0.206 F 
ATOM     42  C   UNL A   1      44.414  26.477  37.319  1.00  0.00     0.059 A 
ATOM     43  C   UNL A   1      46.110  27.763  36.151  1.00  0.00     0.059 A 
ATOM     44  F   UNL A   1      45.469  29.517  34.735  1.00  0.00    -0.206 F 
ATOM     45  C   UNL A   1      45.755  26.746  37.036  1.00  0.00     0.060 A 
BRANCH  45  46
ATOM     46  S   UNL A   1      47.023  25.743  37.838  1.00  0.00     0.124 S 
ATOM     47  O   UNL A   1      46.909  26.184  39.225  1.00  0.00    -0.237 OA
ATOM     48  O   UNL A   1      46.563  24.385  37.566  1.00  0.00    -0.237 OA
ATOM     49  O   UNL A   1      48.252  26.135  37.155  1.00  0.00    -0.744 OA
ENDBRANCH  45  46
ENDBRANCH  24  38
BRANCH  25  50
ATOM     50  C   UNL A   1      36.467  33.199  31.009  1.00  0.00     0.058 A 
ATOM     51  C   UNL A   1      35.150  33.130  31.485  1.00  0.00     0.135 A 
ATOM     52  C   UNL A   1      36.711  33.983  29.870  1.00  0.00     0.135 A 
ATOM     53  F   UNL A   1      34.865  32.392  32.568  1.00  0.00    -0.206 F 
ATOM     54  C   UNL A   1      34.112  33.803  30.849  1.00  0.00     0.059 A 
ATOM     55  C   UNL A   1      35.696  34.691  29.236  1.00  0.00     0.059 A 
ATOM     56  F   UNL A   1      37.958  34.099  29.387  1.00  0.00    -0.206 F 
ATOM     57  C   UNL A   1      34.396  34.585  29.728  1.00  0.00     0.060 A 
BRANCH  57  58
ATOM     58  S   UNL A   1      33.050  35.496  28.943  1.00  0.00     0.124 S 
ATOM     59  O   UNL A   1      32.210  35.821  30.090  1.00  0.00    -0.237 OA
ATOM     60  O   UNL A   1      33.756  36.616  28.329  1.00  0.00    -0.237 OA
ATOM     61  O   UNL A   1      32.490  34.527  28.005  1.00  0.00    -0.744 OA
ENDBRANCH  57  58
ENDBRANCH  25  50
BRANCH  37  62
ATOM     62  C   UNL A   1      39.801  34.201  37.059  1.00  0.00     0.058 A 
ATOM     63  C   UNL A   1      40.369  35.477  36.910  1.00  0.00     0.135 A 
ATOM     64  C   UNL A   1      39.073  33.942  38.232  1.00  0.00     0.135 A 
ATOM     65  F   UNL A   1      41.084  35.774  35.813  1.00  0.00    -0.206 F 
ATOM     66  C   UNL A   1      40.241  36.449  37.896  1.00  0.00     0.059 A 
ATOM     67  C   UNL A   1      38.904  34.910  39.217  1.00  0.00     0.059 A 
ATOM     68  F   UNL A   1      38.503  32.742  38.424  1.00  0.00    -0.206 F 
ATOM     69  C   UNL A   1      39.503  36.157  39.046  1.00  0.00     0.060 A 
BRANCH  69  70
ATOM     70  S   UNL A   1      39.318  37.438  40.302  1.00  0.00     0.124 S 
ATOM     71  O   UNL A   1      38.656  36.704  41.376  1.00  0.00    -0.237 OA
ATOM     72  O   UNL A   1      40.701  37.827  40.559  1.00  0.00    -0.237 OA
ATOM     73  O   UNL A   1      38.501  38.450  39.639  1.00  0.00    -0.744 OA
ENDBRANCH  69  70
ENDBRANCH  37  62
ENDBRANCH  11  12
ENDBRANCH   4   6
ENDBRANCH   1   2
BRANCH   1  74
ATOM     74  C   UNL A   1      37.226  23.705  25.401  1.00  0.00     0.042 C 
BRANCH  74  75
ATOM     75  C   UNL A   1      36.869  22.230  25.391  1.00  0.00     0.118 C 
BRANCH  75  76
ATOM     76  N   UNL A   1      36.006  21.859  26.502  1.00  0.00    -0.352 N 
ATOM     77  C   UNL A   1      34.647  21.714  26.537  1.00  0.00     0.252 C 
ATOM     78  H   UNL A   1      36.468  21.687  27.354  1.00  0.00     0.163 HD
ATOM     79  O   UNL A   1      34.072  21.477  27.597  1.00  0.00    -0.269 OA
BRANCH  77  80
ATOM     80  C   UNL A   1      33.846  21.889  25.317  1.00  0.00     0.060 A 
ATOM     81  C   UNL A   1      33.445  23.201  25.015  1.00  0.00     0.042 A 
ATOM     82  C   UNL A   1      33.421  20.815  24.526  1.00  0.00     0.053 A 
ATOM     83  C   UNL A   1      32.597  23.430  23.933  1.00  0.00     0.053 A 
ATOM     84  C   UNL A   1      32.655  21.062  23.389  1.00  0.00     0.023 A 
ATOM     85  Cl  UNL A   1      33.749  19.162  24.909  1.00  0.00    -0.083 Cl
ATOM     86  C   UNL A   1      32.225  22.358  23.109  1.00  0.00     0.028 A 
BRANCH  83  87
ATOM     87  N   UNL A   1      32.165  24.728  23.603  1.00  0.00    -0.250 N 
ATOM     88  C   UNL A   1      31.180  25.408  24.339  1.00  0.00     0.238 C 
ATOM     89  C   UNL A   1      32.908  25.593  22.772  1.00  0.00     0.238 C 
ATOM     90  O   UNL A   1      30.482  25.015  25.258  1.00  0.00    -0.274 OA
ATOM     91  C   UNL A   1      31.164  26.774  23.734  1.00  0.00     0.100 C 
ATOM     92  C   UNL A   1      32.655  26.908  23.410  1.00  0.00     0.100 C 
ATOM     93  O   UNL A   1      33.711  25.344  21.896  1.00  0.00    -0.274 OA
ATOM     94  C   UNL A   1      30.656  28.099  24.326  1.00  0.00     0.028 C 
ATOM     95  C   UNL A   1      32.985  28.367  23.138  1.00  0.00     0.028 C 
ATOM     96  C   UNL A   1      30.626  28.968  23.043  1.00  0.00    -0.026 C 
ATOM     97  C   UNL A   1      31.641  28.832  25.256  1.00  0.00     0.001 C 
ATOM     98  C   UNL A   1      31.818  29.052  22.406  1.00  0.00    -0.026 C 
ATOM     99  C   UNL A   1      33.007  29.011  24.574  1.00  0.00     0.001 C 
ATOM    100  C   UNL A   1      32.872  28.284  25.916  1.00  0.00     0.009 C 
ENDBRANCH  83  87
ENDBRANCH  77  80
ENDBRANCH  75  76
ENDBRANCH  74  75
ENDBRANCH   1  74
TORSDOF 14
ENDMDL
MODEL 2
REMARK VINA RESULT:     -13.7      6.664     12.066
REMARK SMILES O=C(NCCCNC(=O)c1cc(N2C(=O)[C@H]3[C@@H]4C=C[C@@H]([C@@H]5C[C@H]45)[C@@H]3C2=O)ccc1Cl)c1ccc(-c2c3nc(c(-c4c(F)cc(S(=O)(=O)[O-])cc4F)c4ccc([nH]4)c(-c4c(F)cc(S(=O)(=O)[O-])cc4F)c4nc(c(-c5c(F)cc(S(=O)(=O)[O-])cc5F)c5ccc2[nH]5)C=C4)C=C3)cc1
REMARK SMILES IDX 4 1 3 2 1 3 2 4 31 6 32 7 96 8 33 9 95 10 34 11 35 12 36 13
REMARK SMILES IDX 89 14 37 15 94 16 88 17 90 18 38 19 93 20 87 21 86 22 39 24
REMARK SMILES IDX 73 25 52 26 72 27 53 28 56 29 71 30 91 31 54 32 55 33 70 35
REMARK SMILES IDX 92 36 57 37 40 38 41 39 50 40 42 41 43 42 49 43 51 44 44 45
REMARK SMILES IDX 45 46 46 47 47 48 48 49 74 50 75 51 84 52 76 53 77 54 83 55
REMARK SMILES IDX 85 56 78 57 79 58 80 59 81 60 82 61 58 62 59 63 68 64 60 65
REMARK SMILES IDX 61 66 67 67 69 68 62 69 63 70 64 71 65 72 66 73 5 74 6 75
REMARK SMILES IDX 7 76 8 77 9 79 10 80 11 81 29 82 12 83 28 84 30 85 27 86
REMARK SMILES IDX 13 87 14 88 25 89 15 90 16 91 24 92 26 93 17 94 20 95 18 96
REMARK SMILES IDX 23 97 19 98 21 99 22 100
REMARK H PARENT 3 5 90 23 56 34 7 78
REMARK Flexibility Score: inf
ROOT
ATOM      1  C   UNL A   1      35.329  29.358  27.586  1.00  0.00     0.118 C 
ENDROOT
BRANCH   1   2
ATOM      2  N   UNL A   1      35.263  30.079  28.852  1.00  0.00    -0.352 N 
ATOM      3  O   UNL A   1      35.952  30.828  30.862  1.00  0.00    -0.269 OA
ATOM      4  C   UNL A   1      36.251  30.352  29.770  1.00  0.00     0.251 C 
ATOM      5  H   UNL A   1      34.372  30.425  29.087  1.00  0.00     0.163 HD
BRANCH   4   6
ATOM      6  C   UNL A   1      37.661  30.046  29.450  1.00  0.00     0.039 A 
ATOM      7  C   UNL A   1      38.114  30.102  28.133  1.00  0.00     0.014 A 
ATOM      8  C   UNL A   1      38.542  29.698  30.478  1.00  0.00     0.014 A 
ATOM      9  C   UNL A   1      39.377  29.624  27.818  1.00  0.00     0.010 A 
ATOM     10  C   UNL A   1      39.858  29.339  30.171  1.00  0.00     0.010 A 
ATOM     11  C   UNL A   1      40.277  29.265  28.833  1.00  0.00    -0.014 A 
BRANCH  11  12
ATOM     12  C   UNL A   1      41.669  28.903  28.463  1.00  0.00     0.031 A 
ATOM     13  C   UNL A   1      42.774  29.922  28.474  1.00  0.00     0.074 A 
ATOM     14  C   UNL A   1      41.929  27.621  28.140  1.00  0.00     0.049 A 
ATOM     15  N   UNL A   1      44.040  29.761  28.185  1.00  0.00    -0.248 NA
ATOM     16  C   UNL A   1      42.417  31.300  28.848  1.00  0.00     0.031 C 
ATOM     17  C   UNL A   1      40.929  26.549  28.083  1.00  0.00     0.029 A 
ATOM     18  N   UNL A   1      43.102  26.992  27.816  1.00  0.00    -0.354 N 
ATOM     19  C   UNL A   1      44.628  31.014  28.319  1.00  0.00     0.074 A 
ATOM     20  C   UNL A   1      43.573  31.932  28.693  1.00  0.00     0.031 C 
ATOM     21  C   UNL A   1      41.537  25.391  27.794  1.00  0.00     0.029 A 
ATOM     22  C   UNL A   1      42.952  25.648  27.564  1.00  0.00     0.049 A 
ATOM     23  H   UNL A   1      43.969  27.456  27.769  1.00  0.00     0.167 HD
ATOM     24  C   UNL A   1      45.928  31.359  28.148  1.00  0.00     0.037 A 
ATOM     25  C   UNL A   1      43.845  24.725  27.161  1.00  0.00     0.037 A 
ATOM     26  C   UNL A   1      46.968  30.427  27.786  1.00  0.00     0.049 A 
ATOM     27  C   UNL A   1      45.271  25.141  26.954  1.00  0.00     0.074 A 
ATOM     28  C   UNL A   1      48.322  30.669  27.630  1.00  0.00     0.029 A 
ATOM     29  N   UNL A   1      46.772  29.080  27.513  1.00  0.00    -0.354 N 
ATOM     30  N   UNL A   1      45.815  26.323  27.121  1.00  0.00    -0.248 NA
ATOM     31  C   UNL A   1      46.205  24.103  26.504  1.00  0.00     0.031 C 
ATOM     32  C   UNL A   1      48.934  29.486  27.203  1.00  0.00     0.029 A 
ATOM     33  C   UNL A   1      47.974  28.486  27.159  1.00  0.00     0.049 A 
ATOM     34  H   UNL A   1      45.906  28.613  27.564  1.00  0.00     0.167 HD
ATOM     35  C   UNL A   1      47.161  26.167  26.815  1.00  0.00     0.074 A 
ATOM     36  C   UNL A   1      47.350  24.771  26.471  1.00  0.00     0.031 C 
ATOM     37  C   UNL A   1      48.149  27.096  26.817  1.00  0.00     0.037 A 
BRANCH  24  38
ATOM     38  C   UNL A   1      46.305  32.807  28.324  1.00  0.00     0.058 A 
ATOM     39  C   UNL A   1      46.252  33.726  27.264  1.00  0.00     0.135 A 
ATOM     40  C   UNL A   1      46.667  33.296  29.591  1.00  0.00     0.135 A 
ATOM     41  F   UNL A   1      45.925  33.315  26.028  1.00  0.00    -0.206 F 
ATOM     42  C   UNL A   1      46.567  35.070  27.447  1.00  0.00     0.059 A 
ATOM     43  C   UNL A   1      46.958  34.641  29.804  1.00  0.00     0.059 A 
ATOM     44  F   UNL A   1      46.734  32.464  30.643  1.00  0.00    -0.206 F 
ATOM     45  C   UNL A   1      46.916  35.518  28.722  1.00  0.00     0.060 A 
BRANCH  45  46
ATOM     46  S   UNL A   1      47.309  37.267  28.943  1.00  0.00     0.124 S 
ATOM     47  O   UNL A   1      45.979  37.868  28.935  1.00  0.00    -0.237 OA
ATOM     48  O   UNL A   1      47.997  37.270  30.231  1.00  0.00    -0.237 OA
ATOM     49  O   UNL A   1      48.146  37.578  27.788  1.00  0.00    -0.744 OA
ENDBRANCH  45  46
ENDBRANCH  24  38
BRANCH  25  50
ATOM     50  C   UNL A   1      43.396  23.331  26.910  1.00  0.00     0.058 A 
ATOM     51  C   UNL A   1      43.250  22.837  25.606  1.00  0.00     0.135 A 
ATOM     52  C   UNL A   1      43.142  22.450  27.975  1.00  0.00     0.135 A 
ATOM     53  F   UNL A   1      43.478  23.639  24.554  1.00  0.00    -0.206 F 
ATOM     54  C   UNL A   1      42.857  21.525  25.366  1.00  0.00     0.059 A 
ATOM     55  C   UNL A   1      42.780  21.126  27.760  1.00  0.00     0.059 A 
ATOM     56  F   UNL A   1      43.288  22.868  29.242  1.00  0.00    -0.206 F 
ATOM     57  C   UNL A   1      42.628  20.675  26.450  1.00  0.00     0.060 A 
BRANCH  57  58
ATOM     58  S   UNL A   1      42.170  18.960  26.125  1.00  0.00     0.124 S 
ATOM     59  O   UNL A   1      43.052  18.628  25.012  1.00  0.00    -0.237 OA
ATOM     60  O   UNL A   1      42.476  18.316  27.398  1.00  0.00    -0.237 OA
ATOM     61  O   UNL A   1      40.749  19.047  25.801  1.00  0.00    -0.744 OA
ENDBRANCH  57  58
ENDBRANCH  25  50
BRANCH  37  62
ATOM     62  C   UNL A   1      49.534  26.625  26.470  1.00  0.00     0.058 A 
ATOM     63  C   UNL A   1      50.359  25.987  27.410  1.00  0.00     0.135 A 
ATOM     64  C   UNL A   1      50.029  26.780  25.164  1.00  0.00     0.135 A 
ATOM     65  F   UNL A   1      49.939  25.823  28.675  1.00  0.00    -0.206 F 
ATOM     66  C   UNL A   1      51.634  25.544  27.076  1.00  0.00     0.059 A 
ATOM     67  C   UNL A   1      51.288  26.315  24.799  1.00  0.00     0.059 A 
ATOM     68  F   UNL A   1      49.280  27.377  24.223  1.00  0.00    -0.206 F 
ATOM     69  C   UNL A   1      52.089  25.709  25.766  1.00  0.00     0.060 A 
BRANCH  69  70
ATOM     70  S   UNL A   1      53.732  25.100  25.339  1.00  0.00     0.124 S 
ATOM     71  O   UNL A   1      53.526  23.655  25.363  1.00  0.00    -0.237 OA
ATOM     72  O   UNL A   1      53.951  25.687  24.022  1.00  0.00    -0.237 OA
ATOM     73  O   UNL A   1      54.579  25.629  26.404  1.00  0.00    -0.744 OA
ENDBRANCH  69  70
ENDBRANCH  37  62
ENDBRANCH  11  12
ENDBRANCH   4   6
ENDBRANCH   1   2
BRANCH   1  74
ATOM     74  C   UNL A   1      34.016  28.691  27.212  1.00  0.00     0.042 C 
BRANCH  74  75
ATOM     75  C   UNL A   1      33.060  29.599  26.459  1.00  0.00     0.118 C 
BRANCH  75  76
ATOM     76  N   UNL A   1      33.418  29.743  25.056  1.00  0.00    -0.352 N 
ATOM     77  C   UNL A   1      32.960  29.055  23.966  1.00  0.00     0.252 C 
ATOM     78  H   UNL A   1      34.088  30.438  24.862  1.00  0.00     0.163 HD
ATOM     79  O   UNL A   1      33.444  29.254  22.855  1.00  0.00    -0.269 OA
BRANCH  77  80
ATOM     80  C   UNL A   1      31.918  28.030  24.116  1.00  0.00     0.060 A 
ATOM     81  C   UNL A   1      32.354  26.738  24.454  1.00  0.00     0.042 A 
ATOM     82  C   UNL A   1      30.564  28.280  23.859  1.00  0.00     0.053 A 
ATOM     83  C   UNL A   1      31.434  25.693  24.509  1.00  0.00     0.053 A 
ATOM     84  C   UNL A   1      29.636  27.252  24.013  1.00  0.00     0.023 A 
ATOM     85  Cl  UNL A   1      29.965  29.801  23.299  1.00  0.00    -0.083 Cl
ATOM     86  C   UNL A   1      30.072  25.961  24.312  1.00  0.00     0.028 A 
BRANCH  83  87
ATOM     87  N   UNL A   1      31.832  24.383  24.835  1.00  0.00    -0.250 N 
ATOM     88  C   UNL A   1      32.422  23.517  23.899  1.00  0.00     0.238 C 
ATOM     89  C   UNL A   1      32.025  23.950  26.164  1.00  0.00     0.238 C 
ATOM     90  O   UNL A   1      32.593  23.662  22.701  1.00  0.00    -0.274 OA
ATOM     91  C   UNL A   1      32.812  22.326  24.714  1.00  0.00     0.100 C 
ATOM     92  C   UNL A   1      33.188  23.041  26.015  1.00  0.00     0.100 C 
ATOM     93  O   UNL A   1      31.533  24.349  27.200  1.00  0.00    -0.274 OA
ATOM     94  C   UNL A   1      33.858  21.238  24.416  1.00  0.00     0.028 C 
ATOM     95  C   UNL A   1      33.994  22.100  26.896  1.00  0.00     0.028 C 
ATOM     96  C   UNL A   1      33.459  20.188  25.483  1.00  0.00    -0.026 C 
ATOM     97  C   UNL A   1      35.313  21.602  24.769  1.00  0.00     0.001 C 
ATOM     98  C   UNL A   1      33.475  20.659  26.753  1.00  0.00    -0.026 C 
ATOM     99  C   UNL A   1      35.416  22.096  26.221  1.00  0.00     0.001 C 
ATOM    100  C   UNL A   1      35.886  22.960  25.047  1.00  0.00     0.009 C 
ENDBRANCH  83  87
ENDBRANCH  77  80
ENDBRANCH  75  76
ENDBRANCH  74  75
ENDBRANCH   1  74
TORSDOF 14
ENDMDL
MODEL 3
REMARK VINA RESULT:     -13.6      6.239      8.207
REMARK SMILES O=C(NCCCNC(=O)c1cc(N2C(=O)[C@H]3[C@@H]4C=C[C@@H]([C@@H]5C[C@H]45)[C@@H]3C2=O)ccc1Cl)c1ccc(-c2c3nc(c(-c4c(F)cc(S(=O)(=O)[O-])cc4F)c4ccc([nH]4)c(-c4c(F)cc(S(=O)(=O)[O-])cc4F)c4nc(c(-c5c(F)cc(S(=O)(=O)[O-])cc5F)c5ccc2[nH]5)C=C4)C=C3)cc1
REMARK SMILES IDX 4 1 3 2 1 3 2 4 31 6 32 7 96 8 33 9 95 10 34 11 35 12 36 13
REMARK SMILES IDX 89 14 37 15 94 16 88 17 90 18 38 19 93 20 87 21 86 22 39 24
REMARK SMILES IDX 73 25 52 26 72 27 53 28 56 29 71 30 91 31 54 32 55 33 70 35
REMARK SMILES IDX 92 36 57 37 40 38 41 39 50 40 42 41 43 42 49 43 51 44 44 45
REMARK SMILES IDX 45 46 46 47 47 48 48 49 74 50 75 51 84 52 76 53 77 54 83 55
REMARK SMILES IDX 85 56 78 57 79 58 80 59 81 60 82 61 58 62 59 63 68 64 60 65
REMARK SMILES IDX 61 66 67 67 69 68 62 69 63 70 64 71 65 72 66 73 5 74 6 75
REMARK SMILES IDX 7 76 8 77 9 79 10 80 11 81 29 82 12 83 28 84 30 85 27 86
REMARK SMILES IDX 13 87 14 88 25 89 15 90 16 91 24 92 26 93 17 94 20 95 18 96
REMARK SMILES IDX 23 97 19 98 21 99 22 100
REMARK H PARENT 3 5 90 23 56 34 7 78
REMARK Flexibility Score: inf
ROOT
ATOM      1  C   UNL A   1      39.030  20.251  26.041  1.00  0.00     0.118 C 
ENDROOT
BRANCH   1   2
ATOM      2  N   UNL A   1      40.148  19.313  26.047  1.00  0.00    -0.352 N 
ATOM      3  O   UNL A   1      42.290  18.625  25.944  1.00  0.00    -0.269 OA
ATOM      4  C   UNL A   1      41.501  19.548  26.129  1.00  0.00     0.251 C 
ATOM      5  H   UNL A   1      39.894  18.365  25.981  1.00  0.00     0.163 HD
BRANCH   4   6
ATOM      6  C   UNL A   1      41.999  20.911  26.412  1.00  0.00     0.039 A 
ATOM      7  C   UNL A   1      42.182  21.825  25.375  1.00  0.00     0.014 A 
ATOM      8  C   UNL A   1      42.288  21.279  27.728  1.00  0.00     0.014 A 
ATOM      9  C   UNL A   1      42.833  23.024  25.622  1.00  0.00     0.010 A 
ATOM     10  C   UNL A   1      42.826  22.543  27.992  1.00  0.00     0.010 A 
ATOM     11  C   UNL A   1      43.137  23.413  26.936  1.00  0.00    -0.014 A 
BRANCH  11  12
ATOM     12  C   UNL A   1      43.694  24.770  27.171  1.00  0.00     0.031 A 
ATOM     13  C   UNL A   1      45.145  25.076  26.925  1.00  0.00     0.074 A 
ATOM     14  C   UNL A   1      42.855  25.740  27.587  1.00  0.00     0.049 A 
ATOM     15  N   UNL A   1      45.780  26.211  27.074  1.00  0.00    -0.248 NA
ATOM     16  C   UNL A   1      45.998  23.970  26.460  1.00  0.00     0.031 C 
ATOM     17  C   UNL A   1      41.428  25.551  27.870  1.00  0.00     0.029 A 
ATOM     18  N   UNL A   1      43.064  27.071  27.829  1.00  0.00    -0.354 N 
ATOM     19  C   UNL A   1      47.107  25.955  26.746  1.00  0.00     0.074 A 
ATOM     20  C   UNL A   1      47.191  24.550  26.411  1.00  0.00     0.031 C 
ATOM     21  C   UNL A   1      40.883  26.729  28.199  1.00  0.00     0.029 A 
ATOM     22  C   UNL A   1      41.932  27.740  28.231  1.00  0.00     0.049 A 
ATOM     23  H   UNL A   1      43.940  27.508  27.725  1.00  0.00     0.167 HD
ATOM     24  C   UNL A   1      48.152  26.818  26.723  1.00  0.00     0.037 A 
ATOM     25  C   UNL A   1      41.756  29.018  28.614  1.00  0.00     0.037 A 
ATOM     26  C   UNL A   1      48.046  28.220  27.050  1.00  0.00     0.049 A 
ATOM     27  C   UNL A   1      42.936  29.944  28.605  1.00  0.00     0.074 A 
ATOM     28  C   UNL A   1      49.037  29.186  27.016  1.00  0.00     0.029 A 
ATOM     29  N   UNL A   1      46.888  28.854  27.478  1.00  0.00    -0.354 N 
ATOM     30  N   UNL A   1      44.175  29.693  28.256  1.00  0.00    -0.248 NA
ATOM     31  C   UNL A   1      42.697  31.325  29.042  1.00  0.00     0.031 C 
ATOM     32  C   UNL A   1      48.494  30.388  27.484  1.00  0.00     0.029 A 
ATOM     33  C   UNL A   1      47.147  30.190  27.742  1.00  0.00     0.049 A 
ATOM     34  H   UNL A   1      46.010  28.419  27.579  1.00  0.00     0.167 HD
ATOM     35  C   UNL A   1      44.862  30.890  28.413  1.00  0.00     0.074 A 
ATOM     36  C   UNL A   1      43.894  31.868  28.869  1.00  0.00     0.031 C 
ATOM     37  C   UNL A   1      46.174  31.154  28.199  1.00  0.00     0.037 A 
BRANCH  24  38
ATOM     38  C   UNL A   1      49.509  26.277  26.359  1.00  0.00     0.058 A 
ATOM     39  C   UNL A   1      50.050  26.423  25.071  1.00  0.00     0.135 A 
ATOM     40  C   UNL A   1      50.310  25.656  27.334  1.00  0.00     0.135 A 
ATOM     41  F   UNL A   1      49.327  26.997  24.095  1.00  0.00    -0.206 F 
ATOM     42  C   UNL A   1      51.322  25.953  24.756  1.00  0.00     0.059 A 
ATOM     43  C   UNL A   1      51.596  25.204  27.049  1.00  0.00     0.059 A 
ATOM     44  F   UNL A   1      49.847  25.490  28.582  1.00  0.00    -0.206 F 
ATOM     45  C   UNL A   1      52.089  25.347  25.753  1.00  0.00     0.060 A 
BRANCH  45  46
ATOM     46  S   UNL A   1      53.740  24.753  25.329  1.00  0.00     0.124 S 
ATOM     47  O   UNL A   1      54.076  25.610  24.196  1.00  0.00    -0.237 OA
ATOM     48  O   UNL A   1      54.487  25.008  26.558  1.00  0.00    -0.237 OA
ATOM     49  O   UNL A   1      53.526  23.345  25.009  1.00  0.00    -0.744 OA
ENDBRANCH  45  46
ENDBRANCH  24  38
BRANCH  25  50
ATOM     50  C   UNL A   1      40.411  29.473  29.056  1.00  0.00     0.058 A 
ATOM     51  C   UNL A   1      40.138  29.730  30.407  1.00  0.00     0.135 A 
ATOM     52  C   UNL A   1      39.383  29.699  28.126  1.00  0.00     0.135 A 
ATOM     53  F   UNL A   1      41.086  29.527  31.334  1.00  0.00    -0.206 F 
ATOM     54  C   UNL A   1      38.890  30.181  30.822  1.00  0.00     0.059 A 
ATOM     55  C   UNL A   1      38.139  30.182  28.512  1.00  0.00     0.059 A 
ATOM     56  F   UNL A   1      39.601  29.488  26.818  1.00  0.00    -0.206 F 
ATOM     57  C   UNL A   1      37.898  30.409  29.866  1.00  0.00     0.060 A 
BRANCH  57  58
ATOM     58  S   UNL A   1      36.300  31.047  30.411  1.00  0.00     0.124 S 
ATOM     59  O   UNL A   1      35.906  30.045  31.395  1.00  0.00    -0.237 OA
ATOM     60  O   UNL A   1      36.659  32.358  30.942  1.00  0.00    -0.237 OA
ATOM     61  O   UNL A   1      35.510  31.070  29.184  1.00  0.00    -0.744 OA
ENDBRANCH  57  58
ENDBRANCH  25  50
BRANCH  37  62
ATOM     62  C   UNL A   1      46.636  32.567  28.422  1.00  0.00     0.058 A 
ATOM     63  C   UNL A   1      46.602  33.530  27.401  1.00  0.00     0.135 A 
ATOM     64  C   UNL A   1      47.084  32.975  29.690  1.00  0.00     0.135 A 
ATOM     65  F   UNL A   1      46.193  33.191  26.168  1.00  0.00    -0.206 F 
ATOM     66  C   UNL A   1      47.019  34.838  27.621  1.00  0.00     0.059 A 
ATOM     67  C   UNL A   1      47.474  34.286  29.941  1.00  0.00     0.059 A 
ATOM     68  F   UNL A   1      47.130  32.097  30.706  1.00  0.00    -0.206 F 
ATOM     69  C   UNL A   1      47.450  35.208  28.896  1.00  0.00     0.060 A 
BRANCH  69  70
ATOM     70  S   UNL A   1      47.958  36.917  29.175  1.00  0.00     0.124 S 
ATOM     71  O   UNL A   1      47.873  37.473  27.828  1.00  0.00    -0.237 OA
ATOM     72  O   UNL A   1      46.953  37.390  30.121  1.00  0.00    -0.237 OA
ATOM     73  O   UNL A   1      49.308  36.787  29.715  1.00  0.00    -0.744 OA
ENDBRANCH  69  70
ENDBRANCH  37  62
ENDBRANCH  11  12
ENDBRANCH   4   6
ENDBRANCH   1   2
BRANCH   1  74
ATOM     74  C   UNL A   1      38.011  19.955  24.953  1.00  0.00     0.042 C 
BRANCH  74  75
ATOM     75  C   UNL A   1      36.885  20.969  24.876  1.00  0.00     0.118 C 
BRANCH  75  76
ATOM     76  N   UNL A   1      36.148  21.078  26.126  1.00  0.00    -0.352 N 
ATOM     77  C   UNL A   1      34.836  21.404  26.337  1.00  0.00     0.252 C 
ATOM     78  H   UNL A   1      36.668  20.887  26.939  1.00  0.00     0.163 HD
ATOM     79  O   UNL A   1      34.402  21.533  27.479  1.00  0.00    -0.269 OA
BRANCH  77  80
ATOM     80  C   UNL A   1      33.939  21.658  25.202  1.00  0.00     0.060 A 
ATOM     81  C   UNL A   1      33.588  22.998  24.967  1.00  0.00     0.042 A 
ATOM     82  C   UNL A   1      33.381  20.631  24.430  1.00  0.00     0.053 A 
ATOM     83  C   UNL A   1      32.659  23.304  23.975  1.00  0.00     0.053 A 
ATOM     84  C   UNL A   1      32.529  20.952  23.375  1.00  0.00     0.023 A 
ATOM     85  Cl  UNL A   1      33.645  18.952  24.743  1.00  0.00    -0.083 Cl
ATOM     86  C   UNL A   1      32.151  22.277  23.165  1.00  0.00     0.028 A 
BRANCH  83  87
ATOM     87  N   UNL A   1      32.275  24.632  23.715  1.00  0.00    -0.250 N 
ATOM     88  C   UNL A   1      31.337  25.316  24.506  1.00  0.00     0.238 C 
ATOM     89  C   UNL A   1      33.034  25.504  22.907  1.00  0.00     0.238 C 
ATOM     90  O   UNL A   1      30.644  24.910  25.423  1.00  0.00    -0.274 OA
ATOM     91  C   UNL A   1      31.364  26.709  23.965  1.00  0.00     0.100 C 
ATOM     92  C   UNL A   1      32.851  26.797  23.611  1.00  0.00     0.100 C 
ATOM     93  O   UNL A   1      33.806  25.264  22.000  1.00  0.00    -0.274 OA
ATOM     94  C   UNL A   1      30.926  28.025  24.629  1.00  0.00     0.028 C 
ATOM     95  C   UNL A   1      33.237  28.252  23.398  1.00  0.00     0.028 C 
ATOM     96  C   UNL A   1      30.904  28.954  23.389  1.00  0.00    -0.026 C 
ATOM     97  C   UNL A   1      31.962  28.672  25.568  1.00  0.00     0.001 C 
ATOM     98  C   UNL A   1      32.083  29.018  22.727  1.00  0.00    -0.026 C 
ATOM     99  C   UNL A   1      33.319  28.827  24.861  1.00  0.00     0.001 C 
ATOM    100  C   UNL A   1      33.183  28.044  26.171  1.00  0.00     0.009 C 
ENDBRANCH  83  87
ENDBRANCH  77  80
ENDBRANCH  75  76
ENDBRANCH  74  75
ENDBRANCH   1  74
TORSDOF 14
ENDMDL
