MODEL 1
REMARK VINA RESULT:     -12.6      0.000      0.000
REMARK SMILES O=C(NCCCNC(=O)c1ccc(-c2cccc(O)c2)cc1Cl)c1ccc(-c2c3nc(c(-c4c(F)cc(S(=O)(=O)[O-])cc4F)c4ccc([nH]4)c(-c4c(F)cc(S(=O)(=O)[O-])cc4F)c4nc(c(-c5c(F)cc(S(=O)(=O)[O-])cc5F)c5ccc2[nH]5)C=C4)C=C3)cc1
REMARK SMILES IDX 4 1 3 2 1 3 2 4 24 6 25 7 89 8 26 9 88 10 27 11 28 12 29 13
REMARK SMILES IDX 82 14 30 15 87 16 81 17 83 18 31 19 86 20 80 21 79 22 32 24
REMARK SMILES IDX 66 25 45 26 65 27 46 28 49 29 64 30 84 31 47 32 48 33 63 35
REMARK SMILES IDX 85 36 50 37 33 38 34 39 43 40 35 41 36 42 42 43 44 44 37 45
REMARK SMILES IDX 38 46 39 47 40 48 41 49 67 50 68 51 77 52 69 53 70 54 76 55
REMARK SMILES IDX 78 56 71 57 72 58 73 59 74 60 75 61 51 62 52 63 61 64 53 65
REMARK SMILES IDX 54 66 60 67 62 68 55 69 56 70 57 71 58 72 59 73 5 74 6 75
REMARK SMILES IDX 7 76 8 77 9 79 10 80 11 81 22 82 12 83 21 84 23 85 13 86
REMARK SMILES IDX 14 87 15 88 20 89 16 90 18 91 17 92 19 93
REMARK H PARENT 3 5 83 23 49 34 7 78 19 94
REMARK Flexibility Score: inf
ROOT
ATOM      1  C   UNL A   1      40.876  23.002  27.240  1.00  0.00     0.118 C 
ENDROOT
BRANCH   1   2
ATOM      2  N   UNL A   1      41.119  23.931  26.144  1.00  0.00    -0.352 N 
ATOM      3  O   UNL A   1      41.224  25.884  25.034  1.00  0.00    -0.269 OA
ATOM      4  C   UNL A   1      41.146  25.306  26.116  1.00  0.00     0.251 C 
ATOM      5  H   UNL A   1      41.291  23.501  25.274  1.00  0.00     0.163 HD
BRANCH   4   6
ATOM      6  C   UNL A   1      41.051  26.092  27.367  1.00  0.00     0.039 A 
ATOM      7  C   UNL A   1      40.015  25.878  28.275  1.00  0.00     0.014 A 
ATOM      8  C   UNL A   1      42.025  27.057  27.646  1.00  0.00     0.014 A 
ATOM      9  C   UNL A   1      39.838  26.752  29.340  1.00  0.00     0.010 A 
ATOM     10  C   UNL A   1      41.909  27.862  28.784  1.00  0.00     0.010 A 
ATOM     11  C   UNL A   1      40.784  27.752  29.616  1.00  0.00    -0.014 A 
BRANCH  11  12
ATOM     12  C   UNL A   1      40.577  28.638  30.793  1.00  0.00     0.031 A 
ATOM     13  C   UNL A   1      41.483  28.569  31.995  1.00  0.00     0.074 A 
ATOM     14  C   UNL A   1      39.591  29.558  30.746  1.00  0.00     0.049 A 
ATOM     15  N   UNL A   1      41.481  29.315  33.070  1.00  0.00    -0.248 NA
ATOM     16  C   UNL A   1      42.516  27.522  31.999  1.00  0.00     0.031 C 
ATOM     17  C   UNL A   1      38.636  29.712  29.646  1.00  0.00     0.029 A 
ATOM     18  N   UNL A   1      39.250  30.558  31.620  1.00  0.00    -0.354 N 
ATOM     19  C   UNL A   1      42.486  28.813  33.890  1.00  0.00     0.074 A 
ATOM     20  C   UNL A   1      43.065  27.683  33.196  1.00  0.00     0.031 C 
ATOM     21  C   UNL A   1      37.869  30.787  29.874  1.00  0.00     0.029 A 
ATOM     22  C   UNL A   1      38.231  31.362  31.164  1.00  0.00     0.049 A 
ATOM     23  H   UNL A   1      39.692  30.689  32.490  1.00  0.00     0.167 HD
ATOM     24  C   UNL A   1      42.892  29.256  35.105  1.00  0.00     0.037 A 
ATOM     25  C   UNL A   1      37.650  32.441  31.719  1.00  0.00     0.037 A 
ATOM     26  C   UNL A   1      42.336  30.404  35.775  1.00  0.00     0.049 A 
ATOM     27  C   UNL A   1      38.131  32.922  33.057  1.00  0.00     0.074 A 
ATOM     28  C   UNL A   1      42.713  30.961  36.986  1.00  0.00     0.029 A 
ATOM     29  N   UNL A   1      41.287  31.173  35.294  1.00  0.00    -0.354 N 
ATOM     30  N   UNL A   1      39.101  32.449  33.801  1.00  0.00    -0.248 NA
ATOM     31  C   UNL A   1      37.433  34.078  33.634  1.00  0.00     0.031 C 
ATOM     32  C   UNL A   1      41.867  32.045  37.254  1.00  0.00     0.029 A 
ATOM     33  C   UNL A   1      40.990  32.188  36.191  1.00  0.00     0.049 A 
ATOM     34  H   UNL A   1      40.820  31.020  34.440  1.00  0.00     0.167 HD
ATOM     35  C   UNL A   1      39.142  33.258  34.928  1.00  0.00     0.074 A 
ATOM     36  C   UNL A   1      38.109  34.262  34.760  1.00  0.00     0.031 C 
ATOM     37  C   UNL A   1      39.958  33.177  36.008  1.00  0.00     0.037 A 
BRANCH  24  38
ATOM     38  C   UNL A   1      43.981  28.485  35.803  1.00  0.00     0.058 A 
ATOM     39  C   UNL A   1      43.697  27.421  36.672  1.00  0.00     0.135 A 
ATOM     40  C   UNL A   1      45.330  28.798  35.571  1.00  0.00     0.135 A 
ATOM     41  F   UNL A   1      42.425  27.088  36.941  1.00  0.00    -0.206 F 
ATOM     42  C   UNL A   1      44.712  26.712  37.309  1.00  0.00     0.059 A 
ATOM     43  C   UNL A   1      46.362  28.088  36.179  1.00  0.00     0.059 A 
ATOM     44  F   UNL A   1      45.658  29.805  34.746  1.00  0.00    -0.206 F 
ATOM     45  C   UNL A   1      46.042  27.055  37.059  1.00  0.00     0.060 A 
BRANCH  45  46
ATOM     46  S   UNL A   1      47.348  26.134  37.898  1.00  0.00     0.124 S 
ATOM     47  O   UNL A   1      48.334  25.992  36.831  1.00  0.00    -0.237 OA
ATOM     48  O   UNL A   1      47.719  27.034  38.986  1.00  0.00    -0.237 OA
ATOM     49  O   UNL A   1      46.685  24.901  38.309  1.00  0.00    -0.744 OA
ENDBRANCH  45  46
ENDBRANCH  24  38
BRANCH  25  50
ATOM     50  C   UNL A   1      36.558  33.143  30.996  1.00  0.00     0.058 A 
ATOM     51  C   UNL A   1      35.227  33.036  31.422  1.00  0.00     0.135 A 
ATOM     52  C   UNL A   1      36.829  33.962  29.889  1.00  0.00     0.135 A 
ATOM     53  F   UNL A   1      34.918  32.262  32.474  1.00  0.00    -0.206 F 
ATOM     54  C   UNL A   1      34.198  33.710  30.771  1.00  0.00     0.059 A 
ATOM     55  C   UNL A   1      35.822  34.666  29.238  1.00  0.00     0.059 A 
ATOM     56  F   UNL A   1      38.090  34.111  29.456  1.00  0.00    -0.206 F 
ATOM     57  C   UNL A   1      34.508  34.526  29.682  1.00  0.00     0.060 A 
BRANCH  57  58
ATOM     58  S   UNL A   1      33.178  35.448  28.880  1.00  0.00     0.124 S 
ATOM     59  O   UNL A   1      33.927  36.426  28.101  1.00  0.00    -0.237 OA
ATOM     60  O   UNL A   1      32.498  34.406  28.115  1.00  0.00    -0.237 OA
ATOM     61  O   UNL A   1      32.416  35.982  30.006  1.00  0.00    -0.744 OA
ENDBRANCH  57  58
ENDBRANCH  25  50
BRANCH  37  62
ATOM     62  C   UNL A   1      39.781  34.219  37.075  1.00  0.00     0.058 A 
ATOM     63  C   UNL A   1      38.999  33.978  38.215  1.00  0.00     0.135 A 
ATOM     64  C   UNL A   1      40.417  35.466  36.964  1.00  0.00     0.135 A 
ATOM     65  F   UNL A   1      38.365  32.805  38.363  1.00  0.00    -0.206 F 
ATOM     66  C   UNL A   1      38.828  34.950  39.196  1.00  0.00     0.059 A 
ATOM     67  C   UNL A   1      40.280  36.443  37.945  1.00  0.00     0.059 A 
ATOM     68  F   UNL A   1      41.183  35.742  35.897  1.00  0.00    -0.206 F 
ATOM     69  C   UNL A   1      39.470  36.181  39.049  1.00  0.00     0.060 A 
BRANCH  69  70
ATOM     70  S   UNL A   1      39.254  37.432  40.333  1.00  0.00     0.124 S 
ATOM     71  O   UNL A   1      38.245  38.297  39.731  1.00  0.00    -0.237 OA
ATOM     72  O   UNL A   1      38.810  36.640  41.475  1.00  0.00    -0.237 OA
ATOM     73  O   UNL A   1      40.586  38.015  40.463  1.00  0.00    -0.744 OA
ENDBRANCH  69  70
ENDBRANCH  37  62
ENDBRANCH  11  12
ENDBRANCH   4   6
ENDBRANCH   1   2
BRANCH   1  74
ATOM     74  C   UNL A   1      39.945  21.858  26.866  1.00  0.00     0.042 C 
BRANCH  74  75
ATOM     75  C   UNL A   1      38.768  22.269  25.994  1.00  0.00     0.118 C 
BRANCH  75  76
ATOM     76  N   UNL A   1      37.976  21.130  25.548  1.00  0.00    -0.352 N 
ATOM     77  C   UNL A   1      36.638  21.061  25.254  1.00  0.00     0.252 C 
ATOM     78  H   UNL A   1      38.474  20.288  25.441  1.00  0.00     0.163 HD
ATOM     79  O   UNL A   1      36.116  19.990  24.960  1.00  0.00    -0.269 OA
BRANCH  77  80
ATOM     80  C   UNL A   1      35.804  22.268  25.345  1.00  0.00     0.058 A 
ATOM     81  C   UNL A   1      34.995  22.405  26.478  1.00  0.00     0.016 A 
ATOM     82  C   UNL A   1      35.777  23.243  24.347  1.00  0.00     0.054 A 
ATOM     83  C   UNL A   1      34.206  23.548  26.638  1.00  0.00     0.009 A 
ATOM     84  C   UNL A   1      35.009  24.397  24.531  1.00  0.00     0.030 A 
ATOM     85  Cl  UNL A   1      36.641  23.087  22.858  1.00  0.00    -0.083 Cl
ATOM     86  C   UNL A   1      34.214  24.574  25.678  1.00  0.00    -0.017 A 
BRANCH  86  87
ATOM     87  C   UNL A   1      33.417  25.804  25.858  1.00  0.00    -0.015 A 
ATOM     88  C   UNL A   1      32.092  25.748  26.328  1.00  0.00     0.009 A 
ATOM     89  C   UNL A   1      33.945  27.067  25.546  1.00  0.00     0.054 A 
ATOM     90  C   UNL A   1      31.319  26.905  26.465  1.00  0.00     0.004 A 
ATOM     91  C   UNL A   1      33.172  28.217  25.688  1.00  0.00     0.116 A 
ATOM     92  C   UNL A   1      31.860  28.147  26.141  1.00  0.00     0.046 A 
BRANCH  91  93
ATOM     93  O   UNL A   1      33.747  29.409  25.361  1.00  0.00    -0.508 OA
ATOM     94  H   UNL A   1      34.287  29.855  25.984  1.00  0.00     0.293 HD
ENDBRANCH  91  93
ENDBRANCH  86  87
ENDBRANCH  77  80
ENDBRANCH  75  76
ENDBRANCH  74  75
ENDBRANCH   1  74
TORSDOF 15
ENDMDL
MODEL 2
REMARK VINA RESULT:     -12.4      2.634      8.941
REMARK SMILES O=C(NCCCNC(=O)c1ccc(-c2cccc(O)c2)cc1Cl)c1ccc(-c2c3nc(c(-c4c(F)cc(S(=O)(=O)[O-])cc4F)c4ccc([nH]4)c(-c4c(F)cc(S(=O)(=O)[O-])cc4F)c4nc(c(-c5c(F)cc(S(=O)(=O)[O-])cc5F)c5ccc2[nH]5)C=C4)C=C3)cc1
REMARK SMILES IDX 4 1 3 2 1 3 2 4 24 6 25 7 89 8 26 9 88 10 27 11 28 12 29 13
REMARK SMILES IDX 82 14 30 15 87 16 81 17 83 18 31 19 86 20 80 21 79 22 32 24
REMARK SMILES IDX 66 25 45 26 65 27 46 28 49 29 64 30 84 31 47 32 48 33 63 35
REMARK SMILES IDX 85 36 50 37 33 38 34 39 43 40 35 41 36 42 42 43 44 44 37 45
REMARK SMILES IDX 38 46 39 47 40 48 41 49 67 50 68 51 77 52 69 53 70 54 76 55
REMARK SMILES IDX 78 56 71 57 72 58 73 59 74 60 75 61 51 62 52 63 61 64 53 65
REMARK SMILES IDX 54 66 60 67 62 68 55 69 56 70 57 71 58 72 59 73 5 74 6 75
REMARK SMILES IDX 7 76 8 77 9 79 10 80 11 81 22 82 12 83 21 84 23 85 13 86
REMARK SMILES IDX 14 87 15 88 20 89 16 90 18 91 17 92 19 93
REMARK H PARENT 3 5 83 23 49 34 7 78 19 94
REMARK Flexibility Score: inf
ROOT
ATOM      1  C   UNL A   1      32.829  32.777  27.287  1.00  0.00     0.118 C 
ENDROOT
BRANCH   1   2
ATOM      2  N   UNL A   1      32.535  34.144  27.700  1.00  0.00    -0.352 N 
ATOM      3  O   UNL A   1      32.556  36.003  28.965  1.00  0.00    -0.269 OA
ATOM      4  C   UNL A   1      33.071  34.918  28.703  1.00  0.00     0.251 C 
ATOM      5  H   UNL A   1      31.832  34.588  27.172  1.00  0.00     0.163 HD
BRANCH   4   6
ATOM      6  C   UNL A   1      34.234  34.445  29.487  1.00  0.00     0.039 A 
ATOM      7  C   UNL A   1      35.532  34.561  28.993  1.00  0.00     0.014 A 
ATOM      8  C   UNL A   1      34.024  33.883  30.752  1.00  0.00     0.014 A 
ATOM      9  C   UNL A   1      36.583  33.941  29.657  1.00  0.00     0.010 A 
ATOM     10  C   UNL A   1      35.103  33.361  31.474  1.00  0.00     0.010 A 
ATOM     11  C   UNL A   1      36.387  33.338  30.910  1.00  0.00    -0.014 A 
BRANCH  11  12
ATOM     12  C   UNL A   1      37.550  32.724  31.605  1.00  0.00     0.031 A 
ATOM     13  C   UNL A   1      37.999  33.209  32.960  1.00  0.00     0.074 A 
ATOM     14  C   UNL A   1      38.170  31.674  31.028  1.00  0.00     0.049 A 
ATOM     15  N   UNL A   1      38.946  32.737  33.730  1.00  0.00    -0.248 NA
ATOM     16  C   UNL A   1      37.304  34.378  33.520  1.00  0.00     0.031 C 
ATOM     17  C   UNL A   1      37.841  31.123  29.711  1.00  0.00     0.029 A 
ATOM     18  N   UNL A   1      39.174  30.859  31.484  1.00  0.00    -0.354 N 
ATOM     19  C   UNL A   1      38.985  33.566  34.846  1.00  0.00     0.074 A 
ATOM     20  C   UNL A   1      37.976  34.584  34.645  1.00  0.00     0.031 C 
ATOM     21  C   UNL A   1      38.574  30.022  29.497  1.00  0.00     0.029 A 
ATOM     22  C   UNL A   1      39.470  29.822  30.630  1.00  0.00     0.049 A 
ATOM     23  H   UNL A   1      39.640  31.003  32.339  1.00  0.00     0.167 HD
ATOM     24  C   UNL A   1      39.781  33.483  35.940  1.00  0.00     0.037 A 
ATOM     25  C   UNL A   1      40.362  28.821  30.741  1.00  0.00     0.037 A 
ATOM     26  C   UNL A   1      40.759  32.445  36.151  1.00  0.00     0.049 A 
ATOM     27  C   UNL A   1      41.219  28.741  31.971  1.00  0.00     0.074 A 
ATOM     28  C   UNL A   1      41.580  32.247  37.249  1.00  0.00     0.029 A 
ATOM     29  N   UNL A   1      41.047  31.431  35.250  1.00  0.00    -0.354 N 
ATOM     30  N   UNL A   1      41.218  29.519  33.026  1.00  0.00    -0.248 NA
ATOM     31  C   UNL A   1      42.203  27.652  32.020  1.00  0.00     0.031 C 
ATOM     32  C   UNL A   1      42.392  31.134  36.995  1.00  0.00     0.029 A 
ATOM     33  C   UNL A   1      42.047  30.615  35.757  1.00  0.00     0.049 A 
ATOM     34  H   UNL A   1      40.608  31.309  34.378  1.00  0.00     0.167 HD
ATOM     35  C   UNL A   1      42.191  29.006  33.874  1.00  0.00     0.074 A 
ATOM     36  C   UNL A   1      42.747  27.840  33.215  1.00  0.00     0.031 C 
ATOM     37  C   UNL A   1      42.590  29.459  35.088  1.00  0.00     0.037 A 
BRANCH  24  38
ATOM     38  C   UNL A   1      39.646  34.555  36.988  1.00  0.00     0.058 A 
ATOM     39  C   UNL A   1      38.870  34.370  38.143  1.00  0.00     0.135 A 
ATOM     40  C   UNL A   1      40.330  35.773  36.847  1.00  0.00     0.135 A 
ATOM     41  F   UNL A   1      38.184  33.231  38.322  1.00  0.00    -0.206 F 
ATOM     42  C   UNL A   1      38.755  35.367  39.108  1.00  0.00     0.059 A 
ATOM     43  C   UNL A   1      40.248  36.775  37.811  1.00  0.00     0.059 A 
ATOM     44  F   UNL A   1      41.088  36.001  35.763  1.00  0.00    -0.206 F 
ATOM     45  C   UNL A   1      39.444  36.568  38.931  1.00  0.00     0.060 A 
BRANCH  45  46
ATOM     46  S   UNL A   1      39.279  37.856  40.185  1.00  0.00     0.124 S 
ATOM     47  O   UNL A   1      38.199  38.665  39.630  1.00  0.00    -0.237 OA
ATOM     48  O   UNL A   1      38.944  37.089  41.381  1.00  0.00    -0.237 OA
ATOM     49  O   UNL A   1      40.595  38.488  40.199  1.00  0.00    -0.744 OA
ENDBRANCH  45  46
ENDBRANCH  24  38
BRANCH  25  50
ATOM     50  C   UNL A   1      40.472  27.809  29.660  1.00  0.00     0.058 A 
ATOM     51  C   UNL A   1      39.540  26.768  29.549  1.00  0.00     0.135 A 
ATOM     52  C   UNL A   1      41.489  27.883  28.695  1.00  0.00     0.135 A 
ATOM     53  F   UNL A   1      38.551  26.653  30.450  1.00  0.00    -0.206 F 
ATOM     54  C   UNL A   1      39.615  25.829  28.526  1.00  0.00     0.059 A 
ATOM     55  C   UNL A   1      41.570  26.973  27.648  1.00  0.00     0.059 A 
ATOM     56  F   UNL A   1      42.394  28.873  28.748  1.00  0.00    -0.206 F 
ATOM     57  C   UNL A   1      40.632  25.943  27.577  1.00  0.00     0.060 A 
BRANCH  57  58
ATOM     58  S   UNL A   1      40.689  24.759  26.214  1.00  0.00     0.124 S 
ATOM     59  O   UNL A   1      41.143  25.599  25.114  1.00  0.00    -0.237 OA
ATOM     60  O   UNL A   1      41.646  23.772  26.703  1.00  0.00    -0.237 OA
ATOM     61  O   UNL A   1      39.309  24.288  26.125  1.00  0.00    -0.744 OA
ENDBRANCH  57  58
ENDBRANCH  25  50
BRANCH  37  62
ATOM     62  C   UNL A   1      43.661  28.675  35.790  1.00  0.00     0.058 A 
ATOM     63  C   UNL A   1      43.351  27.597  36.633  1.00  0.00     0.135 A 
ATOM     64  C   UNL A   1      45.015  28.995  35.601  1.00  0.00     0.135 A 
ATOM     65  F   UNL A   1      42.071  27.257  36.851  1.00  0.00    -0.206 F 
ATOM     66  C   UNL A   1      44.345  26.880  37.290  1.00  0.00     0.059 A 
ATOM     67  C   UNL A   1      46.027  28.277  36.230  1.00  0.00     0.059 A 
ATOM     68  F   UNL A   1      45.365  30.012  34.798  1.00  0.00    -0.206 F 
ATOM     69  C   UNL A   1      45.681  27.231  37.085  1.00  0.00     0.060 A 
BRANCH  69  70
ATOM     70  S   UNL A   1      46.967  26.288  37.931  1.00  0.00     0.124 S 
ATOM     71  O   UNL A   1      48.174  26.793  37.286  1.00  0.00    -0.237 OA
ATOM     72  O   UNL A   1      46.782  26.680  39.325  1.00  0.00    -0.237 OA
ATOM     73  O   UNL A   1      46.624  24.901  37.627  1.00  0.00    -0.744 OA
ENDBRANCH  69  70
ENDBRANCH  37  62
ENDBRANCH  11  12
ENDBRANCH   4   6
ENDBRANCH   1   2
BRANCH   1  74
ATOM     74  C   UNL A   1      31.615  32.036  26.745  1.00  0.00     0.042 C 
BRANCH  74  75
ATOM     75  C   UNL A   1      31.927  30.663  26.169  1.00  0.00     0.118 C 
BRANCH  75  76
ATOM     76  N   UNL A   1      31.163  30.374  24.962  1.00  0.00    -0.352 N 
ATOM     77  C   UNL A   1      31.032  29.195  24.275  1.00  0.00     0.252 C 
ATOM     78  H   UNL A   1      30.668  31.137  24.586  1.00  0.00     0.163 HD
ATOM     79  O   UNL A   1      30.400  29.149  23.224  1.00  0.00    -0.269 OA
BRANCH  77  80
ATOM     80  C   UNL A   1      31.701  27.981  24.767  1.00  0.00     0.058 A 
ATOM     81  C   UNL A   1      30.971  27.147  25.619  1.00  0.00     0.016 A 
ATOM     82  C   UNL A   1      33.019  27.662  24.437  1.00  0.00     0.054 A 
ATOM     83  C   UNL A   1      31.542  25.962  26.091  1.00  0.00     0.009 A 
ATOM     84  C   UNL A   1      33.569  26.458  24.889  1.00  0.00     0.030 A 
ATOM     85  Cl  UNL A   1      34.033  28.703  23.502  1.00  0.00    -0.083 Cl
ATOM     86  C   UNL A   1      32.843  25.584  25.719  1.00  0.00    -0.017 A 
BRANCH  86  87
ATOM     87  C   UNL A   1      33.439  24.314  26.177  1.00  0.00    -0.015 A 
ATOM     88  C   UNL A   1      32.681  23.378  26.906  1.00  0.00     0.009 A 
ATOM     89  C   UNL A   1      34.785  24.006  25.924  1.00  0.00     0.054 A 
ATOM     90  C   UNL A   1      33.249  22.190  27.375  1.00  0.00     0.004 A 
ATOM     91  C   UNL A   1      35.344  22.820  26.391  1.00  0.00     0.116 A 
ATOM     92  C   UNL A   1      34.588  21.909  27.119  1.00  0.00     0.046 A 
BRANCH  91  93
ATOM     93  O   UNL A   1      36.659  22.588  26.113  1.00  0.00    -0.508 OA
ATOM     94  H   UNL A   1      37.226  22.248  26.778  1.00  0.00     0.293 HD
ENDBRANCH  91  93
ENDBRANCH  86  87
ENDBRANCH  77  80
ENDBRANCH  75  76
ENDBRANCH  74  75
ENDBRANCH   1  74
TORSDOF 15
ENDMDL
MODEL 3
REMARK VINA RESULT:     -12.3      5.256     10.146
REMARK SMILES O=C(NCCCNC(=O)c1ccc(-c2cccc(O)c2)cc1Cl)c1ccc(-c2c3nc(c(-c4c(F)cc(S(=O)(=O)[O-])cc4F)c4ccc([nH]4)c(-c4c(F)cc(S(=O)(=O)[O-])cc4F)c4nc(c(-c5c(F)cc(S(=O)(=O)[O-])cc5F)c5ccc2[nH]5)C=C4)C=C3)cc1
REMARK SMILES IDX 4 1 3 2 1 3 2 4 24 6 25 7 89 8 26 9 88 10 27 11 28 12 29 13
REMARK SMILES IDX 82 14 30 15 87 16 81 17 83 18 31 19 86 20 80 21 79 22 32 24
REMARK SMILES IDX 66 25 45 26 65 27 46 28 49 29 64 30 84 31 47 32 48 33 63 35
REMARK SMILES IDX 85 36 50 37 33 38 34 39 43 40 35 41 36 42 42 43 44 44 37 45
REMARK SMILES IDX 38 46 39 47 40 48 41 49 67 50 68 51 77 52 69 53 70 54 76 55
REMARK SMILES IDX 78 56 71 57 72 58 73 59 74 60 75 61 51 62 52 63 61 64 53 65
REMARK SMILES IDX 54 66 60 67 62 68 55 69 56 70 57 71 58 72 59 73 5 74 6 75
REMARK SMILES IDX 7 76 8 77 9 79 10 80 11 81 22 82 12 83 21 84 23 85 13 86
REMARK SMILES IDX 14 87 15 88 20 89 16 90 18 91 17 92 19 93
REMARK H PARENT 3 5 83 23 49 34 7 78 19 94
REMARK Flexibility Score: inf
ROOT
ATOM      1  C   UNL A   1      33.559  28.175  27.192  1.00  0.00     0.118 C 
ENDROOT
BRANCH   1   2
ATOM      2  N   UNL A   1      33.495  29.604  27.474  1.00  0.00    -0.352 N 
ATOM      3  O   UNL A   1      34.104  31.611  28.287  1.00  0.00    -0.269 OA
ATOM      4  C   UNL A   1      34.434  30.464  27.993  1.00  0.00     0.251 C 
ATOM      5  H   UNL A   1      32.631  30.025  27.258  1.00  0.00     0.163 HD
BRANCH   4   6
ATOM      6  C   UNL A   1      35.824  30.014  28.233  1.00  0.00     0.039 A 
ATOM      7  C   UNL A   1      36.223  29.535  29.479  1.00  0.00     0.014 A 
ATOM      8  C   UNL A   1      36.749  30.058  27.183  1.00  0.00     0.014 A 
ATOM      9  C   UNL A   1      37.569  29.301  29.733  1.00  0.00     0.010 A 
ATOM     10  C   UNL A   1      38.085  29.710  27.410  1.00  0.00     0.010 A 
ATOM     11  C   UNL A   1      38.519  29.377  28.702  1.00  0.00    -0.014 A 
BRANCH  11  12
ATOM     12  C   UNL A   1      39.943  29.076  29.009  1.00  0.00     0.031 A 
ATOM     13  C   UNL A   1      40.569  27.763  28.614  1.00  0.00     0.074 A 
ATOM     14  C   UNL A   1      40.694  30.028  29.600  1.00  0.00     0.049 A 
ATOM     15  N   UNL A   1      41.811  27.372  28.745  1.00  0.00    -0.248 NA
ATOM     16  C   UNL A   1      39.689  26.755  28.004  1.00  0.00     0.031 C 
ATOM     17  C   UNL A   1      40.200  31.332  30.048  1.00  0.00     0.029 A 
ATOM     18  N   UNL A   1      42.034  30.066  29.893  1.00  0.00    -0.354 N 
ATOM     19  C   UNL A   1      41.857  26.067  28.265  1.00  0.00     0.074 A 
ATOM     20  C   UNL A   1      40.511  25.725  27.858  1.00  0.00     0.031 C 
ATOM     21  C   UNL A   1      41.230  32.068  30.487  1.00  0.00     0.029 A 
ATOM     22  C   UNL A   1      42.447  31.269  30.414  1.00  0.00     0.049 A 
ATOM     23  H   UNL A   1      42.641  29.305  29.744  1.00  0.00     0.167 HD
ATOM     24  C   UNL A   1      42.922  25.234  28.168  1.00  0.00     0.037 A 
ATOM     25  C   UNL A   1      43.669  31.687  30.794  1.00  0.00     0.037 A 
ATOM     26  C   UNL A   1      44.266  25.594  28.542  1.00  0.00     0.049 A 
ATOM     27  C   UNL A   1      44.835  30.752  30.658  1.00  0.00     0.074 A 
ATOM     28  C   UNL A   1      45.422  24.837  28.435  1.00  0.00     0.029 A 
ATOM     29  N   UNL A   1      44.639  26.811  29.092  1.00  0.00    -0.354 N 
ATOM     30  N   UNL A   1      44.860  29.533  30.176  1.00  0.00    -0.248 NA
ATOM     31  C   UNL A   1      46.136  31.246  31.126  1.00  0.00     0.031 C 
ATOM     32  C   UNL A   1      46.486  25.583  28.956  1.00  0.00     0.029 A 
ATOM     33  C   UNL A   1      46.002  26.820  29.349  1.00  0.00     0.049 A 
ATOM     34  H   UNL A   1      44.026  27.559  29.276  1.00  0.00     0.167 HD
ATOM     35  C   UNL A   1      46.182  29.118  30.268  1.00  0.00     0.074 A 
ATOM     36  C   UNL A   1      46.929  30.223  30.836  1.00  0.00     0.031 C 
ATOM     37  C   UNL A   1      46.729  27.928  29.915  1.00  0.00     0.037 A 
BRANCH  24  38
ATOM     38  C   UNL A   1      42.677  23.841  27.654  1.00  0.00     0.058 A 
ATOM     39  C   UNL A   1      42.613  23.556  26.281  1.00  0.00     0.135 A 
ATOM     40  C   UNL A   1      42.536  22.770  28.551  1.00  0.00     0.135 A 
ATOM     41  F   UNL A   1      42.728  24.543  25.380  1.00  0.00    -0.206 F 
ATOM     42  C   UNL A   1      42.389  22.263  25.816  1.00  0.00     0.059 A 
ATOM     43  C   UNL A   1      42.334  21.465  28.108  1.00  0.00     0.059 A 
ATOM     44  F   UNL A   1      42.590  22.985  29.875  1.00  0.00    -0.206 F 
ATOM     45  C   UNL A   1      42.247  21.224  26.738  1.00  0.00     0.060 A 
BRANCH  45  46
ATOM     46  S   UNL A   1      41.948  19.553  26.123  1.00  0.00     0.124 S 
ATOM     47  O   UNL A   1      42.797  19.526  24.936  1.00  0.00    -0.237 OA
ATOM     48  O   UNL A   1      42.394  18.723  27.238  1.00  0.00    -0.237 OA
ATOM     49  O   UNL A   1      40.511  19.536  25.869  1.00  0.00    -0.744 OA
ENDBRANCH  45  46
ENDBRANCH  24  38
BRANCH  25  50
ATOM     50  C   UNL A   1      43.845  33.064  31.323  1.00  0.00     0.058 A 
ATOM     51  C   UNL A   1      44.058  34.147  30.458  1.00  0.00     0.135 A 
ATOM     52  C   UNL A   1      43.768  33.329  32.699  1.00  0.00     0.135 A 
ATOM     53  F   UNL A   1      44.143  33.942  29.134  1.00  0.00    -0.206 F 
ATOM     54  C   UNL A   1      44.197  35.445  30.937  1.00  0.00     0.059 A 
ATOM     55  C   UNL A   1      43.877  34.621  33.201  1.00  0.00     0.059 A 
ATOM     56  F   UNL A   1      43.546  32.328  33.565  1.00  0.00    -0.206 F 
ATOM     57  C   UNL A   1      44.101  35.672  32.311  1.00  0.00     0.060 A 
BRANCH  57  58
ATOM     58  S   UNL A   1      44.220  37.367  32.924  1.00  0.00     0.124 S 
ATOM     59  O   UNL A   1      45.489  37.332  33.639  1.00  0.00    -0.237 OA
ATOM     60  O   UNL A   1      44.203  38.144  31.688  1.00  0.00    -0.237 OA
ATOM     61  O   UNL A   1      43.026  37.505  33.755  1.00  0.00    -0.744 OA
ENDBRANCH  57  58
ENDBRANCH  25  50
BRANCH  37  62
ATOM     62  C   UNL A   1      48.210  27.774  30.112  1.00  0.00     0.058 A 
ATOM     63  C   UNL A   1      48.747  27.321  31.327  1.00  0.00     0.135 A 
ATOM     64  C   UNL A   1      49.100  28.067  29.067  1.00  0.00     0.135 A 
ATOM     65  F   UNL A   1      47.937  27.035  32.359  1.00  0.00    -0.206 F 
ATOM     66  C   UNL A   1      50.120  27.190  31.510  1.00  0.00     0.059 A 
ATOM     67  C   UNL A   1      50.475  27.921  29.220  1.00  0.00     0.059 A 
ATOM     68  F   UNL A   1      48.635  28.496  27.883  1.00  0.00    -0.206 F 
ATOM     69  C   UNL A   1      50.976  27.497  30.450  1.00  0.00     0.060 A 
BRANCH  69  70
ATOM     70  S   UNL A   1      52.756  27.313  30.690  1.00  0.00     0.124 S 
ATOM     71  O   UNL A   1      52.950  27.987  31.970  1.00  0.00    -0.237 OA
ATOM     72  O   UNL A   1      52.925  25.864  30.705  1.00  0.00    -0.237 OA
ATOM     73  O   UNL A   1      53.325  27.993  29.530  1.00  0.00    -0.744 OA
ENDBRANCH  69  70
ENDBRANCH  37  62
ENDBRANCH  11  12
ENDBRANCH   4   6
ENDBRANCH   1   2
BRANCH   1  74
ATOM     74  C   UNL A   1      33.641  27.857  25.706  1.00  0.00     0.042 C 
BRANCH  74  75
ATOM     75  C   UNL A   1      32.954  26.559  25.306  1.00  0.00     0.118 C 
BRANCH  75  76
ATOM     76  N   UNL A   1      31.664  26.382  25.960  1.00  0.00    -0.352 N 
ATOM     77  C   UNL A   1      30.911  25.246  26.108  1.00  0.00     0.252 C 
ATOM     78  H   UNL A   1      31.278  27.197  26.354  1.00  0.00     0.163 HD
ATOM     79  O   UNL A   1      29.800  25.294  26.628  1.00  0.00    -0.269 OA
BRANCH  77  80
ATOM     80  C   UNL A   1      31.408  23.964  25.588  1.00  0.00     0.058 A 
ATOM     81  C   UNL A   1      32.067  23.119  26.487  1.00  0.00     0.016 A 
ATOM     82  C   UNL A   1      31.269  23.588  24.251  1.00  0.00     0.054 A 
ATOM     83  C   UNL A   1      32.531  21.872  26.059  1.00  0.00     0.009 A 
ATOM     84  C   UNL A   1      31.708  22.325  23.841  1.00  0.00     0.030 A 
ATOM     85  Cl  UNL A   1      30.590  24.627  23.048  1.00  0.00    -0.083 Cl
ATOM     86  C   UNL A   1      32.343  21.442  24.735  1.00  0.00    -0.017 A 
BRANCH  86  87
ATOM     87  C   UNL A   1      32.791  20.111  24.285  1.00  0.00    -0.015 A 
ATOM     88  C   UNL A   1      33.939  19.507  24.832  1.00  0.00     0.009 A 
ATOM     89  C   UNL A   1      32.104  19.410  23.281  1.00  0.00     0.054 A 
ATOM     90  C   UNL A   1      34.390  18.262  24.384  1.00  0.00     0.004 A 
ATOM     91  C   UNL A   1      32.556  18.169  22.841  1.00  0.00     0.116 A 
ATOM     92  C   UNL A   1      33.697  17.589  23.381  1.00  0.00     0.046 A 
BRANCH  91  93
ATOM     93  O   UNL A   1      31.842  17.548  21.859  1.00  0.00    -0.508 OA
ATOM     94  H   UNL A   1      31.140  16.969  22.085  1.00  0.00     0.293 HD
ENDBRANCH  91  93
ENDBRANCH  86  87
ENDBRANCH  77  80
ENDBRANCH  75  76
ENDBRANCH  74  75
ENDBRANCH   1  74
TORSDOF 15
ENDMDL
