MODEL 1
REMARK VINA RESULT:     -10.4      0.000      0.000
REMARK SMILES O=C(CCCC[C@@H]1CCSS1)NCCCNC(=O)c1ccc(-c2c3nc(c(-c4c(F)cc(S(=O)(=O)[O-])cc4F)c4ccc([nH]4)c(-c4c(F)cc(S(=O)(=O)[O-])cc4F)c4nc(c(-c5c(F)cc(S(=O)(=O)[O-])cc5F)c5ccc2[nH]5)C=C4)C=C3)cc1
REMARK SMILES IDX 13 1 12 2 1 3 2 4 3 6 4 7 5 8 6 9 7 10 8 11 11 12 9 13 10 14
REMARK SMILES IDX 14 15 15 16 16 17 17 18 18 20 19 21 20 22 84 23 21 24 83 25
REMARK SMILES IDX 22 26 23 27 24 28 77 29 25 30 82 31 76 32 78 33 26 34 81 35
REMARK SMILES IDX 75 36 74 37 27 39 61 40 40 41 60 42 41 43 44 44 59 45 79 46
REMARK SMILES IDX 42 47 43 48 58 50 80 51 45 52 28 53 29 54 38 55 30 56 31 57
REMARK SMILES IDX 37 58 39 59 32 60 33 61 34 62 35 63 36 64 62 65 63 66 72 67
REMARK SMILES IDX 64 68 65 69 71 70 73 71 66 72 67 73 68 74 69 75 70 76 46 77
REMARK SMILES IDX 47 78 56 79 48 80 49 81 55 82 57 83 50 84 51 85 52 86 53 87
REMARK SMILES IDX 54 88
REMARK H PARENT 12 5 16 19 78 38 44 49
REMARK Flexibility Score: inf
ROOT
ATOM      1  C   UNL A   1      39.854  21.703  26.202  1.00  0.00     0.117 C 
ENDROOT
BRANCH   1   2
ATOM      2  N   UNL A   1      38.599  22.344  25.866  1.00  0.00    -0.356 N 
ATOM      3  O   UNL A   1      37.655  20.559  24.769  1.00  0.00    -0.275 OA
ATOM      4  C   UNL A   1      37.583  21.706  25.197  1.00  0.00     0.219 C 
ATOM      5  H   UNL A   1      38.470  23.285  26.128  1.00  0.00     0.163 HD
BRANCH   4   6
ATOM      6  C   UNL A   1      36.333  22.549  25.037  1.00  0.00     0.100 C 
BRANCH   6   7
ATOM      7  C   UNL A   1      35.218  21.828  24.278  1.00  0.00     0.010 C 
BRANCH   7   8
ATOM      8  C   UNL A   1      33.787  22.068  24.775  1.00  0.00     0.002 C 
BRANCH   8   9
ATOM      9  C   UNL A   1      32.733  21.035  24.352  1.00  0.00     0.015 C 
BRANCH   9  10
ATOM     10  C   UNL A   1      33.283  19.603  24.233  1.00  0.00     0.059 C 
ATOM     11  C   UNL A   1      32.635  18.810  23.090  1.00  0.00     0.027 C 
ATOM     12  S   UNL A   1      32.931  18.664  25.760  1.00  0.00    -0.091 SA
ATOM     13  C   UNL A   1      32.989  17.331  23.205  1.00  0.00     0.083 C 
ATOM     14  S   UNL A   1      32.600  16.838  24.898  1.00  0.00    -0.094 SA
ENDBRANCH   9  10
ENDBRANCH   8   9
ENDBRANCH   7   8
ENDBRANCH   6   7
ENDBRANCH   4   6
ENDBRANCH   1   2
BRANCH   1  15
ATOM     15  C   UNL A   1      40.442  22.232  27.505  1.00  0.00     0.042 C 
BRANCH  15  16
ATOM     16  C   UNL A   1      41.741  23.020  27.357  1.00  0.00     0.118 C 
BRANCH  16  17
ATOM     17  N   UNL A   1      41.760  23.896  26.197  1.00  0.00    -0.352 N 
ATOM     18  C   UNL A   1      41.541  25.250  26.114  1.00  0.00     0.251 C 
ATOM     19  H   UNL A   1      41.961  23.452  25.341  1.00  0.00     0.163 HD
ATOM     20  O   UNL A   1      41.472  25.777  25.003  1.00  0.00    -0.269 OA
BRANCH  18  21
ATOM     21  C   UNL A   1      41.355  26.072  27.333  1.00  0.00     0.039 A 
ATOM     22  C   UNL A   1      42.389  26.924  27.729  1.00  0.00     0.014 A 
ATOM     23  C   UNL A   1      40.188  25.998  28.099  1.00  0.00     0.014 A 
ATOM     24  C   UNL A   1      42.229  27.744  28.850  1.00  0.00     0.010 A 
ATOM     25  C   UNL A   1      39.999  26.874  29.171  1.00  0.00     0.010 A 
ATOM     26  C   UNL A   1      41.018  27.756  29.561  1.00  0.00    -0.014 A 
BRANCH  26  27
ATOM     27  C   UNL A   1      40.810  28.689  30.703  1.00  0.00     0.031 A 
ATOM     28  C   UNL A   1      41.635  28.567  31.957  1.00  0.00     0.074 A 
ATOM     29  C   UNL A   1      39.847  29.631  30.624  1.00  0.00     0.049 A 
ATOM     30  N   UNL A   1      41.583  29.283  33.052  1.00  0.00    -0.248 NA
ATOM     31  C   UNL A   1      42.631  27.486  31.998  1.00  0.00     0.031 C 
ATOM     32  C   UNL A   1      38.942  29.821  29.488  1.00  0.00     0.029 A 
ATOM     33  N   UNL A   1      39.464  30.603  31.515  1.00  0.00    -0.354 N 
ATOM     34  C   UNL A   1      42.531  28.738  33.911  1.00  0.00     0.074 A 
ATOM     35  C   UNL A   1      43.102  27.594  33.233  1.00  0.00     0.031 C 
ATOM     36  C   UNL A   1      38.133  30.862  29.737  1.00  0.00     0.029 A 
ATOM     37  C   UNL A   1      38.432  31.393  31.064  1.00  0.00     0.049 A 
ATOM     38  H   UNL A   1      39.888  30.723  32.395  1.00  0.00     0.167 HD
ATOM     39  C   UNL A   1      42.909  29.164  35.141  1.00  0.00     0.037 A 
ATOM     40  C   UNL A   1      37.796  32.427  31.649  1.00  0.00     0.037 A 
ATOM     41  C   UNL A   1      42.352  30.314  35.807  1.00  0.00     0.049 A 
ATOM     42  C   UNL A   1      38.234  32.881  33.015  1.00  0.00     0.074 A 
ATOM     43  C   UNL A   1      42.708  30.858  37.029  1.00  0.00     0.029 A 
ATOM     44  N   UNL A   1      41.317  31.094  35.311  1.00  0.00    -0.354 N 
ATOM     45  N   UNL A   1      39.182  32.395  33.782  1.00  0.00    -0.248 NA
ATOM     46  C   UNL A   1      37.524  34.031  33.593  1.00  0.00     0.031 C 
ATOM     47  C   UNL A   1      41.857  31.935  37.295  1.00  0.00     0.029 A 
ATOM     48  C   UNL A   1      41.008  32.100  36.213  1.00  0.00     0.049 A 
ATOM     49  H   UNL A   1      40.869  30.955  34.445  1.00  0.00     0.167 HD
ATOM     50  C   UNL A   1      39.200  33.198  34.919  1.00  0.00     0.074 A 
ATOM     51  C   UNL A   1      38.180  34.209  34.731  1.00  0.00     0.031 C 
ATOM     52  C   UNL A   1      39.992  33.105  36.016  1.00  0.00     0.037 A 
BRANCH  39  53
ATOM     53  C   UNL A   1      43.986  28.385  35.851  1.00  0.00     0.058 A 
ATOM     54  C   UNL A   1      45.348  28.680  35.676  1.00  0.00     0.135 A 
ATOM     55  C   UNL A   1      43.652  27.359  36.751  1.00  0.00     0.135 A 
ATOM     56  F   UNL A   1      45.728  29.641  34.819  1.00  0.00    -0.206 F 
ATOM     57  C   UNL A   1      46.339  27.968  36.343  1.00  0.00     0.059 A 
ATOM     58  C   UNL A   1      44.626  26.654  37.453  1.00  0.00     0.059 A 
ATOM     59  F   UNL A   1      42.366  27.035  36.960  1.00  0.00    -0.206 F 
ATOM     60  C   UNL A   1      45.969  26.957  37.232  1.00  0.00     0.060 A 
BRANCH  60  61
ATOM     61  S   UNL A   1      47.268  26.049  38.095  1.00  0.00     0.124 S 
ATOM     62  O   UNL A   1      46.494  25.033  38.801  1.00  0.00    -0.237 OA
ATOM     63  O   UNL A   1      48.093  25.563  36.993  1.00  0.00    -0.237 OA
ATOM     64  O   UNL A   1      47.889  27.063  38.940  1.00  0.00    -0.744 OA
ENDBRANCH  60  61
ENDBRANCH  39  53
BRANCH  40  65
ATOM     65  C   UNL A   1      36.691  33.122  30.933  1.00  0.00     0.058 A 
ATOM     66  C   UNL A   1      35.357  32.977  31.348  1.00  0.00     0.135 A 
ATOM     67  C   UNL A   1      36.944  33.947  29.826  1.00  0.00     0.135 A 
ATOM     68  F   UNL A   1      35.062  32.194  32.396  1.00  0.00    -0.206 F 
ATOM     69  C   UNL A   1      34.314  33.610  30.680  1.00  0.00     0.059 A 
ATOM     70  C   UNL A   1      35.920  34.613  29.160  1.00  0.00     0.059 A 
ATOM     71  F   UNL A   1      38.203  34.132  29.400  1.00  0.00    -0.206 F 
ATOM     72  C   UNL A   1      34.606  34.429  29.588  1.00  0.00     0.060 A 
BRANCH  72  73
ATOM     73  S   UNL A   1      33.248  35.282  28.758  1.00  0.00     0.124 S 
ATOM     74  O   UNL A   1      33.962  36.298  27.994  1.00  0.00    -0.237 OA
ATOM     75  O   UNL A   1      32.640  34.207  27.982  1.00  0.00    -0.237 OA
ATOM     76  O   UNL A   1      32.438  35.780  29.867  1.00  0.00    -0.744 OA
ENDBRANCH  72  73
ENDBRANCH  40  65
BRANCH  52  77
ATOM     77  C   UNL A   1      39.813  34.148  37.087  1.00  0.00     0.058 A 
ATOM     78  C   UNL A   1      39.045  33.907  38.237  1.00  0.00     0.135 A 
ATOM     79  C   UNL A   1      40.450  35.394  36.977  1.00  0.00     0.135 A 
ATOM     80  F   UNL A   1      38.409  32.734  38.391  1.00  0.00    -0.206 F 
ATOM     81  C   UNL A   1      38.885  34.876  39.222  1.00  0.00     0.059 A 
ATOM     82  C   UNL A   1      40.332  36.368  37.964  1.00  0.00     0.059 A 
ATOM     83  F   UNL A   1      41.209  35.675  35.905  1.00  0.00    -0.206 F 
ATOM     84  C   UNL A   1      39.532  36.105  39.077  1.00  0.00     0.060 A 
BRANCH  84  85
ATOM     85  S   UNL A   1      39.331  37.348  40.369  1.00  0.00     0.124 S 
ATOM     86  O   UNL A   1      38.524  38.355  39.686  1.00  0.00    -0.237 OA
ATOM     87  O   UNL A   1      38.650  36.598  41.421  1.00  0.00    -0.237 OA
ATOM     88  O   UNL A   1      40.701  37.746  40.677  1.00  0.00    -0.744 OA
ENDBRANCH  84  85
ENDBRANCH  52  77
ENDBRANCH  26  27
ENDBRANCH  18  21
ENDBRANCH  16  17
ENDBRANCH  15  16
ENDBRANCH   1  15
TORSDOF 17
ENDMDL
MODEL 2
REMARK VINA RESULT:     -10.4      6.743     13.941
REMARK SMILES O=C(CCCC[C@@H]1CCSS1)NCCCNC(=O)c1ccc(-c2c3nc(c(-c4c(F)cc(S(=O)(=O)[O-])cc4F)c4ccc([nH]4)c(-c4c(F)cc(S(=O)(=O)[O-])cc4F)c4nc(c(-c5c(F)cc(S(=O)(=O)[O-])cc5F)c5ccc2[nH]5)C=C4)C=C3)cc1
REMARK SMILES IDX 13 1 12 2 1 3 2 4 3 6 4 7 5 8 6 9 7 10 8 11 11 12 9 13 10 14
REMARK SMILES IDX 14 15 15 16 16 17 17 18 18 20 19 21 20 22 84 23 21 24 83 25
REMARK SMILES IDX 22 26 23 27 24 28 77 29 25 30 82 31 76 32 78 33 26 34 81 35
REMARK SMILES IDX 75 36 74 37 27 39 61 40 40 41 60 42 41 43 44 44 59 45 79 46
REMARK SMILES IDX 42 47 43 48 58 50 80 51 45 52 28 53 29 54 38 55 30 56 31 57
REMARK SMILES IDX 37 58 39 59 32 60 33 61 34 62 35 63 36 64 62 65 63 66 72 67
REMARK SMILES IDX 64 68 65 69 71 70 73 71 66 72 67 73 68 74 69 75 70 76 46 77
REMARK SMILES IDX 47 78 56 79 48 80 49 81 55 82 57 83 50 84 51 85 52 86 53 87
REMARK SMILES IDX 54 88
REMARK H PARENT 12 5 16 19 78 38 44 49
REMARK Flexibility Score: inf
ROOT
ATOM      1  C   UNL A   1      34.583  34.153  29.159  1.00  0.00     0.117 C 
ENDROOT
BRANCH   1   2
ATOM      2  N   UNL A   1      34.678  34.717  30.490  1.00  0.00    -0.356 N 
ATOM      3  O   UNL A   1      34.043  32.830  31.640  1.00  0.00    -0.275 OA
ATOM      4  C   UNL A   1      34.427  33.995  31.632  1.00  0.00     0.219 C 
ATOM      5  H   UNL A   1      34.934  35.663  30.580  1.00  0.00     0.163 HD
BRANCH   4   6
ATOM      6  C   UNL A   1      34.678  34.770  32.911  1.00  0.00     0.100 C 
BRANCH   6   7
ATOM      7  C   UNL A   1      36.165  34.977  33.205  1.00  0.00     0.010 C 
BRANCH   7   8
ATOM      8  C   UNL A   1      37.024  33.711  33.304  1.00  0.00     0.002 C 
BRANCH   8   9
ATOM      9  C   UNL A   1      37.691  33.233  32.006  1.00  0.00     0.015 C 
BRANCH   9  10
ATOM     10  C   UNL A   1      38.794  34.176  31.494  1.00  0.00     0.059 C 
ATOM     11  C   UNL A   1      39.406  33.710  30.166  1.00  0.00     0.027 C 
ATOM     12  S   UNL A   1      40.175  34.239  32.690  1.00  0.00    -0.091 SA
ATOM     13  C   UNL A   1      40.676  34.498  29.863  1.00  0.00     0.083 C 
ATOM     14  S   UNL A   1      41.706  34.405  31.342  1.00  0.00    -0.094 SA
ENDBRANCH   9  10
ENDBRANCH   8   9
ENDBRANCH   7   8
ENDBRANCH   6   7
ENDBRANCH   4   6
ENDBRANCH   1   2
BRANCH   1  15
ATOM     15  C   UNL A   1      35.904  33.552  28.691  1.00  0.00     0.042 C 
BRANCH  15  16
ATOM     16  C   UNL A   1      35.875  32.047  28.430  1.00  0.00     0.118 C 
BRANCH  16  17
ATOM     17  N   UNL A   1      35.610  31.256  29.621  1.00  0.00    -0.352 N 
ATOM     18  C   UNL A   1      36.388  30.304  30.233  1.00  0.00     0.251 C 
ATOM     19  H   UNL A   1      34.744  31.430  30.054  1.00  0.00     0.163 HD
ATOM     20  O   UNL A   1      35.913  29.652  31.164  1.00  0.00    -0.269 OA
BRANCH  18  21
ATOM     21  C   UNL A   1      37.769  30.028  29.771  1.00  0.00     0.039 A 
ATOM     22  C   UNL A   1      38.798  30.008  30.716  1.00  0.00     0.014 A 
ATOM     23  C   UNL A   1      38.065  29.813  28.422  1.00  0.00     0.014 A 
ATOM     24  C   UNL A   1      40.106  29.710  30.319  1.00  0.00     0.010 A 
ATOM     25  C   UNL A   1      39.354  29.439  28.040  1.00  0.00     0.010 A 
ATOM     26  C   UNL A   1      40.392  29.385  28.983  1.00  0.00    -0.014 A 
BRANCH  26  27
ATOM     27  C   UNL A   1      41.765  28.982  28.571  1.00  0.00     0.031 A 
ATOM     28  C   UNL A   1      42.878  29.995  28.506  1.00  0.00     0.074 A 
ATOM     29  C   UNL A   1      42.004  27.703  28.216  1.00  0.00     0.049 A 
ATOM     30  N   UNL A   1      44.129  29.827  28.158  1.00  0.00    -0.248 NA
ATOM     31  C   UNL A   1      42.537  31.384  28.854  1.00  0.00     0.031 C 
ATOM     32  C   UNL A   1      41.002  26.635  28.182  1.00  0.00     0.029 A 
ATOM     33  N   UNL A   1      43.160  27.081  27.814  1.00  0.00    -0.354 N 
ATOM     34  C   UNL A   1      44.721  31.082  28.239  1.00  0.00     0.074 A 
ATOM     35  C   UNL A   1      43.679  32.014  28.612  1.00  0.00     0.031 C 
ATOM     36  C   UNL A   1      41.592  25.487  27.813  1.00  0.00     0.029 A 
ATOM     37  C   UNL A   1      43.005  25.740  27.546  1.00  0.00     0.049 A 
ATOM     38  H   UNL A   1      44.020  27.551  27.726  1.00  0.00     0.167 HD
ATOM     39  C   UNL A   1      46.018  31.425  28.046  1.00  0.00     0.037 A 
ATOM     40  C   UNL A   1      43.896  24.818  27.132  1.00  0.00     0.037 A 
ATOM     41  C   UNL A   1      47.058  30.492  27.692  1.00  0.00     0.049 A 
ATOM     42  C   UNL A   1      45.330  25.223  26.923  1.00  0.00     0.074 A 
ATOM     43  C   UNL A   1      48.411  30.733  27.529  1.00  0.00     0.029 A 
ATOM     44  N   UNL A   1      46.862  29.142  27.441  1.00  0.00    -0.354 N 
ATOM     45  N   UNL A   1      45.885  26.403  27.073  1.00  0.00    -0.248 NA
ATOM     46  C   UNL A   1      46.262  24.171  26.498  1.00  0.00     0.031 C 
ATOM     47  C   UNL A   1      49.024  29.541  27.131  1.00  0.00     0.029 A 
ATOM     48  C   UNL A   1      48.065  28.543  27.103  1.00  0.00     0.049 A 
ATOM     49  H   UNL A   1      45.995  28.676  27.496  1.00  0.00     0.167 HD
ATOM     50  C   UNL A   1      47.235  26.227  26.790  1.00  0.00     0.074 A 
ATOM     51  C   UNL A   1      47.415  24.825  26.474  1.00  0.00     0.031 C 
ATOM     52  C   UNL A   1      48.235  27.144  26.792  1.00  0.00     0.037 A 
BRANCH  39  53
ATOM     53  C   UNL A   1      46.392  32.874  28.217  1.00  0.00     0.058 A 
ATOM     54  C   UNL A   1      46.290  33.794  27.160  1.00  0.00     0.135 A 
ATOM     55  C   UNL A   1      46.817  33.361  29.465  1.00  0.00     0.135 A 
ATOM     56  F   UNL A   1      45.902  33.383  25.942  1.00  0.00    -0.206 F 
ATOM     57  C   UNL A   1      46.623  35.134  27.324  1.00  0.00     0.059 A 
ATOM     58  C   UNL A   1      47.126  34.704  29.660  1.00  0.00     0.059 A 
ATOM     59  F   UNL A   1      46.932  32.529  30.512  1.00  0.00    -0.206 F 
ATOM     60  C   UNL A   1      47.040  35.581  28.580  1.00  0.00     0.060 A 
BRANCH  60  61
ATOM     61  S   UNL A   1      47.460  37.325  28.777  1.00  0.00     0.124 S 
ATOM     62  O   UNL A   1      47.745  37.714  27.399  1.00  0.00    -0.237 OA
ATOM     63  O   UNL A   1      46.237  37.878  29.350  1.00  0.00    -0.237 OA
ATOM     64  O   UNL A   1      48.613  37.299  29.671  1.00  0.00    -0.744 OA
ENDBRANCH  60  61
ENDBRANCH  39  53
BRANCH  40  65
ATOM     65  C   UNL A   1      43.461  23.412  26.909  1.00  0.00     0.058 A 
ATOM     66  C   UNL A   1      43.354  22.884  25.613  1.00  0.00     0.135 A 
ATOM     67  C   UNL A   1      43.150  22.566  27.986  1.00  0.00     0.135 A 
ATOM     68  F   UNL A   1      43.634  23.653  24.550  1.00  0.00    -0.206 F 
ATOM     69  C   UNL A   1      42.937  21.575  25.391  1.00  0.00     0.059 A 
ATOM     70  C   UNL A   1      42.758  21.246  27.789  1.00  0.00     0.059 A 
ATOM     71  F   UNL A   1      43.251  23.017  29.246  1.00  0.00    -0.206 F 
ATOM     72  C   UNL A   1      42.643  20.763  26.487  1.00  0.00     0.060 A 
BRANCH  72  73
ATOM     73  S   UNL A   1      42.147  19.052  26.188  1.00  0.00     0.124 S 
ATOM     74  O   UNL A   1      40.739  19.210  25.846  1.00  0.00    -0.237 OA
ATOM     75  O   UNL A   1      43.032  18.663  25.095  1.00  0.00    -0.237 OA
ATOM     76  O   UNL A   1      42.417  18.398  27.466  1.00  0.00    -0.744 OA
ENDBRANCH  72  73
ENDBRANCH  40  65
BRANCH  52  77
ATOM     77  C   UNL A   1      49.623  26.654  26.480  1.00  0.00     0.058 A 
ATOM     78  C   UNL A   1      50.448  26.084  27.461  1.00  0.00     0.135 A 
ATOM     79  C   UNL A   1      50.122  26.724  25.168  1.00  0.00     0.135 A 
ATOM     80  F   UNL A   1      50.024  25.996  28.733  1.00  0.00    -0.206 F 
ATOM     81  C   UNL A   1      51.730  25.633  27.164  1.00  0.00     0.059 A 
ATOM     82  C   UNL A   1      51.388  26.250  24.840  1.00  0.00     0.059 A 
ATOM     83  F   UNL A   1      49.371  27.247  24.186  1.00  0.00    -0.206 F 
ATOM     84  C   UNL A   1      52.192  25.721  25.849  1.00  0.00     0.060 A 
BRANCH  84  85
ATOM     85  S   UNL A   1      53.851  25.118  25.472  1.00  0.00     0.124 S 
ATOM     86  O   UNL A   1      54.137  25.809  24.219  1.00  0.00    -0.237 OA
ATOM     87  O   UNL A   1      54.617  25.565  26.631  1.00  0.00    -0.237 OA
ATOM     88  O   UNL A   1      53.673  23.673  25.365  1.00  0.00    -0.744 OA
ENDBRANCH  84  85
ENDBRANCH  52  77
ENDBRANCH  26  27
ENDBRANCH  18  21
ENDBRANCH  16  17
ENDBRANCH  15  16
ENDBRANCH   1  15
TORSDOF 17
ENDMDL
MODEL 3
REMARK VINA RESULT:     -10.2      5.586     12.105
REMARK SMILES O=C(CCCC[C@@H]1CCSS1)NCCCNC(=O)c1ccc(-c2c3nc(c(-c4c(F)cc(S(=O)(=O)[O-])cc4F)c4ccc([nH]4)c(-c4c(F)cc(S(=O)(=O)[O-])cc4F)c4nc(c(-c5c(F)cc(S(=O)(=O)[O-])cc5F)c5ccc2[nH]5)C=C4)C=C3)cc1
REMARK SMILES IDX 13 1 12 2 1 3 2 4 3 6 4 7 5 8 6 9 7 10 8 11 11 12 9 13 10 14
REMARK SMILES IDX 14 15 15 16 16 17 17 18 18 20 19 21 20 22 84 23 21 24 83 25
REMARK SMILES IDX 22 26 23 27 24 28 77 29 25 30 82 31 76 32 78 33 26 34 81 35
REMARK SMILES IDX 75 36 74 37 27 39 61 40 40 41 60 42 41 43 44 44 59 45 79 46
REMARK SMILES IDX 42 47 43 48 58 50 80 51 45 52 28 53 29 54 38 55 30 56 31 57
REMARK SMILES IDX 37 58 39 59 32 60 33 61 34 62 35 63 36 64 62 65 63 66 72 67
REMARK SMILES IDX 64 68 65 69 71 70 73 71 66 72 67 73 68 74 69 75 70 76 46 77
REMARK SMILES IDX 47 78 56 79 48 80 49 81 55 82 57 83 50 84 51 85 52 86 53 87
REMARK SMILES IDX 54 88
REMARK H PARENT 12 5 16 19 78 38 44 49
REMARK Flexibility Score: inf
ROOT
ATOM      1  C   UNL A   1      33.155  34.486  28.731  1.00  0.00     0.117 C 
ENDROOT
BRANCH   1   2
ATOM      2  N   UNL A   1      33.527  34.733  30.109  1.00  0.00    -0.356 N 
ATOM      3  O   UNL A   1      32.511  36.784  30.311  1.00  0.00    -0.275 OA
ATOM      4  C   UNL A   1      33.147  35.857  30.801  1.00  0.00     0.219 C 
ATOM      5  H   UNL A   1      34.081  34.062  30.571  1.00  0.00     0.163 HD
BRANCH   4   6
ATOM      6  C   UNL A   1      33.578  35.854  32.254  1.00  0.00     0.100 C 
BRANCH   6   7
ATOM      7  C   UNL A   1      34.769  34.933  32.524  1.00  0.00     0.010 C 
BRANCH   7   8
ATOM      8  C   UNL A   1      34.578  33.868  33.610  1.00  0.00     0.002 C 
BRANCH   8   9
ATOM      9  C   UNL A   1      35.623  33.840  34.734  1.00  0.00     0.015 C 
BRANCH   9  10
ATOM     10  C   UNL A   1      36.945  33.164  34.331  1.00  0.00     0.059 C 
ATOM     11  C   UNL A   1      36.736  31.930  33.442  1.00  0.00     0.027 C 
ATOM     12  S   UNL A   1      37.829  32.570  35.816  1.00  0.00    -0.091 SA
ATOM     13  C   UNL A   1      38.033  31.137  33.324  1.00  0.00     0.083 C 
ATOM     14  S   UNL A   1      38.631  30.870  35.007  1.00  0.00    -0.094 SA
ENDBRANCH   9  10
ENDBRANCH   8   9
ENDBRANCH   7   8
ENDBRANCH   6   7
ENDBRANCH   4   6
ENDBRANCH   1   2
BRANCH   1  15
ATOM     15  C   UNL A   1      34.120  33.533  28.034  1.00  0.00     0.042 C 
BRANCH  15  16
ATOM     16  C   UNL A   1      34.560  32.332  28.868  1.00  0.00     0.118 C 
BRANCH  16  17
ATOM     17  N   UNL A   1      34.019  31.068  28.397  1.00  0.00    -0.352 N 
ATOM     18  C   UNL A   1      34.668  29.900  28.077  1.00  0.00     0.251 C 
ATOM     19  H   UNL A   1      33.041  31.045  28.292  1.00  0.00     0.163 HD
ATOM     20  O   UNL A   1      34.026  28.981  27.565  1.00  0.00    -0.269 OA
BRANCH  18  21
ATOM     21  C   UNL A   1      36.123  29.742  28.308  1.00  0.00     0.039 A 
ATOM     22  C   UNL A   1      36.559  29.317  29.565  1.00  0.00     0.014 A 
ATOM     23  C   UNL A   1      37.061  30.030  27.312  1.00  0.00     0.014 A 
ATOM     24  C   UNL A   1      37.922  29.118  29.802  1.00  0.00     0.010 A 
ATOM     25  C   UNL A   1      38.413  29.756  27.525  1.00  0.00     0.010 A 
ATOM     26  C   UNL A   1      38.861  29.299  28.774  1.00  0.00    -0.014 A 
BRANCH  26  27
ATOM     27  C   UNL A   1      40.305  29.006  28.995  1.00  0.00     0.031 A 
ATOM     28  C   UNL A   1      40.880  27.660  28.640  1.00  0.00     0.074 A 
ATOM     29  C   UNL A   1      41.095  29.945  29.555  1.00  0.00     0.049 A 
ATOM     30  N   UNL A   1      42.108  27.226  28.775  1.00  0.00    -0.248 NA
ATOM     31  C   UNL A   1      39.953  26.663  28.083  1.00  0.00     0.031 C 
ATOM     32  C   UNL A   1      40.651  31.270  29.996  1.00  0.00     0.029 A 
ATOM     33  N   UNL A   1      42.435  29.932  29.853  1.00  0.00    -0.354 N 
ATOM     34  C   UNL A   1      42.100  25.909  28.327  1.00  0.00     0.074 A 
ATOM     35  C   UNL A   1      40.732  25.596  27.972  1.00  0.00     0.031 C 
ATOM     36  C   UNL A   1      41.703  31.951  30.477  1.00  0.00     0.029 A 
ATOM     37  C   UNL A   1      42.890  31.103  30.416  1.00  0.00     0.049 A 
ATOM     38  H   UNL A   1      43.017  29.158  29.679  1.00  0.00     0.167 HD
ATOM     39  C   UNL A   1      43.138  25.047  28.199  1.00  0.00     0.037 A 
ATOM     40  C   UNL A   1      44.120  31.455  30.837  1.00  0.00     0.037 A 
ATOM     41  C   UNL A   1      44.502  25.368  28.536  1.00  0.00     0.049 A 
ATOM     42  C   UNL A   1      45.257  30.481  30.685  1.00  0.00     0.074 A 
ATOM     43  C   UNL A   1      45.632  24.581  28.389  1.00  0.00     0.029 A 
ATOM     44  N   UNL A   1      44.922  26.567  29.092  1.00  0.00    -0.354 N 
ATOM     45  N   UNL A   1      45.241  29.265  30.193  1.00  0.00    -0.248 NA
ATOM     46  C   UNL A   1      46.581  30.930  31.136  1.00  0.00     0.031 C 
ATOM     47  C   UNL A   1      46.726  25.285  28.902  1.00  0.00     0.029 A 
ATOM     48  C   UNL A   1      46.290  26.533  29.315  1.00  0.00     0.049 A 
ATOM     49  H   UNL A   1      44.335  27.331  29.297  1.00  0.00     0.167 HD
ATOM     50  C   UNL A   1      46.556  28.815  30.249  1.00  0.00     0.074 A 
ATOM     51  C   UNL A   1      47.343  29.895  30.807  1.00  0.00     0.031 C 
ATOM     52  C   UNL A   1      47.065  27.616  29.870  1.00  0.00     0.037 A 
BRANCH  39  53
ATOM     53  C   UNL A   1      42.843  23.670  27.665  1.00  0.00     0.058 A 
ATOM     54  C   UNL A   1      42.805  23.405  26.286  1.00  0.00     0.135 A 
ATOM     55  C   UNL A   1      42.639  22.591  28.541  1.00  0.00     0.135 A 
ATOM     56  F   UNL A   1      42.979  24.399  25.401  1.00  0.00    -0.206 F 
ATOM     57  C   UNL A   1      42.545  22.130  25.795  1.00  0.00     0.059 A 
ATOM     58  C   UNL A   1      42.408  21.300  28.073  1.00  0.00     0.059 A 
ATOM     59  F   UNL A   1      42.666  22.784  29.869  1.00  0.00    -0.206 F 
ATOM     60  C   UNL A   1      42.349  21.082  26.697  1.00  0.00     0.060 A 
BRANCH  60  61
ATOM     61  S   UNL A   1      42.022  19.432  26.043  1.00  0.00     0.124 S 
ATOM     62  O   UNL A   1      42.328  18.595  27.198  1.00  0.00    -0.237 OA
ATOM     63  O   UNL A   1      40.611  19.515  25.678  1.00  0.00    -0.237 OA
ATOM     64  O   UNL A   1      42.950  19.319  24.923  1.00  0.00    -0.744 OA
ENDBRANCH  60  61
ENDBRANCH  39  53
BRANCH  40  65
ATOM     65  C   UNL A   1      44.347  32.806  31.422  1.00  0.00     0.058 A 
ATOM     66  C   UNL A   1      44.714  33.893  30.612  1.00  0.00     0.135 A 
ATOM     67  C   UNL A   1      44.196  33.039  32.798  1.00  0.00     0.135 A 
ATOM     68  F   UNL A   1      44.878  33.721  29.292  1.00  0.00    -0.206 F 
ATOM     69  C   UNL A   1      44.941  35.156  31.148  1.00  0.00     0.059 A 
ATOM     70  C   UNL A   1      44.390  34.301  33.352  1.00  0.00     0.059 A 
ATOM     71  F   UNL A   1      43.830  32.038  33.613  1.00  0.00    -0.206 F 
ATOM     72  C   UNL A   1      44.773  35.351  32.520  1.00  0.00     0.060 A 
BRANCH  72  73
ATOM     73  S   UNL A   1      45.026  37.006  33.197  1.00  0.00     0.124 S 
ATOM     74  O   UNL A   1      45.923  37.594  32.209  1.00  0.00    -0.237 OA
ATOM     75  O   UNL A   1      43.667  37.536  33.223  1.00  0.00    -0.237 OA
ATOM     76  O   UNL A   1      45.615  36.745  34.508  1.00  0.00    -0.744 OA
ENDBRANCH  72  73
ENDBRANCH  40  65
BRANCH  52  77
ATOM     77  C   UNL A   1      48.551  27.420  30.011  1.00  0.00     0.058 A 
ATOM     78  C   UNL A   1      49.457  27.885  29.045  1.00  0.00     0.135 A 
ATOM     79  C   UNL A   1      49.079  26.788  31.149  1.00  0.00     0.135 A 
ATOM     80  F   UNL A   1      49.007  28.492  27.934  1.00  0.00    -0.206 F 
ATOM     81  C   UNL A   1      50.829  27.700  29.183  1.00  0.00     0.059 A 
ATOM     82  C   UNL A   1      50.448  26.621  31.325  1.00  0.00     0.059 A 
ATOM     83  F   UNL A   1      48.260  26.335  32.112  1.00  0.00    -0.206 F 
ATOM     84  C   UNL A   1      51.316  27.066  30.328  1.00  0.00     0.060 A 
BRANCH  84  85
ATOM     85  S   UNL A   1      53.098  26.846  30.504  1.00  0.00     0.124 S 
ATOM     86  O   UNL A   1      53.169  25.879  31.595  1.00  0.00    -0.237 OA
ATOM     87  O   UNL A   1      53.483  26.345  29.188  1.00  0.00    -0.237 OA
ATOM     88  O   UNL A   1      53.578  28.187  30.822  1.00  0.00    -0.744 OA
ENDBRANCH  84  85
ENDBRANCH  52  77
ENDBRANCH  26  27
ENDBRANCH  18  21
ENDBRANCH  16  17
ENDBRANCH  15  16
ENDBRANCH   1  15
TORSDOF 17
ENDMDL
