MODEL 1
REMARK VINA RESULT:     -10.7      0.000      0.000
REMARK SMILES Cc1noc(C)c1CNC(=O)N(CC(=O)NCCCNC(=O)c1ccc(-c2c3nc(c(-c4c(F)cc(S(=O)(=O)[O-])cc4F)c4ccc([nH]4)c(-c4c(F)cc(S(=O)(=O)[O-])cc4F)c4nc(c(-c5c(F)cc(S(=O)(=O)[O-])cc5F)c5ccc2[nH]5)C=C4)C=C3)cc1)CC(C)C
REMARK SMILES IDX 17 1 16 2 14 3 15 4 13 6 12 7 10 8 9 9 11 11 8 12 7 13 1 14
REMARK SMILES IDX 2 15 3 16 4 17 5 18 6 19 89 20 90 21 91 22 92 23 18 24 19 25
REMARK SMILES IDX 20 26 21 27 22 29 23 30 24 31 88 32 25 33 87 34 26 35 27 36
REMARK SMILES IDX 28 37 81 38 29 39 86 40 80 41 82 42 30 43 85 44 79 45 78 46
REMARK SMILES IDX 31 48 65 49 44 50 64 51 45 52 48 53 63 54 83 55 46 56 47 57
REMARK SMILES IDX 62 59 84 60 49 61 32 62 33 63 42 64 34 65 35 66 41 67 43 68
REMARK SMILES IDX 36 69 37 70 38 71 39 72 40 73 66 74 67 75 76 76 68 77 69 78
REMARK SMILES IDX 75 79 77 80 70 81 71 82 72 83 73 84 74 85 50 86 51 87 60 88
REMARK SMILES IDX 52 89 53 90 59 91 61 92 54 93 55 94 56 95 57 96 58 97
REMARK H PARENT 16 5 9 10 20 28 82 47 48 58
REMARK Flexibility Score: inf
ROOT
ATOM      1  C   UNL A   1      41.469  22.292  27.246  1.00  0.00     0.117 C 
ENDROOT
BRANCH   1   2
ATOM      2  N   UNL A   1      42.376  22.211  28.371  1.00  0.00    -0.354 N 
ATOM      3  C   UNL A   1      43.322  23.074  28.832  1.00  0.00     0.239 C 
ATOM      4  O   UNL A   1      43.816  22.808  29.934  1.00  0.00    -0.273 OA
ATOM      5  H   UNL A   1      42.295  21.383  28.898  1.00  0.00     0.163 HD
BRANCH   3   6
ATOM      6  C   UNL A   1      43.651  24.409  28.151  1.00  0.00     0.221 C 
BRANCH   6   7
ATOM      7  N   UNL A   1      44.691  24.439  27.121  1.00  0.00    -0.315 N 
BRANCH   7   8
ATOM      8  C   UNL A   1      45.609  23.474  26.830  1.00  0.00     0.318 C 
ATOM      9  N   UNL A   1      45.387  22.407  26.052  1.00  0.00    -0.334 N 
ATOM     10  H   UNL A   1      46.204  21.862  25.982  1.00  0.00     0.165 HD
ATOM     11  O   UNL A   1      46.762  23.523  27.271  1.00  0.00    -0.249 OA
BRANCH   9  12
ATOM     12  C   UNL A   1      44.323  21.806  25.281  1.00  0.00     0.159 C 
BRANCH  12  13
ATOM     13  C   UNL A   1      44.536  20.343  25.158  1.00  0.00     0.037 A 
ATOM     14  C   UNL A   1      42.291  19.267  26.011  1.00  0.00     0.071 C 
ATOM     15  C   UNL A   1      43.674  19.250  25.472  1.00  0.00     0.086 A 
ATOM     16  N   UNL A   1      44.264  18.075  25.219  1.00  0.00    -0.085 NA
ATOM     17  O   UNL A   1      45.519  18.376  24.737  1.00  0.00    -0.361 OA
ATOM     18  C   UNL A   1      45.683  19.721  24.705  1.00  0.00     0.138 A 
ATOM     19  C   UNL A   1      46.990  20.209  24.226  1.00  0.00     0.091 C 
ENDBRANCH  12  13
ENDBRANCH   9  12
ENDBRANCH   7   8
BRANCH   7  20
ATOM     20  C   UNL A   1      44.536  25.525  26.124  1.00  0.00     0.125 C 
BRANCH  20  21
ATOM     21  C   UNL A   1      45.644  26.596  26.133  1.00  0.00     0.002 C 
ATOM     22  C   UNL A   1      45.567  27.546  24.934  1.00  0.00     0.009 C 
ATOM     23  C   UNL A   1      45.561  27.425  27.418  1.00  0.00     0.009 C 
ENDBRANCH  20  21
ENDBRANCH   7  20
ENDBRANCH   6   7
ENDBRANCH   3   6
ENDBRANCH   1   2
BRANCH   1  24
ATOM     24  C   UNL A   1      40.021  22.530  27.637  1.00  0.00     0.042 C 
BRANCH  24  25
ATOM     25  C   UNL A   1      39.379  23.747  26.993  1.00  0.00     0.118 C 
BRANCH  25  26
ATOM     26  N   UNL A   1      40.235  24.351  25.986  1.00  0.00    -0.352 N 
ATOM     27  C   UNL A   1      40.854  25.580  25.987  1.00  0.00     0.251 C 
ATOM     28  H   UNL A   1      40.396  23.800  25.185  1.00  0.00     0.163 HD
ATOM     29  O   UNL A   1      41.348  26.006  24.949  1.00  0.00    -0.269 OA
BRANCH  27  30
ATOM     30  C   UNL A   1      40.897  26.396  27.224  1.00  0.00     0.039 A 
ATOM     31  C   UNL A   1      41.785  27.472  27.291  1.00  0.00     0.014 A 
ATOM     32  C   UNL A   1      40.069  26.107  28.313  1.00  0.00     0.014 A 
ATOM     33  C   UNL A   1      41.782  28.306  28.413  1.00  0.00     0.010 A 
ATOM     34  C   UNL A   1      40.009  26.985  29.393  1.00  0.00     0.010 A 
ATOM     35  C   UNL A   1      40.858  28.099  29.451  1.00  0.00    -0.014 A 
BRANCH  35  36
ATOM     36  C   UNL A   1      40.730  29.065  30.575  1.00  0.00     0.031 A 
ATOM     37  C   UNL A   1      41.568  28.917  31.814  1.00  0.00     0.074 A 
ATOM     38  C   UNL A   1      39.788  30.027  30.511  1.00  0.00     0.049 A 
ATOM     39  N   UNL A   1      41.535  29.616  32.921  1.00  0.00    -0.248 NA
ATOM     40  C   UNL A   1      42.553  27.826  31.821  1.00  0.00     0.031 C 
ATOM     41  C   UNL A   1      38.872  30.235  29.388  1.00  0.00     0.029 A 
ATOM     42  N   UNL A   1      39.427  30.993  31.417  1.00  0.00    -0.354 N 
ATOM     43  C   UNL A   1      42.484  29.042  33.759  1.00  0.00     0.074 A 
ATOM     44  C   UNL A   1      43.038  27.908  33.051  1.00  0.00     0.031 C 
ATOM     45  C   UNL A   1      38.058  31.264  29.669  1.00  0.00     0.029 A 
ATOM     46  C   UNL A   1      38.362  31.760  31.008  1.00  0.00     0.049 A 
ATOM     47  H   UNL A   1      39.886  31.123  32.279  1.00  0.00     0.167 HD
ATOM     48  C   UNL A   1      42.868  29.437  34.999  1.00  0.00     0.037 A 
ATOM     49  C   UNL A   1      37.684  32.735  31.644  1.00  0.00     0.037 A 
ATOM     50  C   UNL A   1      42.308  30.569  35.694  1.00  0.00     0.049 A 
ATOM     51  C   UNL A   1      38.111  33.149  33.024  1.00  0.00     0.074 A 
ATOM     52  C   UNL A   1      42.682  31.097  36.918  1.00  0.00     0.029 A 
ATOM     53  N   UNL A   1      41.242  31.332  35.240  1.00  0.00    -0.354 N 
ATOM     54  N   UNL A   1      39.077  32.660  33.764  1.00  0.00    -0.248 NA
ATOM     55  C   UNL A   1      37.361  34.243  33.654  1.00  0.00     0.031 C 
ATOM     56  C   UNL A   1      41.801  32.136  37.233  1.00  0.00     0.029 A 
ATOM     57  C   UNL A   1      40.914  32.297  36.180  1.00  0.00     0.049 A 
ATOM     58  H   UNL A   1      40.784  31.205  34.378  1.00  0.00     0.167 HD
ATOM     59  C   UNL A   1      39.055  33.389  34.949  1.00  0.00     0.074 A 
ATOM     60  C   UNL A   1      37.995  34.368  34.813  1.00  0.00     0.031 C 
ATOM     61  C   UNL A   1      39.841  33.255  36.046  1.00  0.00     0.037 A 
BRANCH  48  62
ATOM     62  C   UNL A   1      43.932  28.620  35.685  1.00  0.00     0.058 A 
ATOM     63  C   UNL A   1      43.613  27.560  36.549  1.00  0.00     0.135 A 
ATOM     64  C   UNL A   1      45.293  28.902  35.476  1.00  0.00     0.135 A 
ATOM     65  F   UNL A   1      42.330  27.248  36.793  1.00  0.00    -0.206 F 
ATOM     66  C   UNL A   1      44.600  26.848  37.225  1.00  0.00     0.059 A 
ATOM     67  C   UNL A   1      46.297  28.181  36.115  1.00  0.00     0.059 A 
ATOM     68  F   UNL A   1      45.659  29.898  34.654  1.00  0.00    -0.206 F 
ATOM     69  C   UNL A   1      45.939  27.173  37.009  1.00  0.00     0.060 A 
BRANCH  69  70
ATOM     70  S   UNL A   1      47.204  26.271  37.928  1.00  0.00     0.124 S 
ATOM     71  O   UNL A   1      47.445  25.132  37.046  1.00  0.00    -0.237 OA
ATOM     72  O   UNL A   1      48.286  27.246  38.010  1.00  0.00    -0.237 OA
ATOM     73  O   UNL A   1      46.549  25.956  39.193  1.00  0.00    -0.744 OA
ENDBRANCH  69  70
ENDBRANCH  48  62
BRANCH  49  74
ATOM     74  C   UNL A   1      36.526  33.373  30.963  1.00  0.00     0.058 A 
ATOM     75  C   UNL A   1      35.220  33.211  31.446  1.00  0.00     0.135 A 
ATOM     76  C   UNL A   1      36.716  34.223  29.861  1.00  0.00     0.135 A 
ATOM     77  F   UNL A   1      34.987  32.401  32.489  1.00  0.00    -0.206 F 
ATOM     78  C   UNL A   1      34.144  33.878  30.869  1.00  0.00     0.059 A 
ATOM     79  C   UNL A   1      35.660  34.921  29.284  1.00  0.00     0.059 A 
ATOM     80  F   UNL A   1      37.950  34.422  29.371  1.00  0.00    -0.206 F 
ATOM     81  C   UNL A   1      34.377  34.743  29.798  1.00  0.00     0.060 A 
BRANCH  81  82
ATOM     82  S   UNL A   1      32.988  35.684  29.129  1.00  0.00     0.124 S 
ATOM     83  O   UNL A   1      32.404  34.727  28.196  1.00  0.00    -0.237 OA
ATOM     84  O   UNL A   1      32.205  35.965  30.329  1.00  0.00    -0.237 OA
ATOM     85  O   UNL A   1      33.630  36.847  28.523  1.00  0.00    -0.744 OA
ENDBRANCH  81  82
ENDBRANCH  49  74
BRANCH  61  86
ATOM     86  C   UNL A   1      39.581  34.183  37.202  1.00  0.00     0.058 A 
ATOM     87  C   UNL A   1      38.900  33.751  38.351  1.00  0.00     0.135 A 
ATOM     88  C   UNL A   1      40.075  35.498  37.191  1.00  0.00     0.135 A 
ATOM     89  F   UNL A   1      38.398  32.507  38.412  1.00  0.00    -0.206 F 
ATOM     90  C   UNL A   1      38.706  34.592  39.442  1.00  0.00     0.059 A 
ATOM     91  C   UNL A   1      39.917  36.348  38.281  1.00  0.00     0.059 A 
ATOM     92  F   UNL A   1      40.739  35.961  36.119  1.00  0.00    -0.206 F 
ATOM     93  C   UNL A   1      39.225  35.888  39.401  1.00  0.00     0.060 A 
BRANCH  93  94
ATOM     94  S   UNL A   1      39.011  36.951  40.844  1.00  0.00     0.124 S 
ATOM     95  O   UNL A   1      40.384  37.080  41.323  1.00  0.00    -0.237 OA
ATOM     96  O   UNL A   1      38.427  38.155  40.260  1.00  0.00    -0.237 OA
ATOM     97  O   UNL A   1      38.116  36.182  41.704  1.00  0.00    -0.744 OA
ENDBRANCH  93  94
ENDBRANCH  61  86
ENDBRANCH  35  36
ENDBRANCH  27  30
ENDBRANCH  25  26
ENDBRANCH  24  25
ENDBRANCH   1  24
TORSDOF 19
ENDMDL
MODEL 2
REMARK VINA RESULT:     -10.6      0.476      8.308
REMARK SMILES Cc1noc(C)c1CNC(=O)N(CC(=O)NCCCNC(=O)c1ccc(-c2c3nc(c(-c4c(F)cc(S(=O)(=O)[O-])cc4F)c4ccc([nH]4)c(-c4c(F)cc(S(=O)(=O)[O-])cc4F)c4nc(c(-c5c(F)cc(S(=O)(=O)[O-])cc5F)c5ccc2[nH]5)C=C4)C=C3)cc1)CC(C)C
REMARK SMILES IDX 17 1 16 2 14 3 15 4 13 6 12 7 10 8 9 9 11 11 8 12 7 13 1 14
REMARK SMILES IDX 2 15 3 16 4 17 5 18 6 19 89 20 90 21 91 22 92 23 18 24 19 25
REMARK SMILES IDX 20 26 21 27 22 29 23 30 24 31 88 32 25 33 87 34 26 35 27 36
REMARK SMILES IDX 28 37 81 38 29 39 86 40 80 41 82 42 30 43 85 44 79 45 78 46
REMARK SMILES IDX 31 48 65 49 44 50 64 51 45 52 48 53 63 54 83 55 46 56 47 57
REMARK SMILES IDX 62 59 84 60 49 61 32 62 33 63 42 64 34 65 35 66 41 67 43 68
REMARK SMILES IDX 36 69 37 70 38 71 39 72 40 73 66 74 67 75 76 76 68 77 69 78
REMARK SMILES IDX 75 79 77 80 70 81 71 82 72 83 73 84 74 85 50 86 51 87 60 88
REMARK SMILES IDX 52 89 53 90 59 91 61 92 54 93 55 94 56 95 57 96 58 97
REMARK H PARENT 16 5 9 10 20 28 82 47 48 58
REMARK Flexibility Score: inf
ROOT
ATOM      1  C   UNL A   1      41.137  22.548  26.962  1.00  0.00     0.117 C 
ENDROOT
BRANCH   1   2
ATOM      2  N   UNL A   1      41.938  22.370  28.155  1.00  0.00    -0.354 N 
ATOM      3  C   UNL A   1      42.915  23.138  28.708  1.00  0.00     0.239 C 
ATOM      4  O   UNL A   1      43.292  22.813  29.841  1.00  0.00    -0.273 OA
ATOM      5  H   UNL A   1      41.741  21.545  28.655  1.00  0.00     0.163 HD
BRANCH   3   6
ATOM      6  C   UNL A   1      43.416  24.448  28.085  1.00  0.00     0.221 C 
BRANCH   6   7
ATOM      7  N   UNL A   1      44.533  24.398  27.140  1.00  0.00    -0.315 N 
BRANCH   7   8
ATOM      8  C   UNL A   1      45.424  23.383  26.949  1.00  0.00     0.318 C 
ATOM      9  N   UNL A   1      45.213  22.307  26.181  1.00  0.00    -0.334 N 
ATOM     10  H   UNL A   1      46.004  21.722  26.192  1.00  0.00     0.165 HD
ATOM     11  O   UNL A   1      46.538  23.390  27.482  1.00  0.00    -0.249 OA
BRANCH   9  12
ATOM     12  C   UNL A   1      44.186  21.735  25.340  1.00  0.00     0.159 C 
BRANCH  12  13
ATOM     13  C   UNL A   1      44.326  20.260  25.281  1.00  0.00     0.037 A 
ATOM     14  C   UNL A   1      41.976  19.335  26.017  1.00  0.00     0.071 C 
ATOM     15  C   UNL A   1      43.388  19.225  25.574  1.00  0.00     0.086 A 
ATOM     16  N   UNL A   1      43.928  18.013  25.401  1.00  0.00    -0.085 NA
ATOM     17  O   UNL A   1      45.227  18.230  24.994  1.00  0.00    -0.361 OA
ATOM     18  C   UNL A   1      45.465  19.563  24.928  1.00  0.00     0.138 A 
ATOM     19  C   UNL A   1      46.825  19.965  24.521  1.00  0.00     0.091 C 
ENDBRANCH  12  13
ENDBRANCH   9  12
ENDBRANCH   7   8
BRANCH   7  20
ATOM     20  C   UNL A   1      44.510  25.460  26.106  1.00  0.00     0.125 C 
BRANCH  20  21
ATOM     21  C   UNL A   1      45.639  26.504  26.204  1.00  0.00     0.002 C 
ATOM     22  C   UNL A   1      45.602  27.533  25.071  1.00  0.00     0.009 C 
ATOM     23  C   UNL A   1      45.551  27.249  27.541  1.00  0.00     0.009 C 
ENDBRANCH  20  21
ENDBRANCH   7  20
ENDBRANCH   6   7
ENDBRANCH   3   6
ENDBRANCH   1   2
BRANCH   1  24
ATOM     24  C   UNL A   1      39.674  22.846  27.240  1.00  0.00     0.042 C 
BRANCH  24  25
ATOM     25  C   UNL A   1      39.173  24.162  26.671  1.00  0.00     0.118 C 
BRANCH  25  26
ATOM     26  N   UNL A   1      40.157  24.797  25.809  1.00  0.00    -0.352 N 
ATOM     27  C   UNL A   1      40.855  25.969  25.995  1.00  0.00     0.251 C 
ATOM     28  H   UNL A   1      40.352  24.320  24.970  1.00  0.00     0.163 HD
ATOM     29  O   UNL A   1      41.470  26.459  25.053  1.00  0.00    -0.269 OA
BRANCH  27  30
ATOM     30  C   UNL A   1      40.840  26.648  27.312  1.00  0.00     0.039 A 
ATOM     31  C   UNL A   1      41.708  27.722  27.526  1.00  0.00     0.014 A 
ATOM     32  C   UNL A   1      39.979  26.236  28.332  1.00  0.00     0.014 A 
ATOM     33  C   UNL A   1      41.652  28.432  28.729  1.00  0.00     0.010 A 
ATOM     34  C   UNL A   1      39.865  26.993  29.496  1.00  0.00     0.010 A 
ATOM     35  C   UNL A   1      40.694  28.105  29.703  1.00  0.00    -0.014 A 
BRANCH  35  36
ATOM     36  C   UNL A   1      40.511  28.944  30.917  1.00  0.00     0.031 A 
ATOM     37  C   UNL A   1      39.463  30.021  30.958  1.00  0.00     0.074 A 
ATOM     38  C   UNL A   1      41.357  28.791  31.955  1.00  0.00     0.049 A 
ATOM     39  N   UNL A   1      39.215  30.897  31.898  1.00  0.00    -0.248 NA
ATOM     40  C   UNL A   1      38.598  30.147  29.776  1.00  0.00     0.031 C 
ATOM     41  C   UNL A   1      42.454  27.822  32.012  1.00  0.00     0.029 A 
ATOM     42  N   UNL A   1      41.445  29.461  33.150  1.00  0.00    -0.354 N 
ATOM     43  C   UNL A   1      38.175  31.685  31.419  1.00  0.00     0.074 A 
ATOM     44  C   UNL A   1      37.875  31.214  30.083  1.00  0.00     0.031 C 
ATOM     45  C   UNL A   1      43.101  27.957  33.179  1.00  0.00     0.029 A 
ATOM     46  C   UNL A   1      42.497  29.051  33.935  1.00  0.00     0.049 A 
ATOM     47  H   UNL A   1      40.816  30.170  33.419  1.00  0.00     0.167 HD
ATOM     48  C   UNL A   1      37.521  32.696  32.042  1.00  0.00     0.037 A 
ATOM     49  C   UNL A   1      42.947  29.515  35.117  1.00  0.00     0.037 A 
ATOM     50  C   UNL A   1      37.830  33.156  33.373  1.00  0.00     0.049 A 
ATOM     51  C   UNL A   1      42.222  30.648  35.787  1.00  0.00     0.074 A 
ATOM     52  C   UNL A   1      37.177  34.120  34.122  1.00  0.00     0.029 A 
ATOM     53  N   UNL A   1      38.892  32.705  34.143  1.00  0.00    -0.354 N 
ATOM     54  N   UNL A   1      41.177  31.317  35.362  1.00  0.00    -0.248 NA
ATOM     55  C   UNL A   1      42.732  31.088  37.091  1.00  0.00     0.031 C 
ATOM     56  C   UNL A   1      37.883  34.296  35.317  1.00  0.00     0.029 A 
ATOM     57  C   UNL A   1      38.941  33.402  35.341  1.00  0.00     0.049 A 
ATOM     58  H   UNL A   1      39.520  31.994  33.878  1.00  0.00     0.167 HD
ATOM     59  C   UNL A   1      40.900  32.257  36.349  1.00  0.00     0.074 A 
ATOM     60  C   UNL A   1      41.874  32.051  37.403  1.00  0.00     0.031 C 
ATOM     61  C   UNL A   1      39.930  33.205  36.376  1.00  0.00     0.037 A 
BRANCH  48  62
ATOM     62  C   UNL A   1      36.421  33.383  31.276  1.00  0.00     0.058 A 
ATOM     63  C   UNL A   1      36.684  34.176  30.147  1.00  0.00     0.135 A 
ATOM     64  C   UNL A   1      35.081  33.248  31.677  1.00  0.00     0.135 A 
ATOM     65  F   UNL A   1      37.946  34.348  29.720  1.00  0.00    -0.206 F 
ATOM     66  C   UNL A   1      35.669  34.855  29.479  1.00  0.00     0.059 A 
ATOM     67  C   UNL A   1      34.046  33.891  31.004  1.00  0.00     0.059 A 
ATOM     68  F   UNL A   1      34.767  32.496  32.743  1.00  0.00    -0.206 F 
ATOM     69  C   UNL A   1      34.354  34.714  29.922  1.00  0.00     0.060 A 
BRANCH  69  70
ATOM     70  S   UNL A   1      33.055  35.637  29.074  1.00  0.00     0.124 S 
ATOM     71  O   UNL A   1      32.497  34.612  28.197  1.00  0.00    -0.237 OA
ATOM     72  O   UNL A   1      32.199  36.059  30.178  1.00  0.00    -0.237 OA
ATOM     73  O   UNL A   1      33.781  36.709  28.402  1.00  0.00    -0.744 OA
ENDBRANCH  69  70
ENDBRANCH  48  62
BRANCH  49  74
ATOM     74  C   UNL A   1      44.154  28.895  35.725  1.00  0.00     0.058 A 
ATOM     75  C   UNL A   1      45.437  29.393  35.461  1.00  0.00     0.135 A 
ATOM     76  C   UNL A   1      44.037  27.841  36.646  1.00  0.00     0.135 A 
ATOM     77  F   UNL A   1      45.601  30.392  34.581  1.00  0.00    -0.206 F 
ATOM     78  C   UNL A   1      46.562  28.877  36.098  1.00  0.00     0.059 A 
ATOM     79  C   UNL A   1      45.143  27.327  37.314  1.00  0.00     0.059 A 
ATOM     80  F   UNL A   1      42.828  27.339  36.943  1.00  0.00    -0.206 F 
ATOM     81  C   UNL A   1      46.403  27.854  37.034  1.00  0.00     0.060 A 
BRANCH  81  82
ATOM     82  S   UNL A   1      47.857  27.269  37.931  1.00  0.00     0.124 S 
ATOM     83  O   UNL A   1      48.716  28.447  37.901  1.00  0.00    -0.237 OA
ATOM     84  O   UNL A   1      47.292  26.924  39.233  1.00  0.00    -0.237 OA
ATOM     85  O   UNL A   1      48.310  26.134  37.133  1.00  0.00    -0.744 OA
ENDBRANCH  81  82
ENDBRANCH  49  74
BRANCH  61  86
ATOM     86  C   UNL A   1      39.873  34.105  37.580  1.00  0.00     0.058 A 
ATOM     87  C   UNL A   1      40.448  35.386  37.566  1.00  0.00     0.135 A 
ATOM     88  C   UNL A   1      39.180  33.713  38.737  1.00  0.00     0.135 A 
ATOM     89  F   UNL A   1      41.131  35.809  36.490  1.00  0.00    -0.206 F 
ATOM     90  C   UNL A   1      40.350  36.240  38.660  1.00  0.00     0.059 A 
ATOM     91  C   UNL A   1      39.045  34.561  39.832  1.00  0.00     0.059 A 
ATOM     92  F   UNL A   1      38.606  32.501  38.803  1.00  0.00    -0.206 F 
ATOM     93  C   UNL A   1      39.640  35.821  39.787  1.00  0.00     0.060 A 
BRANCH  93  94
ATOM     94  S   UNL A   1      39.477  36.960  41.178  1.00  0.00     0.124 S 
ATOM     95  O   UNL A   1      38.616  36.203  42.081  1.00  0.00    -0.237 OA
ATOM     96  O   UNL A   1      40.862  37.123  41.610  1.00  0.00    -0.237 OA
ATOM     97  O   UNL A   1      38.871  38.146  40.580  1.00  0.00    -0.744 OA
ENDBRANCH  93  94
ENDBRANCH  61  86
ENDBRANCH  35  36
ENDBRANCH  27  30
ENDBRANCH  25  26
ENDBRANCH  24  25
ENDBRANCH   1  24
TORSDOF 19
ENDMDL
MODEL 3
REMARK VINA RESULT:     -10.5      3.876      5.752
REMARK SMILES Cc1noc(C)c1CNC(=O)N(CC(=O)NCCCNC(=O)c1ccc(-c2c3nc(c(-c4c(F)cc(S(=O)(=O)[O-])cc4F)c4ccc([nH]4)c(-c4c(F)cc(S(=O)(=O)[O-])cc4F)c4nc(c(-c5c(F)cc(S(=O)(=O)[O-])cc5F)c5ccc2[nH]5)C=C4)C=C3)cc1)CC(C)C
REMARK SMILES IDX 17 1 16 2 14 3 15 4 13 6 12 7 10 8 9 9 11 11 8 12 7 13 1 14
REMARK SMILES IDX 2 15 3 16 4 17 5 18 6 19 89 20 90 21 91 22 92 23 18 24 19 25
REMARK SMILES IDX 20 26 21 27 22 29 23 30 24 31 88 32 25 33 87 34 26 35 27 36
REMARK SMILES IDX 28 37 81 38 29 39 86 40 80 41 82 42 30 43 85 44 79 45 78 46
REMARK SMILES IDX 31 48 65 49 44 50 64 51 45 52 48 53 63 54 83 55 46 56 47 57
REMARK SMILES IDX 62 59 84 60 49 61 32 62 33 63 42 64 34 65 35 66 41 67 43 68
REMARK SMILES IDX 36 69 37 70 38 71 39 72 40 73 66 74 67 75 76 76 68 77 69 78
REMARK SMILES IDX 75 79 77 80 70 81 71 82 72 83 73 84 74 85 50 86 51 87 60 88
REMARK SMILES IDX 52 89 53 90 59 91 61 92 54 93 55 94 56 95 57 96 58 97
REMARK H PARENT 16 5 9 10 20 28 82 47 48 58
REMARK Flexibility Score: inf
ROOT
ATOM      1  C   UNL A   1      37.894  22.157  25.643  1.00  0.00     0.117 C 
ENDROOT
BRANCH   1   2
ATOM      2  N   UNL A   1      37.278  22.323  24.343  1.00  0.00    -0.354 N 
ATOM      3  C   UNL A   1      36.047  22.773  23.979  1.00  0.00     0.239 C 
ATOM      4  O   UNL A   1      35.873  22.977  22.771  1.00  0.00    -0.273 OA
ATOM      5  H   UNL A   1      37.853  22.064  23.587  1.00  0.00     0.163 HD
BRANCH   3   6
ATOM      6  C   UNL A   1      34.970  23.197  24.986  1.00  0.00     0.221 C 
BRANCH   6   7
ATOM      7  N   UNL A   1      33.608  22.688  24.820  1.00  0.00    -0.315 N 
BRANCH   7   8
ATOM      8  C   UNL A   1      33.156  21.790  23.897  1.00  0.00     0.318 C 
ATOM      9  N   UNL A   1      33.285  20.461  23.986  1.00  0.00    -0.334 N 
ATOM     10  H   UNL A   1      32.870  20.027  23.206  1.00  0.00     0.165 HD
ATOM     11  O   UNL A   1      32.561  22.155  22.878  1.00  0.00    -0.249 OA
BRANCH   9  12
ATOM     12  C   UNL A   1      33.843  19.464  24.870  1.00  0.00     0.159 C 
BRANCH  12  13
ATOM     13  C   UNL A   1      33.882  18.141  24.200  1.00  0.00     0.037 A 
ATOM     14  C   UNL A   1      35.649  16.751  25.566  1.00  0.00     0.071 C 
ATOM     15  C   UNL A   1      34.655  16.976  24.487  1.00  0.00     0.086 A 
ATOM     16  N   UNL A   1      34.393  15.990  23.621  1.00  0.00    -0.085 NA
ATOM     17  O   UNL A   1      33.446  16.489  22.752  1.00  0.00    -0.361 OA
ATOM     18  C   UNL A   1      33.147  17.767  23.092  1.00  0.00     0.138 A 
ATOM     19  C   UNL A   1      32.156  18.454  22.242  1.00  0.00     0.091 C 
ENDBRANCH  12  13
ENDBRANCH   9  12
ENDBRANCH   7   8
BRANCH   7  20
ATOM     20  C   UNL A   1      32.699  22.983  25.954  1.00  0.00     0.125 C 
BRANCH  20  21
ATOM     21  C   UNL A   1      31.207  23.105  25.592  1.00  0.00     0.002 C 
ATOM     22  C   UNL A   1      30.278  22.762  26.760  1.00  0.00     0.009 C 
ATOM     23  C   UNL A   1      30.895  24.531  25.125  1.00  0.00     0.009 C 
ENDBRANCH  20  21
ENDBRANCH   7  20
ENDBRANCH   6   7
ENDBRANCH   3   6
ENDBRANCH   1   2
BRANCH   1  24
ATOM     24  C   UNL A   1      38.635  23.388  26.136  1.00  0.00     0.042 C 
BRANCH  24  25
ATOM     25  C   UNL A   1      39.889  23.096  26.942  1.00  0.00     0.118 C 
BRANCH  25  26
ATOM     26  N   UNL A   1      41.101  23.418  26.207  1.00  0.00    -0.352 N 
ATOM     27  C   UNL A   1      41.819  24.591  26.177  1.00  0.00     0.251 C 
ATOM     28  H   UNL A   1      41.461  22.690  25.650  1.00  0.00     0.163 HD
ATOM     29  O   UNL A   1      42.684  24.745  25.321  1.00  0.00    -0.269 OA
BRANCH  27  30
ATOM     30  C   UNL A   1      41.531  25.671  27.150  1.00  0.00     0.039 A 
ATOM     31  C   UNL A   1      40.638  25.417  28.194  1.00  0.00     0.014 A 
ATOM     32  C   UNL A   1      42.134  26.927  27.040  1.00  0.00     0.014 A 
ATOM     33  C   UNL A   1      40.417  26.391  29.172  1.00  0.00     0.010 A 
ATOM     34  C   UNL A   1      41.978  27.866  28.058  1.00  0.00     0.010 A 
ATOM     35  C   UNL A   1      41.125  27.604  29.140  1.00  0.00    -0.014 A 
BRANCH  35  36
ATOM     36  C   UNL A   1      41.025  28.586  30.252  1.00  0.00     0.031 A 
ATOM     37  C   UNL A   1      41.897  28.462  31.470  1.00  0.00     0.074 A 
ATOM     38  C   UNL A   1      40.076  29.543  30.200  1.00  0.00     0.049 A 
ATOM     39  N   UNL A   1      41.893  29.177  32.566  1.00  0.00    -0.248 NA
ATOM     40  C   UNL A   1      42.888  27.375  31.465  1.00  0.00     0.031 C 
ATOM     41  C   UNL A   1      39.127  29.730  29.101  1.00  0.00     0.029 A 
ATOM     42  N   UNL A   1      39.736  30.521  31.101  1.00  0.00    -0.354 N 
ATOM     43  C   UNL A   1      42.868  28.621  33.386  1.00  0.00     0.074 A 
ATOM     44  C   UNL A   1      43.407  27.478  32.680  1.00  0.00     0.031 C 
ATOM     45  C   UNL A   1      38.317  30.759  29.389  1.00  0.00     0.029 A 
ATOM     46  C   UNL A   1      38.656  31.277  30.711  1.00  0.00     0.049 A 
ATOM     47  H   UNL A   1      40.219  30.667  31.948  1.00  0.00     0.167 HD
ATOM     48  C   UNL A   1      43.285  29.036  34.608  1.00  0.00     0.037 A 
ATOM     49  C   UNL A   1      37.991  32.259  31.351  1.00  0.00     0.037 A 
ATOM     50  C   UNL A   1      42.739  30.176  35.301  1.00  0.00     0.049 A 
ATOM     51  C   UNL A   1      38.455  32.696  32.712  1.00  0.00     0.074 A 
ATOM     52  C   UNL A   1      43.144  30.725  36.506  1.00  0.00     0.029 A 
ATOM     53  N   UNL A   1      41.656  30.927  34.866  1.00  0.00    -0.354 N 
ATOM     54  N   UNL A   1      39.444  32.223  33.432  1.00  0.00    -0.248 NA
ATOM     55  C   UNL A   1      37.718  33.796  33.346  1.00  0.00     0.031 C 
ATOM     56  C   UNL A   1      42.267  31.765  36.830  1.00  0.00     0.029 A 
ATOM     57  C   UNL A   1      41.350  31.906  35.800  1.00  0.00     0.049 A 
ATOM     58  H   UNL A   1      41.175  30.786  34.019  1.00  0.00     0.167 HD
ATOM     59  C   UNL A   1      39.452  32.970  34.605  1.00  0.00     0.074 A 
ATOM     60  C   UNL A   1      38.383  33.942  34.485  1.00  0.00     0.031 C 
ATOM     61  C   UNL A   1      40.268  32.856  35.682  1.00  0.00     0.037 A 
BRANCH  48  62
ATOM     62  C   UNL A   1      44.371  28.235  35.276  1.00  0.00     0.058 A 
ATOM     63  C   UNL A   1      44.082  27.169  36.144  1.00  0.00     0.135 A 
ATOM     64  C   UNL A   1      45.724  28.538  35.046  1.00  0.00     0.135 A 
ATOM     65  F   UNL A   1      42.808  26.838  36.408  1.00  0.00    -0.206 F 
ATOM     66  C   UNL A   1      45.090  26.472  36.804  1.00  0.00     0.059 A 
ATOM     67  C   UNL A   1      46.749  27.831  35.668  1.00  0.00     0.059 A 
ATOM     68  F   UNL A   1      46.062  29.539  34.219  1.00  0.00    -0.206 F 
ATOM     69  C   UNL A   1      46.420  26.817  36.566  1.00  0.00     0.060 A 
BRANCH  69  70
ATOM     70  S   UNL A   1      47.714  25.933  37.464  1.00  0.00     0.124 S 
ATOM     71  O   UNL A   1      47.360  24.544  37.187  1.00  0.00    -0.237 OA
ATOM     72  O   UNL A   1      48.929  26.416  36.818  1.00  0.00    -0.237 OA
ATOM     73  O   UNL A   1      47.526  26.364  38.845  1.00  0.00    -0.744 OA
ENDBRANCH  69  70
ENDBRANCH  48  62
BRANCH  49  74
ATOM     74  C   UNL A   1      36.811  32.881  30.693  1.00  0.00     0.058 A 
ATOM     75  C   UNL A   1      35.507  32.599  31.124  1.00  0.00     0.135 A 
ATOM     76  C   UNL A   1      36.973  33.832  29.672  1.00  0.00     0.135 A 
ATOM     77  F   UNL A   1      35.302  31.691  32.089  1.00  0.00    -0.206 F 
ATOM     78  C   UNL A   1      34.405  33.247  30.575  1.00  0.00     0.059 A 
ATOM     79  C   UNL A   1      35.889  34.511  29.126  1.00  0.00     0.059 A 
ATOM     80  F   UNL A   1      38.203  34.146  29.235  1.00  0.00    -0.206 F 
ATOM     81  C   UNL A   1      34.608  34.212  29.587  1.00  0.00     0.060 A 
BRANCH  81  82
ATOM     82  S   UNL A   1      33.178  35.121  28.960  1.00  0.00     0.124 S 
ATOM     83  O   UNL A   1      32.411  35.343  30.181  1.00  0.00    -0.237 OA
ATOM     84  O   UNL A   1      33.803  36.305  28.376  1.00  0.00    -0.237 OA
ATOM     85  O   UNL A   1      32.586  34.197  27.999  1.00  0.00    -0.744 OA
ENDBRANCH  81  82
ENDBRANCH  49  74
BRANCH  61  86
ATOM     86  C   UNL A   1      40.037  33.801  36.830  1.00  0.00     0.058 A 
ATOM     87  C   UNL A   1      40.634  35.071  36.868  1.00  0.00     0.135 A 
ATOM     88  C   UNL A   1      39.158  33.461  37.872  1.00  0.00     0.135 A 
ATOM     89  F   UNL A   1      41.491  35.443  35.903  1.00  0.00    -0.206 F 
ATOM     90  C   UNL A   1      40.379  35.965  37.903  1.00  0.00     0.059 A 
ATOM     91  C   UNL A   1      38.866  34.350  38.902  1.00  0.00     0.059 A 
ATOM     92  F   UNL A   1      38.555  32.261  37.884  1.00  0.00    -0.206 F 
ATOM     93  C   UNL A   1      39.487  35.599  38.912  1.00  0.00     0.060 A 
BRANCH  93  94
ATOM     94  S   UNL A   1      39.126  36.789  40.220  1.00  0.00     0.124 S 
ATOM     95  O   UNL A   1      40.456  37.039  40.768  1.00  0.00    -0.237 OA
ATOM     96  O   UNL A   1      38.528  37.895  39.478  1.00  0.00    -0.237 OA
ATOM     97  O   UNL A   1      38.211  36.066  41.098  1.00  0.00    -0.744 OA
ENDBRANCH  93  94
ENDBRANCH  61  86
ENDBRANCH  35  36
ENDBRANCH  27  30
ENDBRANCH  25  26
ENDBRANCH  24  25
ENDBRANCH   1  24
TORSDOF 19
ENDMDL
