MODEL 1
REMARK VINA RESULT:     -11.2      0.000      0.000
REMARK SMILES CC(C)n1cc(C(=O)NCCCNC(=O)c2ccc(-c3c4nc(c(-c5c(F)cc(S(=O)(=O)[O-])cc5F)c5ccc([nH]5)c(-c5c(F)cc(S(=O)(=O)[O-])cc5F)c5nc(c(-c6c(F)cc(S(=O)(=O)[O-])cc6F)c6ccc3[nH]6)C=C5)C=C4)cc2)c2ccccc2c1=O
REMARK SMILES IDX 12 1 11 2 10 3 9 4 7 5 8 6 6 8 4 9 5 10 88 11 87 12 89 13
REMARK SMILES IDX 82 14 86 15 83 16 85 17 84 18 2 19 1 20 3 21 13 22 14 23
REMARK SMILES IDX 15 25 16 26 17 27 81 28 18 29 80 30 19 31 20 32 21 33 74 34
REMARK SMILES IDX 22 35 79 36 73 37 75 38 23 39 78 40 72 41 71 42 24 44 58 45
REMARK SMILES IDX 37 46 57 47 38 48 41 49 56 50 76 51 39 52 40 53 55 55 77 56
REMARK SMILES IDX 42 57 25 58 26 59 35 60 27 61 28 62 34 63 36 64 29 65 30 66
REMARK SMILES IDX 31 67 32 68 33 69 59 70 60 71 69 72 61 73 62 74 68 75 70 76
REMARK SMILES IDX 63 77 64 78 65 79 66 80 67 81 43 82 44 83 53 84 45 85 46 86
REMARK SMILES IDX 52 87 54 88 47 89 48 90 49 91 50 92 51 93
REMARK H PARENT 9 7 13 24 75 43 41 54
REMARK Flexibility Score: inf
ROOT
ATOM      1  C   UNL A   1      33.206  28.443  27.262  1.00  0.00     0.118 C 
ENDROOT
BRANCH   1   2
ATOM      2  C   UNL A   1      32.867  28.144  25.806  1.00  0.00     0.042 C 
BRANCH   2   3
ATOM      3  C   UNL A   1      34.102  28.106  24.905  1.00  0.00     0.118 C 
BRANCH   3   4
ATOM      4  N   UNL A   1      33.836  27.319  23.713  1.00  0.00    -0.352 N 
ATOM      5  C   UNL A   1      33.835  25.987  23.425  1.00  0.00     0.253 C 
ATOM      6  O   UNL A   1      33.680  25.718  22.232  1.00  0.00    -0.269 OA
ATOM      7  H   UNL A   1      33.604  27.875  22.934  1.00  0.00     0.163 HD
BRANCH   5   8
ATOM      8  C   UNL A   1      33.927  24.902  24.472  1.00  0.00     0.064 A 
ATOM      9  N   UNL A   1      35.315  23.340  25.691  1.00  0.00    -0.312 N 
ATOM     10  C   UNL A   1      35.072  24.221  24.650  1.00  0.00     0.104 A 
ATOM     11  C   UNL A   1      34.302  22.967  26.580  1.00  0.00     0.258 A 
ATOM     12  C   UNL A   1      32.944  23.489  26.287  1.00  0.00     0.048 A 
ATOM     13  O   UNL A   1      34.474  22.236  27.552  1.00  0.00    -0.269 OA
ATOM     14  C   UNL A   1      32.758  24.454  25.282  1.00  0.00     0.001 A 
ATOM     15  C   UNL A   1      31.861  22.963  27.012  1.00  0.00     0.014 A 
ATOM     16  C   UNL A   1      31.439  24.887  25.056  1.00  0.00     0.010 A 
ATOM     17  C   UNL A   1      30.565  23.387  26.742  1.00  0.00     0.001 A 
ATOM     18  C   UNL A   1      30.356  24.354  25.767  1.00  0.00     0.001 A 
BRANCH   9  19
ATOM     19  C   UNL A   1      36.661  22.760  25.911  1.00  0.00     0.084 C 
ATOM     20  C   UNL A   1      36.907  21.587  24.960  1.00  0.00     0.031 C 
ATOM     21  C   UNL A   1      37.827  23.756  25.842  1.00  0.00     0.031 C 
ENDBRANCH   9  19
ENDBRANCH   5   8
ENDBRANCH   3   4
ENDBRANCH   2   3
ENDBRANCH   1   2
BRANCH   1  22
ATOM     22  N   UNL A   1      33.200  29.873  27.546  1.00  0.00    -0.352 N 
ATOM     23  C   UNL A   1      34.190  30.664  28.087  1.00  0.00     0.251 C 
ATOM     24  H   UNL A   1      32.366  30.344  27.316  1.00  0.00     0.163 HD
ATOM     25  O   UNL A   1      33.935  31.802  28.450  1.00  0.00    -0.269 OA
BRANCH  23  26
ATOM     26  C   UNL A   1      35.551  30.107  28.250  1.00  0.00     0.039 A 
ATOM     27  C   UNL A   1      35.967  29.625  29.492  1.00  0.00     0.014 A 
ATOM     28  C   UNL A   1      36.428  30.104  27.163  1.00  0.00     0.014 A 
ATOM     29  C   UNL A   1      37.308  29.329  29.696  1.00  0.00     0.010 A 
ATOM     30  C   UNL A   1      37.756  29.708  27.349  1.00  0.00     0.010 A 
ATOM     31  C   UNL A   1      38.221  29.374  28.631  1.00  0.00    -0.014 A 
BRANCH  31  32
ATOM     32  C   UNL A   1      39.658  29.094  28.894  1.00  0.00     0.031 A 
ATOM     33  C   UNL A   1      40.525  30.115  29.583  1.00  0.00     0.074 A 
ATOM     34  C   UNL A   1      40.161  27.886  28.571  1.00  0.00     0.049 A 
ATOM     35  N   UNL A   1      41.792  30.038  29.904  1.00  0.00    -0.248 NA
ATOM     36  C   UNL A   1      39.894  31.390  29.961  1.00  0.00     0.031 C 
ATOM     37  C   UNL A   1      39.412  26.809  27.918  1.00  0.00     0.029 A 
ATOM     38  N   UNL A   1      41.406  27.347  28.770  1.00  0.00    -0.354 N 
ATOM     39  C   UNL A   1      42.113  31.251  30.502  1.00  0.00     0.074 A 
ATOM     40  C   UNL A   1      40.917  32.064  30.470  1.00  0.00     0.031 C 
ATOM     41  C   UNL A   1      40.192  25.724  27.823  1.00  0.00     0.029 A 
ATOM     42  C   UNL A   1      41.519  26.047  28.336  1.00  0.00     0.049 A 
ATOM     43  H   UNL A   1      42.149  27.844  29.184  1.00  0.00     0.167 HD
ATOM     44  C   UNL A   1      43.291  31.646  31.041  1.00  0.00     0.037 A 
ATOM     45  C   UNL A   1      42.575  25.212  28.332  1.00  0.00     0.037 A 
ATOM     46  C   UNL A   1      44.470  30.820  31.090  1.00  0.00     0.049 A 
ATOM     47  C   UNL A   1      43.885  25.692  28.887  1.00  0.00     0.074 A 
ATOM     48  C   UNL A   1      45.708  31.121  31.630  1.00  0.00     0.029 A 
ATOM     49  N   UNL A   1      44.560  29.531  30.583  1.00  0.00    -0.354 N 
ATOM     50  N   UNL A   1      44.168  26.845  29.447  1.00  0.00    -0.248 NA
ATOM     51  C   UNL A   1      45.023  24.768  28.800  1.00  0.00     0.031 C 
ATOM     52  C   UNL A   1      46.561  30.035  31.406  1.00  0.00     0.029 A 
ATOM     53  C   UNL A   1      45.839  29.035  30.775  1.00  0.00     0.049 A 
ATOM     54  H   UNL A   1      43.823  29.042  30.150  1.00  0.00     0.167 HD
ATOM     55  C   UNL A   1      45.513  26.780  29.790  1.00  0.00     0.074 A 
ATOM     56  C   UNL A   1      45.981  25.466  29.395  1.00  0.00     0.031 C 
ATOM     57  C   UNL A   1      46.290  27.725  30.374  1.00  0.00     0.037 A 
BRANCH  44  58
ATOM     58  C   UNL A   1      43.377  33.034  31.618  1.00  0.00     0.058 A 
ATOM     59  C   UNL A   1      43.134  33.286  32.977  1.00  0.00     0.135 A 
ATOM     60  C   UNL A   1      43.776  34.115  30.814  1.00  0.00     0.135 A 
ATOM     61  F   UNL A   1      42.734  32.294  33.788  1.00  0.00    -0.206 F 
ATOM     62  C   UNL A   1      43.267  34.563  33.515  1.00  0.00     0.059 A 
ATOM     63  C   UNL A   1      43.940  35.395  31.336  1.00  0.00     0.059 A 
ATOM     64  F   UNL A   1      44.020  33.932  29.506  1.00  0.00    -0.206 F 
ATOM     65  C   UNL A   1      43.675  35.610  32.687  1.00  0.00     0.060 A 
BRANCH  65  66
ATOM     66  S   UNL A   1      43.855  37.256  33.409  1.00  0.00     0.124 S 
ATOM     67  O   UNL A   1      43.864  38.097  32.216  1.00  0.00    -0.237 OA
ATOM     68  O   UNL A   1      42.665  37.358  34.247  1.00  0.00    -0.237 OA
ATOM     69  O   UNL A   1      45.122  37.176  34.128  1.00  0.00    -0.744 OA
ENDBRANCH  65  66
ENDBRANCH  44  58
BRANCH  45  70
ATOM     70  C   UNL A   1      42.427  23.842  27.772  1.00  0.00     0.058 A 
ATOM     71  C   UNL A   1      42.408  23.623  26.388  1.00  0.00     0.135 A 
ATOM     72  C   UNL A   1      42.343  22.719  28.613  1.00  0.00     0.135 A 
ATOM     73  F   UNL A   1      42.478  24.664  25.544  1.00  0.00    -0.206 F 
ATOM     74  C   UNL A   1      42.308  22.343  25.854  1.00  0.00     0.059 A 
ATOM     75  C   UNL A   1      42.273  21.427  28.104  1.00  0.00     0.059 A 
ATOM     76  F   UNL A   1      42.372  22.873  29.946  1.00  0.00    -0.206 F 
ATOM     77  C   UNL A   1      42.250  21.250  26.721  1.00  0.00     0.060 A 
BRANCH  77  78
ATOM     78  S   UNL A   1      42.186  19.589  26.015  1.00  0.00     0.124 S 
ATOM     79  O   UNL A   1      43.105  19.713  24.890  1.00  0.00    -0.237 OA
ATOM     80  O   UNL A   1      42.646  18.768  27.130  1.00  0.00    -0.237 OA
ATOM     81  O   UNL A   1      40.778  19.426  25.666  1.00  0.00    -0.744 OA
ENDBRANCH  77  78
ENDBRANCH  45  70
BRANCH  57  82
ATOM     82  C   UNL A   1      47.728  27.374  30.636  1.00  0.00     0.058 A 
ATOM     83  C   UNL A   1      48.114  26.674  31.790  1.00  0.00     0.135 A 
ATOM     84  C   UNL A   1      48.721  27.676  29.689  1.00  0.00     0.135 A 
ATOM     85  F   UNL A   1      47.205  26.368  32.730  1.00  0.00    -0.206 F 
ATOM     86  C   UNL A   1      49.436  26.302  32.005  1.00  0.00     0.059 A 
ATOM     87  C   UNL A   1      50.045  27.287  29.869  1.00  0.00     0.059 A 
ATOM     88  F   UNL A   1      48.403  28.334  28.563  1.00  0.00    -0.206 F 
ATOM     89  C   UNL A   1      50.394  26.607  31.035  1.00  0.00     0.060 A 
BRANCH  89  90
ATOM     90  S   UNL A   1      52.096  26.076  31.309  1.00  0.00     0.124 S 
ATOM     91  O   UNL A   1      51.903  24.725  31.828  1.00  0.00    -0.237 OA
ATOM     92  O   UNL A   1      52.668  26.164  29.969  1.00  0.00    -0.237 OA
ATOM     93  O   UNL A   1      52.608  27.049  32.269  1.00  0.00    -0.744 OA
ENDBRANCH  89  90
ENDBRANCH  57  82
ENDBRANCH  31  32
ENDBRANCH  23  26
ENDBRANCH   1  22
TORSDOF 14
ENDMDL
MODEL 2
REMARK VINA RESULT:     -11.2      3.240      4.329
REMARK SMILES CC(C)n1cc(C(=O)NCCCNC(=O)c2ccc(-c3c4nc(c(-c5c(F)cc(S(=O)(=O)[O-])cc5F)c5ccc([nH]5)c(-c5c(F)cc(S(=O)(=O)[O-])cc5F)c5nc(c(-c6c(F)cc(S(=O)(=O)[O-])cc6F)c6ccc3[nH]6)C=C5)C=C4)cc2)c2ccccc2c1=O
REMARK SMILES IDX 12 1 11 2 10 3 9 4 7 5 8 6 6 8 4 9 5 10 88 11 87 12 89 13
REMARK SMILES IDX 82 14 86 15 83 16 85 17 84 18 2 19 1 20 3 21 13 22 14 23
REMARK SMILES IDX 15 25 16 26 17 27 81 28 18 29 80 30 19 31 20 32 21 33 74 34
REMARK SMILES IDX 22 35 79 36 73 37 75 38 23 39 78 40 72 41 71 42 24 44 58 45
REMARK SMILES IDX 37 46 57 47 38 48 41 49 56 50 76 51 39 52 40 53 55 55 77 56
REMARK SMILES IDX 42 57 25 58 26 59 35 60 27 61 28 62 34 63 36 64 29 65 30 66
REMARK SMILES IDX 31 67 32 68 33 69 59 70 60 71 69 72 61 73 62 74 68 75 70 76
REMARK SMILES IDX 63 77 64 78 65 79 66 80 67 81 43 82 44 83 53 84 45 85 46 86
REMARK SMILES IDX 52 87 54 88 47 89 48 90 49 91 50 92 51 93
REMARK H PARENT 9 7 13 24 75 43 41 54
REMARK Flexibility Score: inf
ROOT
ATOM      1  C   UNL A   1      34.942  29.530  27.482  1.00  0.00     0.118 C 
ENDROOT
BRANCH   1   2
ATOM      2  C   UNL A   1      33.495  29.110  27.252  1.00  0.00     0.042 C 
BRANCH   2   3
ATOM      3  C   UNL A   1      32.780  29.986  26.222  1.00  0.00     0.118 C 
BRANCH   3   4
ATOM      4  N   UNL A   1      33.317  29.747  24.893  1.00  0.00    -0.352 N 
ATOM      5  C   UNL A   1      32.951  28.966  23.838  1.00  0.00     0.253 C 
ATOM      6  O   UNL A   1      33.760  28.942  22.908  1.00  0.00    -0.269 OA
ATOM      7  H   UNL A   1      34.133  30.269  24.713  1.00  0.00     0.163 HD
BRANCH   5   8
ATOM      8  C   UNL A   1      31.626  28.245  23.748  1.00  0.00     0.064 A 
ATOM      9  N   UNL A   1      30.360  26.223  24.148  1.00  0.00    -0.312 N 
ATOM     10  C   UNL A   1      31.543  26.933  24.027  1.00  0.00     0.104 A 
ATOM     11  C   UNL A   1      29.128  26.803  23.831  1.00  0.00     0.258 A 
ATOM     12  C   UNL A   1      29.171  28.176  23.271  1.00  0.00     0.048 A 
ATOM     13  O   UNL A   1      28.046  26.240  23.973  1.00  0.00    -0.269 OA
ATOM     14  C   UNL A   1      30.378  28.896  23.255  1.00  0.00     0.001 A 
ATOM     15  C   UNL A   1      27.989  28.709  22.729  1.00  0.00     0.014 A 
ATOM     16  C   UNL A   1      30.340  30.186  22.695  1.00  0.00     0.010 A 
ATOM     17  C   UNL A   1      27.991  29.974  22.152  1.00  0.00     0.001 A 
ATOM     18  C   UNL A   1      29.166  30.714  22.141  1.00  0.00     0.001 A 
BRANCH   9  19
ATOM     19  C   UNL A   1      30.350  24.819  24.625  1.00  0.00     0.084 C 
ATOM     20  C   UNL A   1      30.728  23.861  23.495  1.00  0.00     0.031 C 
ATOM     21  C   UNL A   1      31.203  24.539  25.870  1.00  0.00     0.031 C 
ENDBRANCH   9  19
ENDBRANCH   5   8
ENDBRANCH   3   4
ENDBRANCH   2   3
ENDBRANCH   1   2
BRANCH   1  22
ATOM     22  N   UNL A   1      35.100  30.313  28.702  1.00  0.00    -0.352 N 
ATOM     23  C   UNL A   1      36.174  30.390  29.562  1.00  0.00     0.251 C 
ATOM     24  H   UNL A   1      34.325  30.869  28.948  1.00  0.00     0.163 HD
ATOM     25  O   UNL A   1      36.051  30.935  30.648  1.00  0.00    -0.269 OA
BRANCH  23  26
ATOM     26  C   UNL A   1      37.463  29.781  29.164  1.00  0.00     0.039 A 
ATOM     27  C   UNL A   1      38.319  29.258  30.135  1.00  0.00     0.014 A 
ATOM     28  C   UNL A   1      37.832  29.768  27.818  1.00  0.00     0.014 A 
ATOM     29  C   UNL A   1      39.617  28.910  29.785  1.00  0.00     0.010 A 
ATOM     30  C   UNL A   1      39.106  29.320  27.456  1.00  0.00     0.010 A 
ATOM     31  C   UNL A   1      40.030  28.944  28.444  1.00  0.00    -0.014 A 
BRANCH  31  32
ATOM     32  C   UNL A   1      41.439  28.606  28.109  1.00  0.00     0.031 A 
ATOM     33  C   UNL A   1      42.520  29.654  28.193  1.00  0.00     0.074 A 
ATOM     34  C   UNL A   1      41.754  27.334  27.798  1.00  0.00     0.049 A 
ATOM     35  N   UNL A   1      43.801  29.537  27.950  1.00  0.00    -0.248 NA
ATOM     36  C   UNL A   1      42.114  31.010  28.598  1.00  0.00     0.031 C 
ATOM     37  C   UNL A   1      40.795  26.229  27.705  1.00  0.00     0.029 A 
ATOM     38  N   UNL A   1      42.963  26.745  27.529  1.00  0.00    -0.354 N 
ATOM     39  C   UNL A   1      44.348  30.798  28.155  1.00  0.00     0.074 A 
ATOM     40  C   UNL A   1      43.256  31.678  28.509  1.00  0.00     0.031 C 
ATOM     41  C   UNL A   1      41.458  25.090  27.459  1.00  0.00     0.029 A 
ATOM     42  C   UNL A   1      42.876  25.391  27.300  1.00  0.00     0.049 A 
ATOM     43  H   UNL A   1      43.811  27.243  27.503  1.00  0.00     0.167 HD
ATOM     44  C   UNL A   1      45.644  31.184  28.071  1.00  0.00     0.037 A 
ATOM     45  C   UNL A   1      43.827  24.494  26.977  1.00  0.00     0.037 A 
ATOM     46  C   UNL A   1      46.728  30.294  27.742  1.00  0.00     0.049 A 
ATOM     47  C   UNL A   1      45.249  24.958  26.837  1.00  0.00     0.074 A 
ATOM     48  C   UNL A   1      48.078  30.584  27.648  1.00  0.00     0.029 A 
ATOM     49  N   UNL A   1      46.591  28.943  27.455  1.00  0.00    -0.354 N 
ATOM     50  N   UNL A   1      45.746  26.156  27.034  1.00  0.00    -0.248 NA
ATOM     51  C   UNL A   1      46.237  23.955  26.421  1.00  0.00     0.031 C 
ATOM     52  C   UNL A   1      48.751  29.421  27.256  1.00  0.00     0.029 A 
ATOM     53  C   UNL A   1      47.827  28.393  27.159  1.00  0.00     0.049 A 
ATOM     54  H   UNL A   1      45.739  28.449  27.461  1.00  0.00     0.167 HD
ATOM     55  C   UNL A   1      47.107  26.049  26.776  1.00  0.00     0.074 A 
ATOM     56  C   UNL A   1      47.358  24.664  26.431  1.00  0.00     0.031 C 
ATOM     57  C   UNL A   1      48.060  27.012  26.816  1.00  0.00     0.037 A 
BRANCH  44  58
ATOM     58  C   UNL A   1      45.972  32.631  28.329  1.00  0.00     0.058 A 
ATOM     59  C   UNL A   1      46.389  33.080  29.591  1.00  0.00     0.135 A 
ATOM     60  C   UNL A   1      45.933  33.566  27.282  1.00  0.00     0.135 A 
ATOM     61  F   UNL A   1      46.428  32.233  30.632  1.00  0.00    -0.206 F 
ATOM     62  C   UNL A   1      46.741  34.409  29.810  1.00  0.00     0.059 A 
ATOM     63  C   UNL A   1      46.305  34.895  27.472  1.00  0.00     0.059 A 
ATOM     64  F   UNL A   1      45.540  33.192  26.054  1.00  0.00    -0.206 F 
ATOM     65  C   UNL A   1      46.700  35.308  28.743  1.00  0.00     0.060 A 
BRANCH  65  66
ATOM     66  S   UNL A   1      47.175  37.024  29.046  1.00  0.00     0.124 S 
ATOM     67  O   UNL A   1      45.929  37.725  28.752  1.00  0.00    -0.237 OA
ATOM     68  O   UNL A   1      47.567  36.992  30.452  1.00  0.00    -0.237 OA
ATOM     69  O   UNL A   1      48.260  37.250  28.099  1.00  0.00    -0.744 OA
ENDBRANCH  65  66
ENDBRANCH  44  58
BRANCH  45  70
ATOM     70  C   UNL A   1      43.452  23.072  26.758  1.00  0.00     0.058 A 
ATOM     71  C   UNL A   1      43.448  22.514  25.472  1.00  0.00     0.135 A 
ATOM     72  C   UNL A   1      43.129  22.231  27.836  1.00  0.00     0.135 A 
ATOM     73  F   UNL A   1      43.741  23.278  24.409  1.00  0.00    -0.206 F 
ATOM     74  C   UNL A   1      43.135  21.176  25.260  1.00  0.00     0.059 A 
ATOM     75  C   UNL A   1      42.842  20.883  27.653  1.00  0.00     0.059 A 
ATOM     76  F   UNL A   1      43.132  22.712  29.089  1.00  0.00    -0.206 F 
ATOM     77  C   UNL A   1      42.842  20.366  26.359  1.00  0.00     0.060 A 
BRANCH  77  78
ATOM     78  S   UNL A   1      42.500  18.615  26.076  1.00  0.00     0.124 S 
ATOM     79  O   UNL A   1      42.834  18.038  27.373  1.00  0.00    -0.237 OA
ATOM     80  O   UNL A   1      41.083  18.634  25.730  1.00  0.00    -0.237 OA
ATOM     81  O   UNL A   1      43.401  18.269  24.981  1.00  0.00    -0.744 OA
ENDBRANCH  77  78
ENDBRANCH  45  70
BRANCH  57  82
ATOM     82  C   UNL A   1      49.471  26.604  26.491  1.00  0.00     0.058 A 
ATOM     83  C   UNL A   1      50.312  26.040  27.462  1.00  0.00     0.135 A 
ATOM     84  C   UNL A   1      49.961  26.712  25.180  1.00  0.00     0.135 A 
ATOM     85  F   UNL A   1      49.894  25.921  28.733  1.00  0.00    -0.206 F 
ATOM     86  C   UNL A   1      51.598  25.612  27.148  1.00  0.00     0.059 A 
ATOM     87  C   UNL A   1      51.233  26.264  24.836  1.00  0.00     0.059 A 
ATOM     88  F   UNL A   1      49.192  27.236  24.212  1.00  0.00    -0.206 F 
ATOM     89  C   UNL A   1      52.047  25.723  25.830  1.00  0.00     0.060 A 
BRANCH  89  90
ATOM     90  S   UNL A   1      53.701  25.121  25.431  1.00  0.00     0.124 S 
ATOM     91  O   UNL A   1      53.889  25.650  24.084  1.00  0.00    -0.237 OA
ATOM     92  O   UNL A   1      54.515  25.738  26.473  1.00  0.00    -0.237 OA
ATOM     93  O   UNL A   1      53.568  23.670  25.522  1.00  0.00    -0.744 OA
ENDBRANCH  89  90
ENDBRANCH  57  82
ENDBRANCH  31  32
ENDBRANCH  23  26
ENDBRANCH   1  22
TORSDOF 14
ENDMDL
MODEL 3
REMARK VINA RESULT:     -11.2      3.050      4.391
REMARK SMILES CC(C)n1cc(C(=O)NCCCNC(=O)c2ccc(-c3c4nc(c(-c5c(F)cc(S(=O)(=O)[O-])cc5F)c5ccc([nH]5)c(-c5c(F)cc(S(=O)(=O)[O-])cc5F)c5nc(c(-c6c(F)cc(S(=O)(=O)[O-])cc6F)c6ccc3[nH]6)C=C5)C=C4)cc2)c2ccccc2c1=O
REMARK SMILES IDX 12 1 11 2 10 3 9 4 7 5 8 6 6 8 4 9 5 10 88 11 87 12 89 13
REMARK SMILES IDX 82 14 86 15 83 16 85 17 84 18 2 19 1 20 3 21 13 22 14 23
REMARK SMILES IDX 15 25 16 26 17 27 81 28 18 29 80 30 19 31 20 32 21 33 74 34
REMARK SMILES IDX 22 35 79 36 73 37 75 38 23 39 78 40 72 41 71 42 24 44 58 45
REMARK SMILES IDX 37 46 57 47 38 48 41 49 56 50 76 51 39 52 40 53 55 55 77 56
REMARK SMILES IDX 42 57 25 58 26 59 35 60 27 61 28 62 34 63 36 64 29 65 30 66
REMARK SMILES IDX 31 67 32 68 33 69 59 70 60 71 69 72 61 73 62 74 68 75 70 76
REMARK SMILES IDX 63 77 64 78 65 79 66 80 67 81 43 82 44 83 53 84 45 85 46 86
REMARK SMILES IDX 52 87 54 88 47 89 48 90 49 91 50 92 51 93
REMARK H PARENT 9 7 13 24 75 43 41 54
REMARK Flexibility Score: inf
ROOT
ATOM      1  C   UNL A   1      35.462  31.045  28.332  1.00  0.00     0.118 C 
ENDROOT
BRANCH   1   2
ATOM      2  C   UNL A   1      34.094  31.437  27.783  1.00  0.00     0.042 C 
BRANCH   2   3
ATOM      3  C   UNL A   1      33.525  30.403  26.812  1.00  0.00     0.118 C 
BRANCH   3   4
ATOM      4  N   UNL A   1      32.761  29.397  27.532  1.00  0.00    -0.352 N 
ATOM      5  C   UNL A   1      31.927  28.384  27.165  1.00  0.00     0.253 C 
ATOM      6  O   UNL A   1      31.358  27.821  28.102  1.00  0.00    -0.269 OA
ATOM      7  H   UNL A   1      32.872  29.463  28.508  1.00  0.00     0.163 HD
BRANCH   5   8
ATOM      8  C   UNL A   1      31.759  27.909  25.741  1.00  0.00     0.064 A 
ATOM      9  N   UNL A   1      30.564  28.090  23.645  1.00  0.00    -0.312 N 
ATOM     10  C   UNL A   1      30.714  28.321  25.003  1.00  0.00     0.104 A 
ATOM     11  C   UNL A   1      31.443  27.256  22.948  1.00  0.00     0.258 A 
ATOM     12  C   UNL A   1      32.476  26.564  23.757  1.00  0.00     0.048 A 
ATOM     13  O   UNL A   1      31.392  27.062  21.736  1.00  0.00    -0.269 OA
ATOM     14  C   UNL A   1      32.656  26.898  25.111  1.00  0.00     0.001 A 
ATOM     15  C   UNL A   1      33.230  25.549  23.143  1.00  0.00     0.014 A 
ATOM     16  C   UNL A   1      33.646  26.187  25.813  1.00  0.00     0.010 A 
ATOM     17  C   UNL A   1      34.178  24.841  23.874  1.00  0.00     0.001 A 
ATOM     18  C   UNL A   1      34.389  25.165  25.207  1.00  0.00     0.001 A 
BRANCH   9  19
ATOM     19  C   UNL A   1      29.468  28.723  22.873  1.00  0.00     0.084 C 
ATOM     20  C   UNL A   1      28.131  28.046  23.176  1.00  0.00     0.031 C 
ATOM     21  C   UNL A   1      29.343  30.245  23.032  1.00  0.00     0.031 C 
ENDBRANCH   9  19
ENDBRANCH   5   8
ENDBRANCH   3   4
ENDBRANCH   2   3
ENDBRANCH   1   2
BRANCH   1  22
ATOM     22  N   UNL A   1      35.479  31.004  29.789  1.00  0.00    -0.352 N 
ATOM     23  C   UNL A   1      36.360  30.371  30.638  1.00  0.00     0.251 C 
ATOM     24  H   UNL A   1      34.754  31.503  30.232  1.00  0.00     0.163 HD
ATOM     25  O   UNL A   1      36.098  30.269  31.827  1.00  0.00    -0.269 OA
BRANCH  23  26
ATOM     26  C   UNL A   1      37.606  29.793  30.087  1.00  0.00     0.039 A 
ATOM     27  C   UNL A   1      38.435  29.015  30.896  1.00  0.00     0.014 A 
ATOM     28  C   UNL A   1      37.964  30.064  28.765  1.00  0.00     0.014 A 
ATOM     29  C   UNL A   1      39.706  28.680  30.451  1.00  0.00     0.010 A 
ATOM     30  C   UNL A   1      39.206  29.636  28.285  1.00  0.00     0.010 A 
ATOM     31  C   UNL A   1      40.111  28.992  29.143  1.00  0.00    -0.014 A 
BRANCH  31  32
ATOM     32  C   UNL A   1      41.495  28.657  28.712  1.00  0.00     0.031 A 
ATOM     33  C   UNL A   1      42.594  29.686  28.791  1.00  0.00     0.074 A 
ATOM     34  C   UNL A   1      41.773  27.399  28.316  1.00  0.00     0.049 A 
ATOM     35  N   UNL A   1      43.857  29.567  28.470  1.00  0.00    -0.248 NA
ATOM     36  C   UNL A   1      42.230  31.023  29.290  1.00  0.00     0.031 C 
ATOM     37  C   UNL A   1      40.795  26.312  28.219  1.00  0.00     0.029 A 
ATOM     38  N   UNL A   1      42.956  26.812  27.948  1.00  0.00    -0.354 N 
ATOM     39  C   UNL A   1      44.433  30.809  28.711  1.00  0.00     0.074 A 
ATOM     40  C   UNL A   1      43.376  31.681  29.172  1.00  0.00     0.031 C 
ATOM     41  C   UNL A   1      41.426  25.181  27.875  1.00  0.00     0.029 A 
ATOM     42  C   UNL A   1      42.838  25.474  27.652  1.00  0.00     0.049 A 
ATOM     43  H   UNL A   1      43.809  27.301  27.901  1.00  0.00     0.167 HD
ATOM     44  C   UNL A   1      45.728  31.184  28.574  1.00  0.00     0.037 A 
ATOM     45  C   UNL A   1      43.756  24.584  27.229  1.00  0.00     0.037 A 
ATOM     46  C   UNL A   1      46.779  30.301  28.138  1.00  0.00     0.049 A 
ATOM     47  C   UNL A   1      45.174  25.039  27.034  1.00  0.00     0.074 A 
ATOM     48  C   UNL A   1      48.126  30.580  27.983  1.00  0.00     0.029 A 
ATOM     49  N   UNL A   1      46.606  28.970  27.788  1.00  0.00    -0.354 N 
ATOM     50  N   UNL A   1      45.698  26.219  27.266  1.00  0.00    -0.248 NA
ATOM     51  C   UNL A   1      46.122  24.049  26.510  1.00  0.00     0.031 C 
ATOM     52  C   UNL A   1      48.758  29.433  27.492  1.00  0.00     0.029 A 
ATOM     53  C   UNL A   1      47.816  28.422  27.393  1.00  0.00     0.049 A 
ATOM     54  H   UNL A   1      45.749  28.486  27.815  1.00  0.00     0.167 HD
ATOM     55  C   UNL A   1      47.041  26.111  26.926  1.00  0.00     0.074 A 
ATOM     56  C   UNL A   1      47.253  24.743  26.495  1.00  0.00     0.031 C 
ATOM     57  C   UNL A   1      48.010  27.059  26.964  1.00  0.00     0.037 A 
BRANCH  44  58
ATOM     58  C   UNL A   1      46.090  32.611  28.890  1.00  0.00     0.058 A 
ATOM     59  C   UNL A   1      46.530  32.997  30.167  1.00  0.00     0.135 A 
ATOM     60  C   UNL A   1      46.063  33.591  27.885  1.00  0.00     0.135 A 
ATOM     61  F   UNL A   1      46.559  32.105  31.170  1.00  0.00    -0.206 F 
ATOM     62  C   UNL A   1      46.913  34.306  30.438  1.00  0.00     0.059 A 
ATOM     63  C   UNL A   1      46.467  34.902  28.128  1.00  0.00     0.059 A 
ATOM     64  F   UNL A   1      45.651  33.278  26.645  1.00  0.00    -0.206 F 
ATOM     65  C   UNL A   1      46.882  35.251  29.411  1.00  0.00     0.060 A 
BRANCH  65  66
ATOM     66  S   UNL A   1      47.399  36.941  29.782  1.00  0.00     0.124 S 
ATOM     67  O   UNL A   1      47.045  37.631  28.545  1.00  0.00    -0.237 OA
ATOM     68  O   UNL A   1      46.579  37.266  30.945  1.00  0.00    -0.237 OA
ATOM     69  O   UNL A   1      48.828  36.813  30.040  1.00  0.00    -0.744 OA
ENDBRANCH  65  66
ENDBRANCH  44  58
BRANCH  45  70
ATOM     70  C   UNL A   1      43.348  23.181  26.956  1.00  0.00     0.058 A 
ATOM     71  C   UNL A   1      43.252  22.697  25.643  1.00  0.00     0.135 A 
ATOM     72  C   UNL A   1      43.086  22.283  28.004  1.00  0.00     0.135 A 
ATOM     73  F   UNL A   1      43.485  23.518  24.608  1.00  0.00    -0.206 F 
ATOM     74  C   UNL A   1      42.909  21.376  25.378  1.00  0.00     0.059 A 
ATOM     75  C   UNL A   1      42.770  20.950  27.765  1.00  0.00     0.059 A 
ATOM     76  F   UNL A   1      43.178  22.692  29.279  1.00  0.00    -0.206 F 
ATOM     77  C   UNL A   1      42.678  20.508  26.447  1.00  0.00     0.060 A 
BRANCH  77  78
ATOM     78  S   UNL A   1      42.296  18.779  26.089  1.00  0.00     0.124 S 
ATOM     79  O   UNL A   1      42.598  18.142  27.365  1.00  0.00    -0.237 OA
ATOM     80  O   UNL A   1      40.884  18.849  25.728  1.00  0.00    -0.237 OA
ATOM     81  O   UNL A   1      43.201  18.455  24.991  1.00  0.00    -0.744 OA
ENDBRANCH  77  78
ENDBRANCH  45  70
BRANCH  57  82
ATOM     82  C   UNL A   1      49.394  26.653  26.539  1.00  0.00     0.058 A 
ATOM     83  C   UNL A   1      50.281  26.030  27.430  1.00  0.00     0.135 A 
ATOM     84  C   UNL A   1      49.811  26.824  25.209  1.00  0.00     0.135 A 
ATOM     85  F   UNL A   1      49.934  25.849  28.714  1.00  0.00    -0.206 F 
ATOM     86  C   UNL A   1      51.540  25.605  27.022  1.00  0.00     0.059 A 
ATOM     87  C   UNL A   1      51.055  26.380  24.771  1.00  0.00     0.059 A 
ATOM     88  F   UNL A   1      48.996  27.405  24.314  1.00  0.00    -0.206 F 
ATOM     89  C   UNL A   1      51.916  25.779  25.688  1.00  0.00     0.060 A 
BRANCH  89  90
ATOM     90  S   UNL A   1      53.536  25.180  25.165  1.00  0.00     0.124 S 
ATOM     91  O   UNL A   1      53.577  25.621  23.774  1.00  0.00    -0.237 OA
ATOM     92  O   UNL A   1      54.434  25.880  26.077  1.00  0.00    -0.237 OA
ATOM     93  O   UNL A   1      53.448  23.737  25.363  1.00  0.00    -0.744 OA
ENDBRANCH  89  90
ENDBRANCH  57  82
ENDBRANCH  31  32
ENDBRANCH  23  26
ENDBRANCH   1  22
TORSDOF 14
ENDMDL
