MODEL 1
REMARK VINA RESULT:     -11.2      0.000      0.000
REMARK SMILES CC(=O)N[C@H](C(=O)NC1(CC(=O)NCCCNC(=O)c2ccc(-c3c4nc(c(-c5c(F)cc(S(=O)(=O)[O-])cc5F)c5ccc([nH]5)c(-c5c(F)cc(S(=O)(=O)[O-])cc5F)c5nc(c(-c6c(F)cc(S(=O)(=O)[O-])cc6F)c6ccc3[nH]6)C=C5)C=C4)cc2)CCC1)C(C)C
REMARK SMILES IDX 14 1 13 2 11 3 12 4 10 6 9 7 86 8 88 9 87 10 8 11 6 12 7 13
REMARK SMILES IDX 5 15 4 16 1 17 2 18 3 19 89 21 90 22 91 23 15 24 16 25 17 26
REMARK SMILES IDX 18 27 19 29 20 30 21 31 85 32 22 33 84 34 23 35 24 36 25 37
REMARK SMILES IDX 78 38 26 39 83 40 77 41 79 42 27 43 82 44 76 45 75 46 28 48
REMARK SMILES IDX 62 49 41 50 61 51 42 52 45 53 60 54 80 55 43 56 44 57 59 59
REMARK SMILES IDX 81 60 46 61 29 62 30 63 39 64 31 65 32 66 38 67 40 68 33 69
REMARK SMILES IDX 34 70 35 71 36 72 37 73 63 74 64 75 73 76 65 77 66 78 72 79
REMARK SMILES IDX 74 80 67 81 68 82 69 83 70 84 71 85 47 86 48 87 57 88 49 89
REMARK SMILES IDX 50 90 56 91 58 92 51 93 52 94 53 95 54 96 55 97
REMARK H PARENT 13 5 8 14 4 20 17 28 79 47 45 58
REMARK Flexibility Score: inf
ROOT
ATOM      1  C   UNL A   1      36.836  21.548  25.556  1.00  0.00     0.117 C 
ENDROOT
BRANCH   1   2
ATOM      2  N   UNL A   1      35.939  22.202  26.507  1.00  0.00    -0.356 N 
ATOM      3  C   UNL A   1      34.623  22.576  26.372  1.00  0.00     0.222 C 
ATOM      4  O   UNL A   1      33.945  22.611  27.401  1.00  0.00    -0.275 OA
ATOM      5  H   UNL A   1      36.340  22.407  27.382  1.00  0.00     0.163 HD
BRANCH   3   6
ATOM      6  C   UNL A   1      34.048  23.007  25.022  1.00  0.00     0.128 C 
BRANCH   6   7
ATOM      7  C   UNL A   1      32.532  22.722  24.762  1.00  0.00     0.049 C 
ATOM      8  C   UNL A   1      32.361  21.146  24.600  1.00  0.00     0.029 C 
ATOM      9  C   UNL A   1      31.715  22.708  23.382  1.00  0.00     0.029 C 
ATOM     10  C   UNL A   1      32.378  21.379  23.069  1.00  0.00     0.005 C 
BRANCH   7  11
ATOM     11  N   UNL A   1      31.649  23.330  25.775  1.00  0.00    -0.348 N 
ATOM     12  C   UNL A   1      31.173  24.617  25.874  1.00  0.00     0.243 C 
ATOM     13  O   UNL A   1      30.263  24.768  26.696  1.00  0.00    -0.273 OA
ATOM     14  H   UNL A   1      31.355  22.721  26.491  1.00  0.00     0.164 HD
BRANCH  12  15
ATOM     15  C   UNL A   1      31.873  25.855  25.175  1.00  0.00     0.173 C 
BRANCH  15  16
ATOM     16  N   UNL A   1      31.171  26.502  24.050  1.00  0.00    -0.344 N 
ATOM     17  C   UNL A   1      32.323  26.001  21.885  1.00  0.00     0.114 C 
ATOM     18  C   UNL A   1      31.305  26.705  22.720  1.00  0.00     0.217 C 
ATOM     19  O   UNL A   1      30.535  27.525  22.206  1.00  0.00    -0.275 OA
ATOM     20  H   UNL A   1      30.338  26.916  24.370  1.00  0.00     0.164 HD
ENDBRANCH  15  16
BRANCH  15  21
ATOM     21  C   UNL A   1      32.621  26.855  26.089  1.00  0.00     0.015 C 
ATOM     22  C   UNL A   1      33.660  27.712  25.357  1.00  0.00     0.010 C 
ATOM     23  C   UNL A   1      31.625  27.840  26.724  1.00  0.00     0.010 C 
ENDBRANCH  15  21
ENDBRANCH  12  15
ENDBRANCH   7  11
ENDBRANCH   6   7
ENDBRANCH   3   6
ENDBRANCH   1   2
BRANCH   1  24
ATOM     24  C   UNL A   1      38.318  21.969  25.592  1.00  0.00     0.042 C 
BRANCH  24  25
ATOM     25  C   UNL A   1      38.673  23.276  26.308  1.00  0.00     0.118 C 
BRANCH  25  26
ATOM     26  N   UNL A   1      40.116  23.485  26.280  1.00  0.00    -0.352 N 
ATOM     27  C   UNL A   1      40.928  24.538  26.618  1.00  0.00     0.251 C 
ATOM     28  H   UNL A   1      40.614  22.703  25.948  1.00  0.00     0.163 HD
ATOM     29  O   UNL A   1      42.041  24.565  26.089  1.00  0.00    -0.269 OA
BRANCH  27  30
ATOM     30  C   UNL A   1      40.582  25.611  27.592  1.00  0.00     0.039 A 
ATOM     31  C   UNL A   1      41.453  26.709  27.682  1.00  0.00     0.014 A 
ATOM     32  C   UNL A   1      39.570  25.495  28.547  1.00  0.00     0.014 A 
ATOM     33  C   UNL A   1      41.325  27.661  28.706  1.00  0.00     0.010 A 
ATOM     34  C   UNL A   1      39.408  26.481  29.543  1.00  0.00     0.010 A 
ATOM     35  C   UNL A   1      40.296  27.566  29.654  1.00  0.00    -0.014 A 
BRANCH  35  36
ATOM     36  C   UNL A   1      40.191  28.569  30.766  1.00  0.00     0.031 A 
ATOM     37  C   UNL A   1      41.065  28.466  31.998  1.00  0.00     0.074 A 
ATOM     38  C   UNL A   1      39.318  29.597  30.681  1.00  0.00     0.049 A 
ATOM     39  N   UNL A   1      41.107  29.245  33.053  1.00  0.00    -0.248 NA
ATOM     40  C   UNL A   1      42.004  27.337  32.059  1.00  0.00     0.031 C 
ATOM     41  C   UNL A   1      38.393  29.829  29.571  1.00  0.00     0.029 A 
ATOM     42  N   UNL A   1      39.062  30.639  31.544  1.00  0.00    -0.354 N 
ATOM     43  C   UNL A   1      42.059  28.693  33.906  1.00  0.00     0.074 A 
ATOM     44  C   UNL A   1      42.542  27.490  33.261  1.00  0.00     0.031 C 
ATOM     45  C   UNL A   1      37.687  30.946  29.810  1.00  0.00     0.029 A 
ATOM     46  C   UNL A   1      38.076  31.496  31.107  1.00  0.00     0.049 A 
ATOM     47  H   UNL A   1      39.540  30.761  32.396  1.00  0.00     0.167 HD
ATOM     48  C   UNL A   1      42.507  29.148  35.104  1.00  0.00     0.037 A 
ATOM     49  C   UNL A   1      37.532  32.591  31.679  1.00  0.00     0.037 A 
ATOM     50  C   UNL A   1      42.058  30.362  35.741  1.00  0.00     0.049 A 
ATOM     51  C   UNL A   1      38.036  33.072  33.016  1.00  0.00     0.074 A 
ATOM     52  C   UNL A   1      42.511  30.928  36.922  1.00  0.00     0.029 A 
ATOM     53  N   UNL A   1      41.060  31.195  35.261  1.00  0.00    -0.354 N 
ATOM     54  N   UNL A   1      38.982  32.566  33.770  1.00  0.00    -0.248 NA
ATOM     55  C   UNL A   1      37.404  34.276  33.576  1.00  0.00     0.031 C 
ATOM     56  C   UNL A   1      41.748  32.070  37.186  1.00  0.00     0.029 A 
ATOM     57  C   UNL A   1      40.861  32.250  36.139  1.00  0.00     0.049 A 
ATOM     58  H   UNL A   1      40.563  31.056  34.423  1.00  0.00     0.167 HD
ATOM     59  C   UNL A   1      39.075  33.404  34.878  1.00  0.00     0.074 A 
ATOM     60  C   UNL A   1      38.100  34.457  34.691  1.00  0.00     0.031 C 
ATOM     61  C   UNL A   1      39.896  33.306  35.952  1.00  0.00     0.037 A 
BRANCH  48  62
ATOM     62  C   UNL A   1      43.545  28.329  35.828  1.00  0.00     0.058 A 
ATOM     63  C   UNL A   1      44.920  28.548  35.647  1.00  0.00     0.135 A 
ATOM     64  C   UNL A   1      43.158  27.361  36.770  1.00  0.00     0.135 A 
ATOM     65  F   UNL A   1      45.348  29.455  34.755  1.00  0.00    -0.206 F 
ATOM     66  C   UNL A   1      45.873  27.820  36.353  1.00  0.00     0.059 A 
ATOM     67  C   UNL A   1      44.093  26.641  37.509  1.00  0.00     0.059 A 
ATOM     68  F   UNL A   1      41.857  27.115  36.991  1.00  0.00    -0.206 F 
ATOM     69  C   UNL A   1      45.449  26.869  37.283  1.00  0.00     0.060 A 
BRANCH  69  70
ATOM     70  S   UNL A   1      46.699  25.940  38.198  1.00  0.00     0.124 S 
ATOM     71  O   UNL A   1      47.077  24.922  37.221  1.00  0.00    -0.237 OA
ATOM     72  O   UNL A   1      47.707  26.959  38.470  1.00  0.00    -0.237 OA
ATOM     73  O   UNL A   1      45.974  25.450  39.365  1.00  0.00    -0.744 OA
ENDBRANCH  69  70
ENDBRANCH  48  62
BRANCH  49  74
ATOM     74  C   UNL A   1      36.430  33.319  30.989  1.00  0.00     0.058 A 
ATOM     75  C   UNL A   1      36.679  34.134  29.875  1.00  0.00     0.135 A 
ATOM     76  C   UNL A   1      35.104  33.219  31.440  1.00  0.00     0.135 A 
ATOM     77  F   UNL A   1      37.931  34.276  29.413  1.00  0.00    -0.206 F 
ATOM     78  C   UNL A   1      35.658  34.837  29.242  1.00  0.00     0.059 A 
ATOM     79  C   UNL A   1      34.063  33.888  30.806  1.00  0.00     0.059 A 
ATOM     80  F   UNL A   1      34.809  32.444  32.495  1.00  0.00    -0.206 F 
ATOM     81  C   UNL A   1      34.351  34.704  29.714  1.00  0.00     0.060 A 
BRANCH  81  82
ATOM     82  S   UNL A   1      33.021  35.579  28.859  1.00  0.00     0.124 S 
ATOM     83  O   UNL A   1      33.775  36.523  28.036  1.00  0.00    -0.237 OA
ATOM     84  O   UNL A   1      32.359  34.494  28.136  1.00  0.00    -0.237 OA
ATOM     85  O   UNL A   1      32.249  36.161  29.944  1.00  0.00    -0.744 OA
ENDBRANCH  81  82
ENDBRANCH  49  74
BRANCH  61  86
ATOM     86  C   UNL A   1      39.814  34.383  37.004  1.00  0.00     0.058 A 
ATOM     87  C   UNL A   1      39.031  34.231  38.159  1.00  0.00     0.135 A 
ATOM     88  C   UNL A   1      40.575  35.557  36.881  1.00  0.00     0.135 A 
ATOM     89  F   UNL A   1      38.279  33.133  38.326  1.00  0.00    -0.206 F 
ATOM     90  C   UNL A   1      38.989  35.214  39.145  1.00  0.00     0.059 A 
ATOM     91  C   UNL A   1      40.571  36.540  37.867  1.00  0.00     0.059 A 
ATOM     92  F   UNL A   1      41.350  35.751  35.802  1.00  0.00    -0.206 F 
ATOM     93  C   UNL A   1      39.766  36.364  38.991  1.00  0.00     0.060 A 
BRANCH  93  94
ATOM     94  S   UNL A   1      39.733  37.614  40.296  1.00  0.00     0.124 S 
ATOM     95  O   UNL A   1      41.156  37.867  40.498  1.00  0.00    -0.237 OA
ATOM     96  O   UNL A   1      38.979  38.696  39.672  1.00  0.00    -0.237 OA
ATOM     97  O   UNL A   1      39.052  36.938  41.398  1.00  0.00    -0.744 OA
ENDBRANCH  93  94
ENDBRANCH  61  86
ENDBRANCH  35  36
ENDBRANCH  27  30
ENDBRANCH  25  26
ENDBRANCH  24  25
ENDBRANCH   1  24
TORSDOF 18
ENDMDL
MODEL 2
REMARK VINA RESULT:     -11.1      1.245      2.144
REMARK SMILES CC(=O)N[C@H](C(=O)NC1(CC(=O)NCCCNC(=O)c2ccc(-c3c4nc(c(-c5c(F)cc(S(=O)(=O)[O-])cc5F)c5ccc([nH]5)c(-c5c(F)cc(S(=O)(=O)[O-])cc5F)c5nc(c(-c6c(F)cc(S(=O)(=O)[O-])cc6F)c6ccc3[nH]6)C=C5)C=C4)cc2)CCC1)C(C)C
REMARK SMILES IDX 14 1 13 2 11 3 12 4 10 6 9 7 86 8 88 9 87 10 8 11 6 12 7 13
REMARK SMILES IDX 5 15 4 16 1 17 2 18 3 19 89 21 90 22 91 23 15 24 16 25 17 26
REMARK SMILES IDX 18 27 19 29 20 30 21 31 85 32 22 33 84 34 23 35 24 36 25 37
REMARK SMILES IDX 78 38 26 39 83 40 77 41 79 42 27 43 82 44 76 45 75 46 28 48
REMARK SMILES IDX 62 49 41 50 61 51 42 52 45 53 60 54 80 55 43 56 44 57 59 59
REMARK SMILES IDX 81 60 46 61 29 62 30 63 39 64 31 65 32 66 38 67 40 68 33 69
REMARK SMILES IDX 34 70 35 71 36 72 37 73 63 74 64 75 73 76 65 77 66 78 72 79
REMARK SMILES IDX 74 80 67 81 68 82 69 83 70 84 71 85 47 86 48 87 57 88 49 89
REMARK SMILES IDX 50 90 56 91 58 92 51 93 52 94 53 95 54 96 55 97
REMARK H PARENT 13 5 8 14 4 20 17 28 79 47 45 58
REMARK Flexibility Score: inf
ROOT
ATOM      1  C   UNL A   1      37.083  22.795  25.814  1.00  0.00     0.117 C 
ENDROOT
BRANCH   1   2
ATOM      2  N   UNL A   1      36.801  22.477  24.416  1.00  0.00    -0.356 N 
ATOM      3  C   UNL A   1      35.796  22.920  23.590  1.00  0.00     0.222 C 
ATOM      4  O   UNL A   1      36.041  22.952  22.382  1.00  0.00    -0.275 OA
ATOM      5  H   UNL A   1      37.431  21.844  24.000  1.00  0.00     0.163 HD
BRANCH   3   6
ATOM      6  C   UNL A   1      34.412  23.278  24.133  1.00  0.00     0.128 C 
BRANCH   6   7
ATOM      7  C   UNL A   1      33.170  22.793  23.315  1.00  0.00     0.049 C 
ATOM      8  C   UNL A   1      31.914  22.806  24.295  1.00  0.00     0.029 C 
ATOM      9  C   UNL A   1      32.640  21.304  23.047  1.00  0.00     0.029 C 
ATOM     10  C   UNL A   1      32.140  21.285  24.480  1.00  0.00     0.005 C 
BRANCH   7  11
ATOM     11  N   UNL A   1      32.974  23.549  22.064  1.00  0.00    -0.348 N 
ATOM     12  C   UNL A   1      32.791  24.898  21.867  1.00  0.00     0.243 C 
ATOM     13  O   UNL A   1      32.894  25.266  20.692  1.00  0.00    -0.273 OA
ATOM     14  H   UNL A   1      32.976  23.005  21.243  1.00  0.00     0.164 HD
BRANCH  12  15
ATOM     15  C   UNL A   1      32.261  25.875  22.998  1.00  0.00     0.173 C 
BRANCH  15  16
ATOM     16  N   UNL A   1      33.131  26.993  23.407  1.00  0.00    -0.344 N 
ATOM     17  C   UNL A   1      33.549  26.931  25.874  1.00  0.00     0.114 C 
ATOM     18  C   UNL A   1      33.634  27.565  24.524  1.00  0.00     0.217 C 
ATOM     19  O   UNL A   1      34.176  28.668  24.386  1.00  0.00    -0.275 OA
ATOM     20  H   UNL A   1      33.450  27.478  22.611  1.00  0.00     0.164 HD
ENDBRANCH  15  16
BRANCH  15  21
ATOM     21  C   UNL A   1      30.759  26.243  22.970  1.00  0.00     0.015 C 
ATOM     22  C   UNL A   1      30.025  25.968  24.288  1.00  0.00     0.010 C 
ATOM     23  C   UNL A   1      30.586  27.745  22.689  1.00  0.00     0.010 C 
ENDBRANCH  15  21
ENDBRANCH  12  15
ENDBRANCH   7  11
ENDBRANCH   6   7
ENDBRANCH   3   6
ENDBRANCH   1   2
BRANCH   1  24
ATOM     24  C   UNL A   1      38.360  23.609  26.101  1.00  0.00     0.042 C 
BRANCH  24  25
ATOM     25  C   UNL A   1      39.541  22.882  26.751  1.00  0.00     0.118 C 
BRANCH  25  26
ATOM     26  N   UNL A   1      40.797  23.479  26.314  1.00  0.00    -0.352 N 
ATOM     27  C   UNL A   1      41.317  24.747  26.380  1.00  0.00     0.251 C 
ATOM     28  H   UNL A   1      41.401  22.835  25.877  1.00  0.00     0.163 HD
ATOM     29  O   UNL A   1      42.195  25.024  25.560  1.00  0.00    -0.269 OA
BRANCH  27  30
ATOM     30  C   UNL A   1      40.932  25.782  27.381  1.00  0.00     0.039 A 
ATOM     31  C   UNL A   1      41.762  26.909  27.499  1.00  0.00     0.014 A 
ATOM     32  C   UNL A   1      39.926  25.604  28.333  1.00  0.00     0.014 A 
ATOM     33  C   UNL A   1      41.599  27.829  28.547  1.00  0.00     0.010 A 
ATOM     34  C   UNL A   1      39.729  26.558  29.354  1.00  0.00     0.010 A 
ATOM     35  C   UNL A   1      40.576  27.672  29.492  1.00  0.00    -0.014 A 
BRANCH  35  36
ATOM     36  C   UNL A   1      40.434  28.641  30.629  1.00  0.00     0.031 A 
ATOM     37  C   UNL A   1      41.303  28.531  31.865  1.00  0.00     0.074 A 
ATOM     38  C   UNL A   1      39.533  29.646  30.565  1.00  0.00     0.049 A 
ATOM     39  N   UNL A   1      41.316  29.282  32.941  1.00  0.00    -0.248 NA
ATOM     40  C   UNL A   1      42.274  27.427  31.903  1.00  0.00     0.031 C 
ATOM     41  C   UNL A   1      38.610  29.881  29.454  1.00  0.00     0.029 A 
ATOM     42  N   UNL A   1      39.242  30.658  31.453  1.00  0.00    -0.354 N 
ATOM     43  C   UNL A   1      42.278  28.735  33.786  1.00  0.00     0.074 A 
ATOM     44  C   UNL A   1      42.799  27.564  33.113  1.00  0.00     0.031 C 
ATOM     45  C   UNL A   1      37.871  30.971  29.718  1.00  0.00     0.029 A 
ATOM     46  C   UNL A   1      38.235  31.497  31.032  1.00  0.00     0.049 A 
ATOM     47  H   UNL A   1      39.710  30.770  32.311  1.00  0.00     0.167 HD
ATOM     48  C   UNL A   1      42.704  29.171  34.998  1.00  0.00     0.037 A 
ATOM     49  C   UNL A   1      37.656  32.561  31.627  1.00  0.00     0.037 A 
ATOM     50  C   UNL A   1      42.217  30.354  35.663  1.00  0.00     0.049 A 
ATOM     51  C   UNL A   1      38.138  33.020  32.981  1.00  0.00     0.074 A 
ATOM     52  C   UNL A   1      42.645  30.901  36.863  1.00  0.00     0.029 A 
ATOM     53  N   UNL A   1      41.198  31.171  35.199  1.00  0.00    -0.354 N 
ATOM     54  N   UNL A   1      39.092  32.521  33.728  1.00  0.00    -0.248 NA
ATOM     55  C   UNL A   1      37.467  34.191  33.567  1.00  0.00     0.031 C 
ATOM     56  C   UNL A   1      41.849  32.014  37.151  1.00  0.00     0.029 A 
ATOM     57  C   UNL A   1      40.964  32.197  36.102  1.00  0.00     0.049 A 
ATOM     58  H   UNL A   1      40.712  31.040  34.353  1.00  0.00     0.167 HD
ATOM     59  C   UNL A   1      39.153  33.332  34.859  1.00  0.00     0.074 A 
ATOM     60  C   UNL A   1      38.150  34.361  34.691  1.00  0.00     0.031 C 
ATOM     61  C   UNL A   1      39.970  33.229  35.936  1.00  0.00     0.037 A 
BRANCH  48  62
ATOM     62  C   UNL A   1      43.760  28.362  35.708  1.00  0.00     0.058 A 
ATOM     63  C   UNL A   1      45.130  28.613  35.530  1.00  0.00     0.135 A 
ATOM     64  C   UNL A   1      43.395  27.372  36.635  1.00  0.00     0.135 A 
ATOM     65  F   UNL A   1      45.538  29.544  34.651  1.00  0.00    -0.206 F 
ATOM     66  C   UNL A   1      46.099  27.895  36.223  1.00  0.00     0.059 A 
ATOM     67  C   UNL A   1      44.346  26.660  37.362  1.00  0.00     0.059 A 
ATOM     68  F   UNL A   1      42.099  27.095  36.853  1.00  0.00    -0.206 F 
ATOM     69  C   UNL A   1      45.697  26.920  37.139  1.00  0.00     0.060 A 
BRANCH  69  70
ATOM     70  S   UNL A   1      46.967  26.004  38.037  1.00  0.00     0.124 S 
ATOM     71  O   UNL A   1      46.170  25.327  39.057  1.00  0.00    -0.237 OA
ATOM     72  O   UNL A   1      47.525  25.145  36.998  1.00  0.00    -0.237 OA
ATOM     73  O   UNL A   1      47.859  27.049  38.528  1.00  0.00    -0.744 OA
ENDBRANCH  69  70
ENDBRANCH  48  62
BRANCH  49  74
ATOM     74  C   UNL A   1      36.539  33.276  30.949  1.00  0.00     0.058 A 
ATOM     75  C   UNL A   1      35.209  33.114  31.364  1.00  0.00     0.135 A 
ATOM     76  C   UNL A   1      36.783  34.132  29.862  1.00  0.00     0.135 A 
ATOM     77  F   UNL A   1      34.921  32.296  32.389  1.00  0.00    -0.206 F 
ATOM     78  C   UNL A   1      34.159  33.760  30.719  1.00  0.00     0.059 A 
ATOM     79  C   UNL A   1      35.753  34.811  29.220  1.00  0.00     0.059 A 
ATOM     80  F   UNL A   1      38.038  34.331  29.431  1.00  0.00    -0.206 F 
ATOM     81  C   UNL A   1      34.442  34.610  29.648  1.00  0.00     0.060 A 
BRANCH  81  82
ATOM     82  S   UNL A   1      33.081  35.484  28.845  1.00  0.00     0.124 S 
ATOM     83  O   UNL A   1      33.801  36.488  28.062  1.00  0.00    -0.237 OA
ATOM     84  O   UNL A   1      32.445  34.416  28.075  1.00  0.00    -0.237 OA
ATOM     85  O   UNL A   1      32.301  35.992  29.961  1.00  0.00    -0.744 OA
ENDBRANCH  81  82
ENDBRANCH  49  74
BRANCH  61  86
ATOM     86  C   UNL A   1      39.850  34.275  37.015  1.00  0.00     0.058 A 
ATOM     87  C   UNL A   1      40.420  35.550  36.877  1.00  0.00     0.135 A 
ATOM     88  C   UNL A   1      39.105  34.015  38.177  1.00  0.00     0.135 A 
ATOM     89  F   UNL A   1      41.146  35.852  35.791  1.00  0.00    -0.206 F 
ATOM     90  C   UNL A   1      40.272  36.524  37.862  1.00  0.00     0.059 A 
ATOM     91  C   UNL A   1      38.921  34.983  39.162  1.00  0.00     0.059 A 
ATOM     92  F   UNL A   1      38.530  32.815  38.358  1.00  0.00    -0.206 F 
ATOM     93  C   UNL A   1      39.517  36.231  38.999  1.00  0.00     0.060 A 
BRANCH  93  94
ATOM     94  S   UNL A   1      39.301  37.517  40.251  1.00  0.00     0.124 S 
ATOM     95  O   UNL A   1      38.855  36.736  41.401  1.00  0.00    -0.237 OA
ATOM     96  O   UNL A   1      40.643  38.082  40.353  1.00  0.00    -0.237 OA
ATOM     97  O   UNL A   1      38.298  38.400  39.664  1.00  0.00    -0.744 OA
ENDBRANCH  93  94
ENDBRANCH  61  86
ENDBRANCH  35  36
ENDBRANCH  27  30
ENDBRANCH  25  26
ENDBRANCH  24  25
ENDBRANCH   1  24
TORSDOF 18
ENDMDL
MODEL 3
REMARK VINA RESULT:     -11.0      6.907     11.808
REMARK SMILES CC(=O)N[C@H](C(=O)NC1(CC(=O)NCCCNC(=O)c2ccc(-c3c4nc(c(-c5c(F)cc(S(=O)(=O)[O-])cc5F)c5ccc([nH]5)c(-c5c(F)cc(S(=O)(=O)[O-])cc5F)c5nc(c(-c6c(F)cc(S(=O)(=O)[O-])cc6F)c6ccc3[nH]6)C=C5)C=C4)cc2)CCC1)C(C)C
REMARK SMILES IDX 14 1 13 2 11 3 12 4 10 6 9 7 86 8 88 9 87 10 8 11 6 12 7 13
REMARK SMILES IDX 5 15 4 16 1 17 2 18 3 19 89 21 90 22 91 23 15 24 16 25 17 26
REMARK SMILES IDX 18 27 19 29 20 30 21 31 85 32 22 33 84 34 23 35 24 36 25 37
REMARK SMILES IDX 78 38 26 39 83 40 77 41 79 42 27 43 82 44 76 45 75 46 28 48
REMARK SMILES IDX 62 49 41 50 61 51 42 52 45 53 60 54 80 55 43 56 44 57 59 59
REMARK SMILES IDX 81 60 46 61 29 62 30 63 39 64 31 65 32 66 38 67 40 68 33 69
REMARK SMILES IDX 34 70 35 71 36 72 37 73 63 74 64 75 73 76 65 77 66 78 72 79
REMARK SMILES IDX 74 80 67 81 68 82 69 83 70 84 71 85 47 86 48 87 57 88 49 89
REMARK SMILES IDX 50 90 56 91 58 92 51 93 52 94 53 95 54 96 55 97
REMARK H PARENT 13 5 8 14 4 20 17 28 79 47 45 58
REMARK Flexibility Score: inf
ROOT
ATOM      1  C   UNL A   1      32.707  29.689  26.046  1.00  0.00     0.117 C 
ENDROOT
BRANCH   1   2
ATOM      2  N   UNL A   1      33.591  29.273  24.959  1.00  0.00    -0.356 N 
ATOM      3  C   UNL A   1      33.687  28.068  24.305  1.00  0.00     0.222 C 
ATOM      4  O   UNL A   1      34.090  28.097  23.140  1.00  0.00    -0.275 OA
ATOM      5  H   UNL A   1      34.217  29.965  24.646  1.00  0.00     0.163 HD
BRANCH   3   6
ATOM      6  C   UNL A   1      33.389  26.746  25.014  1.00  0.00     0.128 C 
BRANCH   6   7
ATOM      7  C   UNL A   1      32.281  25.832  24.394  1.00  0.00     0.049 C 
ATOM      8  C   UNL A   1      30.933  26.681  24.339  1.00  0.00     0.029 C 
ATOM      9  C   UNL A   1      31.304  24.780  25.110  1.00  0.00     0.029 C 
ATOM     10  C   UNL A   1      30.519  25.963  25.647  1.00  0.00     0.005 C 
BRANCH   7  11
ATOM     11  N   UNL A   1      32.679  25.237  23.105  1.00  0.00    -0.348 N 
ATOM     12  C   UNL A   1      33.331  24.055  22.841  1.00  0.00     0.243 C 
ATOM     13  O   UNL A   1      33.313  23.709  21.655  1.00  0.00    -0.273 OA
ATOM     14  H   UNL A   1      32.441  25.767  22.310  1.00  0.00     0.164 HD
BRANCH  12  15
ATOM     15  C   UNL A   1      34.232  23.306  23.909  1.00  0.00     0.173 C 
BRANCH  15  16
ATOM     16  N   UNL A   1      34.064  21.847  24.054  1.00  0.00    -0.344 N 
ATOM     17  C   UNL A   1      33.727  21.230  26.456  1.00  0.00     0.114 C 
ATOM     18  C   UNL A   1      33.948  20.904  25.015  1.00  0.00     0.217 C 
ATOM     19  O   UNL A   1      34.042  19.727  24.649  1.00  0.00    -0.275 OA
ATOM     20  H   UNL A   1      34.020  21.426  23.165  1.00  0.00     0.164 HD
ENDBRANCH  15  16
BRANCH  15  21
ATOM     21  C   UNL A   1      35.700  23.772  24.050  1.00  0.00     0.015 C 
ATOM     22  C   UNL A   1      36.187  23.872  25.500  1.00  0.00     0.010 C 
ATOM     23  C   UNL A   1      36.642  22.778  23.350  1.00  0.00     0.010 C 
ENDBRANCH  15  21
ENDBRANCH  12  15
ENDBRANCH   7  11
ENDBRANCH   6   7
ENDBRANCH   3   6
ENDBRANCH   1   2
BRANCH   1  24
ATOM     24  C   UNL A   1      33.374  30.291  27.298  1.00  0.00     0.042 C 
BRANCH  24  25
ATOM     25  C   UNL A   1      34.852  29.973  27.543  1.00  0.00     0.118 C 
BRANCH  25  26
ATOM     26  N   UNL A   1      35.292  30.578  28.794  1.00  0.00    -0.352 N 
ATOM     27  C   UNL A   1      36.377  30.383  29.612  1.00  0.00     0.251 C 
ATOM     28  H   UNL A   1      34.681  31.277  29.123  1.00  0.00     0.163 HD
ATOM     29  O   UNL A   1      36.249  30.735  30.787  1.00  0.00    -0.269 OA
BRANCH  27  30
ATOM     30  C   UNL A   1      37.688  29.823  29.180  1.00  0.00     0.039 A 
ATOM     31  C   UNL A   1      38.619  29.506  30.183  1.00  0.00     0.014 A 
ATOM     32  C   UNL A   1      38.115  29.783  27.851  1.00  0.00     0.014 A 
ATOM     33  C   UNL A   1      39.946  29.171  29.869  1.00  0.00     0.010 A 
ATOM     34  C   UNL A   1      39.434  29.393  27.533  1.00  0.00     0.010 A 
ATOM     35  C   UNL A   1      40.376  29.105  28.536  1.00  0.00    -0.014 A 
BRANCH  35  36
ATOM     36  C   UNL A   1      41.806  28.781  28.213  1.00  0.00     0.031 A 
ATOM     37  C   UNL A   1      42.224  27.376  27.835  1.00  0.00     0.074 A 
ATOM     38  C   UNL A   1      42.750  29.747  28.240  1.00  0.00     0.049 A 
ATOM     39  N   UNL A   1      43.414  26.919  27.524  1.00  0.00    -0.248 NA
ATOM     40  C   UNL A   1      41.173  26.348  27.815  1.00  0.00     0.031 C 
ATOM     41  C   UNL A   1      42.516  31.146  28.600  1.00  0.00     0.029 A 
ATOM     42  N   UNL A   1      44.098  29.702  27.960  1.00  0.00    -0.354 N 
ATOM     43  C   UNL A   1      43.258  25.555  27.290  1.00  0.00     0.074 A 
ATOM     44  C   UNL A   1      41.864  25.252  27.533  1.00  0.00     0.031 C 
ATOM     45  C   UNL A   1      43.670  31.826  28.504  1.00  0.00     0.029 A 
ATOM     46  C   UNL A   1      44.740  30.911  28.112  1.00  0.00     0.049 A 
ATOM     47  H   UNL A   1      44.561  28.881  27.679  1.00  0.00     0.167 HD
ATOM     48  C   UNL A   1      44.179  24.641  26.892  1.00  0.00     0.037 A 
ATOM     49  C   UNL A   1      46.037  31.253  27.968  1.00  0.00     0.037 A 
ATOM     50  C   UNL A   1      45.563  24.937  26.614  1.00  0.00     0.049 A 
ATOM     51  C   UNL A   1      47.046  30.218  27.537  1.00  0.00     0.074 A 
ATOM     52  C   UNL A   1      46.545  24.080  26.142  1.00  0.00     0.029 A 
ATOM     53  N   UNL A   1      46.166  26.173  26.782  1.00  0.00    -0.354 N 
ATOM     54  N   UNL A   1      46.858  28.951  27.261  1.00  0.00    -0.248 NA
ATOM     55  C   UNL A   1      48.440  30.663  27.392  1.00  0.00     0.031 C 
ATOM     56  C   UNL A   1      47.752  24.783  26.079  1.00  0.00     0.029 A 
ATOM     57  C   UNL A   1      47.511  26.093  26.454  1.00  0.00     0.049 A 
ATOM     58  H   UNL A   1      45.707  26.988  27.091  1.00  0.00     0.167 HD
ATOM     59  C   UNL A   1      48.104  28.454  26.885  1.00  0.00     0.074 A 
ATOM     60  C   UNL A   1      49.034  29.560  26.955  1.00  0.00     0.031 C 
ATOM     61  C   UNL A   1      48.441  27.195  26.515  1.00  0.00     0.037 A 
BRANCH  48  62
ATOM     62  C   UNL A   1      43.731  23.210  26.731  1.00  0.00     0.058 A 
ATOM     63  C   UNL A   1      43.396  22.410  27.835  1.00  0.00     0.135 A 
ATOM     64  C   UNL A   1      43.564  22.657  25.451  1.00  0.00     0.135 A 
ATOM     65  F   UNL A   1      43.543  22.884  29.083  1.00  0.00    -0.206 F 
ATOM     66  C   UNL A   1      42.940  21.105  27.678  1.00  0.00     0.059 A 
ATOM     67  C   UNL A   1      43.081  21.364  25.268  1.00  0.00     0.059 A 
ATOM     68  F   UNL A   1      43.860  23.379  24.358  1.00  0.00    -0.206 F 
ATOM     69  C   UNL A   1      42.784  20.591  26.389  1.00  0.00     0.060 A 
BRANCH  69  70
ATOM     70  S   UNL A   1      42.180  18.899  26.202  1.00  0.00     0.124 S 
ATOM     71  O   UNL A   1      43.116  18.365  25.216  1.00  0.00    -0.237 OA
ATOM     72  O   UNL A   1      42.315  18.369  27.555  1.00  0.00    -0.237 OA
ATOM     73  O   UNL A   1      40.809  19.076  25.735  1.00  0.00    -0.744 OA
ENDBRANCH  69  70
ENDBRANCH  48  62
BRANCH  49  74
ATOM     74  C   UNL A   1      46.472  32.653  28.240  1.00  0.00     0.058 A 
ATOM     75  C   UNL A   1      46.931  33.041  29.506  1.00  0.00     0.135 A 
ATOM     76  C   UNL A   1      46.426  33.632  27.234  1.00  0.00     0.135 A 
ATOM     77  F   UNL A   1      46.981  32.147  30.506  1.00  0.00    -0.206 F 
ATOM     78  C   UNL A   1      47.315  34.352  29.773  1.00  0.00     0.059 A 
ATOM     79  C   UNL A   1      46.832  34.941  27.468  1.00  0.00     0.059 A 
ATOM     80  F   UNL A   1      46.005  33.311  26.001  1.00  0.00    -0.206 F 
ATOM     81  C   UNL A   1      47.264  35.295  28.745  1.00  0.00     0.060 A 
BRANCH  81  82
ATOM     82  S   UNL A   1      47.809  36.984  29.082  1.00  0.00     0.124 S 
ATOM     83  O   UNL A   1      48.087  36.921  30.516  1.00  0.00    -0.237 OA
ATOM     84  O   UNL A   1      48.980  37.106  28.213  1.00  0.00    -0.237 OA
ATOM     85  O   UNL A   1      46.664  37.791  28.695  1.00  0.00    -0.744 OA
ENDBRANCH  81  82
ENDBRANCH  49  74
BRANCH  61  86
ATOM     86  C   UNL A   1      49.871  26.935  26.117  1.00  0.00     0.058 A 
ATOM     87  C   UNL A   1      50.828  26.488  27.042  1.00  0.00     0.135 A 
ATOM     88  C   UNL A   1      50.275  27.080  24.780  1.00  0.00     0.135 A 
ATOM     89  F   UNL A   1      50.499  26.337  28.334  1.00  0.00    -0.206 F 
ATOM     90  C   UNL A   1      52.138  26.213  26.659  1.00  0.00     0.059 A 
ATOM     91  C   UNL A   1      51.573  26.785  24.369  1.00  0.00     0.059 A 
ATOM     92  F   UNL A   1      49.400  27.496  23.850  1.00  0.00    -0.206 F 
ATOM     93  C   UNL A   1      52.500  26.361  25.319  1.00  0.00     0.060 A 
BRANCH  93  94
ATOM     94  S   UNL A   1      54.194  25.965  24.829  1.00  0.00     0.124 S 
ATOM     95  O   UNL A   1      54.226  24.519  25.023  1.00  0.00    -0.237 OA
ATOM     96  O   UNL A   1      54.232  26.420  23.443  1.00  0.00    -0.237 OA
ATOM     97  O   UNL A   1      55.008  26.742  25.760  1.00  0.00    -0.744 OA
ENDBRANCH  93  94
ENDBRANCH  61  86
ENDBRANCH  35  36
ENDBRANCH  27  30
ENDBRANCH  25  26
ENDBRANCH  24  25
ENDBRANCH   1  24
TORSDOF 18
ENDMDL
