MODEL 1
REMARK VINA RESULT:     -10.9      0.000      0.000
REMARK SMILES CC[NH+](CC)CC[N@H+]1CC[C@@H](C(=O)NCCCNC(=O)c2ccc(-c3c4nc(c(-c5c(F)cc(S(=O)(=O)[O-])cc5F)c5ccc([nH]5)c(-c5c(F)cc(S(=O)(=O)[O-])cc5F)c5nc(c(-c6c(F)cc(S(=O)(=O)[O-])cc6F)c6ccc3[nH]6)C=C5)C=C4)cc2)[C@@H]1C
REMARK SMILES IDX 15 1 14 2 12 3 13 4 11 6 8 7 9 8 87 9 10 11 88 12 7 13 6 14
REMARK SMILES IDX 3 15 2 17 1 18 4 19 5 20 16 21 17 22 18 23 19 24 20 26 21 27
REMARK SMILES IDX 22 28 86 29 23 30 85 31 24 32 25 33 26 34 79 35 27 36 84 37
REMARK SMILES IDX 78 38 80 39 28 40 83 41 77 42 76 43 29 45 63 46 42 47 62 48
REMARK SMILES IDX 43 49 46 50 61 51 81 52 44 53 45 54 60 56 82 57 47 58 30 59
REMARK SMILES IDX 31 60 40 61 32 62 33 63 39 64 41 65 34 66 35 67 36 68 37 69
REMARK SMILES IDX 38 70 64 71 65 72 74 73 66 74 67 75 73 76 75 77 68 78 69 79
REMARK SMILES IDX 70 80 71 81 72 82 48 83 49 84 58 85 50 86 51 87 57 88 59 89
REMARK SMILES IDX 52 90 53 91 54 92 55 93 56 94
REMARK H PARENT 14 5 8 10 3 16 18 25 80 44 46 55
REMARK Flexibility Score: inf
ROOT
ATOM      1  C   UNL A   1      38.448  22.884  26.296  1.00  0.00     0.117 C 
ENDROOT
BRANCH   1   2
ATOM      2  N   UNL A   1      37.981  22.720  24.934  1.00  0.00    -0.356 N 
ATOM      3  C   UNL A   1      36.730  22.698  24.404  1.00  0.00     0.229 C 
ATOM      4  O   UNL A   1      36.652  22.574  23.176  1.00  0.00    -0.275 OA
ATOM      5  H   UNL A   1      38.700  22.602  24.273  1.00  0.00     0.163 HD
BRANCH   3   6
ATOM      6  C   UNL A   1      35.454  22.764  25.232  1.00  0.00     0.142 C 
ATOM      7  N   UNL A   1      33.169  22.007  24.865  1.00  0.00    -0.327 N 
ATOM      8  C   UNL A   1      33.631  21.549  26.186  1.00  0.00     0.263 C 
ATOM      9  C   UNL A   1      34.200  22.954  24.371  1.00  0.00     0.193 C 
ATOM     10  H   UNL A   1      32.265  22.474  24.936  1.00  0.00     0.348 HD
ATOM     11  C   UNL A   1      35.152  21.620  26.181  1.00  0.00     0.081 C 
ATOM     12  C   UNL A   1      33.692  24.396  24.519  1.00  0.00     0.076 C 
BRANCH   7  13
ATOM     13  C   UNL A   1      32.913  20.887  23.938  1.00  0.00     0.324 C 
BRANCH  13  14
ATOM     14  C   UNL A   1      32.303  19.585  24.531  1.00  0.00     0.324 C 
BRANCH  14  15
ATOM     15  N   UNL A   1      33.012  18.303  24.463  1.00  0.00    -0.331 N 
ATOM     16  H   UNL A   1      33.943  18.607  24.749  1.00  0.00     0.348 HD
BRANCH  15  17
ATOM     17  C   UNL A   1      32.665  17.308  25.472  1.00  0.00     0.258 C 
ATOM     18  C   UNL A   1      33.553  16.067  25.451  1.00  0.00     0.071 C 
ENDBRANCH  15  17
BRANCH  15  19
ATOM     19  C   UNL A   1      33.230  17.748  23.124  1.00  0.00     0.258 C 
ATOM     20  C   UNL A   1      32.184  18.023  22.050  1.00  0.00     0.071 C 
ENDBRANCH  15  19
ENDBRANCH  14  15
ENDBRANCH  13  14
ENDBRANCH   7  13
ENDBRANCH   3   6
ENDBRANCH   1   2
BRANCH   1  21
ATOM     21  C   UNL A   1      39.764  22.169  26.567  1.00  0.00     0.042 C 
BRANCH  21  22
ATOM     22  C   UNL A   1      40.873  23.057  27.111  1.00  0.00     0.118 C 
BRANCH  22  23
ATOM     23  N   UNL A   1      41.408  23.955  26.100  1.00  0.00    -0.352 N 
ATOM     24  C   UNL A   1      41.498  25.323  26.054  1.00  0.00     0.251 C 
ATOM     25  H   UNL A   1      41.769  23.500  25.306  1.00  0.00     0.163 HD
ATOM     26  O   UNL A   1      41.794  25.847  24.982  1.00  0.00    -0.269 OA
BRANCH  24  27
ATOM     27  C   UNL A   1      41.244  26.174  27.243  1.00  0.00     0.039 A 
ATOM     28  C   UNL A   1      42.116  27.240  27.492  1.00  0.00     0.014 A 
ATOM     29  C   UNL A   1      40.220  25.905  28.155  1.00  0.00     0.014 A 
ATOM     30  C   UNL A   1      41.935  28.047  28.618  1.00  0.00     0.010 A 
ATOM     31  C   UNL A   1      39.980  26.769  29.223  1.00  0.00     0.010 A 
ATOM     32  C   UNL A   1      40.846  27.839  29.479  1.00  0.00    -0.014 A 
BRANCH  32  33
ATOM     33  C   UNL A   1      40.621  28.734  30.646  1.00  0.00     0.031 A 
ATOM     34  C   UNL A   1      41.472  28.620  31.885  1.00  0.00     0.074 A 
ATOM     35  C   UNL A   1      39.626  29.642  30.596  1.00  0.00     0.049 A 
ATOM     36  N   UNL A   1      41.448  29.348  32.973  1.00  0.00    -0.248 NA
ATOM     37  C   UNL A   1      42.463  27.532  31.919  1.00  0.00     0.031 C 
ATOM     38  C   UNL A   1      38.688  29.806  29.482  1.00  0.00     0.029 A 
ATOM     39  N   UNL A   1      39.244  30.605  31.495  1.00  0.00    -0.354 N 
ATOM     40  C   UNL A   1      42.402  28.797  33.823  1.00  0.00     0.074 A 
ATOM     41  C   UNL A   1      42.950  27.642  33.145  1.00  0.00     0.031 C 
ATOM     42  C   UNL A   1      37.874  30.841  29.742  1.00  0.00     0.029 A 
ATOM     43  C   UNL A   1      38.210  31.395  31.048  1.00  0.00     0.049 A 
ATOM     44  H   UNL A   1      39.668  30.719  32.376  1.00  0.00     0.167 HD
ATOM     45  C   UNL A   1      42.802  29.228  35.044  1.00  0.00     0.037 A 
ATOM     46  C   UNL A   1      37.612  32.458  31.619  1.00  0.00     0.037 A 
ATOM     47  C   UNL A   1      42.274  30.397  35.700  1.00  0.00     0.049 A 
ATOM     48  C   UNL A   1      38.099  32.940  32.958  1.00  0.00     0.074 A 
ATOM     49  C   UNL A   1      42.667  30.965  36.900  1.00  0.00     0.029 A 
ATOM     50  N   UNL A   1      41.233  31.176  35.213  1.00  0.00    -0.354 N 
ATOM     51  N   UNL A   1      39.061  32.459  33.708  1.00  0.00    -0.248 NA
ATOM     52  C   UNL A   1      37.426  34.119  33.518  1.00  0.00     0.031 C 
ATOM     53  C   UNL A   1      41.836  32.061  37.159  1.00  0.00     0.029 A 
ATOM     54  C   UNL A   1      40.956  32.205  36.098  1.00  0.00     0.049 A 
ATOM     55  H   UNL A   1      40.762  31.021  34.363  1.00  0.00     0.167 HD
ATOM     56  C   UNL A   1      39.124  33.288  34.822  1.00  0.00     0.074 A 
ATOM     57  C   UNL A   1      38.116  34.314  34.633  1.00  0.00     0.031 C 
ATOM     58  C   UNL A   1      39.939  33.210  35.903  1.00  0.00     0.037 A 
BRANCH  45  59
ATOM     59  C   UNL A   1      43.863  28.427  35.752  1.00  0.00     0.058 A 
ATOM     60  C   UNL A   1      43.539  27.395  36.647  1.00  0.00     0.135 A 
ATOM     61  C   UNL A   1      45.225  28.681  35.516  1.00  0.00     0.135 A 
ATOM     62  F   UNL A   1      42.255  27.116  36.922  1.00  0.00    -0.206 F 
ATOM     63  C   UNL A   1      44.524  26.671  37.313  1.00  0.00     0.059 A 
ATOM     64  C   UNL A   1      46.226  27.950  36.149  1.00  0.00     0.059 A 
ATOM     65  F   UNL A   1      45.594  29.654  34.668  1.00  0.00    -0.206 F 
ATOM     66  C   UNL A   1      45.866  26.960  37.061  1.00  0.00     0.060 A 
BRANCH  66  67
ATOM     67  S   UNL A   1      47.131  26.019  37.941  1.00  0.00     0.124 S 
ATOM     68  O   UNL A   1      46.319  25.045  38.662  1.00  0.00    -0.237 OA
ATOM     69  O   UNL A   1      47.942  25.487  36.852  1.00  0.00    -0.237 OA
ATOM     70  O   UNL A   1      47.786  27.027  38.771  1.00  0.00    -0.744 OA
ENDBRANCH  66  67
ENDBRANCH  45  59
BRANCH  46  71
ATOM     71  C   UNL A   1      36.526  33.172  30.898  1.00  0.00     0.058 A 
ATOM     72  C   UNL A   1      35.195  33.078  31.332  1.00  0.00     0.135 A 
ATOM     73  C   UNL A   1      36.796  33.981  29.783  1.00  0.00     0.135 A 
ATOM     74  F   UNL A   1      34.887  32.313  32.389  1.00  0.00    -0.206 F 
ATOM     75  C   UNL A   1      34.166  33.748  30.678  1.00  0.00     0.059 A 
ATOM     76  C   UNL A   1      35.788  34.681  29.128  1.00  0.00     0.059 A 
ATOM     77  F   UNL A   1      38.055  34.118  29.342  1.00  0.00    -0.206 F 
ATOM     78  C   UNL A   1      34.474  34.551  29.579  1.00  0.00     0.060 A 
BRANCH  78  79
ATOM     79  S   UNL A   1      33.139  35.465  28.775  1.00  0.00     0.124 S 
ATOM     80  O   UNL A   1      33.884  36.447  27.996  1.00  0.00    -0.237 OA
ATOM     81  O   UNL A   1      32.468  34.419  28.012  1.00  0.00    -0.237 OA
ATOM     82  O   UNL A   1      32.376  35.998  29.900  1.00  0.00    -0.744 OA
ENDBRANCH  78  79
ENDBRANCH  46  71
BRANCH  58  83
ATOM     83  C   UNL A   1      39.781  34.277  36.952  1.00  0.00     0.058 A 
ATOM     84  C   UNL A   1      40.400  35.530  36.828  1.00  0.00     0.135 A 
ATOM     85  C   UNL A   1      39.006  34.039  38.099  1.00  0.00     0.135 A 
ATOM     86  F   UNL A   1      41.155  35.808  35.752  1.00  0.00    -0.206 F 
ATOM     87  C   UNL A   1      40.299  36.493  37.826  1.00  0.00     0.059 A 
ATOM     88  C   UNL A   1      38.868  34.998  39.097  1.00  0.00     0.059 A 
ATOM     89  F   UNL A   1      38.380  32.863  38.261  1.00  0.00    -0.206 F 
ATOM     90  C   UNL A   1      39.538  36.213  38.962  1.00  0.00     0.060 A 
BRANCH  90  91
ATOM     91  S   UNL A   1      39.429  37.460  40.264  1.00  0.00     0.124 S 
ATOM     92  O   UNL A   1      38.498  38.417  39.673  1.00  0.00    -0.237 OA
ATOM     93  O   UNL A   1      38.916  36.692  41.394  1.00  0.00    -0.237 OA
ATOM     94  O   UNL A   1      40.805  37.925  40.404  1.00  0.00    -0.744 OA
ENDBRANCH  90  91
ENDBRANCH  58  83
ENDBRANCH  32  33
ENDBRANCH  24  27
ENDBRANCH  22  23
ENDBRANCH  21  22
ENDBRANCH   1  21
TORSDOF 18
ENDMDL
MODEL 2
REMARK VINA RESULT:     -10.8      1.096      2.535
REMARK SMILES CC[NH+](CC)CC[N@H+]1CC[C@@H](C(=O)NCCCNC(=O)c2ccc(-c3c4nc(c(-c5c(F)cc(S(=O)(=O)[O-])cc5F)c5ccc([nH]5)c(-c5c(F)cc(S(=O)(=O)[O-])cc5F)c5nc(c(-c6c(F)cc(S(=O)(=O)[O-])cc6F)c6ccc3[nH]6)C=C5)C=C4)cc2)[C@@H]1C
REMARK SMILES IDX 15 1 14 2 12 3 13 4 11 6 8 7 9 8 87 9 10 11 88 12 7 13 6 14
REMARK SMILES IDX 3 15 2 17 1 18 4 19 5 20 16 21 17 22 18 23 19 24 20 26 21 27
REMARK SMILES IDX 22 28 86 29 23 30 85 31 24 32 25 33 26 34 79 35 27 36 84 37
REMARK SMILES IDX 78 38 80 39 28 40 83 41 77 42 76 43 29 45 63 46 42 47 62 48
REMARK SMILES IDX 43 49 46 50 61 51 81 52 44 53 45 54 60 56 82 57 47 58 30 59
REMARK SMILES IDX 31 60 40 61 32 62 33 63 39 64 41 65 34 66 35 67 36 68 37 69
REMARK SMILES IDX 38 70 64 71 65 72 74 73 66 74 67 75 73 76 75 77 68 78 69 79
REMARK SMILES IDX 70 80 71 81 72 82 48 83 49 84 58 85 50 86 51 87 57 88 59 89
REMARK SMILES IDX 52 90 53 91 54 92 55 93 56 94
REMARK H PARENT 14 5 8 10 3 16 18 25 80 44 46 55
REMARK Flexibility Score: inf
ROOT
ATOM      1  C   UNL A   1      37.761  22.309  25.387  1.00  0.00     0.117 C 
ENDROOT
BRANCH   1   2
ATOM      2  N   UNL A   1      36.594  22.198  26.238  1.00  0.00    -0.356 N 
ATOM      3  C   UNL A   1      35.292  21.930  25.956  1.00  0.00     0.229 C 
ATOM      4  O   UNL A   1      34.519  21.865  26.920  1.00  0.00    -0.275 OA
ATOM      5  H   UNL A   1      36.777  22.343  27.194  1.00  0.00     0.163 HD
BRANCH   3   6
ATOM      6  C   UNL A   1      34.745  21.763  24.545  1.00  0.00     0.142 C 
ATOM      7  N   UNL A   1      32.589  22.228  23.511  1.00  0.00    -0.327 N 
ATOM      8  C   UNL A   1      33.663  22.811  22.690  1.00  0.00     0.263 C 
ATOM      9  C   UNL A   1      33.260  21.381  24.529  1.00  0.00     0.193 C 
ATOM     10  H   UNL A   1      31.958  21.663  22.942  1.00  0.00     0.348 HD
ATOM     11  C   UNL A   1      34.900  22.916  23.572  1.00  0.00     0.081 C 
ATOM     12  C   UNL A   1      33.118  19.900  24.146  1.00  0.00     0.076 C 
BRANCH   7  13
ATOM     13  C   UNL A   1      31.707  23.257  24.097  1.00  0.00     0.324 C 
BRANCH  13  14
ATOM     14  C   UNL A   1      31.797  23.496  25.630  1.00  0.00     0.324 C 
BRANCH  14  15
ATOM     15  N   UNL A   1      32.189  24.795  26.185  1.00  0.00    -0.331 N 
ATOM     16  H   UNL A   1      32.114  24.587  27.181  1.00  0.00     0.348 HD
BRANCH  15  17
ATOM     17  C   UNL A   1      33.588  25.179  26.031  1.00  0.00     0.258 C 
ATOM     18  C   UNL A   1      33.791  26.510  25.313  1.00  0.00     0.071 C 
ENDBRANCH  15  17
BRANCH  15  19
ATOM     19  C   UNL A   1      31.241  25.898  25.995  1.00  0.00     0.258 C 
ATOM     20  C   UNL A   1      29.751  25.579  26.012  1.00  0.00     0.071 C 
ENDBRANCH  15  19
ENDBRANCH  14  15
ENDBRANCH  13  14
ENDBRANCH   7  13
ENDBRANCH   3   6
ENDBRANCH   1   2
BRANCH   1  21
ATOM     21  C   UNL A   1      39.065  22.033  26.122  1.00  0.00     0.042 C 
BRANCH  21  22
ATOM     22  C   UNL A   1      39.657  23.234  26.844  1.00  0.00     0.118 C 
BRANCH  22  23
ATOM     23  N   UNL A   1      40.610  23.960  26.020  1.00  0.00    -0.352 N 
ATOM     24  C   UNL A   1      41.096  25.240  26.103  1.00  0.00     0.251 C 
ATOM     25  H   UNL A   1      40.971  23.440  25.266  1.00  0.00     0.163 HD
ATOM     26  O   UNL A   1      41.729  25.682  25.145  1.00  0.00    -0.269 OA
BRANCH  24  27
ATOM     27  C   UNL A   1      40.875  26.095  27.296  1.00  0.00     0.039 A 
ATOM     28  C   UNL A   1      41.738  27.177  27.502  1.00  0.00     0.014 A 
ATOM     29  C   UNL A   1      39.893  25.815  28.249  1.00  0.00     0.014 A 
ATOM     30  C   UNL A   1      41.588  27.990  28.629  1.00  0.00     0.010 A 
ATOM     31  C   UNL A   1      39.680  26.683  29.320  1.00  0.00     0.010 A 
ATOM     32  C   UNL A   1      40.538  27.769  29.535  1.00  0.00    -0.014 A 
BRANCH  32  33
ATOM     33  C   UNL A   1      40.344  28.669  30.703  1.00  0.00     0.031 A 
ATOM     34  C   UNL A   1      41.201  28.532  31.936  1.00  0.00     0.074 A 
ATOM     35  C   UNL A   1      39.372  29.601  30.662  1.00  0.00     0.049 A 
ATOM     36  N   UNL A   1      41.203  29.259  33.025  1.00  0.00    -0.248 NA
ATOM     37  C   UNL A   1      42.164  27.419  31.962  1.00  0.00     0.031 C 
ATOM     38  C   UNL A   1      38.430  29.789  29.555  1.00  0.00     0.029 A 
ATOM     39  N   UNL A   1      39.020  30.573  31.564  1.00  0.00    -0.354 N 
ATOM     40  C   UNL A   1      42.149  28.684  33.867  1.00  0.00     0.074 A 
ATOM     41  C   UNL A   1      42.663  27.516  33.185  1.00  0.00     0.031 C 
ATOM     42  C   UNL A   1      37.644  30.844  29.821  1.00  0.00     0.029 A 
ATOM     43  C   UNL A   1      38.004  31.389  31.125  1.00  0.00     0.049 A 
ATOM     44  H   UNL A   1      39.454  30.676  32.442  1.00  0.00     0.167 HD
ATOM     45  C   UNL A   1      42.568  29.103  35.086  1.00  0.00     0.037 A 
ATOM     46  C   UNL A   1      37.437  32.467  31.701  1.00  0.00     0.037 A 
ATOM     47  C   UNL A   1      42.075  30.285  35.747  1.00  0.00     0.049 A 
ATOM     48  C   UNL A   1      37.946  32.935  33.036  1.00  0.00     0.074 A 
ATOM     49  C   UNL A   1      42.491  30.842  36.944  1.00  0.00     0.029 A 
ATOM     50  N   UNL A   1      41.051  31.091  35.268  1.00  0.00    -0.354 N 
ATOM     51  N   UNL A   1      38.900  32.429  33.779  1.00  0.00    -0.248 NA
ATOM     52  C   UNL A   1      37.307  34.130  33.603  1.00  0.00     0.031 C 
ATOM     53  C   UNL A   1      41.690  31.959  37.209  1.00  0.00     0.029 A 
ATOM     54  C   UNL A   1      40.806  32.126  36.155  1.00  0.00     0.049 A 
ATOM     55  H   UNL A   1      40.570  30.948  34.420  1.00  0.00     0.167 HD
ATOM     56  C   UNL A   1      38.993  33.255  34.893  1.00  0.00     0.074 A 
ATOM     57  C   UNL A   1      38.010  34.307  34.712  1.00  0.00     0.031 C 
ATOM     58  C   UNL A   1      39.814  33.156  35.968  1.00  0.00     0.037 A 
BRANCH  45  59
ATOM     59  C   UNL A   1      43.614  28.275  35.785  1.00  0.00     0.058 A 
ATOM     60  C   UNL A   1      44.987  28.520  35.619  1.00  0.00     0.135 A 
ATOM     61  C   UNL A   1      43.239  27.234  36.650  1.00  0.00     0.135 A 
ATOM     62  F   UNL A   1      45.405  29.494  34.793  1.00  0.00    -0.206 F 
ATOM     63  C   UNL A   1      45.949  27.740  36.252  1.00  0.00     0.059 A 
ATOM     64  C   UNL A   1      44.184  26.459  37.317  1.00  0.00     0.059 A 
ATOM     65  F   UNL A   1      41.941  26.955  36.850  1.00  0.00    -0.206 F 
ATOM     66  C   UNL A   1      45.538  26.707  37.096  1.00  0.00     0.060 A 
BRANCH  66  67
ATOM     67  S   UNL A   1      46.798  25.696  37.902  1.00  0.00     0.124 S 
ATOM     68  O   UNL A   1      46.742  26.200  39.270  1.00  0.00    -0.237 OA
ATOM     69  O   UNL A   1      46.291  24.343  37.704  1.00  0.00    -0.237 OA
ATOM     70  O   UNL A   1      48.015  26.021  37.163  1.00  0.00    -0.744 OA
ENDBRANCH  66  67
ENDBRANCH  45  59
BRANCH  46  71
ATOM     71  C   UNL A   1      36.364  33.208  30.988  1.00  0.00     0.058 A 
ATOM     72  C   UNL A   1      35.041  33.182  31.456  1.00  0.00     0.135 A 
ATOM     73  C   UNL A   1      36.639  33.977  29.847  1.00  0.00     0.135 A 
ATOM     74  F   UNL A   1      34.729  32.458  32.541  1.00  0.00    -0.206 F 
ATOM     75  C   UNL A   1      34.026  33.879  30.811  1.00  0.00     0.059 A 
ATOM     76  C   UNL A   1      35.646  34.703  29.199  1.00  0.00     0.059 A 
ATOM     77  F   UNL A   1      37.892  34.049  29.372  1.00  0.00    -0.206 F 
ATOM     78  C   UNL A   1      34.340  34.641  29.684  1.00  0.00     0.060 A 
BRANCH  78  79
ATOM     79  S   UNL A   1      33.024  35.591  28.890  1.00  0.00     0.124 S 
ATOM     80  O   UNL A   1      33.782  36.656  28.244  1.00  0.00    -0.237 OA
ATOM     81  O   UNL A   1      32.426  34.602  28.001  1.00  0.00    -0.237 OA
ATOM     82  O   UNL A   1      32.186  36.002  30.012  1.00  0.00    -0.744 OA
ENDBRANCH  78  79
ENDBRANCH  46  71
BRANCH  58  83
ATOM     83  C   UNL A   1      39.690  34.226  37.019  1.00  0.00     0.058 A 
ATOM     84  C   UNL A   1      40.270  35.493  36.853  1.00  0.00     0.135 A 
ATOM     85  C   UNL A   1      38.989  33.977  38.210  1.00  0.00     0.135 A 
ATOM     86  F   UNL A   1      40.954  35.781  35.733  1.00  0.00    -0.206 F 
ATOM     87  C   UNL A   1      40.204  36.460  37.850  1.00  0.00     0.059 A 
ATOM     88  C   UNL A   1      38.885  34.939  39.209  1.00  0.00     0.059 A 
ATOM     89  F   UNL A   1      38.402  32.787  38.414  1.00  0.00    -0.206 F 
ATOM     90  C   UNL A   1      39.516  36.169  39.030  1.00  0.00     0.060 A 
BRANCH  90  91
ATOM     91  S   UNL A   1      39.451  37.421  40.329  1.00  0.00     0.124 S 
ATOM     92  O   UNL A   1      38.498  38.373  39.768  1.00  0.00    -0.237 OA
ATOM     93  O   UNL A   1      38.982  36.657  41.481  1.00  0.00    -0.237 OA
ATOM     94  O   UNL A   1      40.831  37.890  40.416  1.00  0.00    -0.744 OA
ENDBRANCH  90  91
ENDBRANCH  58  83
ENDBRANCH  32  33
ENDBRANCH  24  27
ENDBRANCH  22  23
ENDBRANCH  21  22
ENDBRANCH   1  21
TORSDOF 18
ENDMDL
MODEL 3
REMARK VINA RESULT:     -10.7      1.539      3.043
REMARK SMILES CC[NH+](CC)CC[N@H+]1CC[C@@H](C(=O)NCCCNC(=O)c2ccc(-c3c4nc(c(-c5c(F)cc(S(=O)(=O)[O-])cc5F)c5ccc([nH]5)c(-c5c(F)cc(S(=O)(=O)[O-])cc5F)c5nc(c(-c6c(F)cc(S(=O)(=O)[O-])cc6F)c6ccc3[nH]6)C=C5)C=C4)cc2)[C@@H]1C
REMARK SMILES IDX 15 1 14 2 12 3 13 4 11 6 8 7 9 8 87 9 10 11 88 12 7 13 6 14
REMARK SMILES IDX 3 15 2 17 1 18 4 19 5 20 16 21 17 22 18 23 19 24 20 26 21 27
REMARK SMILES IDX 22 28 86 29 23 30 85 31 24 32 25 33 26 34 79 35 27 36 84 37
REMARK SMILES IDX 78 38 80 39 28 40 83 41 77 42 76 43 29 45 63 46 42 47 62 48
REMARK SMILES IDX 43 49 46 50 61 51 81 52 44 53 45 54 60 56 82 57 47 58 30 59
REMARK SMILES IDX 31 60 40 61 32 62 33 63 39 64 41 65 34 66 35 67 36 68 37 69
REMARK SMILES IDX 38 70 64 71 65 72 74 73 66 74 67 75 73 76 75 77 68 78 69 79
REMARK SMILES IDX 70 80 71 81 72 82 48 83 49 84 58 85 50 86 51 87 57 88 59 89
REMARK SMILES IDX 52 90 53 91 54 92 55 93 56 94
REMARK H PARENT 14 5 8 10 3 16 18 25 80 44 46 55
REMARK Flexibility Score: inf
ROOT
ATOM      1  C   UNL A   1      37.762  23.175  25.881  1.00  0.00     0.117 C 
ENDROOT
BRANCH   1   2
ATOM      2  N   UNL A   1      37.559  23.088  24.448  1.00  0.00    -0.356 N 
ATOM      3  C   UNL A   1      36.428  23.000  23.700  1.00  0.00     0.229 C 
ATOM      4  O   UNL A   1      36.577  22.976  22.473  1.00  0.00    -0.275 OA
ATOM      5  H   UNL A   1      38.390  23.093  23.922  1.00  0.00     0.163 HD
BRANCH   3   6
ATOM      6  C   UNL A   1      35.028  22.879  24.287  1.00  0.00     0.142 C 
ATOM      7  N   UNL A   1      33.162  24.427  24.521  1.00  0.00    -0.327 N 
ATOM      8  C   UNL A   1      32.683  23.168  23.926  1.00  0.00     0.263 C 
ATOM      9  C   UNL A   1      34.556  24.172  24.962  1.00  0.00     0.193 C 
ATOM     10  H   UNL A   1      32.584  24.699  25.316  1.00  0.00     0.348 HD
ATOM     11  C   UNL A   1      33.900  22.439  23.372  1.00  0.00     0.081 C 
ATOM     12  C   UNL A   1      34.592  23.994  26.488  1.00  0.00     0.076 C 
BRANCH   7  13
ATOM     13  C   UNL A   1      33.043  25.570  23.593  1.00  0.00     0.324 C 
BRANCH  13  14
ATOM     14  C   UNL A   1      31.820  26.514  23.766  1.00  0.00     0.324 C 
BRANCH  14  15
ATOM     15  N   UNL A   1      31.663  27.360  24.954  1.00  0.00    -0.331 N 
ATOM     16  H   UNL A   1      30.916  27.974  24.630  1.00  0.00     0.348 HD
BRANCH  15  17
ATOM     17  C   UNL A   1      31.085  26.730  26.136  1.00  0.00     0.258 C 
ATOM     18  C   UNL A   1      29.999  25.704  25.824  1.00  0.00     0.071 C 
ENDBRANCH  15  17
BRANCH  15  19
ATOM     19  C   UNL A   1      32.763  28.285  25.246  1.00  0.00     0.258 C 
ATOM     20  C   UNL A   1      33.743  27.914  26.352  1.00  0.00     0.071 C 
ENDBRANCH  15  19
ENDBRANCH  14  15
ENDBRANCH  13  14
ENDBRANCH   7  13
ENDBRANCH   3   6
ENDBRANCH   1   2
BRANCH   1  21
ATOM     21  C   UNL A   1      38.942  22.345  26.368  1.00  0.00     0.042 C 
BRANCH  21  22
ATOM     22  C   UNL A   1      40.058  23.144  27.022  1.00  0.00     0.118 C 
BRANCH  22  23
ATOM     23  N   UNL A   1      40.767  23.985  26.071  1.00  0.00    -0.352 N 
ATOM     24  C   UNL A   1      41.049  25.327  26.075  1.00  0.00     0.251 C 
ATOM     25  H   UNL A   1      41.105  23.504  25.281  1.00  0.00     0.163 HD
ATOM     26  O   UNL A   1      41.472  25.833  25.037  1.00  0.00    -0.269 OA
BRANCH  24  27
ATOM     27  C   UNL A   1      40.850  26.174  27.278  1.00  0.00     0.039 A 
ATOM     28  C   UNL A   1      41.707  27.264  27.468  1.00  0.00     0.014 A 
ATOM     29  C   UNL A   1      39.896  25.879  28.255  1.00  0.00     0.014 A 
ATOM     30  C   UNL A   1      41.579  28.069  28.602  1.00  0.00     0.010 A 
ATOM     31  C   UNL A   1      39.703  26.740  29.336  1.00  0.00     0.010 A 
ATOM     32  C   UNL A   1      40.555  27.834  29.534  1.00  0.00    -0.014 A 
BRANCH  32  33
ATOM     33  C   UNL A   1      40.383  28.725  30.712  1.00  0.00     0.031 A 
ATOM     34  C   UNL A   1      41.267  28.584  31.925  1.00  0.00     0.074 A 
ATOM     35  C   UNL A   1      39.406  29.654  30.697  1.00  0.00     0.049 A 
ATOM     36  N   UNL A   1      41.289  29.305  33.018  1.00  0.00    -0.248 NA
ATOM     37  C   UNL A   1      42.234  27.475  31.924  1.00  0.00     0.031 C 
ATOM     38  C   UNL A   1      38.440  29.845  29.612  1.00  0.00     0.029 A 
ATOM     39  N   UNL A   1      39.071  30.619  31.612  1.00  0.00    -0.354 N 
ATOM     40  C   UNL A   1      42.255  28.728  33.837  1.00  0.00     0.074 A 
ATOM     41  C   UNL A   1      42.758  27.567  33.136  1.00  0.00     0.031 C 
ATOM     42  C   UNL A   1      37.657  30.896  29.901  1.00  0.00     0.029 A 
ATOM     43  C   UNL A   1      38.042  31.433  31.200  1.00  0.00     0.049 A 
ATOM     44  H   UNL A   1      39.523  30.718  32.481  1.00  0.00     0.167 HD
ATOM     45  C   UNL A   1      42.699  29.142  35.048  1.00  0.00     0.037 A 
ATOM     46  C   UNL A   1      37.483  32.505  31.795  1.00  0.00     0.037 A 
ATOM     47  C   UNL A   1      42.215  30.317  35.727  1.00  0.00     0.049 A 
ATOM     48  C   UNL A   1      38.019  32.968  33.122  1.00  0.00     0.074 A 
ATOM     49  C   UNL A   1      42.655  30.868  36.918  1.00  0.00     0.029 A 
ATOM     50  N   UNL A   1      41.178  31.122  35.275  1.00  0.00    -0.354 N 
ATOM     51  N   UNL A   1      38.991  32.461  33.841  1.00  0.00    -0.248 NA
ATOM     52  C   UNL A   1      37.388  34.157  33.709  1.00  0.00     0.031 C 
ATOM     53  C   UNL A   1      41.855  31.980  37.208  1.00  0.00     0.029 A 
ATOM     54  C   UNL A   1      40.948  32.151  36.174  1.00  0.00     0.049 A 
ATOM     55  H   UNL A   1      40.680  30.982  34.437  1.00  0.00     0.167 HD
ATOM     56  C   UNL A   1      39.104  33.281  34.958  1.00  0.00     0.074 A 
ATOM     57  C   UNL A   1      38.114  34.329  34.805  1.00  0.00     0.031 C 
ATOM     58  C   UNL A   1      39.949  33.178  36.015  1.00  0.00     0.037 A 
BRANCH  45  59
ATOM     59  C   UNL A   1      43.763  28.313  35.720  1.00  0.00     0.058 A 
ATOM     60  C   UNL A   1      45.129  28.530  35.484  1.00  0.00     0.135 A 
ATOM     61  C   UNL A   1      43.411  27.300  36.628  1.00  0.00     0.135 A 
ATOM     62  F   UNL A   1      45.525  29.475  34.616  1.00  0.00    -0.206 F 
ATOM     63  C   UNL A   1      46.108  27.749  36.093  1.00  0.00     0.059 A 
ATOM     64  C   UNL A   1      44.373  26.527  37.270  1.00  0.00     0.059 A 
ATOM     65  F   UNL A   1      42.119  27.049  36.894  1.00  0.00    -0.206 F 
ATOM     66  C   UNL A   1      45.719  26.745  36.981  1.00  0.00     0.060 A 
BRANCH  66  67
ATOM     67  S   UNL A   1      46.999  25.733  37.754  1.00  0.00     0.124 S 
ATOM     68  O   UNL A   1      47.226  26.456  39.002  1.00  0.00    -0.237 OA
ATOM     69  O   UNL A   1      46.342  24.438  37.883  1.00  0.00    -0.237 OA
ATOM     70  O   UNL A   1      48.097  25.783  36.792  1.00  0.00    -0.744 OA
ENDBRANCH  66  67
ENDBRANCH  45  59
BRANCH  46  71
ATOM     71  C   UNL A   1      36.393  33.247  31.110  1.00  0.00     0.058 A 
ATOM     72  C   UNL A   1      35.071  33.172  31.576  1.00  0.00     0.135 A 
ATOM     73  C   UNL A   1      36.649  34.065  29.999  1.00  0.00     0.135 A 
ATOM     74  F   UNL A   1      34.777  32.400  32.633  1.00  0.00    -0.206 F 
ATOM     75  C   UNL A   1      34.039  33.868  30.957  1.00  0.00     0.059 A 
ATOM     76  C   UNL A   1      35.638  34.790  29.378  1.00  0.00     0.059 A 
ATOM     77  F   UNL A   1      37.900  34.185  29.527  1.00  0.00    -0.206 F 
ATOM     78  C   UNL A   1      34.334  34.679  29.860  1.00  0.00     0.060 A 
BRANCH  78  79
ATOM     79  S   UNL A   1      32.996  35.626  29.101  1.00  0.00     0.124 S 
ATOM     80  O   UNL A   1      32.209  36.007  30.267  1.00  0.00    -0.237 OA
ATOM     81  O   UNL A   1      33.722  36.705  28.439  1.00  0.00    -0.237 OA
ATOM     82  O   UNL A   1      32.370  34.660  28.203  1.00  0.00    -0.744 OA
ENDBRANCH  78  79
ENDBRANCH  46  71
BRANCH  58  83
ATOM     83  C   UNL A   1      39.843  34.241  37.075  1.00  0.00     0.058 A 
ATOM     84  C   UNL A   1      39.146  34.020  38.273  1.00  0.00     0.135 A 
ATOM     85  C   UNL A   1      40.441  35.497  36.886  1.00  0.00     0.135 A 
ATOM     86  F   UNL A   1      38.553  32.837  38.502  1.00  0.00    -0.206 F 
ATOM     87  C   UNL A   1      39.001  35.023  39.225  1.00  0.00     0.059 A 
ATOM     88  C   UNL A   1      40.334  36.506  37.837  1.00  0.00     0.059 A 
ATOM     89  F   UNL A   1      41.133  35.756  35.764  1.00  0.00    -0.206 F 
ATOM     90  C   UNL A   1      39.591  36.267  38.993  1.00  0.00     0.060 A 
BRANCH  90  91
ATOM     91  S   UNL A   1      39.381  37.572  40.223  1.00  0.00     0.124 S 
ATOM     92  O   UNL A   1      38.702  36.853  41.297  1.00  0.00    -0.237 OA
ATOM     93  O   UNL A   1      40.758  37.971  40.498  1.00  0.00    -0.237 OA
ATOM     94  O   UNL A   1      38.575  38.568  39.526  1.00  0.00    -0.744 OA
ENDBRANCH  90  91
ENDBRANCH  58  83
ENDBRANCH  32  33
ENDBRANCH  24  27
ENDBRANCH  22  23
ENDBRANCH  21  22
ENDBRANCH   1  21
TORSDOF 18
ENDMDL
