MODEL 1
REMARK VINA RESULT:     -12.6      0.000      0.000
REMARK SMILES CC(C)CSc1cc2c(cc1Cl)C=C(C(=O)NCCCNC(=O)c1ccc(-c3c4nc(c(-c5c(F)cc(S(=O)(=O)[O-])cc5F)c5ccc([nH]5)c(-c5c(F)cc(S(=O)(=O)[O-])cc5F)c5nc(c(-c6c(F)cc(S(=O)(=O)[O-])cc6F)c6ccc3[nH]6)C=C5)C=C4)cc1)[C@H](C(F)(F)F)O2
REMARK SMILES IDX 19 1 18 2 17 3 15 4 16 5 14 7 6 8 7 9 11 10 8 11 10 12 12 13
REMARK SMILES IDX 9 14 95 15 13 16 90 17 5 18 4 19 2 20 1 21 3 22 91 23 92 24
REMARK SMILES IDX 93 25 94 26 20 27 21 28 22 29 23 31 24 32 25 33 89 34 26 35
REMARK SMILES IDX 88 36 27 37 28 38 29 39 82 40 30 41 87 42 81 43 83 44 31 45
REMARK SMILES IDX 86 46 80 47 79 48 32 50 66 51 45 52 65 53 46 54 49 55 64 56
REMARK SMILES IDX 84 57 47 58 48 59 63 61 85 62 50 63 33 64 34 65 43 66 35 67
REMARK SMILES IDX 36 68 42 69 44 70 37 71 38 72 39 73 40 74 41 75 67 76 68 77
REMARK SMILES IDX 77 78 69 79 70 80 76 81 78 82 71 83 72 84 73 85 74 86 75 87
REMARK SMILES IDX 51 88 52 89 61 90 53 91 54 92 60 93 62 94 55 95 56 96 57 97
REMARK SMILES IDX 58 98 59 99
REMARK H PARENT 17 6 21 30 83 49 49 60
REMARK Flexibility Score: inf
ROOT
ATOM      1  C   UNL A   1      34.351  29.100  27.335  1.00  0.00     0.042 C 
ENDROOT
BRANCH   1   2
ATOM      2  C   UNL A   1      33.166  29.430  26.437  1.00  0.00     0.118 C 
BRANCH   2   3
ATOM      3  N   UNL A   1      33.535  29.462  25.030  1.00  0.00    -0.352 N 
ATOM      4  C   UNL A   1      33.508  28.620  23.972  1.00  0.00     0.251 C 
ATOM      5  O   UNL A   1      33.865  29.124  22.902  1.00  0.00    -0.270 OA
ATOM      6  H   UNL A   1      33.906  30.337  24.779  1.00  0.00     0.163 HD
BRANCH   4   7
ATOM      7  C   UNL A   1      33.097  27.187  24.007  1.00  0.00     0.067 C 
ATOM      8  C   UNL A   1      32.795  22.247  25.039  1.00  0.00     0.030 A 
ATOM      9  C   UNL A   1      32.218  23.096  24.077  1.00  0.00     0.063 A 
ATOM     10  C   UNL A   1      33.687  22.819  25.965  1.00  0.00     0.055 A 
ATOM     11  C   UNL A   1      32.554  24.445  24.017  1.00  0.00     0.129 A 
ATOM     12  C   UNL A   1      34.081  24.161  25.843  1.00  0.00     0.033 A 
ATOM     13  Cl  UNL A   1      34.317  21.986  27.340  1.00  0.00    -0.083 Cl
ATOM     14  C   UNL A   1      33.519  24.976  24.864  1.00  0.00     0.019 A 
ATOM     15  O   UNL A   1      31.906  25.211  23.088  1.00  0.00    -0.475 OA
ATOM     16  C   UNL A   1      33.908  26.372  24.709  1.00  0.00     0.025 C 
ATOM     17  C   UNL A   1      31.829  26.631  23.419  1.00  0.00     0.314 C 
BRANCH   8  18
ATOM     18  S   UNL A   1      32.219  20.553  24.937  1.00  0.00    -0.124 SA
BRANCH  18  19
ATOM     19  C   UNL A   1      33.712  19.514  24.757  1.00  0.00     0.078 C 
BRANCH  19  20
ATOM     20  C   UNL A   1      33.561  18.036  24.352  1.00  0.00    -0.007 C 
ATOM     21  C   UNL A   1      32.855  17.775  23.023  1.00  0.00     0.008 C 
ATOM     22  C   UNL A   1      34.966  17.418  24.290  1.00  0.00     0.008 C 
ENDBRANCH  19  20
ENDBRANCH  18  19
ENDBRANCH   8  18
BRANCH  17  23
ATOM     23  C   UNL A   1      30.585  26.936  24.277  1.00  0.00     0.429 C 
ATOM     24  F   UNL A   1      30.849  26.940  25.602  1.00  0.00    -0.167 F 
ATOM     25  F   UNL A   1      30.043  28.142  23.982  1.00  0.00    -0.167 F 
ATOM     26  F   UNL A   1      29.623  26.008  24.054  1.00  0.00    -0.167 F 
ENDBRANCH  17  23
ENDBRANCH   4   7
ENDBRANCH   2   3
ENDBRANCH   1   2
BRANCH   1  27
ATOM     27  C   UNL A   1      35.180  30.327  27.693  1.00  0.00     0.118 C 
BRANCH  27  28
ATOM     28  N   UNL A   1      35.236  30.549  29.134  1.00  0.00    -0.352 N 
ATOM     29  C   UNL A   1      36.189  30.176  30.054  1.00  0.00     0.251 C 
ATOM     30  H   UNL A   1      34.473  31.046  29.506  1.00  0.00     0.163 HD
ATOM     31  O   UNL A   1      35.931  30.248  31.251  1.00  0.00    -0.269 OA
BRANCH  29  32
ATOM     32  C   UNL A   1      37.505  29.673  29.603  1.00  0.00     0.039 A 
ATOM     33  C   UNL A   1      38.336  28.977  30.479  1.00  0.00     0.014 A 
ATOM     34  C   UNL A   1      37.913  29.896  28.284  1.00  0.00     0.014 A 
ATOM     35  C   UNL A   1      39.641  28.684  30.105  1.00  0.00     0.010 A 
ATOM     36  C   UNL A   1      39.188  29.493  27.874  1.00  0.00     0.010 A 
ATOM     37  C   UNL A   1      40.085  28.931  28.797  1.00  0.00    -0.014 A 
BRANCH  37  38
ATOM     38  C   UNL A   1      41.483  28.589  28.425  1.00  0.00     0.031 A 
ATOM     39  C   UNL A   1      42.586  29.606  28.553  1.00  0.00     0.074 A 
ATOM     40  C   UNL A   1      41.768  27.331  28.034  1.00  0.00     0.049 A 
ATOM     41  N   UNL A   1      43.862  29.475  28.288  1.00  0.00    -0.248 NA
ATOM     42  C   UNL A   1      42.210  30.946  29.032  1.00  0.00     0.031 C 
ATOM     43  C   UNL A   1      40.787  26.252  27.892  1.00  0.00     0.029 A 
ATOM     44  N   UNL A   1      42.961  26.735  27.716  1.00  0.00    -0.354 N 
ATOM     45  C   UNL A   1      44.436  30.714  28.552  1.00  0.00     0.074 A 
ATOM     46  C   UNL A   1      43.363  31.595  28.958  1.00  0.00     0.031 C 
ATOM     47  C   UNL A   1      41.424  25.114  27.585  1.00  0.00     0.029 A 
ATOM     48  C   UNL A   1      42.847  25.395  27.429  1.00  0.00     0.049 A 
ATOM     49  H   UNL A   1      43.818  27.219  27.696  1.00  0.00     0.167 HD
ATOM     50  C   UNL A   1      45.739  31.078  28.477  1.00  0.00     0.037 A 
ATOM     51  C   UNL A   1      43.777  24.492  27.065  1.00  0.00     0.037 A 
ATOM     52  C   UNL A   1      46.802  30.189  28.084  1.00  0.00     0.049 A 
ATOM     53  C   UNL A   1      45.204  24.933  26.929  1.00  0.00     0.074 A 
ATOM     54  C   UNL A   1      48.157  30.456  27.983  1.00  0.00     0.029 A 
ATOM     55  N   UNL A   1      46.634  28.856  27.727  1.00  0.00    -0.354 N 
ATOM     56  N   UNL A   1      45.727  26.111  27.172  1.00  0.00    -0.248 NA
ATOM     57  C   UNL A   1      46.166  23.929  26.456  1.00  0.00     0.031 C 
ATOM     58  C   UNL A   1      48.799  29.304  27.520  1.00  0.00     0.029 A 
ATOM     59  C   UNL A   1      47.854  28.299  27.382  1.00  0.00     0.049 A 
ATOM     60  H   UNL A   1      45.773  28.379  27.722  1.00  0.00     0.167 HD
ATOM     61  C   UNL A   1      47.083  25.990  26.889  1.00  0.00     0.074 A 
ATOM     62  C   UNL A   1      47.300  24.618  26.476  1.00  0.00     0.031 C 
ATOM     63  C   UNL A   1      48.055  26.933  26.962  1.00  0.00     0.037 A 
BRANCH  50  64
ATOM     64  C   UNL A   1      46.085  32.506  28.811  1.00  0.00     0.058 A 
ATOM     65  C   UNL A   1      46.432  32.899  30.114  1.00  0.00     0.135 A 
ATOM     66  C   UNL A   1      46.089  33.492  27.810  1.00  0.00     0.135 A 
ATOM     67  F   UNL A   1      46.431  32.002  31.113  1.00  0.00    -0.206 F 
ATOM     68  C   UNL A   1      46.732  34.223  30.419  1.00  0.00     0.059 A 
ATOM     69  C   UNL A   1      46.416  34.818  28.088  1.00  0.00     0.059 A 
ATOM     70  F   UNL A   1      45.770  33.175  26.545  1.00  0.00    -0.206 F 
ATOM     71  C   UNL A   1      46.717  35.176  29.400  1.00  0.00     0.060 A 
BRANCH  71  72
ATOM     72  S   UNL A   1      47.087  36.892  29.821  1.00  0.00     0.124 S 
ATOM     73  O   UNL A   1      47.953  37.284  28.713  1.00  0.00    -0.237 OA
ATOM     74  O   UNL A   1      45.762  37.503  29.837  1.00  0.00    -0.237 OA
ATOM     75  O   UNL A   1      47.743  36.790  31.122  1.00  0.00    -0.744 OA
ENDBRANCH  71  72
ENDBRANCH  50  64
BRANCH  51  76
ATOM     76  C   UNL A   1      43.367  23.084  26.816  1.00  0.00     0.058 A 
ATOM     77  C   UNL A   1      43.346  22.561  25.517  1.00  0.00     0.135 A 
ATOM     78  C   UNL A   1      43.064  22.216  27.878  1.00  0.00     0.135 A 
ATOM     79  F   UNL A   1      43.619  23.353  24.469  1.00  0.00    -0.206 F 
ATOM     80  C   UNL A   1      43.054  21.222  25.277  1.00  0.00     0.059 A 
ATOM     81  C   UNL A   1      42.794  20.869  27.666  1.00  0.00     0.059 A 
ATOM     82  F   UNL A   1      43.083  22.667  29.142  1.00  0.00    -0.206 F 
ATOM     83  C   UNL A   1      42.793  20.380  26.360  1.00  0.00     0.060 A 
BRANCH  83  84
ATOM     84  S   UNL A   1      42.511  18.625  26.040  1.00  0.00     0.124 S 
ATOM     85  O   UNL A   1      41.079  18.600  25.769  1.00  0.00    -0.237 OA
ATOM     86  O   UNL A   1      43.383  18.382  24.896  1.00  0.00    -0.237 OA
ATOM     87  O   UNL A   1      42.929  17.985  27.285  1.00  0.00    -0.744 OA
ENDBRANCH  83  84
ENDBRANCH  51  76
BRANCH  63  88
ATOM     88  C   UNL A   1      49.451  26.515  26.592  1.00  0.00     0.058 A 
ATOM     89  C   UNL A   1      50.301  25.897  27.521  1.00  0.00     0.135 A 
ATOM     90  C   UNL A   1      49.919  26.674  25.278  1.00  0.00     0.135 A 
ATOM     91  F   UNL A   1      49.906  25.730  28.794  1.00  0.00    -0.206 F 
ATOM     92  C   UNL A   1      51.574  25.462  27.164  1.00  0.00     0.059 A 
ATOM     93  C   UNL A   1      51.177  26.222  24.892  1.00  0.00     0.059 A 
ATOM     94  F   UNL A   1      49.142  27.253  24.349  1.00  0.00    -0.206 F 
ATOM     95  C   UNL A   1      52.000  25.623  25.845  1.00  0.00     0.060 A 
BRANCH  95  96
ATOM     96  S   UNL A   1      53.635  25.011  25.387  1.00  0.00     0.124 S 
ATOM     97  O   UNL A   1      53.914  25.788  24.184  1.00  0.00    -0.237 OA
ATOM     98  O   UNL A   1      54.433  25.352  26.560  1.00  0.00    -0.237 OA
ATOM     99  O   UNL A   1      53.419  23.583  25.175  1.00  0.00    -0.744 OA
ENDBRANCH  95  96
ENDBRANCH  63  88
ENDBRANCH  37  38
ENDBRANCH  29  32
ENDBRANCH  27  28
ENDBRANCH   1  27
TORSDOF 17
ENDMDL
MODEL 2
REMARK VINA RESULT:     -12.3      6.669     12.164
REMARK SMILES CC(C)CSc1cc2c(cc1Cl)C=C(C(=O)NCCCNC(=O)c1ccc(-c3c4nc(c(-c5c(F)cc(S(=O)(=O)[O-])cc5F)c5ccc([nH]5)c(-c5c(F)cc(S(=O)(=O)[O-])cc5F)c5nc(c(-c6c(F)cc(S(=O)(=O)[O-])cc6F)c6ccc3[nH]6)C=C5)C=C4)cc1)[C@H](C(F)(F)F)O2
REMARK SMILES IDX 19 1 18 2 17 3 15 4 16 5 14 7 6 8 7 9 11 10 8 11 10 12 12 13
REMARK SMILES IDX 9 14 95 15 13 16 90 17 5 18 4 19 2 20 1 21 3 22 91 23 92 24
REMARK SMILES IDX 93 25 94 26 20 27 21 28 22 29 23 31 24 32 25 33 89 34 26 35
REMARK SMILES IDX 88 36 27 37 28 38 29 39 82 40 30 41 87 42 81 43 83 44 31 45
REMARK SMILES IDX 86 46 80 47 79 48 32 50 66 51 45 52 65 53 46 54 49 55 64 56
REMARK SMILES IDX 84 57 47 58 48 59 63 61 85 62 50 63 33 64 34 65 43 66 35 67
REMARK SMILES IDX 36 68 42 69 44 70 37 71 38 72 39 73 40 74 41 75 67 76 68 77
REMARK SMILES IDX 77 78 69 79 70 80 76 81 78 82 71 83 72 84 73 85 74 86 75 87
REMARK SMILES IDX 51 88 52 89 61 90 53 91 54 92 60 93 62 94 55 95 56 96 57 97
REMARK SMILES IDX 58 98 59 99
REMARK H PARENT 17 6 21 30 83 49 49 60
REMARK Flexibility Score: inf
ROOT
ATOM      1  C   UNL A   1      37.441  23.589  25.539  1.00  0.00     0.042 C 
ENDROOT
BRANCH   1   2
ATOM      2  C   UNL A   1      36.730  22.245  25.454  1.00  0.00     0.118 C 
BRANCH   2   3
ATOM      3  N   UNL A   1      35.746  22.075  26.512  1.00  0.00    -0.352 N 
ATOM      4  C   UNL A   1      34.467  22.438  26.752  1.00  0.00     0.251 C 
ATOM      5  O   UNL A   1      33.988  21.983  27.797  1.00  0.00    -0.270 OA
ATOM      6  H   UNL A   1      36.114  21.551  27.259  1.00  0.00     0.163 HD
BRANCH   4   7
ATOM      7  C   UNL A   1      33.630  23.315  25.883  1.00  0.00     0.067 C 
ATOM      8  C   UNL A   1      31.670  27.288  23.448  1.00  0.00     0.030 A 
ATOM      9  C   UNL A   1      31.266  25.958  23.660  1.00  0.00     0.063 A 
ATOM     10  C   UNL A   1      32.887  27.701  24.021  1.00  0.00     0.055 A 
ATOM     11  C   UNL A   1      32.024  25.095  24.447  1.00  0.00     0.129 A 
ATOM     12  C   UNL A   1      33.599  26.848  24.880  1.00  0.00     0.033 A 
ATOM     13  Cl  UNL A   1      33.645  29.218  23.691  1.00  0.00    -0.083 Cl
ATOM     14  C   UNL A   1      33.165  25.544  25.100  1.00  0.00     0.019 A 
ATOM     15  O   UNL A   1      31.588  23.803  24.557  1.00  0.00    -0.475 OA
ATOM     16  C   UNL A   1      33.879  24.635  25.986  1.00  0.00     0.025 C 
ATOM     17  C   UNL A   1      32.637  22.834  24.861  1.00  0.00     0.314 C 
BRANCH   8  18
ATOM     18  S   UNL A   1      30.550  28.219  22.404  1.00  0.00    -0.124 SA
BRANCH  18  19
ATOM     19  C   UNL A   1      29.212  28.819  23.495  1.00  0.00     0.078 C 
BRANCH  19  20
ATOM     20  C   UNL A   1      28.409  30.070  23.091  1.00  0.00    -0.007 C 
ATOM     21  C   UNL A   1      28.985  31.410  23.545  1.00  0.00     0.008 C 
ATOM     22  C   UNL A   1      28.294  30.081  21.559  1.00  0.00     0.008 C 
ENDBRANCH  19  20
ENDBRANCH  18  19
ENDBRANCH   8  18
BRANCH  17  23
ATOM     23  C   UNL A   1      33.305  22.312  23.573  1.00  0.00     0.429 C 
ATOM     24  F   UNL A   1      32.430  22.145  22.558  1.00  0.00    -0.167 F 
ATOM     25  F   UNL A   1      34.272  23.148  23.123  1.00  0.00    -0.167 F 
ATOM     26  F   UNL A   1      33.898  21.116  23.805  1.00  0.00    -0.167 F 
ENDBRANCH  17  23
ENDBRANCH   4   7
ENDBRANCH   2   3
ENDBRANCH   1   2
BRANCH   1  27
ATOM     27  C   UNL A   1      38.438  23.658  26.688  1.00  0.00     0.118 C 
BRANCH  27  28
ATOM     28  N   UNL A   1      39.812  23.792  26.214  1.00  0.00    -0.352 N 
ATOM     29  C   UNL A   1      40.734  24.791  26.432  1.00  0.00     0.251 C 
ATOM     30  H   UNL A   1      40.129  23.051  25.651  1.00  0.00     0.163 HD
ATOM     31  O   UNL A   1      41.750  24.833  25.746  1.00  0.00    -0.269 OA
BRANCH  29  32
ATOM     32  C   UNL A   1      40.490  25.816  27.470  1.00  0.00     0.039 A 
ATOM     33  C   UNL A   1      41.218  27.005  27.476  1.00  0.00     0.014 A 
ATOM     34  C   UNL A   1      39.518  25.590  28.449  1.00  0.00     0.014 A 
ATOM     35  C   UNL A   1      41.121  27.868  28.560  1.00  0.00     0.010 A 
ATOM     36  C   UNL A   1      39.339  26.520  29.478  1.00  0.00     0.010 A 
ATOM     37  C   UNL A   1      40.177  27.642  29.573  1.00  0.00    -0.014 A 
BRANCH  37  38
ATOM     38  C   UNL A   1      40.088  28.595  30.711  1.00  0.00     0.031 A 
ATOM     39  C   UNL A   1      41.052  28.511  31.865  1.00  0.00     0.074 A 
ATOM     40  C   UNL A   1      39.173  29.584  30.667  1.00  0.00     0.049 A 
ATOM     41  N   UNL A   1      41.128  29.267  32.931  1.00  0.00    -0.248 NA
ATOM     42  C   UNL A   1      42.055  27.436  31.823  1.00  0.00     0.031 C 
ATOM     43  C   UNL A   1      38.197  29.781  29.591  1.00  0.00     0.029 A 
ATOM     44  N   UNL A   1      38.930  30.625  31.526  1.00  0.00    -0.354 N 
ATOM     45  C   UNL A   1      42.173  28.753  33.692  1.00  0.00     0.074 A 
ATOM     46  C   UNL A   1      42.674  27.594  32.984  1.00  0.00     0.031 C 
ATOM     47  C   UNL A   1      37.513  30.910  29.817  1.00  0.00     0.029 A 
ATOM     48  C   UNL A   1      37.941  31.476  31.092  1.00  0.00     0.049 A 
ATOM     49  H   UNL A   1      39.418  30.753  32.371  1.00  0.00     0.167 HD
ATOM     50  C   UNL A   1      42.677  29.213  34.863  1.00  0.00     0.037 A 
ATOM     51  C   UNL A   1      37.421  32.581  31.659  1.00  0.00     0.037 A 
ATOM     52  C   UNL A   1      42.178  30.376  35.552  1.00  0.00     0.049 A 
ATOM     53  C   UNL A   1      37.954  33.036  32.986  1.00  0.00     0.074 A 
ATOM     54  C   UNL A   1      42.623  30.929  36.740  1.00  0.00     0.029 A 
ATOM     55  N   UNL A   1      41.123  31.167  35.116  1.00  0.00    -0.354 N 
ATOM     56  N   UNL A   1      38.934  32.530  33.696  1.00  0.00    -0.248 NA
ATOM     57  C   UNL A   1      37.301  34.201  33.598  1.00  0.00     0.031 C 
ATOM     58  C   UNL A   1      41.809  32.023  37.047  1.00  0.00     0.029 A 
ATOM     59  C   UNL A   1      40.888  32.187  36.023  1.00  0.00     0.049 A 
ATOM     60  H   UNL A   1      40.618  31.024  34.283  1.00  0.00     0.167 HD
ATOM     61  C   UNL A   1      39.023  33.320  34.836  1.00  0.00     0.074 A 
ATOM     62  C   UNL A   1      38.010  34.349  34.710  1.00  0.00     0.031 C 
ATOM     63  C   UNL A   1      39.867  33.199  35.891  1.00  0.00     0.037 A 
BRANCH  50  64
ATOM     64  C   UNL A   1      43.815  28.445  35.482  1.00  0.00     0.058 A 
ATOM     65  C   UNL A   1      45.154  28.718  35.159  1.00  0.00     0.135 A 
ATOM     66  C   UNL A   1      43.565  27.435  36.426  1.00  0.00     0.135 A 
ATOM     67  F   UNL A   1      45.452  29.663  34.253  1.00  0.00    -0.206 F 
ATOM     68  C   UNL A   1      46.201  27.992  35.720  1.00  0.00     0.059 A 
ATOM     69  C   UNL A   1      44.599  26.716  37.022  1.00  0.00     0.059 A 
ATOM     70  F   UNL A   1      42.305  27.132  36.776  1.00  0.00    -0.206 F 
ATOM     71  C   UNL A   1      45.913  26.990  36.648  1.00  0.00     0.060 A 
BRANCH  71  72
ATOM     72  S   UNL A   1      47.283  26.045  37.347  1.00  0.00     0.124 S 
ATOM     73  O   UNL A   1      47.510  26.749  38.606  1.00  0.00    -0.237 OA
ATOM     74  O   UNL A   1      46.713  24.707  37.462  1.00  0.00    -0.237 OA
ATOM     75  O   UNL A   1      48.341  26.190  36.350  1.00  0.00    -0.744 OA
ENDBRANCH  71  72
ENDBRANCH  50  64
BRANCH  51  76
ATOM     76  C   UNL A   1      36.343  33.323  30.954  1.00  0.00     0.058 A 
ATOM     77  C   UNL A   1      35.031  33.324  31.447  1.00  0.00     0.135 A 
ATOM     78  C   UNL A   1      36.619  34.106  29.821  1.00  0.00     0.135 A 
ATOM     79  F   UNL A   1      34.716  32.584  32.520  1.00  0.00    -0.206 F 
ATOM     80  C   UNL A   1      34.031  34.087  30.850  1.00  0.00     0.059 A 
ATOM     81  C   UNL A   1      35.643  34.897  29.224  1.00  0.00     0.059 A 
ATOM     82  F   UNL A   1      37.863  34.148  29.320  1.00  0.00    -0.206 F 
ATOM     83  C   UNL A   1      34.351  34.881  29.747  1.00  0.00     0.060 A 
BRANCH  83  84
ATOM     84  S   UNL A   1      33.067  35.940  29.045  1.00  0.00     0.124 S 
ATOM     85  O   UNL A   1      32.449  36.489  30.246  1.00  0.00    -0.237 OA
ATOM     86  O   UNL A   1      33.850  36.874  28.244  1.00  0.00    -0.237 OA
ATOM     87  O   UNL A   1      32.243  35.007  28.281  1.00  0.00    -0.744 OA
ENDBRANCH  83  84
ENDBRANCH  51  76
BRANCH  63  88
ATOM     88  C   UNL A   1      39.738  34.208  36.998  1.00  0.00     0.058 A 
ATOM     89  C   UNL A   1      40.208  35.522  36.850  1.00  0.00     0.135 A 
ATOM     90  C   UNL A   1      39.078  33.877  38.192  1.00  0.00     0.135 A 
ATOM     91  F   UNL A   1      40.854  35.887  35.732  1.00  0.00    -0.206 F 
ATOM     92  C   UNL A   1      40.039  36.470  37.855  1.00  0.00     0.059 A 
ATOM     93  C   UNL A   1      38.874  34.816  39.198  1.00  0.00     0.059 A 
ATOM     94  F   UNL A   1      38.603  32.636  38.380  1.00  0.00    -0.206 F 
ATOM     95  C   UNL A   1      39.365  36.109  39.022  1.00  0.00     0.060 A 
BRANCH  95  96
ATOM     96  S   UNL A   1      39.114  37.364  40.295  1.00  0.00     0.124 S 
ATOM     97  O   UNL A   1      40.477  37.836  40.515  1.00  0.00    -0.237 OA
ATOM     98  O   UNL A   1      38.218  38.305  39.631  1.00  0.00    -0.237 OA
ATOM     99  O   UNL A   1      38.523  36.616  41.401  1.00  0.00    -0.744 OA
ENDBRANCH  95  96
ENDBRANCH  63  88
ENDBRANCH  37  38
ENDBRANCH  29  32
ENDBRANCH  27  28
ENDBRANCH   1  27
TORSDOF 17
ENDMDL
MODEL 3
REMARK VINA RESULT:     -12.2      6.759     11.622
REMARK SMILES CC(C)CSc1cc2c(cc1Cl)C=C(C(=O)NCCCNC(=O)c1ccc(-c3c4nc(c(-c5c(F)cc(S(=O)(=O)[O-])cc5F)c5ccc([nH]5)c(-c5c(F)cc(S(=O)(=O)[O-])cc5F)c5nc(c(-c6c(F)cc(S(=O)(=O)[O-])cc6F)c6ccc3[nH]6)C=C5)C=C4)cc1)[C@H](C(F)(F)F)O2
REMARK SMILES IDX 19 1 18 2 17 3 15 4 16 5 14 7 6 8 7 9 11 10 8 11 10 12 12 13
REMARK SMILES IDX 9 14 95 15 13 16 90 17 5 18 4 19 2 20 1 21 3 22 91 23 92 24
REMARK SMILES IDX 93 25 94 26 20 27 21 28 22 29 23 31 24 32 25 33 89 34 26 35
REMARK SMILES IDX 88 36 27 37 28 38 29 39 82 40 30 41 87 42 81 43 83 44 31 45
REMARK SMILES IDX 86 46 80 47 79 48 32 50 66 51 45 52 65 53 46 54 49 55 64 56
REMARK SMILES IDX 84 57 47 58 48 59 63 61 85 62 50 63 33 64 34 65 43 66 35 67
REMARK SMILES IDX 36 68 42 69 44 70 37 71 38 72 39 73 40 74 41 75 67 76 68 77
REMARK SMILES IDX 77 78 69 79 70 80 76 81 78 82 71 83 72 84 73 85 74 86 75 87
REMARK SMILES IDX 51 88 52 89 61 90 53 91 54 92 60 93 62 94 55 95 56 96 57 97
REMARK SMILES IDX 58 98 59 99
REMARK H PARENT 17 6 21 30 83 49 49 60
REMARK Flexibility Score: inf
ROOT
ATOM      1  C   UNL A   1      37.399  23.782  25.435  1.00  0.00     0.042 C 
ENDROOT
BRANCH   1   2
ATOM      2  C   UNL A   1      36.778  22.391  25.416  1.00  0.00     0.118 C 
BRANCH   2   3
ATOM      3  N   UNL A   1      35.829  22.198  26.501  1.00  0.00    -0.352 N 
ATOM      4  C   UNL A   1      34.546  22.524  26.774  1.00  0.00     0.251 C 
ATOM      5  O   UNL A   1      34.109  22.061  27.833  1.00  0.00    -0.270 OA
ATOM      6  H   UNL A   1      36.232  21.689  27.240  1.00  0.00     0.163 HD
BRANCH   4   7
ATOM      7  C   UNL A   1      33.660  23.370  25.924  1.00  0.00     0.067 C 
ATOM      8  C   UNL A   1      31.593  27.246  23.420  1.00  0.00     0.030 A 
ATOM      9  C   UNL A   1      31.179  25.941  23.743  1.00  0.00     0.063 A 
ATOM     10  C   UNL A   1      32.861  27.660  23.869  1.00  0.00     0.055 A 
ATOM     11  C   UNL A   1      31.980  25.105  24.517  1.00  0.00     0.129 A 
ATOM     12  C   UNL A   1      33.622  26.840  24.718  1.00  0.00     0.033 A 
ATOM     13  Cl  UNL A   1      33.622  29.134  23.389  1.00  0.00    -0.083 Cl
ATOM     14  C   UNL A   1      33.180  25.562  25.049  1.00  0.00     0.019 A 
ATOM     15  O   UNL A   1      31.528  23.834  24.738  1.00  0.00    -0.475 OA
ATOM     16  C   UNL A   1      33.944  24.688  25.928  1.00  0.00     0.025 C 
ATOM     17  C   UNL A   1      32.577  22.857  25.015  1.00  0.00     0.314 C 
BRANCH   8  18
ATOM     18  S   UNL A   1      30.412  28.143  22.416  1.00  0.00    -0.124 SA
BRANCH  18  19
ATOM     19  C   UNL A   1      29.995  29.661  23.345  1.00  0.00     0.078 C 
BRANCH  19  20
ATOM     20  C   UNL A   1      28.555  30.203  23.303  1.00  0.00    -0.007 C 
ATOM     21  C   UNL A   1      28.340  31.468  22.473  1.00  0.00     0.008 C 
ATOM     22  C   UNL A   1      27.649  29.094  22.747  1.00  0.00     0.008 C 
ENDBRANCH  19  20
ENDBRANCH  18  19
ENDBRANCH   8  18
BRANCH  17  23
ATOM     23  C   UNL A   1      33.127  22.245  23.711  1.00  0.00     0.429 C 
ATOM     24  F   UNL A   1      34.129  22.972  23.172  1.00  0.00    -0.167 F 
ATOM     25  F   UNL A   1      33.608  20.992  23.897  1.00  0.00    -0.167 F 
ATOM     26  F   UNL A   1      32.142  22.153  22.785  1.00  0.00    -0.167 F 
ENDBRANCH  17  23
ENDBRANCH   4   7
ENDBRANCH   2   3
ENDBRANCH   1   2
BRANCH   1  27
ATOM     27  C   UNL A   1      38.332  23.996  26.620  1.00  0.00     0.118 C 
BRANCH  27  28
ATOM     28  N   UNL A   1      39.735  23.992  26.220  1.00  0.00    -0.352 N 
ATOM     29  C   UNL A   1      40.740  24.893  26.493  1.00  0.00     0.251 C 
ATOM     30  H   UNL A   1      40.007  23.223  25.670  1.00  0.00     0.163 HD
ATOM     31  O   UNL A   1      41.790  24.834  25.863  1.00  0.00    -0.269 OA
BRANCH  29  32
ATOM     32  C   UNL A   1      40.545  25.937  27.523  1.00  0.00     0.039 A 
ATOM     33  C   UNL A   1      41.247  27.139  27.455  1.00  0.00     0.014 A 
ATOM     34  C   UNL A   1      39.645  25.714  28.570  1.00  0.00     0.014 A 
ATOM     35  C   UNL A   1      41.204  28.024  28.524  1.00  0.00     0.010 A 
ATOM     36  C   UNL A   1      39.516  26.663  29.589  1.00  0.00     0.010 A 
ATOM     37  C   UNL A   1      40.335  27.803  29.604  1.00  0.00    -0.014 A 
BRANCH  37  38
ATOM     38  C   UNL A   1      40.302  28.779  30.725  1.00  0.00     0.031 A 
ATOM     39  C   UNL A   1      39.298  29.902  30.741  1.00  0.00     0.074 A 
ATOM     40  C   UNL A   1      41.141  28.609  31.765  1.00  0.00     0.049 A 
ATOM     41  N   UNL A   1      39.120  30.833  31.644  1.00  0.00    -0.248 NA
ATOM     42  C   UNL A   1      38.382  29.998  29.594  1.00  0.00     0.031 C 
ATOM     43  C   UNL A   1      42.144  27.546  31.873  1.00  0.00     0.029 A 
ATOM     44  N   UNL A   1      41.267  29.300  32.943  1.00  0.00    -0.354 N 
ATOM     45  C   UNL A   1      38.085  31.632  31.169  1.00  0.00     0.074 A 
ATOM     46  C   UNL A   1      37.703  31.100  29.879  1.00  0.00     0.031 C 
ATOM     47  C   UNL A   1      42.731  27.613  33.075  1.00  0.00     0.029 A 
ATOM     48  C   UNL A   1      42.207  28.769  33.795  1.00  0.00     0.049 A 
ATOM     49  H   UNL A   1      40.735  30.100  33.159  1.00  0.00     0.167 HD
ATOM     50  C   UNL A   1      37.497  32.700  31.762  1.00  0.00     0.037 A 
ATOM     51  C   UNL A   1      42.617  29.172  35.012  1.00  0.00     0.037 A 
ATOM     52  C   UNL A   1      37.876  33.214  33.054  1.00  0.00     0.049 A 
ATOM     53  C   UNL A   1      41.995  30.393  35.622  1.00  0.00     0.074 A 
ATOM     54  C   UNL A   1      37.340  34.286  33.746  1.00  0.00     0.029 A 
ATOM     55  N   UNL A   1      38.887  32.692  33.852  1.00  0.00    -0.354 N 
ATOM     56  N   UNL A   1      41.026  31.143  35.153  1.00  0.00    -0.248 NA
ATOM     57  C   UNL A   1      42.531  30.835  36.916  1.00  0.00     0.031 C 
ATOM     58  C   UNL A   1      38.056  34.442  34.936  1.00  0.00     0.029 A 
ATOM     59  C   UNL A   1      39.005  33.435  35.015  1.00  0.00     0.049 A 
ATOM     60  H   UNL A   1      39.437  31.908  33.624  1.00  0.00     0.167 HD
ATOM     61  C   UNL A   1      40.828  32.142  36.099  1.00  0.00     0.074 A 
ATOM     62  C   UNL A   1      41.765  31.888  37.175  1.00  0.00     0.031 C 
ATOM     63  C   UNL A   1      39.951  33.176  36.074  1.00  0.00     0.037 A 
BRANCH  50  64
ATOM     64  C   UNL A   1      36.394  33.397  31.008  1.00  0.00     0.058 A 
ATOM     65  C   UNL A   1      36.653  34.171  29.866  1.00  0.00     0.135 A 
ATOM     66  C   UNL A   1      35.058  33.272  31.423  1.00  0.00     0.135 A 
ATOM     67  F   UNL A   1      37.912  34.336  29.431  1.00  0.00    -0.206 F 
ATOM     68  C   UNL A   1      35.631  34.828  29.185  1.00  0.00     0.059 A 
ATOM     69  C   UNL A   1      34.017  33.897  30.739  1.00  0.00     0.059 A 
ATOM     70  F   UNL A   1      34.750  32.542  32.507  1.00  0.00    -0.206 F 
ATOM     71  C   UNL A   1      34.317  34.687  29.632  1.00  0.00     0.060 A 
BRANCH  71  72
ATOM     72  S   UNL A   1      33.009  35.565  28.749  1.00  0.00     0.124 S 
ATOM     73  O   UNL A   1      33.776  36.575  28.024  1.00  0.00    -0.237 OA
ATOM     74  O   UNL A   1      32.420  34.509  27.933  1.00  0.00    -0.237 OA
ATOM     75  O   UNL A   1      32.158  36.076  29.820  1.00  0.00    -0.744 OA
ENDBRANCH  71  72
ENDBRANCH  50  64
BRANCH  51  76
ATOM     76  C   UNL A   1      43.666  28.393  35.722  1.00  0.00     0.058 A 
ATOM     77  C   UNL A   1      45.023  28.696  35.554  1.00  0.00     0.135 A 
ATOM     78  C   UNL A   1      43.328  27.383  36.639  1.00  0.00     0.135 A 
ATOM     79  F   UNL A   1      45.397  29.645  34.682  1.00  0.00    -0.206 F 
ATOM     80  C   UNL A   1      46.011  28.037  36.279  1.00  0.00     0.059 A 
ATOM     81  C   UNL A   1      44.294  26.729  37.395  1.00  0.00     0.059 A 
ATOM     82  F   UNL A   1      42.040  27.066  36.845  1.00  0.00    -0.206 F 
ATOM     83  C   UNL A   1      45.634  27.064  37.209  1.00  0.00     0.060 A 
BRANCH  83  84
ATOM     84  S   UNL A   1      46.919  26.288  38.213  1.00  0.00     0.124 S 
ATOM     85  O   UNL A   1      46.367  24.954  38.418  1.00  0.00    -0.237 OA
ATOM     86  O   UNL A   1      48.081  26.371  37.335  1.00  0.00    -0.237 OA
ATOM     87  O   UNL A   1      46.977  27.137  39.400  1.00  0.00    -0.744 OA
ENDBRANCH  83  84
ENDBRANCH  51  76
BRANCH  63  88
ATOM     88  C   UNL A   1      39.956  34.115  37.249  1.00  0.00     0.058 A 
ATOM     89  C   UNL A   1      40.737  35.280  37.252  1.00  0.00     0.135 A 
ATOM     90  C   UNL A   1      39.121  33.880  38.353  1.00  0.00     0.135 A 
ATOM     91  F   UNL A   1      41.561  35.546  36.226  1.00  0.00    -0.206 F 
ATOM     92  C   UNL A   1      40.701  36.175  38.317  1.00  0.00     0.059 A 
ATOM     93  C   UNL A   1      39.047  34.775  39.415  1.00  0.00     0.059 A 
ATOM     94  F   UNL A   1      38.348  32.784  38.395  1.00  0.00    -0.206 F 
ATOM     95  C   UNL A   1      39.847  35.917  39.391  1.00  0.00     0.060 A 
BRANCH  95  96
ATOM     96  S   UNL A   1      39.777  37.112  40.742  1.00  0.00     0.124 S 
ATOM     97  O   UNL A   1      38.899  36.434  41.690  1.00  0.00    -0.237 OA
ATOM     98  O   UNL A   1      41.178  37.215  41.138  1.00  0.00    -0.237 OA
ATOM     99  O   UNL A   1      39.219  38.306  40.114  1.00  0.00    -0.744 OA
ENDBRANCH  95  96
ENDBRANCH  63  88
ENDBRANCH  37  38
ENDBRANCH  29  32
ENDBRANCH  27  28
ENDBRANCH   1  27
TORSDOF 17
ENDMDL
