MODEL 1
REMARK VINA RESULT:     -10.2      0.000      0.000
REMARK SMILES Cc1ccc(S(=O)(=O)Nc2ccc(C(=O)CCC(=O)NCCCNC(=O)c3ccc(-c4c5nc(c(-c6c(F)cc(S(=O)(=O)[O-])cc6F)c6ccc([nH]6)c(-c6c(F)cc(S(=O)(=O)[O-])cc6F)c6nc(c(-c7c(F)cc(S(=O)(=O)[O-])cc7F)c7ccc4[nH]7)C=C6)C=C5)cc3)cc2)c(C)c1
REMARK SMILES IDX 18 1 19 2 20 3 17 5 16 6 14 7 15 8 13 9 10 10 11 11 94 12
REMARK SMILES IDX 12 13 93 14 9 15 6 17 7 18 8 19 5 20 1 21 2 22 3 23 97 24
REMARK SMILES IDX 4 25 95 26 96 27 21 28 22 29 23 30 24 31 25 32 26 34 27 35
REMARK SMILES IDX 28 36 92 37 29 38 91 39 30 40 31 41 32 42 85 43 33 44 90 45
REMARK SMILES IDX 84 46 86 47 34 48 89 49 83 50 82 51 35 53 69 54 48 55 68 56
REMARK SMILES IDX 49 57 52 58 67 59 87 60 50 61 51 62 66 64 88 65 53 66 36 67
REMARK SMILES IDX 37 68 46 69 38 70 39 71 45 72 47 73 40 74 41 75 42 76 43 77
REMARK SMILES IDX 44 78 70 79 71 80 80 81 72 82 73 83 79 84 81 85 74 86 75 87
REMARK SMILES IDX 76 88 77 89 78 90 54 91 55 92 64 93 56 94 57 95 63 96 65 97
REMARK SMILES IDX 58 98 59 99 60 100 61 101 62 102
REMARK H PARENT 20 4 9 16 24 33 86 52 52 63
REMARK Flexibility Score: inf
ROOT
ATOM      1  C   UNL A   1      45.399  23.654  27.782  1.00  0.00     0.220 C 
ATOM      2  O   UNL A   1      45.468  23.932  28.982  1.00  0.00    -0.275 OA
ATOM      3  N   UNL A   1      44.368  22.845  27.368  1.00  0.00    -0.356 N 
ATOM      4  H   UNL A   1      43.591  22.787  27.971  1.00  0.00     0.163 HD
ENDROOT
BRANCH   1   5
ATOM      5  C   UNL A   1      46.441  24.192  26.781  1.00  0.00     0.108 C 
BRANCH   5   6
ATOM      6  C   UNL A   1      46.372  25.721  26.486  1.00  0.00     0.091 C 
BRANCH   6   7
ATOM      7  C   UNL A   1      45.021  26.264  25.927  1.00  0.00     0.163 C 
ATOM      8  O   UNL A   1      44.138  25.521  25.512  1.00  0.00    -0.294 OA
BRANCH   7   9
ATOM      9  C   UNL A   1      44.899  27.751  25.644  1.00  0.00     0.018 A 
ATOM     10  C   UNL A   1      45.518  30.934  27.297  1.00  0.00     0.049 A 
ATOM     11  C   UNL A   1      46.880  30.065  26.403  1.00  0.00     0.027 A 
ATOM     12  C   UNL A   1      43.882  30.195  27.332  1.00  0.00     0.027 A 
ATOM     13  C   UNL A   1      46.547  28.515  25.533  1.00  0.00     0.014 A 
ATOM     14  C   UNL A   1      43.582  28.615  26.492  1.00  0.00     0.014 A 
BRANCH  10  15
ATOM     15  N   UNL A   1      45.655  32.369  27.392  1.00  0.00    -0.280 N 
ATOM     16  H   UNL A   1      45.665  32.779  28.288  1.00  0.00     0.180 HD
BRANCH  15  17
ATOM     17  S   UNL A   1      45.795  33.382  26.044  1.00  0.00     0.262 S 
ATOM     18  O   UNL A   1      44.994  32.824  24.977  1.00  0.00    -0.201 OA
ATOM     19  O   UNL A   1      47.209  33.629  25.875  1.00  0.00    -0.201 OA
BRANCH  17  20
ATOM     20  C   UNL A   1      45.056  34.911  26.550  1.00  0.00     0.090 A 
ATOM     21  C   UNL A   1      42.958  37.668  29.038  1.00  0.00     0.044 C 
ATOM     22  C   UNL A   1      43.702  36.790  28.081  1.00  0.00    -0.051 A 
ATOM     23  C   UNL A   1      45.083  36.654  28.211  1.00  0.00     0.005 A 
ATOM     24  C   UNL A   1      43.043  36.122  27.039  1.00  0.00     0.008 A 
ATOM     25  C   UNL A   1      45.763  35.735  27.424  1.00  0.00     0.023 A 
ATOM     26  C   UNL A   1      43.714  35.174  26.252  1.00  0.00    -0.030 A 
ATOM     27  C   UNL A   1      43.030  34.588  25.047  1.00  0.00     0.046 C 
ENDBRANCH  17  20
ENDBRANCH  15  17
ENDBRANCH  10  15
ENDBRANCH   7   9
ENDBRANCH   6   7
ENDBRANCH   5   6
ENDBRANCH   1   5
BRANCH   3  28
ATOM     28  C   UNL A   1      44.288  22.057  26.130  1.00  0.00     0.117 C 
BRANCH  28  29
ATOM     29  C   UNL A   1      42.737  22.189  25.575  1.00  0.00     0.042 C 
BRANCH  29  30
ATOM     30  C   UNL A   1      40.716  21.580  26.126  1.00  0.00     0.118 C 
BRANCH  30  31
ATOM     31  N   UNL A   1      39.279  22.359  25.808  1.00  0.00    -0.352 N 
ATOM     32  C   UNL A   1      38.615  23.484  26.125  1.00  0.00     0.251 C 
ATOM     33  H   UNL A   1      38.740  21.819  25.186  1.00  0.00     0.163 HD
ATOM     34  O   UNL A   1      37.456  23.576  25.722  1.00  0.00    -0.269 OA
BRANCH  32  35
ATOM     35  C   UNL A   1      39.220  24.567  26.856  1.00  0.00     0.039 A 
ATOM     36  C   UNL A   1      38.853  24.689  28.199  1.00  0.00     0.014 A 
ATOM     37  C   UNL A   1      39.997  25.519  26.200  1.00  0.00     0.014 A 
ATOM     38  C   UNL A   1      39.283  25.787  28.906  1.00  0.00     0.010 A 
ATOM     39  C   UNL A   1      40.500  26.570  26.926  1.00  0.00     0.010 A 
ATOM     40  C   UNL A   1      40.118  26.709  28.264  1.00  0.00    -0.014 A 
BRANCH  40  41
ATOM     41  C   UNL A   1      40.604  27.869  28.996  1.00  0.00     0.031 A 
ATOM     42  C   UNL A   1      41.987  27.828  29.548  1.00  0.00     0.074 A 
ATOM     43  C   UNL A   1      39.728  28.868  29.175  1.00  0.00     0.049 A 
ATOM     44  N   UNL A   1      42.595  28.707  30.286  1.00  0.00    -0.248 NA
ATOM     45  C   UNL A   1      42.781  26.612  29.276  1.00  0.00     0.031 C 
ATOM     46  C   UNL A   1      38.343  28.872  28.682  1.00  0.00     0.029 A 
ATOM     47  N   UNL A   1      39.858  30.060  29.811  1.00  0.00    -0.354 N 
ATOM     48  C   UNL A   1      43.832  28.150  30.584  1.00  0.00     0.074 A 
ATOM     49  C   UNL A   1      43.864  26.828  30.006  1.00  0.00     0.031 C 
ATOM     50  C   UNL A   1      37.764  30.035  29.007  1.00  0.00     0.029 A 
ATOM     51  C   UNL A   1      38.725  30.832  29.754  1.00  0.00     0.049 A 
ATOM     52  H   UNL A   1      40.684  30.343  30.268  1.00  0.00     0.167 HD
ATOM     53  C   UNL A   1      44.847  28.730  31.260  1.00  0.00     0.037 A 
ATOM     54  C   UNL A   1      38.516  32.058  30.256  1.00  0.00     0.037 A 
ATOM     55  C   UNL A   1      44.740  30.068  31.780  1.00  0.00     0.049 A 
ATOM     56  C   UNL A   1      39.683  32.702  30.947  1.00  0.00     0.074 A 
ATOM     57  C   UNL A   1      45.683  30.819  32.451  1.00  0.00     0.029 A 
ATOM     58  N   UNL A   1      43.598  30.858  31.663  1.00  0.00    -0.354 N 
ATOM     59  N   UNL A   1      40.872  32.194  31.194  1.00  0.00    -0.248 NA
ATOM     60  C   UNL A   1      39.502  34.078  31.405  1.00  0.00     0.031 C 
ATOM     61  C   UNL A   1      45.098  32.051  32.769  1.00  0.00     0.029 A 
ATOM     62  C   UNL A   1      43.810  32.090  32.249  1.00  0.00     0.049 A 
ATOM     63  H   UNL A   1      42.762  30.579  31.225  1.00  0.00     0.167 HD
ATOM     64  C   UNL A   1      41.596  33.199  31.812  1.00  0.00     0.074 A 
ATOM     65  C   UNL A   1      40.709  34.349  31.885  1.00  0.00     0.031 C 
ATOM     66  C   UNL A   1      42.871  33.188  32.279  1.00  0.00     0.037 A 
BRANCH  53  67
ATOM     67  C   UNL A   1      46.107  27.931  31.455  1.00  0.00     0.058 A 
ATOM     68  C   UNL A   1      47.124  27.902  30.485  1.00  0.00     0.135 A 
ATOM     69  C   UNL A   1      46.300  27.169  32.617  1.00  0.00     0.135 A 
ATOM     70  F   UNL A   1      46.986  28.588  29.338  1.00  0.00    -0.206 F 
ATOM     71  C   UNL A   1      48.268  27.125  30.644  1.00  0.00     0.059 A 
ATOM     72  C   UNL A   1      47.452  26.409  32.814  1.00  0.00     0.059 A 
ATOM     73  F   UNL A   1      45.359  27.144  33.574  1.00  0.00    -0.206 F 
ATOM     74  C   UNL A   1      48.424  26.383  31.815  1.00  0.00     0.060 A 
BRANCH  74  75
ATOM     75  S   UNL A   1      49.922  25.394  32.015  1.00  0.00     0.124 S 
ATOM     76  O   UNL A   1      50.886  26.405  32.438  1.00  0.00    -0.237 OA
ATOM     77  O   UNL A   1      49.525  24.431  33.038  1.00  0.00    -0.237 OA
ATOM     78  O   UNL A   1      50.140  24.835  30.685  1.00  0.00    -0.744 OA
ENDBRANCH  74  75
ENDBRANCH  53  67
BRANCH  54  79
ATOM     79  C   UNL A   1      37.213  32.732  30.043  1.00  0.00     0.058 A 
ATOM     80  C   UNL A   1      36.186  32.630  30.992  1.00  0.00     0.135 A 
ATOM     81  C   UNL A   1      36.993  33.562  28.932  1.00  0.00     0.135 A 
ATOM     82  F   UNL A   1      36.356  31.871  32.085  1.00  0.00    -0.206 F 
ATOM     83  C   UNL A   1      34.977  33.300  30.834  1.00  0.00     0.059 A 
ATOM     84  C   UNL A   1      35.802  34.264  28.765  1.00  0.00     0.059 A 
ATOM     85  F   UNL A   1      37.959  33.732  28.016  1.00  0.00    -0.206 F 
ATOM     86  C   UNL A   1      34.794  34.115  29.716  1.00  0.00     0.060 A 
BRANCH  86  87
ATOM     87  S   UNL A   1      33.230  35.000  29.537  1.00  0.00     0.124 S 
ATOM     88  O   UNL A   1      33.687  36.310  29.086  1.00  0.00    -0.237 OA
ATOM     89  O   UNL A   1      32.531  34.190  28.543  1.00  0.00    -0.237 OA
ATOM     90  O   UNL A   1      32.664  34.958  30.882  1.00  0.00    -0.744 OA
ENDBRANCH  86  87
ENDBRANCH  54  79
BRANCH  66  91
ATOM     91  C   UNL A   1      43.364  34.473  32.869  1.00  0.00     0.058 A 
ATOM     92  C   UNL A   1      43.150  34.789  34.217  1.00  0.00     0.135 A 
ATOM     93  C   UNL A   1      44.096  35.371  32.078  1.00  0.00     0.135 A 
ATOM     94  F   UNL A   1      42.447  33.958  35.005  1.00  0.00    -0.206 F 
ATOM     95  C   UNL A   1      43.619  35.976  34.759  1.00  0.00     0.059 A 
ATOM     96  C   UNL A   1      44.605  36.548  32.608  1.00  0.00     0.059 A 
ATOM     97  F   UNL A   1      44.335  35.098  30.786  1.00  0.00    -0.206 F 
ATOM     98  C   UNL A   1      44.347  36.849  33.945  1.00  0.00     0.060 A 
BRANCH  98  99
ATOM     99  S   UNL A   1      44.973  38.376  34.668  1.00  0.00     0.124 S 
ATOM    100  O   UNL A   1      46.211  37.916  35.289  1.00  0.00    -0.237 OA
ATOM    101  O   UNL A   1      45.130  39.233  33.497  1.00  0.00    -0.237 OA
ATOM    102  O   UNL A   1      43.915  38.772  35.591  1.00  0.00    -0.744 OA
ENDBRANCH  98  99
ENDBRANCH  66  91
ENDBRANCH  40  41
ENDBRANCH  32  35
ENDBRANCH  30  31
ENDBRANCH  29  30
ENDBRANCH  28  29
ENDBRANCH   3  28
TORSDOF 19
ENDMDL
MODEL 2
REMARK VINA RESULT:     -10.1      3.855     11.258
REMARK SMILES Cc1ccc(S(=O)(=O)Nc2ccc(C(=O)CCC(=O)NCCCNC(=O)c3ccc(-c4c5nc(c(-c6c(F)cc(S(=O)(=O)[O-])cc6F)c6ccc([nH]6)c(-c6c(F)cc(S(=O)(=O)[O-])cc6F)c6nc(c(-c7c(F)cc(S(=O)(=O)[O-])cc7F)c7ccc4[nH]7)C=C6)C=C5)cc3)cc2)c(C)c1
REMARK SMILES IDX 18 1 19 2 20 3 17 5 16 6 14 7 15 8 13 9 10 10 11 11 94 12
REMARK SMILES IDX 12 13 93 14 9 15 6 17 7 18 8 19 5 20 1 21 2 22 3 23 97 24
REMARK SMILES IDX 4 25 95 26 96 27 21 28 22 29 23 30 24 31 25 32 26 34 27 35
REMARK SMILES IDX 28 36 92 37 29 38 91 39 30 40 31 41 32 42 85 43 33 44 90 45
REMARK SMILES IDX 84 46 86 47 34 48 89 49 83 50 82 51 35 53 69 54 48 55 68 56
REMARK SMILES IDX 49 57 52 58 67 59 87 60 50 61 51 62 66 64 88 65 53 66 36 67
REMARK SMILES IDX 37 68 46 69 38 70 39 71 45 72 47 73 40 74 41 75 42 76 43 77
REMARK SMILES IDX 44 78 70 79 71 80 80 81 72 82 73 83 79 84 81 85 74 86 75 87
REMARK SMILES IDX 76 88 77 89 78 90 54 91 55 92 64 93 56 94 57 95 63 96 65 97
REMARK SMILES IDX 58 98 59 99 60 100 61 101 62 102
REMARK H PARENT 20 4 9 16 24 33 86 52 52 63
REMARK Flexibility Score: inf
ROOT
ATOM      1  C   UNL A   1      33.881  34.519  28.768  1.00  0.00     0.220 C 
ATOM      2  O   UNL A   1      33.980  35.747  28.724  1.00  0.00    -0.275 OA
ATOM      3  N   UNL A   1      33.297  33.883  27.699  1.00  0.00    -0.356 N 
ATOM      4  H   UNL A   1      33.274  34.386  26.853  1.00  0.00     0.163 HD
ENDROOT
BRANCH   1   5
ATOM      5  C   UNL A   1      34.389  33.725  29.988  1.00  0.00     0.108 C 
BRANCH   5   6
ATOM      6  C   UNL A   1      34.327  34.468  31.356  1.00  0.00     0.091 C 
BRANCH   6   7
ATOM      7  C   UNL A   1      35.562  34.305  32.296  1.00  0.00     0.163 C 
ATOM      8  O   UNL A   1      35.945  35.204  33.037  1.00  0.00    -0.294 OA
BRANCH   7   9
ATOM      9  C   UNL A   1      36.469  33.102  32.098  1.00  0.00     0.018 A 
ATOM     10  C   UNL A   1      39.870  32.057  32.860  1.00  0.00     0.049 A 
ATOM     11  C   UNL A   1      38.525  31.840  34.106  1.00  0.00     0.027 A 
ATOM     12  C   UNL A   1      39.478  32.779  31.264  1.00  0.00     0.027 A 
ATOM     13  C   UNL A   1      36.827  32.306  33.694  1.00  0.00     0.014 A 
ATOM     14  C   UNL A   1      37.775  33.284  30.890  1.00  0.00     0.014 A 
BRANCH  10  15
ATOM     15  N   UNL A   1      40.975  31.132  32.973  1.00  0.00    -0.280 N 
ATOM     16  H   UNL A   1      40.799  30.174  32.829  1.00  0.00     0.180 HD
BRANCH  15  17
ATOM     17  S   UNL A   1      42.556  31.611  33.343  1.00  0.00     0.262 S 
ATOM     18  O   UNL A   1      42.641  31.815  34.772  1.00  0.00    -0.201 OA
ATOM     19  O   UNL A   1      42.882  32.665  32.410  1.00  0.00    -0.201 OA
BRANCH  17  20
ATOM     20  C   UNL A   1      43.561  30.213  32.921  1.00  0.00     0.090 A 
ATOM     21  C   UNL A   1      45.264  27.142  30.502  1.00  0.00     0.044 C 
ATOM     22  C   UNL A   1      44.731  28.174  31.446  1.00  0.00    -0.051 A 
ATOM     23  C   UNL A   1      45.339  29.426  31.502  1.00  0.00     0.005 A 
ATOM     24  C   UNL A   1      43.648  27.899  32.293  1.00  0.00     0.008 A 
ATOM     25  C   UNL A   1      44.769  30.437  32.264  1.00  0.00     0.023 A 
ATOM     26  C   UNL A   1      43.048  28.917  33.049  1.00  0.00    -0.030 A 
ATOM     27  C   UNL A   1      41.993  28.568  34.064  1.00  0.00     0.046 C 
ENDBRANCH  17  20
ENDBRANCH  15  17
ENDBRANCH  10  15
ENDBRANCH   7   9
ENDBRANCH   6   7
ENDBRANCH   5   6
ENDBRANCH   1   5
BRANCH   3  28
ATOM     28  C   UNL A   1      32.705  32.537  27.671  1.00  0.00     0.117 C 
BRANCH  28  29
ATOM     29  C   UNL A   1      33.918  31.487  27.276  1.00  0.00     0.042 C 
BRANCH  29  30
ATOM     30  C   UNL A   1      35.396  30.210  28.248  1.00  0.00     0.118 C 
BRANCH  30  31
ATOM     31  N   UNL A   1      35.684  30.019  29.877  1.00  0.00    -0.352 N 
ATOM     32  C   UNL A   1      36.667  29.665  30.723  1.00  0.00     0.251 C 
ATOM     33  H   UNL A   1      34.869  30.234  30.385  1.00  0.00     0.163 HD
ATOM     34  O   UNL A   1      36.360  29.538  31.908  1.00  0.00    -0.269 OA
BRANCH  32  35
ATOM     35  C   UNL A   1      38.032  29.486  30.302  1.00  0.00     0.039 A 
ATOM     36  C   UNL A   1      38.336  29.887  28.998  1.00  0.00     0.014 A 
ATOM     37  C   UNL A   1      38.939  28.803  31.109  1.00  0.00     0.014 A 
ATOM     38  C   UNL A   1      39.583  29.605  28.493  1.00  0.00     0.010 A 
ATOM     39  C   UNL A   1      40.212  28.599  30.639  1.00  0.00     0.010 A 
ATOM     40  C   UNL A   1      40.515  28.978  29.328  1.00  0.00    -0.014 A 
BRANCH  40  41
ATOM     41  C   UNL A   1      41.850  28.688  28.825  1.00  0.00     0.031 A 
ATOM     42  C   UNL A   1      42.836  29.802  28.752  1.00  0.00     0.074 A 
ATOM     43  C   UNL A   1      42.063  27.435  28.396  1.00  0.00     0.049 A 
ATOM     44  N   UNL A   1      44.045  29.789  28.275  1.00  0.00    -0.248 NA
ATOM     45  C   UNL A   1      42.390  31.124  29.235  1.00  0.00     0.031 C 
ATOM     46  C   UNL A   1      41.063  26.358  28.411  1.00  0.00     0.029 A 
ATOM     47  N   UNL A   1      43.171  26.854  27.868  1.00  0.00    -0.354 N 
ATOM     48  C   UNL A   1      44.499  31.098  28.382  1.00  0.00     0.074 A 
ATOM     49  C   UNL A   1      43.414  31.893  28.904  1.00  0.00     0.031 C 
ATOM     50  C   UNL A   1      41.621  25.233  27.946  1.00  0.00     0.029 A 
ATOM     51  C   UNL A   1      42.997  25.525  27.573  1.00  0.00     0.049 A 
ATOM     52  H   UNL A   1      44.015  27.338  27.713  1.00  0.00     0.167 HD
ATOM     53  C   UNL A   1      45.734  31.559  28.089  1.00  0.00     0.037 A 
ATOM     54  C   UNL A   1      43.881  24.654  27.062  1.00  0.00     0.037 A 
ATOM     55  C   UNL A   1      46.768  30.687  27.597  1.00  0.00     0.049 A 
ATOM     56  C   UNL A   1      45.263  25.181  26.806  1.00  0.00     0.074 A 
ATOM     57  C   UNL A   1      48.080  30.981  27.289  1.00  0.00     0.029 A 
ATOM     58  N   UNL A   1      46.589  29.326  27.357  1.00  0.00    -0.354 N 
ATOM     59  N   UNL A   1      45.710  26.411  26.946  1.00  0.00    -0.248 NA
ATOM     60  C   UNL A   1      46.262  24.218  26.350  1.00  0.00     0.031 C 
ATOM     61  C   UNL A   1      48.684  29.803  26.831  1.00  0.00     0.029 A 
ATOM     62  C   UNL A   1      47.765  28.763  26.903  1.00  0.00     0.049 A 
ATOM     63  H   UNL A   1      45.745  28.837  27.491  1.00  0.00     0.167 HD
ATOM     64  C   UNL A   1      47.055  26.367  26.624  1.00  0.00     0.074 A 
ATOM     65  C   UNL A   1      47.347  24.981  26.296  1.00  0.00     0.031 C 
ATOM     66  C   UNL A   1      47.974  27.367  26.597  1.00  0.00     0.037 A 
BRANCH  53  67
ATOM     67  C   UNL A   1      46.002  33.025  28.294  1.00  0.00     0.058 A 
ATOM     68  C   UNL A   1      45.767  33.971  27.280  1.00  0.00     0.135 A 
ATOM     69  C   UNL A   1      46.515  33.497  29.512  1.00  0.00     0.135 A 
ATOM     70  F   UNL A   1      45.303  33.578  26.082  1.00  0.00    -0.206 F 
ATOM     71  C   UNL A   1      46.059  35.320  27.454  1.00  0.00     0.059 A 
ATOM     72  C   UNL A   1      46.786  34.848  29.721  1.00  0.00     0.059 A 
ATOM     73  F   UNL A   1      46.774  32.642  30.513  1.00  0.00    -0.206 F 
ATOM     74  C   UNL A   1      46.567  35.750  28.680  1.00  0.00     0.060 A 
BRANCH  74  75
ATOM     75  S   UNL A   1      46.924  37.507  28.897  1.00  0.00     0.124 S 
ATOM     76  O   UNL A   1      45.602  38.039  29.209  1.00  0.00    -0.237 OA
ATOM     77  O   UNL A   1      47.880  37.497  30.000  1.00  0.00    -0.237 OA
ATOM     78  O   UNL A   1      47.471  37.905  27.603  1.00  0.00    -0.744 OA
ENDBRANCH  74  75
ENDBRANCH  53  67
BRANCH  54  79
ATOM     79  C   UNL A   1      43.490  23.239  26.857  1.00  0.00     0.058 A 
ATOM     80  C   UNL A   1      43.268  22.388  27.948  1.00  0.00     0.135 A 
ATOM     81  C   UNL A   1      43.248  22.727  25.572  1.00  0.00     0.135 A 
ATOM     82  F   UNL A   1      43.459  22.836  29.198  1.00  0.00    -0.206 F 
ATOM     83  C   UNL A   1      42.848  21.073  27.775  1.00  0.00     0.059 A 
ATOM     84  C   UNL A   1      42.802  21.423  25.373  1.00  0.00     0.059 A 
ATOM     85  F   UNL A   1      43.401  23.512  24.494  1.00  0.00    -0.206 F 
ATOM     86  C   UNL A   1      42.619  20.598  26.482  1.00  0.00     0.060 A 
BRANCH  86  87
ATOM     87  S   UNL A   1      42.049  18.898  26.273  1.00  0.00     0.124 S 
ATOM     88  O   UNL A   1      40.702  19.104  25.752  1.00  0.00    -0.237 OA
ATOM     89  O   UNL A   1      43.024  18.361  25.329  1.00  0.00    -0.237 OA
ATOM     90  O   UNL A   1      42.125  18.349  27.623  1.00  0.00    -0.744 OA
ENDBRANCH  86  87
ENDBRANCH  54  79
BRANCH  66  91
ATOM     91  C   UNL A   1      49.370  26.965  26.234  1.00  0.00     0.058 A 
ATOM     92  C   UNL A   1      49.812  26.975  24.904  1.00  0.00     0.135 A 
ATOM     93  C   UNL A   1      50.281  26.609  27.240  1.00  0.00     0.135 A 
ATOM     94  F   UNL A   1      48.968  27.303  23.912  1.00  0.00    -0.206 F 
ATOM     95  C   UNL A   1      51.109  26.612  24.577  1.00  0.00     0.059 A 
ATOM     96  C   UNL A   1      51.593  26.276  26.938  1.00  0.00     0.059 A 
ATOM     97  F   UNL A   1      49.901  26.601  28.527  1.00  0.00    -0.206 F 
ATOM     98  C   UNL A   1      51.993  26.264  25.603  1.00  0.00     0.060 A 
BRANCH  98  99
ATOM     99  S   UNL A   1      53.683  25.819  25.165  1.00  0.00     0.124 S 
ATOM    100  O   UNL A   1      53.736  24.426  25.594  1.00  0.00    -0.237 OA
ATOM    101  O   UNL A   1      53.700  26.042  23.723  1.00  0.00    -0.237 OA
ATOM    102  O   UNL A   1      54.491  26.750  25.947  1.00  0.00    -0.744 OA
ENDBRANCH  98  99
ENDBRANCH  66  91
ENDBRANCH  40  41
ENDBRANCH  32  35
ENDBRANCH  30  31
ENDBRANCH  29  30
ENDBRANCH  28  29
ENDBRANCH   3  28
TORSDOF 19
ENDMDL
MODEL 3
REMARK VINA RESULT:      -9.9      6.787     11.475
REMARK SMILES Cc1ccc(S(=O)(=O)Nc2ccc(C(=O)CCC(=O)NCCCNC(=O)c3ccc(-c4c5nc(c(-c6c(F)cc(S(=O)(=O)[O-])cc6F)c6ccc([nH]6)c(-c6c(F)cc(S(=O)(=O)[O-])cc6F)c6nc(c(-c7c(F)cc(S(=O)(=O)[O-])cc7F)c7ccc4[nH]7)C=C6)C=C5)cc3)cc2)c(C)c1
REMARK SMILES IDX 18 1 19 2 20 3 17 5 16 6 14 7 15 8 13 9 10 10 11 11 94 12
REMARK SMILES IDX 12 13 93 14 9 15 6 17 7 18 8 19 5 20 1 21 2 22 3 23 97 24
REMARK SMILES IDX 4 25 95 26 96 27 21 28 22 29 23 30 24 31 25 32 26 34 27 35
REMARK SMILES IDX 28 36 92 37 29 38 91 39 30 40 31 41 32 42 85 43 33 44 90 45
REMARK SMILES IDX 84 46 86 47 34 48 89 49 83 50 82 51 35 53 69 54 48 55 68 56
REMARK SMILES IDX 49 57 52 58 67 59 87 60 50 61 51 62 66 64 88 65 53 66 36 67
REMARK SMILES IDX 37 68 46 69 38 70 39 71 45 72 47 73 40 74 41 75 42 76 43 77
REMARK SMILES IDX 44 78 70 79 71 80 80 81 72 82 73 83 79 84 81 85 74 86 75 87
REMARK SMILES IDX 76 88 77 89 78 90 54 91 55 92 64 93 56 94 57 95 63 96 65 97
REMARK SMILES IDX 58 98 59 99 60 100 61 101 62 102
REMARK H PARENT 20 4 9 16 24 33 86 52 52 63
REMARK Flexibility Score: inf
ROOT
ATOM      1  C   UNL A   1      42.827  38.735  26.901  1.00  0.00     0.220 C 
ATOM      2  O   UNL A   1      41.866  37.974  26.764  1.00  0.00    -0.275 OA
ATOM      3  N   UNL A   1      44.086  38.218  26.713  1.00  0.00    -0.356 N 
ATOM      4  H   UNL A   1      44.141  37.382  26.195  1.00  0.00     0.163 HD
ENDROOT
BRANCH   1   5
ATOM      5  C   UNL A   1      42.621  40.215  27.276  1.00  0.00     0.108 C 
BRANCH   5   6
ATOM      6  C   UNL A   1      42.066  41.133  26.145  1.00  0.00     0.091 C 
BRANCH   6   7
ATOM      7  C   UNL A   1      43.068  41.534  25.018  1.00  0.00     0.163 C 
ATOM      8  O   UNL A   1      44.223  41.122  24.991  1.00  0.00    -0.294 OA
BRANCH   7   9
ATOM      9  C   UNL A   1      42.688  42.665  24.079  1.00  0.00     0.018 A 
ATOM     10  C   UNL A   1      43.561  43.922  20.777  1.00  0.00     0.049 A 
ATOM     11  C   UNL A   1      42.298  42.589  20.965  1.00  0.00     0.027 A 
ATOM     12  C   UNL A   1      44.344  44.600  22.244  1.00  0.00     0.027 A 
ATOM     13  C   UNL A   1      41.827  42.015  22.614  1.00  0.00     0.014 A 
ATOM     14  C   UNL A   1      43.891  43.975  23.886  1.00  0.00     0.014 A 
BRANCH  10  15
ATOM     15  N   UNL A   1      43.423  44.745  19.597  1.00  0.00    -0.280 N 
ATOM     16  H   UNL A   1      42.798  45.505  19.628  1.00  0.00     0.180 HD
BRANCH  15  17
ATOM     17  S   UNL A   1      44.280  44.468  18.164  1.00  0.00     0.262 S 
ATOM     18  O   UNL A   1      43.553  43.488  17.388  1.00  0.00    -0.201 OA
ATOM     19  O   UNL A   1      45.654  44.251  18.556  1.00  0.00    -0.201 OA
BRANCH  17  20
ATOM     20  C   UNL A   1      44.223  46.013  17.298  1.00  0.00     0.090 A 
ATOM     21  C   UNL A   1      44.294  50.238  16.722  1.00  0.00     0.044 C 
ATOM     22  C   UNL A   1      44.250  48.745  16.803  1.00  0.00    -0.051 A 
ATOM     23  C   UNL A   1      45.442  48.024  16.782  1.00  0.00     0.005 A 
ATOM     24  C   UNL A   1      43.032  48.052  16.874  1.00  0.00     0.008 A 
ATOM     25  C   UNL A   1      45.424  46.653  17.000  1.00  0.00     0.023 A 
ATOM     26  C   UNL A   1      43.001  46.671  17.118  1.00  0.00    -0.030 A 
ATOM     27  C   UNL A   1      41.695  45.929  17.035  1.00  0.00     0.046 C 
ENDBRANCH  17  20
ENDBRANCH  15  17
ENDBRANCH  10  15
ENDBRANCH   7   9
ENDBRANCH   6   7
ENDBRANCH   5   6
ENDBRANCH   1   5
BRANCH   3  28
ATOM     28  C   UNL A   1      45.362  38.769  27.194  1.00  0.00     0.117 C 
BRANCH  28  29
ATOM     29  C   UNL A   1      46.382  38.824  25.895  1.00  0.00     0.042 C 
BRANCH  29  30
ATOM     30  C   UNL A   1      48.358  38.116  25.299  1.00  0.00     0.118 C 
BRANCH  30  31
ATOM     31  N   UNL A   1      48.845  36.555  24.986  1.00  0.00    -0.352 N 
ATOM     32  C   UNL A   1      48.703  35.307  25.464  1.00  0.00     0.251 C 
ATOM     33  H   UNL A   1      49.428  36.542  24.193  1.00  0.00     0.163 HD
ATOM     34  O   UNL A   1      49.398  34.432  24.948  1.00  0.00    -0.269 OA
BRANCH  32  35
ATOM     35  C   UNL A   1      47.756  34.969  26.495  1.00  0.00     0.039 A 
ATOM     36  C   UNL A   1      46.408  35.174  26.189  1.00  0.00     0.014 A 
ATOM     37  C   UNL A   1      48.191  34.613  27.769  1.00  0.00     0.014 A 
ATOM     38  C   UNL A   1      45.471  35.010  27.182  1.00  0.00     0.010 A 
ATOM     39  C   UNL A   1      47.252  34.362  28.738  1.00  0.00     0.010 A 
ATOM     40  C   UNL A   1      45.904  34.588  28.444  1.00  0.00    -0.014 A 
BRANCH  40  41
ATOM     41  C   UNL A   1      44.930  34.385  29.507  1.00  0.00     0.031 A 
ATOM     42  C   UNL A   1      44.138  33.124  29.509  1.00  0.00     0.074 A 
ATOM     43  C   UNL A   1      44.776  35.398  30.371  1.00  0.00     0.049 A 
ATOM     44  N   UNL A   1      43.176  32.768  30.307  1.00  0.00    -0.248 NA
ATOM     45  C   UNL A   1      44.429  32.148  28.439  1.00  0.00     0.031 C 
ATOM     46  C   UNL A   1      45.517  36.667  30.323  1.00  0.00     0.029 A 
ATOM     47  N   UNL A   1      43.959  35.531  31.447  1.00  0.00    -0.354 N 
ATOM     48  C   UNL A   1      42.734  31.540  29.831  1.00  0.00     0.074 A 
ATOM     49  C   UNL A   1      43.483  31.243  28.634  1.00  0.00     0.031 C 
ATOM     50  C   UNL A   1      45.141  37.435  31.354  1.00  0.00     0.029 A 
ATOM     51  C   UNL A   1      44.116  36.726  32.103  1.00  0.00     0.049 A 
ATOM     52  H   UNL A   1      43.317  34.838  31.729  1.00  0.00     0.167 HD
ATOM     53  C   UNL A   1      41.800  30.739  30.386  1.00  0.00     0.037 A 
ATOM     54  C   UNL A   1      43.487  37.171  33.202  1.00  0.00     0.037 A 
ATOM     55  C   UNL A   1      41.118  31.102  31.600  1.00  0.00     0.049 A 
ATOM     56  C   UNL A   1      42.501  36.231  33.831  1.00  0.00     0.074 A 
ATOM     57  C   UNL A   1      40.178  30.391  32.316  1.00  0.00     0.029 A 
ATOM     58  N   UNL A   1      41.333  32.297  32.284  1.00  0.00    -0.354 N 
ATOM     59  N   UNL A   1      42.110  35.049  33.407  1.00  0.00    -0.248 NA
ATOM     60  C   UNL A   1      41.888  36.662  35.087  1.00  0.00     0.031 C 
ATOM     61  C   UNL A   1      39.799  31.172  33.415  1.00  0.00     0.029 A 
ATOM     62  C   UNL A   1      40.542  32.347  33.415  1.00  0.00     0.049 A 
ATOM     63  H   UNL A   1      41.958  33.003  32.002  1.00  0.00     0.167 HD
ATOM     64  C   UNL A   1      41.224  34.575  34.360  1.00  0.00     0.074 A 
ATOM     65  C   UNL A   1      41.153  35.600  35.389  1.00  0.00     0.031 C 
ATOM     66  C   UNL A   1      40.530  33.408  34.395  1.00  0.00     0.037 A 
BRANCH  53  67
ATOM     67  C   UNL A   1      41.488  29.440  29.692  1.00  0.00     0.058 A 
ATOM     68  C   UNL A   1      40.379  29.302  28.840  1.00  0.00     0.135 A 
ATOM     69  C   UNL A   1      42.296  28.310  29.889  1.00  0.00     0.135 A 
ATOM     70  F   UNL A   1      39.551  30.340  28.633  1.00  0.00    -0.206 F 
ATOM     71  C   UNL A   1      40.064  28.088  28.236  1.00  0.00     0.059 A 
ATOM     72  C   UNL A   1      42.020  27.092  29.270  1.00  0.00     0.059 A 
ATOM     73  F   UNL A   1      43.362  28.374  30.703  1.00  0.00    -0.206 F 
ATOM     74  C   UNL A   1      40.893  26.988  28.456  1.00  0.00     0.060 A 
BRANCH  74  75
ATOM     75  S   UNL A   1      40.482  25.425  27.650  1.00  0.00     0.124 S 
ATOM     76  O   UNL A   1      39.184  25.122  28.243  1.00  0.00    -0.237 OA
ATOM     77  O   UNL A   1      40.462  25.798  26.239  1.00  0.00    -0.237 OA
ATOM     78  O   UNL A   1      41.575  24.541  28.045  1.00  0.00    -0.744 OA
ENDBRANCH  74  75
ENDBRANCH  53  67
BRANCH  54  79
ATOM     79  C   UNL A   1      43.843  38.493  33.772  1.00  0.00     0.058 A 
ATOM     80  C   UNL A   1      44.666  38.592  34.902  1.00  0.00     0.135 A 
ATOM     81  C   UNL A   1      43.438  39.688  33.155  1.00  0.00     0.135 A 
ATOM     82  F   UNL A   1      45.102  37.479  35.513  1.00  0.00    -0.206 F 
ATOM     83  C   UNL A   1      45.054  39.824  35.418  1.00  0.00     0.059 A 
ATOM     84  C   UNL A   1      43.834  40.933  33.636  1.00  0.00     0.059 A 
ATOM     85  F   UNL A   1      42.686  39.650  32.044  1.00  0.00    -0.206 F 
ATOM     86  C   UNL A   1      44.631  40.990  34.778  1.00  0.00     0.060 A 
BRANCH  86  87
ATOM     87  S   UNL A   1      45.163  42.583  35.442  1.00  0.00     0.124 S 
ATOM     88  O   UNL A   1      45.246  42.291  36.870  1.00  0.00    -0.237 OA
ATOM     89  O   UNL A   1      46.435  42.792  34.758  1.00  0.00    -0.237 OA
ATOM     90  O   UNL A   1      44.089  43.489  35.046  1.00  0.00    -0.744 OA
ENDBRANCH  86  87
ENDBRANCH  54  79
BRANCH  66  91
ATOM     91  C   UNL A   1      39.675  33.190  35.605  1.00  0.00     0.058 A 
ATOM     92  C   UNL A   1      40.192  32.614  36.773  1.00  0.00     0.135 A 
ATOM     93  C   UNL A   1      38.335  33.607  35.599  1.00  0.00     0.135 A 
ATOM     94  F   UNL A   1      41.468  32.196  36.815  1.00  0.00    -0.206 F 
ATOM     95  C   UNL A   1      39.396  32.426  37.892  1.00  0.00     0.059 A 
ATOM     96  C   UNL A   1      37.530  33.460  36.720  1.00  0.00     0.059 A 
ATOM     97  F   UNL A   1      37.806  34.176  34.504  1.00  0.00    -0.206 F 
ATOM     98  C   UNL A   1      38.066  32.854  37.855  1.00  0.00     0.060 A 
BRANCH  98  99
ATOM     99  S   UNL A   1      37.050  32.626  39.326  1.00  0.00     0.124 S 
ATOM    100  O   UNL A   1      37.447  31.287  39.749  1.00  0.00    -0.237 OA
ATOM    101  O   UNL A   1      37.494  33.721  40.183  1.00  0.00    -0.237 OA
ATOM    102  O   UNL A   1      35.687  32.748  38.818  1.00  0.00    -0.744 OA
ENDBRANCH  98  99
ENDBRANCH  66  91
ENDBRANCH  40  41
ENDBRANCH  32  35
ENDBRANCH  30  31
ENDBRANCH  29  30
ENDBRANCH  28  29
ENDBRANCH   3  28
TORSDOF 19
ENDMDL
