MODEL 1
REMARK VINA RESULT:     -10.3      0.000      0.000
REMARK SMILES CCCCC[NH2+][C@](C)(C(=O)NCCCNC(=O)c1ccc(-c2c3nc(c(-c4c(F)cc(S(=O)(=O)[O-])cc4F)c4ccc([nH]4)c(-c4c(F)cc(S(=O)(=O)[O-])cc4F)c4nc(c(-c5c(F)cc(S(=O)(=O)[O-])cc5F)c5ccc2[nH]5)C=C4)C=C3)cc1)C(F)(F)F
REMARK SMILES IDX 12 1 11 2 9 3 10 4 7 6 8 7 6 8 5 11 4 12 3 13 2 14 1 15
REMARK SMILES IDX 84 16 85 17 86 18 87 19 13 20 14 21 15 22 16 23 17 25 18 26
REMARK SMILES IDX 19 27 83 28 20 29 82 30 21 31 22 32 23 33 76 34 24 35 81 36
REMARK SMILES IDX 75 37 77 38 25 39 80 40 74 41 73 42 26 44 60 45 39 46 59 47
REMARK SMILES IDX 40 48 43 49 58 50 78 51 41 52 42 53 57 55 79 56 44 57 27 58
REMARK SMILES IDX 28 59 37 60 29 61 30 62 36 63 38 64 31 65 32 66 33 67 34 68
REMARK SMILES IDX 35 69 61 70 62 71 71 72 63 73 64 74 70 75 72 76 65 77 66 78
REMARK SMILES IDX 67 79 68 80 69 81 45 82 46 83 55 84 47 85 48 86 54 87 56 88
REMARK SMILES IDX 49 89 50 90 51 91 52 92 53 93
REMARK H PARENT 11 5 6 9 6 10 15 24 77 43 43 54
REMARK Flexibility Score: inf
ROOT
ATOM      1  C   UNL A   1      42.548  21.125  26.536  1.00  0.00     0.118 C 
ENDROOT
BRANCH   1   2
ATOM      2  N   UNL A   1      42.789  21.931  25.352  1.00  0.00    -0.350 N 
ATOM      3  C   UNL A   1      43.918  22.254  24.651  1.00  0.00     0.290 C 
ATOM      4  O   UNL A   1      43.686  22.749  23.542  1.00  0.00    -0.267 OA
ATOM      5  H   UNL A   1      41.969  22.328  24.977  1.00  0.00     0.163 HD
BRANCH   3   6
ATOM      6  C   UNL A   1      45.364  22.026  25.165  1.00  0.00     0.268 C 
ATOM      7  C   UNL A   1      46.412  22.851  24.393  1.00  0.00     0.101 C 
BRANCH   6   8
ATOM      8  N   UNL A   1      45.523  22.207  26.659  1.00  0.00    -0.326 N 
ATOM      9  H   UNL A   1      44.702  21.796  27.103  1.00  0.00     0.347 HD
ATOM     10  H   UNL A   1      46.413  21.760  26.879  1.00  0.00     0.347 HD
BRANCH   8  11
ATOM     11  C   UNL A   1      45.658  23.559  27.166  1.00  0.00     0.261 C 
BRANCH  11  12
ATOM     12  C   UNL A   1      44.457  24.036  27.988  1.00  0.00     0.061 C 
BRANCH  12  13
ATOM     13  C   UNL A   1      44.076  23.132  29.168  1.00  0.00     0.006 C 
BRANCH  13  14
ATOM     14  C   UNL A   1      44.165  23.758  30.566  1.00  0.00    -0.003 C 
ATOM     15  C   UNL A   1      44.862  25.110  30.603  1.00  0.00     0.004 C 
ENDBRANCH  13  14
ENDBRANCH  12  13
ENDBRANCH  11  12
ENDBRANCH   8  11
ENDBRANCH   6   8
BRANCH   6  16
ATOM     16  C   UNL A   1      45.671  20.532  24.796  1.00  0.00     0.453 C 
ATOM     17  F   UNL A   1      44.910  20.086  23.768  1.00  0.00    -0.164 F 
ATOM     18  F   UNL A   1      46.967  20.417  24.378  1.00  0.00    -0.164 F 
ATOM     19  F   UNL A   1      45.539  19.671  25.828  1.00  0.00    -0.164 F 
ENDBRANCH   6  16
ENDBRANCH   3   6
ENDBRANCH   1   2
BRANCH   1  20
ATOM     20  C   UNL A   1      41.205  21.369  27.193  1.00  0.00     0.042 C 
BRANCH  20  21
ATOM     21  C   UNL A   1      40.937  22.829  27.517  1.00  0.00     0.118 C 
BRANCH  21  22
ATOM     22  N   UNL A   1      41.012  23.703  26.350  1.00  0.00    -0.352 N 
ATOM     23  C   UNL A   1      40.946  25.074  26.235  1.00  0.00     0.251 C 
ATOM     24  H   UNL A   1      41.129  23.229  25.495  1.00  0.00     0.163 HD
ATOM     25  O   UNL A   1      40.860  25.578  25.121  1.00  0.00    -0.269 OA
BRANCH  23  26
ATOM     26  C   UNL A   1      40.943  25.933  27.441  1.00  0.00     0.039 A 
ATOM     27  C   UNL A   1      42.016  26.799  27.669  1.00  0.00     0.014 A 
ATOM     28  C   UNL A   1      39.887  25.892  28.348  1.00  0.00     0.014 A 
ATOM     29  C   UNL A   1      41.975  27.688  28.747  1.00  0.00     0.010 A 
ATOM     30  C   UNL A   1      39.784  26.863  29.336  1.00  0.00     0.010 A 
ATOM     31  C   UNL A   1      40.830  27.767  29.557  1.00  0.00    -0.014 A 
BRANCH  31  32
ATOM     32  C   UNL A   1      40.699  28.774  30.643  1.00  0.00     0.031 A 
ATOM     33  C   UNL A   1      41.542  28.656  31.887  1.00  0.00     0.074 A 
ATOM     34  C   UNL A   1      39.748  29.725  30.561  1.00  0.00     0.049 A 
ATOM     35  N   UNL A   1      41.489  29.356  32.992  1.00  0.00    -0.248 NA
ATOM     36  C   UNL A   1      42.541  27.574  31.915  1.00  0.00     0.031 C 
ATOM     37  C   UNL A   1      38.805  29.889  29.452  1.00  0.00     0.029 A 
ATOM     38  N   UNL A   1      39.398  30.720  31.440  1.00  0.00    -0.354 N 
ATOM     39  C   UNL A   1      42.411  28.772  33.854  1.00  0.00     0.074 A 
ATOM     40  C   UNL A   1      42.966  27.627  33.167  1.00  0.00     0.031 C 
ATOM     41  C   UNL A   1      38.002  30.933  29.706  1.00  0.00     0.029 A 
ATOM     42  C   UNL A   1      38.344  31.491  31.009  1.00  0.00     0.049 A 
ATOM     43  H   UNL A   1      39.859  30.868  32.297  1.00  0.00     0.167 HD
ATOM     44  C   UNL A   1      42.782  29.169  35.094  1.00  0.00     0.037 A 
ATOM     45  C   UNL A   1      37.716  32.526  31.602  1.00  0.00     0.037 A 
ATOM     46  C   UNL A   1      42.270  30.345  35.745  1.00  0.00     0.049 A 
ATOM     47  C   UNL A   1      38.196  33.001  32.943  1.00  0.00     0.074 A 
ATOM     48  C   UNL A   1      42.660  30.903  36.949  1.00  0.00     0.029 A 
ATOM     49  N   UNL A   1      41.255  31.147  35.243  1.00  0.00    -0.354 N 
ATOM     50  N   UNL A   1      39.137  32.496  33.705  1.00  0.00    -0.248 NA
ATOM     51  C   UNL A   1      37.541  34.191  33.502  1.00  0.00     0.031 C 
ATOM     52  C   UNL A   1      41.855  32.020  37.194  1.00  0.00     0.029 A 
ATOM     53  C   UNL A   1      40.991  32.184  36.122  1.00  0.00     0.049 A 
ATOM     54  H   UNL A   1      40.791  31.001  34.387  1.00  0.00     0.167 HD
ATOM     55  C   UNL A   1      39.197  33.314  34.828  1.00  0.00     0.074 A 
ATOM     56  C   UNL A   1      38.210  34.357  34.635  1.00  0.00     0.031 C 
ATOM     57  C   UNL A   1      39.999  33.210  35.916  1.00  0.00     0.037 A 
BRANCH  44  58
ATOM     58  C   UNL A   1      43.794  28.323  35.820  1.00  0.00     0.058 A 
ATOM     59  C   UNL A   1      43.410  27.294  36.696  1.00  0.00     0.135 A 
ATOM     60  C   UNL A   1      45.169  28.549  35.641  1.00  0.00     0.135 A 
ATOM     61  F   UNL A   1      42.109  27.043  36.916  1.00  0.00    -0.206 F 
ATOM     62  C   UNL A   1      44.350  26.555  37.408  1.00  0.00     0.059 A 
ATOM     63  C   UNL A   1      46.128  27.799  36.319  1.00  0.00     0.059 A 
ATOM     64  F   UNL A   1      45.594  29.516  34.814  1.00  0.00    -0.206 F 
ATOM     65  C   UNL A   1      45.706  26.821  37.218  1.00  0.00     0.060 A 
BRANCH  65  66
ATOM     66  S   UNL A   1      46.913  25.872  38.168  1.00  0.00     0.124 S 
ATOM     67  O   UNL A   1      47.069  26.710  39.354  1.00  0.00    -0.237 OA
ATOM     68  O   UNL A   1      46.222  24.604  38.376  1.00  0.00    -0.237 OA
ATOM     69  O   UNL A   1      48.071  25.814  37.282  1.00  0.00    -0.744 OA
ENDBRANCH  65  66
ENDBRANCH  44  58
BRANCH  45  70
ATOM     70  C   UNL A   1      36.589  33.195  30.899  1.00  0.00     0.058 A 
ATOM     71  C   UNL A   1      35.268  33.035  31.339  1.00  0.00     0.135 A 
ATOM     72  C   UNL A   1      36.819  34.060  29.816  1.00  0.00     0.135 A 
ATOM     73  F   UNL A   1      35.000  32.215  32.367  1.00  0.00    -0.206 F 
ATOM     74  C   UNL A   1      34.212  33.710  30.736  1.00  0.00     0.059 A 
ATOM     75  C   UNL A   1      35.782  34.762  29.211  1.00  0.00     0.059 A 
ATOM     76  F   UNL A   1      38.069  34.262  29.371  1.00  0.00    -0.206 F 
ATOM     77  C   UNL A   1      34.480  34.579  29.678  1.00  0.00     0.060 A 
BRANCH  77  78
ATOM     78  S   UNL A   1      33.115  35.525  28.966  1.00  0.00     0.124 S 
ATOM     79  O   UNL A   1      32.468  34.523  28.129  1.00  0.00    -0.237 OA
ATOM     80  O   UNL A   1      32.377  35.940  30.154  1.00  0.00    -0.237 OA
ATOM     81  O   UNL A   1      33.793  36.603  28.252  1.00  0.00    -0.744 OA
ENDBRANCH  77  78
ENDBRANCH  45  70
BRANCH  57  82
ATOM     82  C   UNL A   1      39.851  34.259  36.983  1.00  0.00     0.058 A 
ATOM     83  C   UNL A   1      40.484  35.506  36.879  1.00  0.00     0.135 A 
ATOM     84  C   UNL A   1      39.021  34.031  38.093  1.00  0.00     0.135 A 
ATOM     85  F   UNL A   1      41.292  35.769  35.840  1.00  0.00    -0.206 F 
ATOM     86  C   UNL A   1      40.319  36.487  37.852  1.00  0.00     0.059 A 
ATOM     87  C   UNL A   1      38.820  35.006  39.064  1.00  0.00     0.059 A 
ATOM     88  F   UNL A   1      38.383  32.858  38.232  1.00  0.00    -0.206 F 
ATOM     89  C   UNL A   1      39.484  36.226  38.940  1.00  0.00     0.060 A 
BRANCH  89  90
ATOM     90  S   UNL A   1      39.249  37.519  40.180  1.00  0.00     0.124 S 
ATOM     91  O   UNL A   1      40.575  38.127  40.222  1.00  0.00    -0.237 OA
ATOM     92  O   UNL A   1      38.195  38.336  39.587  1.00  0.00    -0.237 OA
ATOM     93  O   UNL A   1      38.861  36.776  41.375  1.00  0.00    -0.744 OA
ENDBRANCH  89  90
ENDBRANCH  57  82
ENDBRANCH  31  32
ENDBRANCH  23  26
ENDBRANCH  21  22
ENDBRANCH  20  21
ENDBRANCH   1  20
TORSDOF 19
ENDMDL
MODEL 2
REMARK VINA RESULT:     -10.1      3.571      5.194
REMARK SMILES CCCCC[NH2+][C@](C)(C(=O)NCCCNC(=O)c1ccc(-c2c3nc(c(-c4c(F)cc(S(=O)(=O)[O-])cc4F)c4ccc([nH]4)c(-c4c(F)cc(S(=O)(=O)[O-])cc4F)c4nc(c(-c5c(F)cc(S(=O)(=O)[O-])cc5F)c5ccc2[nH]5)C=C4)C=C3)cc1)C(F)(F)F
REMARK SMILES IDX 12 1 11 2 9 3 10 4 7 6 8 7 6 8 5 11 4 12 3 13 2 14 1 15
REMARK SMILES IDX 84 16 85 17 86 18 87 19 13 20 14 21 15 22 16 23 17 25 18 26
REMARK SMILES IDX 19 27 83 28 20 29 82 30 21 31 22 32 23 33 76 34 24 35 81 36
REMARK SMILES IDX 75 37 77 38 25 39 80 40 74 41 73 42 26 44 60 45 39 46 59 47
REMARK SMILES IDX 40 48 43 49 58 50 78 51 41 52 42 53 57 55 79 56 44 57 27 58
REMARK SMILES IDX 28 59 37 60 29 61 30 62 36 63 38 64 31 65 32 66 33 67 34 68
REMARK SMILES IDX 35 69 61 70 62 71 71 72 63 73 64 74 70 75 72 76 65 77 66 78
REMARK SMILES IDX 67 79 68 80 69 81 45 82 46 83 55 84 47 85 48 86 54 87 56 88
REMARK SMILES IDX 49 89 50 90 51 91 52 92 53 93
REMARK H PARENT 11 5 6 9 6 10 15 24 77 43 43 54
REMARK Flexibility Score: inf
ROOT
ATOM      1  C   UNL A   1      37.080  22.338  25.305  1.00  0.00     0.118 C 
ENDROOT
BRANCH   1   2
ATOM      2  N   UNL A   1      36.111  21.974  26.324  1.00  0.00    -0.350 N 
ATOM      3  C   UNL A   1      34.754  22.105  26.415  1.00  0.00     0.290 C 
ATOM      4  O   UNL A   1      34.253  21.434  27.326  1.00  0.00    -0.267 OA
ATOM      5  H   UNL A   1      36.516  21.545  27.112  1.00  0.00     0.163 HD
BRANCH   3   6
ATOM      6  C   UNL A   1      33.893  22.995  25.479  1.00  0.00     0.268 C 
ATOM      7  C   UNL A   1      32.433  23.129  25.954  1.00  0.00     0.101 C 
BRANCH   6   8
ATOM      8  N   UNL A   1      34.498  24.352  25.192  1.00  0.00    -0.326 N 
ATOM      9  H   UNL A   1      35.452  24.341  25.552  1.00  0.00     0.347 HD
ATOM     10  H   UNL A   1      34.410  24.464  24.182  1.00  0.00     0.347 HD
BRANCH   8  11
ATOM     11  C   UNL A   1      33.839  25.517  25.748  1.00  0.00     0.261 C 
BRANCH  11  12
ATOM     12  C   UNL A   1      33.547  26.614  24.720  1.00  0.00     0.061 C 
BRANCH  12  13
ATOM     13  C   UNL A   1      33.258  26.113  23.298  1.00  0.00     0.006 C 
BRANCH  13  14
ATOM     14  C   UNL A   1      33.653  27.050  22.150  1.00  0.00    -0.003 C 
ATOM     15  C   UNL A   1      33.999  28.466  22.587  1.00  0.00     0.004 C 
ENDBRANCH  13  14
ENDBRANCH  12  13
ENDBRANCH  11  12
ENDBRANCH   8  11
ENDBRANCH   6   8
BRANCH   6  16
ATOM     16  C   UNL A   1      33.812  22.178  24.142  1.00  0.00     0.453 C 
ATOM     17  F   UNL A   1      32.570  22.194  23.600  1.00  0.00    -0.164 F 
ATOM     18  F   UNL A   1      34.634  22.740  23.207  1.00  0.00    -0.164 F 
ATOM     19  F   UNL A   1      34.210  20.892  24.257  1.00  0.00    -0.164 F 
ENDBRANCH   6  16
ENDBRANCH   3   6
ENDBRANCH   1   2
BRANCH   1  20
ATOM     20  C   UNL A   1      37.782  23.658  25.556  1.00  0.00     0.042 C 
BRANCH  20  21
ATOM     21  C   UNL A   1      38.771  23.616  26.708  1.00  0.00     0.118 C 
BRANCH  21  22
ATOM     22  N   UNL A   1      40.161  23.745  26.281  1.00  0.00    -0.352 N 
ATOM     23  C   UNL A   1      41.101  24.722  26.524  1.00  0.00     0.251 C 
ATOM     24  H   UNL A   1      40.483  23.002  25.720  1.00  0.00     0.163 HD
ATOM     25  O   UNL A   1      42.162  24.698  25.912  1.00  0.00    -0.269 OA
BRANCH  23  26
ATOM     26  C   UNL A   1      40.823  25.813  27.485  1.00  0.00     0.039 A 
ATOM     27  C   UNL A   1      39.834  25.636  28.457  1.00  0.00     0.014 A 
ATOM     28  C   UNL A   1      41.533  27.011  27.436  1.00  0.00     0.014 A 
ATOM     29  C   UNL A   1      39.636  26.617  29.434  1.00  0.00     0.010 A 
ATOM     30  C   UNL A   1      41.430  27.921  28.481  1.00  0.00     0.010 A 
ATOM     31  C   UNL A   1      40.473  27.743  29.487  1.00  0.00    -0.014 A 
BRANCH  31  32
ATOM     32  C   UNL A   1      40.369  28.753  30.574  1.00  0.00     0.031 A 
ATOM     33  C   UNL A   1      41.210  28.611  31.817  1.00  0.00     0.074 A 
ATOM     34  C   UNL A   1      39.442  29.727  30.496  1.00  0.00     0.049 A 
ATOM     35  N   UNL A   1      41.177  29.310  32.923  1.00  0.00    -0.248 NA
ATOM     36  C   UNL A   1      42.181  27.503  31.842  1.00  0.00     0.031 C 
ATOM     37  C   UNL A   1      38.503  29.917  29.387  1.00  0.00     0.029 A 
ATOM     38  N   UNL A   1      39.120  30.730  31.376  1.00  0.00    -0.354 N 
ATOM     39  C   UNL A   1      42.085  28.701  33.783  1.00  0.00     0.074 A 
ATOM     40  C   UNL A   1      42.609  27.544  33.093  1.00  0.00     0.031 C 
ATOM     41  C   UNL A   1      37.727  30.982  29.644  1.00  0.00     0.029 A 
ATOM     42  C   UNL A   1      38.085  31.528  30.948  1.00  0.00     0.049 A 
ATOM     43  H   UNL A   1      39.585  30.865  32.233  1.00  0.00     0.167 HD
ATOM     44  C   UNL A   1      42.468  29.087  35.023  1.00  0.00     0.037 A 
ATOM     45  C   UNL A   1      37.485  32.579  31.542  1.00  0.00     0.037 A 
ATOM     46  C   UNL A   1      41.987  30.275  35.676  1.00  0.00     0.049 A 
ATOM     47  C   UNL A   1      37.979  33.040  32.883  1.00  0.00     0.074 A 
ATOM     48  C   UNL A   1      42.394  30.821  36.880  1.00  0.00     0.029 A 
ATOM     49  N   UNL A   1      40.993  31.104  35.176  1.00  0.00    -0.354 N 
ATOM     50  N   UNL A   1      38.908  32.510  33.644  1.00  0.00    -0.248 NA
ATOM     51  C   UNL A   1      37.356  34.245  33.445  1.00  0.00     0.031 C 
ATOM     52  C   UNL A   1      41.618  31.959  37.128  1.00  0.00     0.029 A 
ATOM     53  C   UNL A   1      40.757  32.146  36.057  1.00  0.00     0.049 A 
ATOM     54  H   UNL A   1      40.523  30.971  34.321  1.00  0.00     0.167 HD
ATOM     55  C   UNL A   1      38.991  33.324  34.767  1.00  0.00     0.074 A 
ATOM     56  C   UNL A   1      38.031  34.392  34.578  1.00  0.00     0.031 C 
ATOM     57  C   UNL A   1      39.791  33.198  35.854  1.00  0.00     0.037 A 
BRANCH  44  58
ATOM     58  C   UNL A   1      43.459  28.215  35.746  1.00  0.00     0.058 A 
ATOM     59  C   UNL A   1      44.845  28.367  35.575  1.00  0.00     0.135 A 
ATOM     60  C   UNL A   1      43.016  27.205  36.617  1.00  0.00     0.135 A 
ATOM     61  F   UNL A   1      45.325  29.306  34.743  1.00  0.00    -0.206 F 
ATOM     62  C   UNL A   1      45.754  27.520  36.201  1.00  0.00     0.059 A 
ATOM     63  C   UNL A   1      43.910  26.367  37.279  1.00  0.00     0.059 A 
ATOM     64  F   UNL A   1      41.704  27.016  36.821  1.00  0.00    -0.206 F 
ATOM     65  C   UNL A   1      45.276  26.517  37.044  1.00  0.00     0.060 A 
BRANCH  65  66
ATOM     66  S   UNL A   1      46.465  25.408  37.827  1.00  0.00     0.124 S 
ATOM     67  O   UNL A   1      46.855  26.185  39.000  1.00  0.00    -0.237 OA
ATOM     68  O   UNL A   1      45.660  24.221  38.095  1.00  0.00    -0.237 OA
ATOM     69  O   UNL A   1      47.498  25.245  36.809  1.00  0.00    -0.744 OA
ENDBRANCH  65  66
ENDBRANCH  44  58
BRANCH  45  70
ATOM     70  C   UNL A   1      36.375  33.277  30.842  1.00  0.00     0.058 A 
ATOM     71  C   UNL A   1      35.059  33.198  31.318  1.00  0.00     0.135 A 
ATOM     72  C   UNL A   1      36.619  34.092  29.724  1.00  0.00     0.135 A 
ATOM     73  F   UNL A   1      34.777  32.428  32.380  1.00  0.00    -0.206 F 
ATOM     74  C   UNL A   1      34.022  33.903  30.716  1.00  0.00     0.059 A 
ATOM     75  C   UNL A   1      35.603  34.823  29.118  1.00  0.00     0.059 A 
ATOM     76  F   UNL A   1      37.866  34.217  29.243  1.00  0.00    -0.206 F 
ATOM     77  C   UNL A   1      34.306  34.721  29.621  1.00  0.00     0.060 A 
BRANCH  77  78
ATOM     78  S   UNL A   1      32.971  35.707  28.907  1.00  0.00     0.124 S 
ATOM     79  O   UNL A   1      32.349  34.749  28.002  1.00  0.00    -0.237 OA
ATOM     80  O   UNL A   1      32.194  36.072  30.087  1.00  0.00    -0.237 OA
ATOM     81  O   UNL A   1      33.679  36.813  28.267  1.00  0.00    -0.744 OA
ENDBRANCH  77  78
ENDBRANCH  45  70
BRANCH  57  82
ATOM     82  C   UNL A   1      39.672  34.249  36.922  1.00  0.00     0.058 A 
ATOM     83  C   UNL A   1      38.979  34.006  38.117  1.00  0.00     0.135 A 
ATOM     84  C   UNL A   1      40.307  35.492  36.770  1.00  0.00     0.135 A 
ATOM     85  F   UNL A   1      38.350  32.836  38.308  1.00  0.00    -0.206 F 
ATOM     86  C   UNL A   1      38.898  34.969  39.118  1.00  0.00     0.059 A 
ATOM     87  C   UNL A   1      40.262  36.461  37.767  1.00  0.00     0.059 A 
ATOM     88  F   UNL A   1      40.993  35.769  35.649  1.00  0.00    -0.206 F 
ATOM     89  C   UNL A   1      39.544  36.193  38.933  1.00  0.00     0.060 A 
BRANCH  89  90
ATOM     90  S   UNL A   1      39.462  37.424  40.252  1.00  0.00     0.124 S 
ATOM     91  O   UNL A   1      40.876  37.695  40.487  1.00  0.00    -0.237 OA
ATOM     92  O   UNL A   1      38.704  38.504  39.626  1.00  0.00    -0.237 OA
ATOM     93  O   UNL A   1      38.770  36.722  41.328  1.00  0.00    -0.744 OA
ENDBRANCH  89  90
ENDBRANCH  57  82
ENDBRANCH  31  32
ENDBRANCH  23  26
ENDBRANCH  21  22
ENDBRANCH  20  21
ENDBRANCH   1  20
TORSDOF 19
ENDMDL
MODEL 3
REMARK VINA RESULT:      -9.8      3.571      9.871
REMARK SMILES CCCCC[NH2+][C@](C)(C(=O)NCCCNC(=O)c1ccc(-c2c3nc(c(-c4c(F)cc(S(=O)(=O)[O-])cc4F)c4ccc([nH]4)c(-c4c(F)cc(S(=O)(=O)[O-])cc4F)c4nc(c(-c5c(F)cc(S(=O)(=O)[O-])cc5F)c5ccc2[nH]5)C=C4)C=C3)cc1)C(F)(F)F
REMARK SMILES IDX 12 1 11 2 9 3 10 4 7 6 8 7 6 8 5 11 4 12 3 13 2 14 1 15
REMARK SMILES IDX 84 16 85 17 86 18 87 19 13 20 14 21 15 22 16 23 17 25 18 26
REMARK SMILES IDX 19 27 83 28 20 29 82 30 21 31 22 32 23 33 76 34 24 35 81 36
REMARK SMILES IDX 75 37 77 38 25 39 80 40 74 41 73 42 26 44 60 45 39 46 59 47
REMARK SMILES IDX 40 48 43 49 58 50 78 51 41 52 42 53 57 55 79 56 44 57 27 58
REMARK SMILES IDX 28 59 37 60 29 61 30 62 36 63 38 64 31 65 32 66 33 67 34 68
REMARK SMILES IDX 35 69 61 70 62 71 71 72 63 73 64 74 70 75 72 76 65 77 66 78
REMARK SMILES IDX 67 79 68 80 69 81 45 82 46 83 55 84 47 85 48 86 54 87 56 88
REMARK SMILES IDX 49 89 50 90 51 91 52 92 53 93
REMARK H PARENT 11 5 6 9 6 10 15 24 77 43 43 54
REMARK Flexibility Score: inf
ROOT
ATOM      1  C   UNL A   1      37.771  22.306  25.625  1.00  0.00     0.118 C 
ENDROOT
BRANCH   1   2
ATOM      2  N   UNL A   1      37.370  22.506  24.244  1.00  0.00    -0.350 N 
ATOM      3  C   UNL A   1      36.157  22.668  23.634  1.00  0.00     0.290 C 
ATOM      4  O   UNL A   1      36.239  23.076  22.470  1.00  0.00    -0.267 OA
ATOM      5  H   UNL A   1      38.128  22.529  23.616  1.00  0.00     0.163 HD
BRANCH   3   6
ATOM      6  C   UNL A   1      34.790  22.382  24.312  1.00  0.00     0.268 C 
ATOM      7  C   UNL A   1      33.613  22.395  23.316  1.00  0.00     0.101 C 
BRANCH   6   8
ATOM      8  N   UNL A   1      34.772  21.128  25.159  1.00  0.00    -0.326 N 
ATOM      9  H   UNL A   1      35.130  20.367  24.581  1.00  0.00     0.347 HD
ATOM     10  H   UNL A   1      35.335  21.363  25.977  1.00  0.00     0.347 HD
BRANCH   8  11
ATOM     11  C   UNL A   1      33.500  20.698  25.703  1.00  0.00     0.261 C 
BRANCH  11  12
ATOM     12  C   UNL A   1      33.091  19.284  25.280  1.00  0.00     0.061 C 
BRANCH  12  13
ATOM     13  C   UNL A   1      34.096  18.559  24.375  1.00  0.00     0.006 C 
BRANCH  13  14
ATOM     14  C   UNL A   1      33.519  17.511  23.415  1.00  0.00    -0.003 C 
ATOM     15  C   UNL A   1      32.402  18.028  22.520  1.00  0.00     0.004 C 
ENDBRANCH  13  14
ENDBRANCH  12  13
ENDBRANCH  11  12
ENDBRANCH   8  11
ENDBRANCH   6   8
BRANCH   6  16
ATOM     16  C   UNL A   1      34.553  23.627  25.236  1.00  0.00     0.453 C 
ATOM     17  F   UNL A   1      35.005  23.429  26.498  1.00  0.00    -0.164 F 
ATOM     18  F   UNL A   1      35.250  24.699  24.755  1.00  0.00    -0.164 F 
ATOM     19  F   UNL A   1      33.265  24.028  25.304  1.00  0.00    -0.164 F 
ENDBRANCH   6  16
ENDBRANCH   3   6
ENDBRANCH   1   2
BRANCH   1  20
ATOM     20  C   UNL A   1      38.250  23.564  26.322  1.00  0.00     0.042 C 
BRANCH  20  21
ATOM     21  C   UNL A   1      39.653  23.452  26.893  1.00  0.00     0.118 C 
BRANCH  21  22
ATOM     22  N   UNL A   1      40.666  24.103  26.067  1.00  0.00    -0.352 N 
ATOM     23  C   UNL A   1      41.196  25.374  26.110  1.00  0.00     0.251 C 
ATOM     24  H   UNL A   1      41.035  23.534  25.353  1.00  0.00     0.163 HD
ATOM     25  O   UNL A   1      41.919  25.753  25.196  1.00  0.00    -0.269 OA
BRANCH  23  26
ATOM     26  C   UNL A   1      40.870  26.289  27.227  1.00  0.00     0.039 A 
ATOM     27  C   UNL A   1      39.986  25.867  28.224  1.00  0.00     0.014 A 
ATOM     28  C   UNL A   1      41.432  27.562  27.300  1.00  0.00     0.014 A 
ATOM     29  C   UNL A   1      39.752  26.682  29.336  1.00  0.00     0.010 A 
ATOM     30  C   UNL A   1      41.307  28.310  28.463  1.00  0.00     0.010 A 
ATOM     31  C   UNL A   1      40.456  27.887  29.492  1.00  0.00    -0.014 A 
BRANCH  31  32
ATOM     32  C   UNL A   1      40.321  28.728  30.711  1.00  0.00     0.031 A 
ATOM     33  C   UNL A   1      39.272  29.808  30.770  1.00  0.00     0.074 A 
ATOM     34  C   UNL A   1      41.212  28.598  31.714  1.00  0.00     0.049 A 
ATOM     35  N   UNL A   1      39.076  30.722  31.686  1.00  0.00    -0.248 NA
ATOM     36  C   UNL A   1      38.354  29.908  29.623  1.00  0.00     0.031 C 
ATOM     37  C   UNL A   1      42.331  27.653  31.737  1.00  0.00     0.029 A 
ATOM     38  N   UNL A   1      41.331  29.278  32.900  1.00  0.00    -0.354 N 
ATOM     39  C   UNL A   1      38.048  31.526  31.205  1.00  0.00     0.074 A 
ATOM     40  C   UNL A   1      37.702  31.028  29.893  1.00  0.00     0.031 C 
ATOM     41  C   UNL A   1      43.008  27.800  32.887  1.00  0.00     0.029 A 
ATOM     42  C   UNL A   1      42.397  28.870  33.666  1.00  0.00     0.049 A 
ATOM     43  H   UNL A   1      40.711  29.992  33.176  1.00  0.00     0.167 HD
ATOM     44  C   UNL A   1      37.430  32.567  31.812  1.00  0.00     0.037 A 
ATOM     45  C   UNL A   1      42.840  29.314  34.860  1.00  0.00     0.037 A 
ATOM     46  C   UNL A   1      37.740  33.016  33.143  1.00  0.00     0.049 A 
ATOM     47  C   UNL A   1      42.092  30.416  35.553  1.00  0.00     0.074 A 
ATOM     48  C   UNL A   1      37.100  33.983  33.897  1.00  0.00     0.029 A 
ATOM     49  N   UNL A   1      38.779  32.525  33.920  1.00  0.00    -0.354 N 
ATOM     50  N   UNL A   1      41.059  31.103  35.126  1.00  0.00    -0.248 NA
ATOM     51  C   UNL A   1      42.558  30.798  36.892  1.00  0.00     0.031 C 
ATOM     52  C   UNL A   1      37.776  34.105  35.116  1.00  0.00     0.029 A 
ATOM     53  C   UNL A   1      38.812  33.183  35.138  1.00  0.00     0.049 A 
ATOM     54  H   UNL A   1      39.402  31.814  33.647  1.00  0.00     0.167 HD
ATOM     55  C   UNL A   1      40.741  31.989  36.148  1.00  0.00     0.074 A 
ATOM     56  C   UNL A   1      41.682  31.738  37.222  1.00  0.00     0.031 C 
ATOM     57  C   UNL A   1      39.760  32.924  36.193  1.00  0.00     0.037 A 
BRANCH  44  58
ATOM     58  C   UNL A   1      36.355  33.282  31.038  1.00  0.00     0.058 A 
ATOM     59  C   UNL A   1      36.654  34.106  29.940  1.00  0.00     0.135 A 
ATOM     60  C   UNL A   1      35.005  33.148  31.405  1.00  0.00     0.135 A 
ATOM     61  F   UNL A   1      37.928  34.283  29.555  1.00  0.00    -0.206 F 
ATOM     62  C   UNL A   1      35.661  34.810  29.266  1.00  0.00     0.059 A 
ATOM     63  C   UNL A   1      33.992  33.818  30.723  1.00  0.00     0.059 A 
ATOM     64  F   UNL A   1      34.661  32.372  32.443  1.00  0.00    -0.206 F 
ATOM     65  C   UNL A   1      34.334  34.665  29.671  1.00  0.00     0.060 A 
BRANCH  65  66
ATOM     66  S   UNL A   1      33.060  35.606  28.804  1.00  0.00     0.124 S 
ATOM     67  O   UNL A   1      32.246  36.084  29.919  1.00  0.00    -0.237 OA
ATOM     68  O   UNL A   1      33.840  36.624  28.108  1.00  0.00    -0.237 OA
ATOM     69  O   UNL A   1      32.428  34.609  27.946  1.00  0.00    -0.744 OA
ENDBRANCH  65  66
ENDBRANCH  44  58
BRANCH  45  70
ATOM     70  C   UNL A   1      44.034  28.679  35.477  1.00  0.00     0.058 A 
ATOM     71  C   UNL A   1      45.323  29.165  35.220  1.00  0.00     0.135 A 
ATOM     72  C   UNL A   1      43.904  27.618  36.388  1.00  0.00     0.135 A 
ATOM     73  F   UNL A   1      45.498  30.174  34.352  1.00  0.00    -0.206 F 
ATOM     74  C   UNL A   1      46.444  28.627  35.845  1.00  0.00     0.059 A 
ATOM     75  C   UNL A   1      45.007  27.078  37.042  1.00  0.00     0.059 A 
ATOM     76  F   UNL A   1      42.689  27.131  36.683  1.00  0.00    -0.206 F 
ATOM     77  C   UNL A   1      46.274  27.589  36.762  1.00  0.00     0.060 A 
BRANCH  77  78
ATOM     78  S   UNL A   1      47.723  26.964  37.641  1.00  0.00     0.124 S 
ATOM     79  O   UNL A   1      48.353  26.136  36.619  1.00  0.00    -0.237 OA
ATOM     80  O   UNL A   1      48.426  28.195  37.989  1.00  0.00    -0.237 OA
ATOM     81  O   UNL A   1      47.144  26.243  38.770  1.00  0.00    -0.744 OA
ENDBRANCH  77  78
ENDBRANCH  45  70
BRANCH  57  82
ATOM     82  C   UNL A   1      39.643  33.739  37.450  1.00  0.00     0.058 A 
ATOM     83  C   UNL A   1      38.889  33.296  38.546  1.00  0.00     0.135 A 
ATOM     84  C   UNL A   1      40.339  34.953  37.578  1.00  0.00     0.135 A 
ATOM     85  F   UNL A   1      38.201  32.146  38.472  1.00  0.00    -0.206 F 
ATOM     86  C   UNL A   1      38.810  34.037  39.721  1.00  0.00     0.059 A 
ATOM     87  C   UNL A   1      40.296  35.698  38.751  1.00  0.00     0.059 A 
ATOM     88  F   UNL A   1      41.085  35.415  36.561  1.00  0.00    -0.206 F 
ATOM     89  C   UNL A   1      39.518  35.238  39.813  1.00  0.00     0.060 A 
BRANCH  89  90
ATOM     90  S   UNL A   1      39.435  36.176  41.353  1.00  0.00     0.124 S 
ATOM     91  O   UNL A   1      40.679  35.778  42.004  1.00  0.00    -0.237 OA
ATOM     92  O   UNL A   1      39.381  37.556  40.878  1.00  0.00    -0.237 OA
ATOM     93  O   UNL A   1      38.213  35.688  41.983  1.00  0.00    -0.744 OA
ENDBRANCH  89  90
ENDBRANCH  57  82
ENDBRANCH  31  32
ENDBRANCH  23  26
ENDBRANCH  21  22
ENDBRANCH  20  21
ENDBRANCH   1  20
TORSDOF 19
ENDMDL
