MODEL 1
REMARK VINA RESULT:     -12.2      0.000      0.000
REMARK SMILES CC[C@@H](C(=O)NCCCNC(=O)c1ccc(-c2c3nc(c(-c4c(F)cc(S(=O)(=O)[O-])cc4F)c4ccc([nH]4)c(-c4c(F)cc(S(=O)(=O)[O-])cc4F)c4nc(c(-c5c(F)cc(S(=O)(=O)[O-])cc5F)c5ccc2[nH]5)C=C4)C=C3)cc1)N1C(=O)/C(=C/c2ccccc2[N+](=O)[O-])SC1=S
REMARK SMILES IDX 8 1 7 2 6 3 4 4 5 5 3 7 2 8 1 9 79 10 80 11 94 12 81 13
REMARK SMILES IDX 82 14 93 15 95 16 83 17 84 18 85 19 89 20 86 21 88 22 87 23
REMARK SMILES IDX 90 24 91 25 92 26 9 27 10 28 11 29 12 31 13 32 14 33 78 34
REMARK SMILES IDX 15 35 77 36 16 37 17 38 18 39 71 40 19 41 76 42 70 43 72 44
REMARK SMILES IDX 20 45 75 46 69 47 68 48 21 50 55 51 34 52 54 53 35 54 38 55
REMARK SMILES IDX 53 56 73 57 36 58 37 59 52 61 74 62 39 63 22 64 23 65 32 66
REMARK SMILES IDX 24 67 25 68 31 69 33 70 26 71 27 72 28 73 29 74 30 75 56 76
REMARK SMILES IDX 57 77 66 78 58 79 59 80 65 81 67 82 60 83 61 84 62 85 63 86
REMARK SMILES IDX 64 87 40 88 41 89 50 90 42 91 43 92 49 93 51 94 44 95 45 96
REMARK SMILES IDX 46 97 47 98 48 99
REMARK H PARENT 6 6 10 30 72 49 38 60
REMARK Flexibility Score: inf
ROOT
ATOM      1  C   UNL A   1      33.780  28.796  26.890  1.00  0.00     0.042 C 
ENDROOT
BRANCH   1   2
ATOM      2  C   UNL A   1      33.622  27.369  26.363  1.00  0.00     0.117 C 
BRANCH   2   3
ATOM      3  N   UNL A   1      32.343  26.787  26.747  1.00  0.00    -0.354 N 
ATOM      4  C   UNL A   1      31.279  26.370  25.999  1.00  0.00     0.243 C 
ATOM      5  O   UNL A   1      30.267  26.004  26.603  1.00  0.00    -0.273 OA
ATOM      6  H   UNL A   1      32.225  26.671  27.718  1.00  0.00     0.163 HD
BRANCH   4   7
ATOM      7  C   UNL A   1      31.336  26.376  24.455  1.00  0.00     0.181 C 
BRANCH   7   8
ATOM      8  C   UNL A   1      29.855  26.546  23.994  1.00  0.00     0.032 C 
ATOM      9  C   UNL A   1      29.506  27.894  23.393  1.00  0.00     0.006 C 
ENDBRANCH   7   8
BRANCH   7  10
ATOM     10  N   UNL A   1      31.902  25.080  23.960  1.00  0.00    -0.280 N 
ATOM     11  C   UNL A   1      31.404  23.895  24.453  1.00  0.00     0.266 C 
ATOM     12  C   UNL A   1      32.598  24.879  22.783  1.00  0.00     0.149 C 
ATOM     13  O   UNL A   1      30.321  23.719  25.009  1.00  0.00    -0.268 OA
ATOM     14  C   UNL A   1      32.272  22.763  24.072  1.00  0.00     0.081 C 
ATOM     15  S   UNL A   1      33.267  23.231  22.768  1.00  0.00    -0.054 SA
ATOM     16  S   UNL A   1      32.784  25.892  21.469  1.00  0.00    -0.052 S 
ATOM     17  C   UNL A   1      32.210  21.609  24.747  1.00  0.00     0.036 C 
BRANCH  17  18
ATOM     18  C   UNL A   1      33.058  20.429  24.566  1.00  0.00     0.054 A 
ATOM     19  C   UNL A   1      32.473  19.320  23.936  1.00  0.00     0.015 A 
ATOM     20  C   UNL A   1      34.383  20.308  25.023  1.00  0.00     0.276 A 
ATOM     21  C   UNL A   1      33.190  18.133  23.761  1.00  0.00     0.001 A 
ATOM     22  C   UNL A   1      35.109  19.120  24.842  1.00  0.00     0.086 A 
ATOM     23  C   UNL A   1      34.506  18.033  24.212  1.00  0.00     0.007 A 
BRANCH  20  24
ATOM     24  N   UNL A   1      35.046  21.392  25.744  1.00  0.00     0.063 N 
ATOM     25  O   UNL A   1      35.906  22.035  25.127  1.00  0.00    -0.258 OA
ATOM     26  O   UNL A   1      34.738  21.571  26.931  1.00  0.00    -0.258 OA
ENDBRANCH  20  24
ENDBRANCH  17  18
ENDBRANCH   7  10
ENDBRANCH   4   7
ENDBRANCH   2   3
ENDBRANCH   1   2
BRANCH   1  27
ATOM     27  C   UNL A   1      35.188  29.136  27.372  1.00  0.00     0.118 C 
BRANCH  27  28
ATOM     28  N   UNL A   1      35.172  29.996  28.542  1.00  0.00    -0.352 N 
ATOM     29  C   UNL A   1      36.189  30.287  29.421  1.00  0.00     0.251 C 
ATOM     30  H   UNL A   1      34.310  30.431  28.735  1.00  0.00     0.163 HD
ATOM     31  O   UNL A   1      35.924  30.862  30.474  1.00  0.00    -0.269 OA
BRANCH  29  32
ATOM     32  C   UNL A   1      37.590  29.899  29.122  1.00  0.00     0.039 A 
ATOM     33  C   UNL A   1      38.442  29.578  30.184  1.00  0.00     0.014 A 
ATOM     34  C   UNL A   1      38.085  29.894  27.814  1.00  0.00     0.014 A 
ATOM     35  C   UNL A   1      39.767  29.204  29.931  1.00  0.00     0.010 A 
ATOM     36  C   UNL A   1      39.386  29.460  27.559  1.00  0.00     0.010 A 
ATOM     37  C   UNL A   1      40.246  29.119  28.614  1.00  0.00    -0.014 A 
BRANCH  37  38
ATOM     38  C   UNL A   1      41.644  28.701  28.323  1.00  0.00     0.031 A 
ATOM     39  C   UNL A   1      42.749  29.722  28.299  1.00  0.00     0.074 A 
ATOM     40  C   UNL A   1      41.913  27.415  28.020  1.00  0.00     0.049 A 
ATOM     41  N   UNL A   1      44.009  29.570  27.978  1.00  0.00    -0.248 NA
ATOM     42  C   UNL A   1      42.384  31.102  28.657  1.00  0.00     0.031 C 
ATOM     43  C   UNL A   1      40.929  26.333  27.967  1.00  0.00     0.029 A 
ATOM     44  N   UNL A   1      43.097  26.804  27.686  1.00  0.00    -0.354 N 
ATOM     45  C   UNL A   1      44.580  30.835  28.070  1.00  0.00     0.074 A 
ATOM     46  C   UNL A   1      43.522  31.749  28.443  1.00  0.00     0.031 C 
ATOM     47  C   UNL A   1      41.550  25.190  27.631  1.00  0.00     0.029 A 
ATOM     48  C   UNL A   1      42.969  25.462  27.416  1.00  0.00     0.049 A 
ATOM     49  H   UNL A   1      43.956  27.281  27.642  1.00  0.00     0.167 HD
ATOM     50  C   UNL A   1      45.871  31.199  27.878  1.00  0.00     0.037 A 
ATOM     51  C   UNL A   1      43.887  24.552  27.030  1.00  0.00     0.037 A 
ATOM     52  C   UNL A   1      46.934  30.285  27.552  1.00  0.00     0.049 A 
ATOM     53  C   UNL A   1      45.319  24.975  26.855  1.00  0.00     0.074 A 
ATOM     54  C   UNL A   1      48.284  30.552  27.407  1.00  0.00     0.029 A 
ATOM     55  N   UNL A   1      46.768  28.927  27.327  1.00  0.00    -0.354 N 
ATOM     56  N   UNL A   1      45.849  26.165  26.996  1.00  0.00    -0.248 NA
ATOM     57  C   UNL A   1      46.280  23.929  26.472  1.00  0.00     0.031 C 
ATOM     58  C   UNL A   1      48.932  29.359  27.067  1.00  0.00     0.029 A 
ATOM     59  C   UNL A   1      47.989  28.344  27.034  1.00  0.00     0.049 A 
ATOM     60  H   UNL A   1      45.909  28.448  27.371  1.00  0.00     0.167 HD
ATOM     61  C   UNL A   1      47.207  26.009  26.741  1.00  0.00     0.074 A 
ATOM     62  C   UNL A   1      47.420  24.608  26.444  1.00  0.00     0.031 C 
ATOM     63  C   UNL A   1      48.188  26.944  26.751  1.00  0.00     0.037 A 
BRANCH  50  64
ATOM     64  C   UNL A   1      46.209  32.657  28.025  1.00  0.00     0.058 A 
ATOM     65  C   UNL A   1      46.699  33.179  29.233  1.00  0.00     0.135 A 
ATOM     66  C   UNL A   1      46.069  33.536  26.939  1.00  0.00     0.135 A 
ATOM     67  F   UNL A   1      46.837  32.384  30.306  1.00  0.00    -0.206 F 
ATOM     68  C   UNL A   1      47.009  34.528  29.368  1.00  0.00     0.059 A 
ATOM     69  C   UNL A   1      46.396  34.884  27.044  1.00  0.00     0.059 A 
ATOM     70  F   UNL A   1      45.606  33.086  25.762  1.00  0.00    -0.206 F 
ATOM     71  C   UNL A   1      46.850  35.374  28.269  1.00  0.00     0.060 A 
BRANCH  71  72
ATOM     72  S   UNL A   1      47.253  37.123  28.458  1.00  0.00     0.124 S 
ATOM     73  O   UNL A   1      48.689  37.064  28.714  1.00  0.00    -0.237 OA
ATOM     74  O   UNL A   1      46.864  37.679  27.166  1.00  0.00    -0.237 OA
ATOM     75  O   UNL A   1      46.430  37.540  29.589  1.00  0.00    -0.744 OA
ENDBRANCH  71  72
ENDBRANCH  50  64
BRANCH  51  76
ATOM     76  C   UNL A   1      43.478  23.142  26.806  1.00  0.00     0.058 A 
ATOM     77  C   UNL A   1      43.411  22.610  25.510  1.00  0.00     0.135 A 
ATOM     78  C   UNL A   1      43.168  22.294  27.880  1.00  0.00     0.135 A 
ATOM     79  F   UNL A   1      43.691  23.386  24.452  1.00  0.00    -0.206 F 
ATOM     80  C   UNL A   1      43.044  21.288  25.284  1.00  0.00     0.059 A 
ATOM     81  C   UNL A   1      42.816  20.963  27.680  1.00  0.00     0.059 A 
ATOM     82  F   UNL A   1      43.231  22.753  29.140  1.00  0.00    -0.206 F 
ATOM     83  C   UNL A   1      42.749  20.471  26.377  1.00  0.00     0.060 A 
BRANCH  83  84
ATOM     84  S   UNL A   1      42.336  18.737  26.080  1.00  0.00     0.124 S 
ATOM     85  O   UNL A   1      43.260  18.396  25.004  1.00  0.00    -0.237 OA
ATOM     86  O   UNL A   1      42.614  18.127  27.377  1.00  0.00    -0.237 OA
ATOM     87  O   UNL A   1      40.925  18.790  25.711  1.00  0.00    -0.744 OA
ENDBRANCH  83  84
ENDBRANCH  51  76
BRANCH  63  88
ATOM     88  C   UNL A   1      49.588  26.484  26.461  1.00  0.00     0.058 A 
ATOM     89  C   UNL A   1      50.409  25.957  27.468  1.00  0.00     0.135 A 
ATOM     90  C   UNL A   1      50.090  26.516  25.151  1.00  0.00     0.135 A 
ATOM     91  F   UNL A   1      49.976  25.911  28.739  1.00  0.00    -0.206 F 
ATOM     92  C   UNL A   1      51.689  25.487  27.189  1.00  0.00     0.059 A 
ATOM     93  C   UNL A   1      51.358  26.034  24.845  1.00  0.00     0.059 A 
ATOM     94  F   UNL A   1      49.339  27.005  24.151  1.00  0.00    -0.206 F 
ATOM     95  C   UNL A   1      52.155  25.529  25.873  1.00  0.00     0.060 A 
BRANCH  95  96
ATOM     96  S   UNL A   1      53.799  24.877  25.511  1.00  0.00     0.124 S 
ATOM     97  O   UNL A   1      54.252  25.789  24.466  1.00  0.00    -0.237 OA
ATOM     98  O   UNL A   1      54.478  25.001  26.797  1.00  0.00    -0.237 OA
ATOM     99  O   UNL A   1      53.533  23.509  25.080  1.00  0.00    -0.744 OA
ENDBRANCH  95  96
ENDBRANCH  63  88
ENDBRANCH  37  38
ENDBRANCH  29  32
ENDBRANCH  27  28
ENDBRANCH   1  27
TORSDOF 17
ENDMDL
MODEL 2
REMARK VINA RESULT:     -11.9      6.616     12.208
REMARK SMILES CC[C@@H](C(=O)NCCCNC(=O)c1ccc(-c2c3nc(c(-c4c(F)cc(S(=O)(=O)[O-])cc4F)c4ccc([nH]4)c(-c4c(F)cc(S(=O)(=O)[O-])cc4F)c4nc(c(-c5c(F)cc(S(=O)(=O)[O-])cc5F)c5ccc2[nH]5)C=C4)C=C3)cc1)N1C(=O)/C(=C/c2ccccc2[N+](=O)[O-])SC1=S
REMARK SMILES IDX 8 1 7 2 6 3 4 4 5 5 3 7 2 8 1 9 79 10 80 11 94 12 81 13
REMARK SMILES IDX 82 14 93 15 95 16 83 17 84 18 85 19 89 20 86 21 88 22 87 23
REMARK SMILES IDX 90 24 91 25 92 26 9 27 10 28 11 29 12 31 13 32 14 33 78 34
REMARK SMILES IDX 15 35 77 36 16 37 17 38 18 39 71 40 19 41 76 42 70 43 72 44
REMARK SMILES IDX 20 45 75 46 69 47 68 48 21 50 55 51 34 52 54 53 35 54 38 55
REMARK SMILES IDX 53 56 73 57 36 58 37 59 52 61 74 62 39 63 22 64 23 65 32 66
REMARK SMILES IDX 24 67 25 68 31 69 33 70 26 71 27 72 28 73 29 74 30 75 56 76
REMARK SMILES IDX 57 77 66 78 58 79 59 80 65 81 67 82 60 83 61 84 62 85 63 86
REMARK SMILES IDX 64 87 40 88 41 89 50 90 42 91 43 92 49 93 51 94 44 95 45 96
REMARK SMILES IDX 46 97 47 98 48 99
REMARK H PARENT 6 6 10 30 72 49 38 60
REMARK Flexibility Score: inf
ROOT
ATOM      1  C   UNL A   1      38.724  22.620  26.485  1.00  0.00     0.042 C 
ENDROOT
BRANCH   1   2
ATOM      2  C   UNL A   1      37.675  23.665  26.104  1.00  0.00     0.117 C 
BRANCH   2   3
ATOM      3  N   UNL A   1      37.414  23.676  24.671  1.00  0.00    -0.354 N 
ATOM      4  C   UNL A   1      36.341  23.246  23.944  1.00  0.00     0.243 C 
ATOM      5  O   UNL A   1      36.433  23.286  22.714  1.00  0.00    -0.273 OA
ATOM      6  H   UNL A   1      38.140  24.065  24.129  1.00  0.00     0.163 HD
BRANCH   4   7
ATOM      7  C   UNL A   1      35.068  22.711  24.638  1.00  0.00     0.181 C 
BRANCH   7   8
ATOM      8  C   UNL A   1      34.314  21.903  23.537  1.00  0.00     0.032 C 
ATOM      9  C   UNL A   1      33.122  21.097  24.017  1.00  0.00     0.006 C 
ENDBRANCH   7   8
BRANCH   7  10
ATOM     10  N   UNL A   1      34.233  23.855  25.125  1.00  0.00    -0.280 N 
ATOM     11  C   UNL A   1      33.903  24.868  24.252  1.00  0.00     0.266 C 
ATOM     12  C   UNL A   1      33.408  23.863  26.234  1.00  0.00     0.149 C 
ATOM     13  O   UNL A   1      33.914  24.822  23.023  1.00  0.00    -0.268 OA
ATOM     14  C   UNL A   1      33.339  26.022  24.980  1.00  0.00     0.081 C 
ATOM     15  S   UNL A   1      32.829  25.518  26.526  1.00  0.00    -0.054 SA
ATOM     16  S   UNL A   1      32.884  22.590  27.180  1.00  0.00    -0.052 S 
ATOM     17  C   UNL A   1      33.316  27.232  24.409  1.00  0.00     0.036 C 
BRANCH  17  18
ATOM     18  C   UNL A   1      32.885  28.493  25.018  1.00  0.00     0.054 A 
ATOM     19  C   UNL A   1      33.686  29.002  26.051  1.00  0.00     0.015 A 
ATOM     20  C   UNL A   1      31.711  29.192  24.685  1.00  0.00     0.276 A 
ATOM     21  C   UNL A   1      33.330  30.175  26.723  1.00  0.00     0.001 A 
ATOM     22  C   UNL A   1      31.354  30.374  25.352  1.00  0.00     0.086 A 
ATOM     23  C   UNL A   1      32.168  30.861  26.375  1.00  0.00     0.007 A 
BRANCH  20  24
ATOM     24  N   UNL A   1      30.789  28.697  23.665  1.00  0.00     0.063 N 
ATOM     25  O   UNL A   1      30.853  29.223  22.546  1.00  0.00    -0.258 OA
ATOM     26  O   UNL A   1      29.979  27.819  23.994  1.00  0.00    -0.258 OA
ENDBRANCH  20  24
ENDBRANCH  17  18
ENDBRANCH   7  10
ENDBRANCH   4   7
ENDBRANCH   2   3
ENDBRANCH   1   2
BRANCH   1  27
ATOM     27  C   UNL A   1      39.994  23.200  27.102  1.00  0.00     0.118 C 
BRANCH  27  28
ATOM     28  N   UNL A   1      40.866  23.791  26.103  1.00  0.00    -0.352 N 
ATOM     29  C   UNL A   1      41.354  25.075  26.025  1.00  0.00     0.251 C 
ATOM     30  H   UNL A   1      41.147  23.188  25.377  1.00  0.00     0.163 HD
ATOM     31  O   UNL A   1      41.899  25.446  24.989  1.00  0.00    -0.269 OA
BRANCH  29  32
ATOM     32  C   UNL A   1      41.212  26.016  27.164  1.00  0.00     0.039 A 
ATOM     33  C   UNL A   1      42.148  27.045  27.309  1.00  0.00     0.014 A 
ATOM     34  C   UNL A   1      40.197  25.867  28.114  1.00  0.00     0.014 A 
ATOM     35  C   UNL A   1      42.036  27.950  28.371  1.00  0.00     0.010 A 
ATOM     36  C   UNL A   1      40.050  26.806  29.135  1.00  0.00     0.010 A 
ATOM     37  C   UNL A   1      40.972  27.853  29.282  1.00  0.00    -0.014 A 
BRANCH  37  38
ATOM     38  C   UNL A   1      40.822  28.820  30.403  1.00  0.00     0.031 A 
ATOM     39  C   UNL A   1      41.692  28.700  31.626  1.00  0.00     0.074 A 
ATOM     40  C   UNL A   1      39.864  29.767  30.353  1.00  0.00     0.049 A 
ATOM     41  N   UNL A   1      41.652  29.385  32.740  1.00  0.00    -0.248 NA
ATOM     42  C   UNL A   1      42.728  27.654  31.603  1.00  0.00     0.031 C 
ATOM     43  C   UNL A   1      38.926  29.966  29.247  1.00  0.00     0.029 A 
ATOM     44  N   UNL A   1      39.512  30.732  31.264  1.00  0.00    -0.354 N 
ATOM     45  C   UNL A   1      42.634  28.839  33.559  1.00  0.00     0.074 A 
ATOM     46  C   UNL A   1      43.231  27.743  32.826  1.00  0.00     0.031 C 
ATOM     47  C   UNL A   1      38.114  30.995  29.539  1.00  0.00     0.029 A 
ATOM     48  C   UNL A   1      38.451  31.510  30.864  1.00  0.00     0.049 A 
ATOM     49  H   UNL A   1      39.975  30.856  32.124  1.00  0.00     0.167 HD
ATOM     50  C   UNL A   1      43.017  29.225  34.800  1.00  0.00     0.037 A 
ATOM     51  C   UNL A   1      37.815  32.519  31.493  1.00  0.00     0.037 A 
ATOM     52  C   UNL A   1      42.456  30.344  35.512  1.00  0.00     0.049 A 
ATOM     53  C   UNL A   1      38.279  32.950  32.857  1.00  0.00     0.074 A 
ATOM     54  C   UNL A   1      42.827  30.852  36.744  1.00  0.00     0.029 A 
ATOM     55  N   UNL A   1      41.411  31.130  35.053  1.00  0.00    -0.354 N 
ATOM     56  N   UNL A   1      39.243  32.454  33.593  1.00  0.00    -0.248 NA
ATOM     57  C   UNL A   1      37.571  34.081  33.474  1.00  0.00     0.031 C 
ATOM     58  C   UNL A   1      41.987  31.931  37.043  1.00  0.00     0.029 A 
ATOM     59  C   UNL A   1      41.116  32.113  35.982  1.00  0.00     0.049 A 
ATOM     60  H   UNL A   1      40.947  31.007  34.193  1.00  0.00     0.167 HD
ATOM     61  C   UNL A   1      39.272  33.224  34.750  1.00  0.00     0.074 A 
ATOM     62  C   UNL A   1      38.235  34.225  34.614  1.00  0.00     0.031 C 
ATOM     63  C   UNL A   1      40.086  33.110  35.828  1.00  0.00     0.037 A 
BRANCH  50  64
ATOM     64  C   UNL A   1      44.106  28.432  35.468  1.00  0.00     0.058 A 
ATOM     65  C   UNL A   1      45.462  28.743  35.279  1.00  0.00     0.135 A 
ATOM     66  C   UNL A   1      43.790  27.369  36.328  1.00  0.00     0.135 A 
ATOM     67  F   UNL A   1      45.818  29.741  34.455  1.00  0.00    -0.206 F 
ATOM     68  C   UNL A   1      46.468  28.007  35.897  1.00  0.00     0.059 A 
ATOM     69  C   UNL A   1      44.778  26.634  36.975  1.00  0.00     0.059 A 
ATOM     70  F   UNL A   1      42.508  27.032  36.543  1.00  0.00    -0.206 F 
ATOM     71  C   UNL A   1      46.116  26.951  36.740  1.00  0.00     0.060 A 
BRANCH  71  72
ATOM     72  S   UNL A   1      47.431  26.002  37.532  1.00  0.00     0.124 S 
ATOM     73  O   UNL A   1      47.733  26.836  38.691  1.00  0.00    -0.237 OA
ATOM     74  O   UNL A   1      46.775  24.731  37.820  1.00  0.00    -0.237 OA
ATOM     75  O   UNL A   1      48.472  25.947  36.510  1.00  0.00    -0.744 OA
ENDBRANCH  71  72
ENDBRANCH  50  64
BRANCH  51  76
ATOM     76  C   UNL A   1      36.681  33.206  30.824  1.00  0.00     0.058 A 
ATOM     77  C   UNL A   1      35.361  32.993  31.247  1.00  0.00     0.135 A 
ATOM     78  C   UNL A   1      36.895  34.103  29.767  1.00  0.00     0.135 A 
ATOM     79  F   UNL A   1      35.108  32.137  32.249  1.00  0.00    -0.206 F 
ATOM     80  C   UNL A   1      34.289  33.639  30.640  1.00  0.00     0.059 A 
ATOM     81  C   UNL A   1      35.840  34.776  29.157  1.00  0.00     0.059 A 
ATOM     82  F   UNL A   1      38.142  34.351  29.336  1.00  0.00    -0.206 F 
ATOM     83  C   UNL A   1      34.539  34.531  29.596  1.00  0.00     0.060 A 
BRANCH  83  84
ATOM     84  S   UNL A   1      33.149  35.416  28.856  1.00  0.00     0.124 S 
ATOM     85  O   UNL A   1      33.836  36.432  28.067  1.00  0.00    -0.237 OA
ATOM     86  O   UNL A   1      32.480  34.363  28.098  1.00  0.00    -0.237 OA
ATOM     87  O   UNL A   1      32.411  35.907  30.017  1.00  0.00    -0.744 OA
ENDBRANCH  83  84
ENDBRANCH  51  76
BRANCH  63  88
ATOM     88  C   UNL A   1      39.911  34.108  36.937  1.00  0.00     0.058 A 
ATOM     89  C   UNL A   1      40.562  35.350  36.915  1.00  0.00     0.135 A 
ATOM     90  C   UNL A   1      39.037  33.841  38.002  1.00  0.00     0.135 A 
ATOM     91  F   UNL A   1      41.414  35.649  35.920  1.00  0.00    -0.206 F 
ATOM     92  C   UNL A   1      40.362  36.292  37.919  1.00  0.00     0.059 A 
ATOM     93  C   UNL A   1      38.807  34.775  39.007  1.00  0.00     0.059 A 
ATOM     94  F   UNL A   1      38.385  32.669  38.064  1.00  0.00    -0.206 F 
ATOM     95  C   UNL A   1      39.482  35.996  38.961  1.00  0.00     0.060 A 
BRANCH  95  96
ATOM     96  S   UNL A   1      39.194  37.240  40.238  1.00  0.00     0.124 S 
ATOM     97  O   UNL A   1      40.548  37.715  40.495  1.00  0.00    -0.237 OA
ATOM     98  O   UNL A   1      38.308  38.185  39.563  1.00  0.00    -0.237 OA
ATOM     99  O   UNL A   1      38.577  36.478  41.320  1.00  0.00    -0.744 OA
ENDBRANCH  95  96
ENDBRANCH  63  88
ENDBRANCH  37  38
ENDBRANCH  29  32
ENDBRANCH  27  28
ENDBRANCH   1  27
TORSDOF 17
ENDMDL
MODEL 3
REMARK VINA RESULT:     -11.9      4.649      8.127
REMARK SMILES CC[C@@H](C(=O)NCCCNC(=O)c1ccc(-c2c3nc(c(-c4c(F)cc(S(=O)(=O)[O-])cc4F)c4ccc([nH]4)c(-c4c(F)cc(S(=O)(=O)[O-])cc4F)c4nc(c(-c5c(F)cc(S(=O)(=O)[O-])cc5F)c5ccc2[nH]5)C=C4)C=C3)cc1)N1C(=O)/C(=C/c2ccccc2[N+](=O)[O-])SC1=S
REMARK SMILES IDX 8 1 7 2 6 3 4 4 5 5 3 7 2 8 1 9 79 10 80 11 94 12 81 13
REMARK SMILES IDX 82 14 93 15 95 16 83 17 84 18 85 19 89 20 86 21 88 22 87 23
REMARK SMILES IDX 90 24 91 25 92 26 9 27 10 28 11 29 12 31 13 32 14 33 78 34
REMARK SMILES IDX 15 35 77 36 16 37 17 38 18 39 71 40 19 41 76 42 70 43 72 44
REMARK SMILES IDX 20 45 75 46 69 47 68 48 21 50 55 51 34 52 54 53 35 54 38 55
REMARK SMILES IDX 53 56 73 57 36 58 37 59 52 61 74 62 39 63 22 64 23 65 32 66
REMARK SMILES IDX 24 67 25 68 31 69 33 70 26 71 27 72 28 73 29 74 30 75 56 76
REMARK SMILES IDX 57 77 66 78 58 79 59 80 65 81 67 82 60 83 61 84 62 85 63 86
REMARK SMILES IDX 64 87 40 88 41 89 50 90 42 91 43 92 49 93 51 94 44 95 45 96
REMARK SMILES IDX 46 97 47 98 48 99
REMARK H PARENT 6 6 10 30 72 49 38 60
REMARK Flexibility Score: inf
ROOT
ATOM      1  C   UNL A   1      37.353  31.101  32.812  1.00  0.00     0.042 C 
ENDROOT
BRANCH   1   2
ATOM      2  C   UNL A   1      38.462  30.763  33.810  1.00  0.00     0.117 C 
BRANCH   2   3
ATOM      3  N   UNL A   1      37.941  30.565  35.156  1.00  0.00    -0.354 N 
ATOM      4  C   UNL A   1      37.975  31.362  36.265  1.00  0.00     0.243 C 
ATOM      5  O   UNL A   1      37.536  30.891  37.318  1.00  0.00    -0.273 OA
ATOM      6  H   UNL A   1      37.482  29.704  35.290  1.00  0.00     0.163 HD
BRANCH   4   7
ATOM      7  C   UNL A   1      38.559  32.791  36.205  1.00  0.00     0.181 C 
BRANCH   7   8
ATOM      8  C   UNL A   1      38.138  33.460  37.550  1.00  0.00     0.032 C 
ATOM      9  C   UNL A   1      39.064  34.547  38.060  1.00  0.00     0.006 C 
ENDBRANCH   7   8
BRANCH   7  10
ATOM     10  N   UNL A   1      37.979  33.531  35.038  1.00  0.00    -0.280 N 
ATOM     11  C   UNL A   1      36.631  33.809  35.019  1.00  0.00     0.266 C 
ATOM     12  C   UNL A   1      38.666  34.326  34.140  1.00  0.00     0.149 C 
ATOM     13  O   UNL A   1      35.863  33.831  35.981  1.00  0.00    -0.268 OA
ATOM     14  C   UNL A   1      36.210  34.272  33.682  1.00  0.00     0.081 C 
ATOM     15  S   UNL A   1      37.582  34.778  32.805  1.00  0.00    -0.054 SA
ATOM     16  S   UNL A   1      40.226  34.916  34.216  1.00  0.00    -0.052 S 
ATOM     17  C   UNL A   1      34.921  34.223  33.327  1.00  0.00     0.036 C 
BRANCH  17  18
ATOM     18  C   UNL A   1      34.348  34.548  32.018  1.00  0.00     0.054 A 
ATOM     19  C   UNL A   1      34.594  33.641  30.977  1.00  0.00     0.015 A 
ATOM     20  C   UNL A   1      33.626  35.718  31.720  1.00  0.00     0.276 A 
ATOM     21  C   UNL A   1      34.128  33.889  29.683  1.00  0.00     0.001 A 
ATOM     22  C   UNL A   1      33.149  35.967  30.423  1.00  0.00     0.086 A 
ATOM     23  C   UNL A   1      33.405  35.049  29.406  1.00  0.00     0.007 A 
BRANCH  20  24
ATOM     24  N   UNL A   1      33.380  36.744  32.731  1.00  0.00     0.063 N 
ATOM     25  O   UNL A   1      34.351  37.420  33.095  1.00  0.00    -0.258 OA
ATOM     26  O   UNL A   1      32.233  36.842  33.188  1.00  0.00    -0.258 OA
ENDBRANCH  20  24
ENDBRANCH  17  18
ENDBRANCH   7  10
ENDBRANCH   4   7
ENDBRANCH   2   3
ENDBRANCH   1   2
BRANCH   1  27
ATOM     27  C   UNL A   1      36.649  29.884  32.220  1.00  0.00     0.118 C 
BRANCH  27  28
ATOM     28  N   UNL A   1      35.946  30.205  30.990  1.00  0.00    -0.352 N 
ATOM     29  C   UNL A   1      36.438  30.317  29.711  1.00  0.00     0.251 C 
ATOM     30  H   UNL A   1      34.979  30.366  31.086  1.00  0.00     0.163 HD
ATOM     31  O   UNL A   1      35.730  30.810  28.837  1.00  0.00    -0.269 OA
BRANCH  29  32
ATOM     32  C   UNL A   1      37.815  29.870  29.381  1.00  0.00     0.039 A 
ATOM     33  C   UNL A   1      38.205  29.822  28.040  1.00  0.00     0.014 A 
ATOM     34  C   UNL A   1      38.707  29.456  30.375  1.00  0.00     0.014 A 
ATOM     35  C   UNL A   1      39.499  29.408  27.699  1.00  0.00     0.010 A 
ATOM     36  C   UNL A   1      40.016  29.106  30.040  1.00  0.00     0.010 A 
ATOM     37  C   UNL A   1      40.424  29.068  28.699  1.00  0.00    -0.014 A 
BRANCH  37  38
ATOM     38  C   UNL A   1      41.812  28.650  28.360  1.00  0.00     0.031 A 
ATOM     39  C   UNL A   1      42.917  29.671  28.306  1.00  0.00     0.074 A 
ATOM     40  C   UNL A   1      42.070  27.366  28.041  1.00  0.00     0.049 A 
ATOM     41  N   UNL A   1      44.166  29.520  27.944  1.00  0.00    -0.248 NA
ATOM     42  C   UNL A   1      42.566  31.049  28.684  1.00  0.00     0.031 C 
ATOM     43  C   UNL A   1      41.084  26.285  28.012  1.00  0.00     0.029 A 
ATOM     44  N   UNL A   1      43.241  26.756  27.664  1.00  0.00    -0.354 N 
ATOM     45  C   UNL A   1      44.741  30.783  28.024  1.00  0.00     0.074 A 
ATOM     46  C   UNL A   1      43.697  31.696  28.437  1.00  0.00     0.031 C 
ATOM     47  C   UNL A   1      41.691  25.144  27.650  1.00  0.00     0.029 A 
ATOM     48  C   UNL A   1      43.103  25.416  27.390  1.00  0.00     0.049 A 
ATOM     49  H   UNL A   1      44.100  27.233  27.596  1.00  0.00     0.167 HD
ATOM     50  C   UNL A   1      46.026  31.147  27.794  1.00  0.00     0.037 A 
ATOM     51  C   UNL A   1      44.007  24.508  26.970  1.00  0.00     0.037 A 
ATOM     52  C   UNL A   1      47.076  30.234  27.428  1.00  0.00     0.049 A 
ATOM     53  C   UNL A   1      45.433  24.930  26.751  1.00  0.00     0.074 A 
ATOM     54  C   UNL A   1      48.421  30.500  27.240  1.00  0.00     0.029 A 
ATOM     55  N   UNL A   1      46.902  28.877  27.200  1.00  0.00    -0.354 N 
ATOM     56  N   UNL A   1      45.969  26.118  26.882  1.00  0.00    -0.248 NA
ATOM     57  C   UNL A   1      46.380  23.886  26.331  1.00  0.00     0.031 C 
ATOM     58  C   UNL A   1      49.056  29.309  26.872  1.00  0.00     0.029 A 
ATOM     59  C   UNL A   1      48.112  28.295  26.864  1.00  0.00     0.049 A 
ATOM     60  H   UNL A   1      46.044  28.399  27.269  1.00  0.00     0.167 HD
ATOM     61  C   UNL A   1      47.317  25.963  26.582  1.00  0.00     0.074 A 
ATOM     62  C   UNL A   1      47.519  24.563  26.270  1.00  0.00     0.031 C 
ATOM     63  C   UNL A   1      48.299  26.897  26.566  1.00  0.00     0.037 A 
BRANCH  50  64
ATOM     64  C   UNL A   1      46.370  32.604  27.938  1.00  0.00     0.058 A 
ATOM     65  C   UNL A   1      46.945  33.109  29.115  1.00  0.00     0.135 A 
ATOM     66  C   UNL A   1      46.149  33.499  26.879  1.00  0.00     0.135 A 
ATOM     67  F   UNL A   1      47.164  32.298  30.162  1.00  0.00    -0.206 F 
ATOM     68  C   UNL A   1      47.262  34.457  29.248  1.00  0.00     0.059 A 
ATOM     69  C   UNL A   1      46.479  34.846  26.981  1.00  0.00     0.059 A 
ATOM     70  F   UNL A   1      45.601  33.065  25.732  1.00  0.00    -0.206 F 
ATOM     71  C   UNL A   1      47.021  35.319  28.177  1.00  0.00     0.060 A 
BRANCH  71  72
ATOM     72  S   UNL A   1      47.432  37.066  28.363  1.00  0.00     0.124 S 
ATOM     73  O   UNL A   1      46.900  37.624  27.124  1.00  0.00    -0.237 OA
ATOM     74  O   UNL A   1      46.716  37.432  29.581  1.00  0.00    -0.237 OA
ATOM     75  O   UNL A   1      48.888  37.061  28.475  1.00  0.00    -0.744 OA
ENDBRANCH  71  72
ENDBRANCH  50  64
BRANCH  51  76
ATOM     76  C   UNL A   1      43.589  23.099  26.750  1.00  0.00     0.058 A 
ATOM     77  C   UNL A   1      43.520  22.563  25.457  1.00  0.00     0.135 A 
ATOM     78  C   UNL A   1      43.273  22.257  27.827  1.00  0.00     0.135 A 
ATOM     79  F   UNL A   1      43.806  23.333  24.396  1.00  0.00    -0.206 F 
ATOM     80  C   UNL A   1      43.144  21.243  25.235  1.00  0.00     0.059 A 
ATOM     81  C   UNL A   1      42.913  20.927  27.632  1.00  0.00     0.059 A 
ATOM     82  F   UNL A   1      43.338  22.720  29.086  1.00  0.00    -0.206 F 
ATOM     83  C   UNL A   1      42.844  20.431  26.330  1.00  0.00     0.060 A 
BRANCH  83  84
ATOM     84  S   UNL A   1      42.420  18.699  26.040  1.00  0.00     0.124 S 
ATOM     85  O   UNL A   1      42.708  18.105  27.341  1.00  0.00    -0.237 OA
ATOM     86  O   UNL A   1      41.010  18.783  25.674  1.00  0.00    -0.237 OA
ATOM     87  O   UNL A   1      43.319  18.314  24.955  1.00  0.00    -0.744 OA
ENDBRANCH  83  84
ENDBRANCH  51  76
BRANCH  63  88
ATOM     88  C   UNL A   1      49.689  26.437  26.228  1.00  0.00     0.058 A 
ATOM     89  C   UNL A   1      50.205  26.555  24.929  1.00  0.00     0.135 A 
ATOM     90  C   UNL A   1      50.531  25.927  27.228  1.00  0.00     0.135 A 
ATOM     91  F   UNL A   1      49.435  27.031  23.937  1.00  0.00    -0.206 F 
ATOM     92  C   UNL A   1      51.508  26.172  24.629  1.00  0.00     0.059 A 
ATOM     93  C   UNL A   1      51.844  25.556  26.955  1.00  0.00     0.059 A 
ATOM     94  F   UNL A   1      50.086  25.801  28.488  1.00  0.00    -0.206 F 
ATOM     95  C   UNL A   1      52.321  25.674  25.649  1.00  0.00     0.060 A 
BRANCH  95  96
ATOM     96  S   UNL A   1      54.025  25.220  25.261  1.00  0.00     0.124 S 
ATOM     97  O   UNL A   1      54.285  26.037  24.081  1.00  0.00    -0.237 OA
ATOM     98  O   UNL A   1      54.739  25.611  26.473  1.00  0.00    -0.237 OA
ATOM     99  O   UNL A   1      53.947  23.781  25.026  1.00  0.00    -0.744 OA
ENDBRANCH  95  96
ENDBRANCH  63  88
ENDBRANCH  37  38
ENDBRANCH  29  32
ENDBRANCH  27  28
ENDBRANCH   1  27
TORSDOF 17
ENDMDL
