MODEL 1
REMARK VINA RESULT:     -10.9      0.000      0.000
REMARK SMILES CC(C)[C@H](NC(=O)OCc1ccccc1)C(=O)NCC(=O)NCCCNC(=O)c1ccc(-c2c3nc(c(-c4c(F)cc(S(=O)(=O)[O-])cc4F)c4ccc([nH]4)c(-c4c(F)cc(S(=O)(=O)[O-])cc4F)c4nc(c(-c5c(F)cc(S(=O)(=O)[O-])cc5F)c5ccc2[nH]5)C=C4)C=C3)cc1
REMARK SMILES IDX 20 1 21 2 22 3 19 5 18 6 16 7 17 8 4 10 2 11 1 12 3 13 5 14
REMARK SMILES IDX 6 15 7 17 8 18 9 19 10 20 11 21 15 22 12 23 14 24 13 25
REMARK SMILES IDX 23 26 24 27 25 28 26 29 27 30 28 32 29 33 30 34 94 35 31 36
REMARK SMILES IDX 93 37 32 38 33 39 34 40 87 41 35 42 92 43 86 44 88 45 36 46
REMARK SMILES IDX 91 47 85 48 84 49 37 51 71 52 50 53 70 54 51 55 54 56 69 57
REMARK SMILES IDX 89 58 52 59 53 60 68 62 90 63 55 64 38 65 39 66 48 67 40 68
REMARK SMILES IDX 41 69 47 70 49 71 42 72 43 73 44 74 45 75 46 76 72 77 73 78
REMARK SMILES IDX 82 79 74 80 75 81 81 82 83 83 76 84 77 85 78 86 79 87 80 88
REMARK SMILES IDX 56 89 57 90 66 91 58 92 59 93 65 94 67 95 60 96 61 97 62 98
REMARK SMILES IDX 63 99 64 100
REMARK H PARENT 22 4 18 9 5 16 26 31 88 50 54 61
REMARK Flexibility Score: inf
ROOT
ATOM      1  C   UNL A   1      30.720  28.902  22.488  1.00  0.00     0.239 C 
ATOM      2  O   UNL A   1      30.054  29.536  21.659  1.00  0.00    -0.273 OA
ATOM      3  N   UNL A   1      31.194  29.610  23.547  1.00  0.00    -0.355 N 
ATOM      4  H   UNL A   1      31.136  30.588  23.447  1.00  0.00     0.163 HD
ENDROOT
BRANCH   1   5
ATOM      5  C   UNL A   1      30.828  27.368  22.354  1.00  0.00     0.216 C 
BRANCH   5   6
ATOM      6  N   UNL A   1      31.746  26.777  21.406  1.00  0.00    -0.345 N 
ATOM      7  C   UNL A   1      32.456  25.620  21.395  1.00  0.00     0.243 C 
ATOM      8  O   UNL A   1      33.088  25.404  20.351  1.00  0.00    -0.273 OA
ATOM      9  H   UNL A   1      31.885  27.327  20.602  1.00  0.00     0.164 HD
BRANCH   7  10
ATOM     10  C   UNL A   1      32.534  24.577  22.555  1.00  0.00     0.177 C 
BRANCH  10  11
ATOM     11  C   UNL A   1      33.151  23.217  22.176  1.00  0.00     0.015 C 
ATOM     12  C   UNL A   1      34.629  23.176  22.591  1.00  0.00     0.010 C 
ATOM     13  C   UNL A   1      32.426  22.057  22.879  1.00  0.00     0.010 C 
ENDBRANCH  10  11
BRANCH  10  14
ATOM     14  N   UNL A   1      31.373  24.529  23.449  1.00  0.00    -0.309 N 
ATOM     15  C   UNL A   1      31.214  24.885  24.752  1.00  0.00     0.408 C 
ATOM     16  H   UNL A   1      30.557  24.172  23.030  1.00  0.00     0.167 HD
ATOM     17  O   UNL A   1      30.178  24.615  25.340  1.00  0.00    -0.225 OA
BRANCH  15  18
ATOM     18  O   UNL A   1      32.304  25.463  25.298  1.00  0.00    -0.445 OA
BRANCH  18  19
ATOM     19  C   UNL A   1      32.749  24.897  26.541  1.00  0.00     0.270 C 
BRANCH  19  20
ATOM     20  C   UNL A   1      33.744  23.792  26.332  1.00  0.00    -0.011 A 
ATOM     21  C   UNL A   1      35.077  24.077  26.018  1.00  0.00     0.007 A 
ATOM     22  C   UNL A   1      33.345  22.459  26.492  1.00  0.00     0.007 A 
ATOM     23  C   UNL A   1      35.997  23.038  25.870  1.00  0.00     0.000 A 
ATOM     24  C   UNL A   1      34.265  21.424  26.351  1.00  0.00     0.000 A 
ATOM     25  C   UNL A   1      35.591  21.715  26.042  1.00  0.00     0.000 A 
ENDBRANCH  19  20
ENDBRANCH  18  19
ENDBRANCH  15  18
ENDBRANCH  10  14
ENDBRANCH   7  10
ENDBRANCH   5   6
ENDBRANCH   1   5
BRANCH   3  26
ATOM     26  C   UNL A   1      31.772  29.166  24.794  1.00  0.00     0.117 C 
BRANCH  26  27
ATOM     27  C   UNL A   1      33.182  28.649  24.676  1.00  0.00     0.042 C 
BRANCH  27  28
ATOM     28  C   UNL A   1      33.967  28.870  25.953  1.00  0.00     0.118 C 
BRANCH  28  29
ATOM     29  N   UNL A   1      33.793  30.214  26.508  1.00  0.00    -0.352 N 
ATOM     30  C   UNL A   1      34.521  30.867  27.476  1.00  0.00     0.251 C 
ATOM     31  H   UNL A   1      33.044  30.728  26.131  1.00  0.00     0.163 HD
ATOM     32  O   UNL A   1      34.134  31.943  27.920  1.00  0.00    -0.269 OA
BRANCH  30  33
ATOM     33  C   UNL A   1      35.748  30.238  28.003  1.00  0.00     0.039 A 
ATOM     34  C   UNL A   1      36.957  30.431  27.333  1.00  0.00     0.014 A 
ATOM     35  C   UNL A   1      35.710  29.522  29.200  1.00  0.00     0.014 A 
ATOM     36  C   UNL A   1      38.141  29.992  27.926  1.00  0.00     0.010 A 
ATOM     37  C   UNL A   1      36.896  29.218  29.850  1.00  0.00     0.010 A 
ATOM     38  C   UNL A   1      38.126  29.438  29.217  1.00  0.00    -0.014 A 
BRANCH  38  39
ATOM     39  C   UNL A   1      39.379  29.074  29.923  1.00  0.00     0.031 A 
ATOM     40  C   UNL A   1      39.793  29.834  31.155  1.00  0.00     0.074 A 
ATOM     41  C   UNL A   1      40.178  28.113  29.415  1.00  0.00     0.049 A 
ATOM     42  N   UNL A   1      40.878  29.712  31.874  1.00  0.00    -0.248 NA
ATOM     43  C   UNL A   1      38.888  30.900  31.620  1.00  0.00     0.031 C 
ATOM     44  C   UNL A   1      39.918  27.355  28.188  1.00  0.00     0.029 A 
ATOM     45  N   UNL A   1      41.373  27.611  29.863  1.00  0.00    -0.354 N 
ATOM     46  C   UNL A   1      40.791  30.688  32.860  1.00  0.00     0.074 A 
ATOM     47  C   UNL A   1      39.587  31.444  32.603  1.00  0.00     0.031 C 
ATOM     48  C   UNL A   1      40.901  26.459  28.006  1.00  0.00     0.029 A 
ATOM     49  C   UNL A   1      41.885  26.610  29.071  1.00  0.00     0.049 A 
ATOM     50  H   UNL A   1      41.824  27.937  30.676  1.00  0.00     0.167 HD
ATOM     51  C   UNL A   1      41.620  30.913  33.905  1.00  0.00     0.037 A 
ATOM     52  C   UNL A   1      43.023  25.896  29.188  1.00  0.00     0.037 A 
ATOM     53  C   UNL A   1      42.801  30.135  34.168  1.00  0.00     0.049 A 
ATOM     54  C   UNL A   1      43.930  26.163  30.359  1.00  0.00     0.074 A 
ATOM     55  C   UNL A   1      43.676  30.237  35.234  1.00  0.00     0.029 A 
ATOM     56  N   UNL A   1      43.275  29.116  33.354  1.00  0.00    -0.354 N 
ATOM     57  N   UNL A   1      43.791  27.039  31.326  1.00  0.00    -0.248 NA
ATOM     58  C   UNL A   1      45.144  25.343  30.460  1.00  0.00     0.031 C 
ATOM     59  C   UNL A   1      44.712  29.317  35.035  1.00  0.00     0.029 A 
ATOM     60  C   UNL A   1      44.446  28.597  33.880  1.00  0.00     0.049 A 
ATOM     61  H   UNL A   1      42.842  28.806  32.526  1.00  0.00     0.167 HD
ATOM     62  C   UNL A   1      44.883  26.855  32.166  1.00  0.00     0.074 A 
ATOM     63  C   UNL A   1      45.667  25.775  31.599  1.00  0.00     0.031 C 
ATOM     64  C   UNL A   1      45.209  27.516  33.305  1.00  0.00     0.037 A 
BRANCH  51  65
ATOM     65  C   UNL A   1      41.274  32.039  34.843  1.00  0.00     0.058 A 
ATOM     66  C   UNL A   1      41.826  33.323  34.694  1.00  0.00     0.135 A 
ATOM     67  C   UNL A   1      40.356  31.841  35.887  1.00  0.00     0.135 A 
ATOM     68  F   UNL A   1      42.724  33.566  33.726  1.00  0.00    -0.206 F 
ATOM     69  C   UNL A   1      41.505  34.359  35.564  1.00  0.00     0.059 A 
ATOM     70  C   UNL A   1      39.993  32.873  36.748  1.00  0.00     0.059 A 
ATOM     71  F   UNL A   1      39.800  30.635  36.078  1.00  0.00    -0.206 F 
ATOM     72  C   UNL A   1      40.584  34.125  36.587  1.00  0.00     0.060 A 
BRANCH  72  73
ATOM     73  S   UNL A   1      40.171  35.484  37.700  1.00  0.00     0.124 S 
ATOM     74  O   UNL A   1      39.903  36.564  36.755  1.00  0.00    -0.237 OA
ATOM     75  O   UNL A   1      39.007  34.960  38.409  1.00  0.00    -0.237 OA
ATOM     76  O   UNL A   1      41.375  35.641  38.508  1.00  0.00    -0.744 OA
ENDBRANCH  72  73
ENDBRANCH  51  65
BRANCH  52  77
ATOM     77  C   UNL A   1      43.352  24.848  28.184  1.00  0.00     0.058 A 
ATOM     78  C   UNL A   1      42.952  23.516  28.372  1.00  0.00     0.135 A 
ATOM     79  C   UNL A   1      44.056  25.157  27.010  1.00  0.00     0.135 A 
ATOM     80  F   UNL A   1      42.281  23.167  29.479  1.00  0.00    -0.206 F 
ATOM     81  C   UNL A   1      43.255  22.524  27.443  1.00  0.00     0.059 A 
ATOM     82  C   UNL A   1      44.345  24.190  26.051  1.00  0.00     0.059 A 
ATOM     83  F   UNL A   1      44.447  26.419  26.771  1.00  0.00    -0.206 F 
ATOM     84  C   UNL A   1      43.949  22.873  26.282  1.00  0.00     0.060 A 
BRANCH  84  85
ATOM     85  S   UNL A   1      44.297  21.587  25.064  1.00  0.00     0.124 S 
ATOM     86  O   UNL A   1      45.640  21.169  25.450  1.00  0.00    -0.237 OA
ATOM     87  O   UNL A   1      43.229  20.626  25.322  1.00  0.00    -0.237 OA
ATOM     88  O   UNL A   1      44.198  22.295  23.790  1.00  0.00    -0.744 OA
ENDBRANCH  84  85
ENDBRANCH  52  77
BRANCH  64  89
ATOM     89  C   UNL A   1      46.443  27.070  34.039  1.00  0.00     0.058 A 
ATOM     90  C   UNL A   1      47.699  27.648  33.800  1.00  0.00     0.135 A 
ATOM     91  C   UNL A   1      46.353  26.090  35.042  1.00  0.00     0.135 A 
ATOM     92  F   UNL A   1      47.842  28.585  32.848  1.00  0.00    -0.206 F 
ATOM     93  C   UNL A   1      48.827  27.253  34.511  1.00  0.00     0.059 A 
ATOM     94  C   UNL A   1      47.461  25.704  35.789  1.00  0.00     0.059 A 
ATOM     95  F   UNL A   1      45.173  25.512  35.321  1.00  0.00    -0.206 F 
ATOM     96  C   UNL A   1      48.697  26.283  35.508  1.00  0.00     0.060 A 
BRANCH  96  97
ATOM     97  S   UNL A   1      50.162  25.808  36.448  1.00  0.00     0.124 S 
ATOM     98  O   UNL A   1      49.790  24.479  36.921  1.00  0.00    -0.237 OA
ATOM     99  O   UNL A   1      51.210  25.851  35.432  1.00  0.00    -0.237 OA
ATOM    100  O   UNL A   1      50.255  26.838  37.478  1.00  0.00    -0.744 OA
ENDBRANCH  96  97
ENDBRANCH  64  89
ENDBRANCH  38  39
ENDBRANCH  30  33
ENDBRANCH  28  29
ENDBRANCH  27  28
ENDBRANCH  26  27
ENDBRANCH   3  26
TORSDOF 20
ENDMDL
MODEL 2
REMARK VINA RESULT:     -10.9      3.666      9.392
REMARK SMILES CC(C)[C@H](NC(=O)OCc1ccccc1)C(=O)NCC(=O)NCCCNC(=O)c1ccc(-c2c3nc(c(-c4c(F)cc(S(=O)(=O)[O-])cc4F)c4ccc([nH]4)c(-c4c(F)cc(S(=O)(=O)[O-])cc4F)c4nc(c(-c5c(F)cc(S(=O)(=O)[O-])cc5F)c5ccc2[nH]5)C=C4)C=C3)cc1
REMARK SMILES IDX 20 1 21 2 22 3 19 5 18 6 16 7 17 8 4 10 2 11 1 12 3 13 5 14
REMARK SMILES IDX 6 15 7 17 8 18 9 19 10 20 11 21 15 22 12 23 14 24 13 25
REMARK SMILES IDX 23 26 24 27 25 28 26 29 27 30 28 32 29 33 30 34 94 35 31 36
REMARK SMILES IDX 93 37 32 38 33 39 34 40 87 41 35 42 92 43 86 44 88 45 36 46
REMARK SMILES IDX 91 47 85 48 84 49 37 51 71 52 50 53 70 54 51 55 54 56 69 57
REMARK SMILES IDX 89 58 52 59 53 60 68 62 90 63 55 64 38 65 39 66 48 67 40 68
REMARK SMILES IDX 41 69 47 70 49 71 42 72 43 73 44 74 45 75 46 76 72 77 73 78
REMARK SMILES IDX 82 79 74 80 75 81 81 82 83 83 76 84 77 85 78 86 79 87 80 88
REMARK SMILES IDX 56 89 57 90 66 91 58 92 59 93 65 94 67 95 60 96 61 97 62 98
REMARK SMILES IDX 63 99 64 100
REMARK H PARENT 22 4 18 9 5 16 26 31 88 50 54 61
REMARK Flexibility Score: inf
ROOT
ATOM      1  C   UNL A   1      36.889  22.907  25.793  1.00  0.00     0.239 C 
ATOM      2  O   UNL A   1      35.919  23.268  26.472  1.00  0.00    -0.273 OA
ATOM      3  N   UNL A   1      38.063  22.746  26.459  1.00  0.00    -0.355 N 
ATOM      4  H   UNL A   1      38.075  23.125  27.368  1.00  0.00     0.163 HD
ENDROOT
BRANCH   1   5
ATOM      5  C   UNL A   1      36.673  22.521  24.315  1.00  0.00     0.216 C 
BRANCH   5   6
ATOM      6  N   UNL A   1      35.969  23.411  23.418  1.00  0.00    -0.345 N 
ATOM      7  C   UNL A   1      34.656  23.600  23.134  1.00  0.00     0.243 C 
ATOM      8  O   UNL A   1      34.418  24.532  22.354  1.00  0.00    -0.273 OA
ATOM      9  H   UNL A   1      36.568  24.003  22.907  1.00  0.00     0.164 HD
BRANCH   7  10
ATOM     10  C   UNL A   1      33.463  22.763  23.696  1.00  0.00     0.177 C 
BRANCH  10  11
ATOM     11  C   UNL A   1      32.226  22.683  22.782  1.00  0.00     0.015 C 
ATOM     12  C   UNL A   1      31.923  21.219  22.431  1.00  0.00     0.010 C 
ATOM     13  C   UNL A   1      30.984  23.277  23.466  1.00  0.00     0.010 C 
ENDBRANCH  10  11
BRANCH  10  14
ATOM     14  N   UNL A   1      33.194  22.917  25.129  1.00  0.00    -0.309 N 
ATOM     15  C   UNL A   1      32.771  22.036  26.074  1.00  0.00     0.408 C 
ATOM     16  H   UNL A   1      33.347  23.827  25.470  1.00  0.00     0.167 HD
ATOM     17  O   UNL A   1      32.472  22.431  27.191  1.00  0.00    -0.225 OA
BRANCH  15  18
ATOM     18  O   UNL A   1      32.654  20.768  25.628  1.00  0.00    -0.445 OA
BRANCH  18  19
ATOM     19  C   UNL A   1      33.890  20.076  25.393  1.00  0.00     0.270 C 
BRANCH  19  20
ATOM     20  C   UNL A   1      33.674  18.619  25.103  1.00  0.00    -0.011 A 
ATOM     21  C   UNL A   1      32.747  17.871  25.836  1.00  0.00     0.007 A 
ATOM     22  C   UNL A   1      34.381  18.006  24.060  1.00  0.00     0.007 A 
ATOM     23  C   UNL A   1      32.529  16.530  25.524  1.00  0.00     0.000 A 
ATOM     24  C   UNL A   1      34.158  16.669  23.745  1.00  0.00     0.000 A 
ATOM     25  C   UNL A   1      33.230  15.932  24.477  1.00  0.00     0.000 A 
ENDBRANCH  19  20
ENDBRANCH  18  19
ENDBRANCH  15  18
ENDBRANCH  10  14
ENDBRANCH   7  10
ENDBRANCH   5   6
ENDBRANCH   1   5
BRANCH   3  26
ATOM     26  C   UNL A   1      39.296  22.112  26.054  1.00  0.00     0.117 C 
BRANCH  26  27
ATOM     27  C   UNL A   1      40.256  21.840  27.183  1.00  0.00     0.042 C 
BRANCH  27  28
ATOM     28  C   UNL A   1      41.222  22.989  27.385  1.00  0.00     0.118 C 
BRANCH  28  29
ATOM     29  N   UNL A   1      41.267  23.907  26.245  1.00  0.00    -0.352 N 
ATOM     30  C   UNL A   1      41.184  25.281  26.218  1.00  0.00     0.251 C 
ATOM     31  H   UNL A   1      41.374  23.478  25.367  1.00  0.00     0.163 HD
ATOM     32  O   UNL A   1      41.093  25.873  25.148  1.00  0.00    -0.269 OA
BRANCH  30  33
ATOM     33  C   UNL A   1      41.164  26.027  27.492  1.00  0.00     0.039 A 
ATOM     34  C   UNL A   1      42.226  26.875  27.804  1.00  0.00     0.014 A 
ATOM     35  C   UNL A   1      40.056  25.942  28.336  1.00  0.00     0.014 A 
ATOM     36  C   UNL A   1      42.124  27.715  28.914  1.00  0.00     0.010 A 
ATOM     37  C   UNL A   1      39.897  26.876  29.348  1.00  0.00     0.010 A 
ATOM     38  C   UNL A   1      40.933  27.766  29.658  1.00  0.00    -0.014 A 
BRANCH  38  39
ATOM     39  C   UNL A   1      40.749  28.734  30.767  1.00  0.00     0.031 A 
ATOM     40  C   UNL A   1      41.583  28.612  32.015  1.00  0.00     0.074 A 
ATOM     41  C   UNL A   1      39.783  29.672  30.682  1.00  0.00     0.049 A 
ATOM     42  N   UNL A   1      41.529  29.317  33.115  1.00  0.00    -0.248 NA
ATOM     43  C   UNL A   1      42.584  27.532  32.048  1.00  0.00     0.031 C 
ATOM     44  C   UNL A   1      38.865  29.844  29.553  1.00  0.00     0.029 A 
ATOM     45  N   UNL A   1      39.410  30.657  31.561  1.00  0.00    -0.354 N 
ATOM     46  C   UNL A   1      42.473  28.758  33.968  1.00  0.00     0.074 A 
ATOM     47  C   UNL A   1      43.032  27.611  33.290  1.00  0.00     0.031 C 
ATOM     48  C   UNL A   1      38.064  30.895  29.791  1.00  0.00     0.029 A 
ATOM     49  C   UNL A   1      38.376  31.442  31.106  1.00  0.00     0.049 A 
ATOM     50  H   UNL A   1      39.841  30.790  32.436  1.00  0.00     0.167 HD
ATOM     51  C   UNL A   1      42.865  29.182  35.192  1.00  0.00     0.037 A 
ATOM     52  C   UNL A   1      37.746  32.483  31.687  1.00  0.00     0.037 A 
ATOM     53  C   UNL A   1      42.323  30.343  35.845  1.00  0.00     0.049 A 
ATOM     54  C   UNL A   1      38.199  32.938  33.048  1.00  0.00     0.074 A 
ATOM     55  C   UNL A   1      42.693  30.898  37.056  1.00  0.00     0.029 A 
ATOM     56  N   UNL A   1      41.292  31.124  35.343  1.00  0.00    -0.354 N 
ATOM     57  N   UNL A   1      39.148  32.444  33.808  1.00  0.00    -0.248 NA
ATOM     58  C   UNL A   1      37.502  34.092  33.630  1.00  0.00     0.031 C 
ATOM     59  C   UNL A   1      41.846  31.981  37.315  1.00  0.00     0.029 A 
ATOM     60  C   UNL A   1      40.993  32.142  36.234  1.00  0.00     0.049 A 
ATOM     61  H   UNL A   1      40.839  30.978  34.482  1.00  0.00     0.167 HD
ATOM     62  C   UNL A   1      39.183  33.246  34.943  1.00  0.00     0.074 A 
ATOM     63  C   UNL A   1      38.167  34.265  34.763  1.00  0.00     0.031 C 
ATOM     64  C   UNL A   1      39.983  33.152  36.034  1.00  0.00     0.037 A 
BRANCH  51  65
ATOM     65  C   UNL A   1      43.934  28.391  35.897  1.00  0.00     0.058 A 
ATOM     66  C   UNL A   1      45.301  28.664  35.713  1.00  0.00     0.135 A 
ATOM     67  C   UNL A   1      43.589  27.366  36.793  1.00  0.00     0.135 A 
ATOM     68  F   UNL A   1      45.691  29.619  34.855  1.00  0.00    -0.206 F 
ATOM     69  C   UNL A   1      46.284  27.929  36.366  1.00  0.00     0.059 A 
ATOM     70  C   UNL A   1      44.557  26.642  37.485  1.00  0.00     0.059 A 
ATOM     71  F   UNL A   1      42.300  27.060  37.006  1.00  0.00    -0.206 F 
ATOM     72  C   UNL A   1      45.903  26.922  37.253  1.00  0.00     0.060 A 
BRANCH  72  73
ATOM     73  S   UNL A   1      47.193  25.986  38.100  1.00  0.00     0.124 S 
ATOM     74  O   UNL A   1      46.967  24.641  37.579  1.00  0.00    -0.237 OA
ATOM     75  O   UNL A   1      48.409  26.648  37.638  1.00  0.00    -0.237 OA
ATOM     76  O   UNL A   1      46.879  26.173  39.512  1.00  0.00    -0.744 OA
ENDBRANCH  72  73
ENDBRANCH  51  65
BRANCH  52  77
ATOM     77  C   UNL A   1      36.641  33.178  30.972  1.00  0.00     0.058 A 
ATOM     78  C   UNL A   1      36.905  34.047  29.902  1.00  0.00     0.135 A 
ATOM     79  C   UNL A   1      35.299  32.977  31.332  1.00  0.00     0.135 A 
ATOM     80  F   UNL A   1      38.170  34.277  29.522  1.00  0.00    -0.206 F 
ATOM     81  C   UNL A   1      35.882  34.706  29.227  1.00  0.00     0.059 A 
ATOM     82  C   UNL A   1      34.256  33.601  30.653  1.00  0.00     0.059 A 
ATOM     83  F   UNL A   1      34.989  32.143  32.337  1.00  0.00    -0.206 F 
ATOM     84  C   UNL A   1      34.559  34.473  29.608  1.00  0.00     0.060 A 
BRANCH  84  85
ATOM     85  S   UNL A   1      33.238  35.299  28.695  1.00  0.00     0.124 S 
ATOM     86  O   UNL A   1      33.995  36.196  27.829  1.00  0.00    -0.237 OA
ATOM     87  O   UNL A   1      32.578  34.178  28.032  1.00  0.00    -0.237 OA
ATOM     88  O   UNL A   1      32.457  35.945  29.745  1.00  0.00    -0.744 OA
ENDBRANCH  84  85
ENDBRANCH  52  77
BRANCH  64  89
ATOM     89  C   UNL A   1      39.825  34.196  37.105  1.00  0.00     0.058 A 
ATOM     90  C   UNL A   1      38.921  34.040  38.167  1.00  0.00     0.135 A 
ATOM     91  C   UNL A   1      40.635  35.343  37.098  1.00  0.00     0.135 A 
ATOM     92  F   UNL A   1      38.118  32.964  38.219  1.00  0.00    -0.206 F 
ATOM     93  C   UNL A   1      38.809  34.995  39.172  1.00  0.00     0.059 A 
ATOM     94  C   UNL A   1      40.564  36.296  38.109  1.00  0.00     0.059 A 
ATOM     95  F   UNL A   1      41.525  35.539  36.111  1.00  0.00    -0.206 F 
ATOM     96  C   UNL A   1      39.639  36.118  39.137  1.00  0.00     0.060 A 
BRANCH  96  97
ATOM     97  S   UNL A   1      39.509  37.330  40.467  1.00  0.00     0.124 S 
ATOM     98  O   UNL A   1      39.006  36.510  41.564  1.00  0.00    -0.237 OA
ATOM     99  O   UNL A   1      40.888  37.792  40.601  1.00  0.00    -0.237 OA
ATOM    100  O   UNL A   1      38.573  38.317  39.940  1.00  0.00    -0.744 OA
ENDBRANCH  96  97
ENDBRANCH  64  89
ENDBRANCH  38  39
ENDBRANCH  30  33
ENDBRANCH  28  29
ENDBRANCH  27  28
ENDBRANCH  26  27
ENDBRANCH   3  26
TORSDOF 20
ENDMDL
MODEL 3
REMARK VINA RESULT:     -10.9      2.951      5.175
REMARK SMILES CC(C)[C@H](NC(=O)OCc1ccccc1)C(=O)NCC(=O)NCCCNC(=O)c1ccc(-c2c3nc(c(-c4c(F)cc(S(=O)(=O)[O-])cc4F)c4ccc([nH]4)c(-c4c(F)cc(S(=O)(=O)[O-])cc4F)c4nc(c(-c5c(F)cc(S(=O)(=O)[O-])cc5F)c5ccc2[nH]5)C=C4)C=C3)cc1
REMARK SMILES IDX 20 1 21 2 22 3 19 5 18 6 16 7 17 8 4 10 2 11 1 12 3 13 5 14
REMARK SMILES IDX 6 15 7 17 8 18 9 19 10 20 11 21 15 22 12 23 14 24 13 25
REMARK SMILES IDX 23 26 24 27 25 28 26 29 27 30 28 32 29 33 30 34 94 35 31 36
REMARK SMILES IDX 93 37 32 38 33 39 34 40 87 41 35 42 92 43 86 44 88 45 36 46
REMARK SMILES IDX 91 47 85 48 84 49 37 51 71 52 50 53 70 54 51 55 54 56 69 57
REMARK SMILES IDX 89 58 52 59 53 60 68 62 90 63 55 64 38 65 39 66 48 67 40 68
REMARK SMILES IDX 41 69 47 70 49 71 42 72 43 73 44 74 45 75 46 76 72 77 73 78
REMARK SMILES IDX 82 79 74 80 75 81 81 82 83 83 76 84 77 85 78 86 79 87 80 88
REMARK SMILES IDX 56 89 57 90 66 91 58 92 59 93 65 94 67 95 60 96 61 97 62 98
REMARK SMILES IDX 63 99 64 100
REMARK H PARENT 22 4 18 9 5 16 26 31 88 50 54 61
REMARK Flexibility Score: inf
ROOT
ATOM      1  C   UNL A   1      34.273  29.158  27.156  1.00  0.00     0.239 C 
ATOM      2  O   UNL A   1      35.468  29.228  27.468  1.00  0.00    -0.273 OA
ATOM      3  N   UNL A   1      33.518  30.258  27.413  1.00  0.00    -0.355 N 
ATOM      4  H   UNL A   1      33.945  30.921  28.003  1.00  0.00     0.163 HD
ENDROOT
BRANCH   1   5
ATOM      5  C   UNL A   1      33.770  27.926  26.373  1.00  0.00     0.216 C 
BRANCH   5   6
ATOM      6  N   UNL A   1      32.504  27.310  26.707  1.00  0.00    -0.345 N 
ATOM      7  C   UNL A   1      31.537  26.711  25.967  1.00  0.00     0.243 C 
ATOM      8  O   UNL A   1      30.610  26.215  26.622  1.00  0.00    -0.273 OA
ATOM      9  H   UNL A   1      32.304  27.329  27.670  1.00  0.00     0.164 HD
BRANCH   7  10
ATOM     10  C   UNL A   1      31.503  26.603  24.409  1.00  0.00     0.177 C 
BRANCH  10  11
ATOM     11  C   UNL A   1      32.129  25.323  23.825  1.00  0.00     0.015 C 
ATOM     12  C   UNL A   1      31.076  24.537  23.029  1.00  0.00     0.010 C 
ATOM     13  C   UNL A   1      33.295  25.650  22.878  1.00  0.00     0.010 C 
ENDBRANCH  10  11
BRANCH  10  14
ATOM     14  N   UNL A   1      31.776  27.843  23.677  1.00  0.00    -0.309 N 
ATOM     15  C   UNL A   1      31.096  28.485  22.690  1.00  0.00     0.408 C 
ATOM     16  H   UNL A   1      32.606  28.297  23.951  1.00  0.00     0.167 HD
ATOM     17  O   UNL A   1      31.599  29.442  22.122  1.00  0.00    -0.225 OA
BRANCH  15  18
ATOM     18  O   UNL A   1      29.912  27.916  22.382  1.00  0.00    -0.445 OA
BRANCH  18  19
ATOM     19  C   UNL A   1      28.762  28.498  23.015  1.00  0.00     0.270 C 
BRANCH  19  20
ATOM     20  C   UNL A   1      28.577  29.939  22.634  1.00  0.00    -0.011 A 
ATOM     21  C   UNL A   1      28.817  30.962  23.557  1.00  0.00     0.007 A 
ATOM     22  C   UNL A   1      28.198  30.268  21.326  1.00  0.00     0.007 A 
ATOM     23  C   UNL A   1      28.682  32.295  23.173  1.00  0.00     0.000 A 
ATOM     24  C   UNL A   1      28.070  31.599  20.941  1.00  0.00     0.000 A 
ATOM     25  C   UNL A   1      28.314  32.612  21.865  1.00  0.00     0.000 A 
ENDBRANCH  19  20
ENDBRANCH  18  19
ENDBRANCH  15  18
ENDBRANCH  10  14
ENDBRANCH   7  10
ENDBRANCH   5   6
ENDBRANCH   1   5
BRANCH   3  26
ATOM     26  C   UNL A   1      32.192  30.616  26.965  1.00  0.00     0.117 C 
BRANCH  26  27
ATOM     27  C   UNL A   1      31.930  32.099  26.919  1.00  0.00     0.042 C 
BRANCH  27  28
ATOM     28  C   UNL A   1      33.055  32.885  27.561  1.00  0.00     0.118 C 
BRANCH  28  29
ATOM     29  N   UNL A   1      32.684  34.266  27.874  1.00  0.00    -0.352 N 
ATOM     30  C   UNL A   1      33.160  35.104  28.856  1.00  0.00     0.251 C 
ATOM     31  H   UNL A   1      31.990  34.653  27.295  1.00  0.00     0.163 HD
ATOM     32  O   UNL A   1      32.621  36.186  29.061  1.00  0.00    -0.269 OA
BRANCH  30  33
ATOM     33  C   UNL A   1      34.300  34.666  29.687  1.00  0.00     0.039 A 
ATOM     34  C   UNL A   1      34.063  34.186  30.975  1.00  0.00     0.014 A 
ATOM     35  C   UNL A   1      35.591  34.661  29.157  1.00  0.00     0.014 A 
ATOM     36  C   UNL A   1      35.112  33.606  31.689  1.00  0.00     0.010 A 
ATOM     37  C   UNL A   1      36.592  33.957  29.807  1.00  0.00     0.010 A 
ATOM     38  C   UNL A   1      36.370  33.431  31.086  1.00  0.00    -0.014 A 
BRANCH  38  39
ATOM     39  C   UNL A   1      37.469  32.708  31.773  1.00  0.00     0.031 A 
ATOM     40  C   UNL A   1      37.987  33.213  33.094  1.00  0.00     0.074 A 
ATOM     41  C   UNL A   1      38.047  31.647  31.174  1.00  0.00     0.049 A 
ATOM     42  N   UNL A   1      38.977  32.762  33.818  1.00  0.00    -0.248 NA
ATOM     43  C   UNL A   1      37.331  34.405  33.658  1.00  0.00     0.031 C 
ATOM     44  C   UNL A   1      37.679  31.108  29.862  1.00  0.00     0.029 A 
ATOM     45  N   UNL A   1      39.071  30.833  31.588  1.00  0.00    -0.354 N 
ATOM     46  C   UNL A   1      39.070  33.620  34.907  1.00  0.00     0.074 A 
ATOM     47  C   UNL A   1      38.088  34.661  34.713  1.00  0.00     0.031 C 
ATOM     48  C   UNL A   1      38.436  30.031  29.600  1.00  0.00     0.029 A 
ATOM     49  C   UNL A   1      39.375  29.830  30.697  1.00  0.00     0.049 A 
ATOM     50  H   UNL A   1      39.544  30.954  32.443  1.00  0.00     0.167 HD
ATOM     51  C   UNL A   1      39.877  33.529  35.990  1.00  0.00     0.037 A 
ATOM     52  C   UNL A   1      40.310  28.860  30.755  1.00  0.00     0.037 A 
ATOM     53  C   UNL A   1      40.832  32.472  36.187  1.00  0.00     0.049 A 
ATOM     54  C   UNL A   1      41.196  28.778  31.969  1.00  0.00     0.074 A 
ATOM     55  C   UNL A   1      41.654  32.249  37.277  1.00  0.00     0.029 A 
ATOM     56  N   UNL A   1      41.096  31.463  35.272  1.00  0.00    -0.354 N 
ATOM     57  N   UNL A   1      41.216  29.554  33.028  1.00  0.00    -0.248 NA
ATOM     58  C   UNL A   1      42.181  27.690  32.001  1.00  0.00     0.031 C 
ATOM     59  C   UNL A   1      42.457  31.139  36.995  1.00  0.00     0.029 A 
ATOM     60  C   UNL A   1      42.089  30.629  35.760  1.00  0.00     0.049 A 
ATOM     61  H   UNL A   1      40.645  31.354  34.404  1.00  0.00     0.167 HD
ATOM     62  C   UNL A   1      42.194  29.028  33.866  1.00  0.00     0.074 A 
ATOM     63  C   UNL A   1      42.733  27.862  33.195  1.00  0.00     0.031 C 
ATOM     64  C   UNL A   1      42.607  29.468  35.081  1.00  0.00     0.037 A 
BRANCH  51  65
ATOM     65  C   UNL A   1      39.756  34.597  37.044  1.00  0.00     0.058 A 
ATOM     66  C   UNL A   1      40.458  35.812  36.953  1.00  0.00     0.135 A 
ATOM     67  C   UNL A   1      38.903  34.418  38.146  1.00  0.00     0.135 A 
ATOM     68  F   UNL A   1      41.302  36.031  35.932  1.00  0.00    -0.206 F 
ATOM     69  C   UNL A   1      40.344  36.794  37.930  1.00  0.00     0.059 A 
ATOM     70  C   UNL A   1      38.747  35.404  39.117  1.00  0.00     0.059 A 
ATOM     71  F   UNL A   1      38.211  33.278  38.286  1.00  0.00    -0.206 F 
ATOM     72  C   UNL A   1      39.483  36.582  39.008  1.00  0.00     0.060 A 
BRANCH  72  73
ATOM     73  S   UNL A   1      39.339  37.873  40.261  1.00  0.00     0.124 S 
ATOM     74  O   UNL A   1      38.248  38.680  39.724  1.00  0.00    -0.237 OA
ATOM     75  O   UNL A   1      39.027  37.104  41.462  1.00  0.00    -0.237 OA
ATOM     76  O   UNL A   1      40.653  38.507  40.250  1.00  0.00    -0.744 OA
ENDBRANCH  72  73
ENDBRANCH  51  65
BRANCH  52  77
ATOM     77  C   UNL A   1      40.435  27.878  29.644  1.00  0.00     0.058 A 
ATOM     78  C   UNL A   1      39.568  26.779  29.548  1.00  0.00     0.135 A 
ATOM     79  C   UNL A   1      41.412  28.025  28.647  1.00  0.00     0.135 A 
ATOM     80  F   UNL A   1      38.621  26.590  30.479  1.00  0.00    -0.206 F 
ATOM     81  C   UNL A   1      39.676  25.851  28.517  1.00  0.00     0.059 A 
ATOM     82  C   UNL A   1      41.521  27.128  27.589  1.00  0.00     0.059 A 
ATOM     83  F   UNL A   1      42.256  29.069  28.680  1.00  0.00    -0.206 F 
ATOM     84  C   UNL A   1      40.655  26.037  27.538  1.00  0.00     0.060 A 
BRANCH  84  85
ATOM     85  S   UNL A   1      40.755  24.851  26.180  1.00  0.00     0.124 S 
ATOM     86  O   UNL A   1      39.377  24.382  26.095  1.00  0.00    -0.237 OA
ATOM     87  O   UNL A   1      41.214  25.689  25.077  1.00  0.00    -0.237 OA
ATOM     88  O   UNL A   1      41.726  23.872  26.660  1.00  0.00    -0.744 OA
ENDBRANCH  84  85
ENDBRANCH  52  77
BRANCH  64  89
ATOM     89  C   UNL A   1      43.667  28.668  35.785  1.00  0.00     0.058 A 
ATOM     90  C   UNL A   1      45.032  28.972  35.663  1.00  0.00     0.135 A 
ATOM     91  C   UNL A   1      43.305  27.617  36.644  1.00  0.00     0.135 A 
ATOM     92  F   UNL A   1      45.433  29.963  34.851  1.00  0.00    -0.206 F 
ATOM     93  C   UNL A   1      46.001  28.248  36.349  1.00  0.00     0.059 A 
ATOM     94  C   UNL A   1      44.254  26.901  37.366  1.00  0.00     0.059 A 
ATOM     95  F   UNL A   1      42.012  27.290  36.807  1.00  0.00    -0.206 F 
ATOM     96  C   UNL A   1      45.602  27.217  37.202  1.00  0.00     0.060 A 
BRANCH  96  97
ATOM     97  S   UNL A   1      46.869  26.311  38.115  1.00  0.00     0.124 S 
ATOM     98  O   UNL A   1      47.533  27.386  38.843  1.00  0.00    -0.237 OA
ATOM     99  O   UNL A   1      46.070  25.394  38.924  1.00  0.00    -0.237 OA
ATOM    100  O   UNL A   1      47.661  25.681  37.064  1.00  0.00    -0.744 OA
ENDBRANCH  96  97
ENDBRANCH  64  89
ENDBRANCH  38  39
ENDBRANCH  30  33
ENDBRANCH  28  29
ENDBRANCH  27  28
ENDBRANCH  26  27
ENDBRANCH   3  26
TORSDOF 20
ENDMDL
