MODEL 1
REMARK VINA RESULT:     -13.5      0.000      0.000
REMARK SMILES CCc1nn(-c2cc(F)c(F)c(F)c2)c(Cl)c1C(=O)NCCCNC(=O)c1ccc(-c2c3nc(c(-c4c(F)cc(S(=O)(=O)[O-])cc4F)c4ccc([nH]4)c(-c4c(F)cc(S(=O)(=O)[O-])cc4F)c4nc(c(-c5c(F)cc(S(=O)(=O)[O-])cc5F)c5ccc2[nH]5)C=C4)C=C3)cc1
REMARK SMILES IDX 23 1 22 2 21 3 20 4 18 5 19 6 17 8 3 9 4 10 5 11 15 12 16 13
REMARK SMILES IDX 2 14 1 15 6 16 7 17 14 18 8 19 12 20 9 21 10 22 13 23 11 24
REMARK SMILES IDX 24 25 25 26 26 28 27 29 28 30 92 31 29 32 91 33 30 34 31 35
REMARK SMILES IDX 32 36 85 37 33 38 90 39 84 40 86 41 34 42 89 43 83 44 82 45
REMARK SMILES IDX 35 47 69 48 48 49 68 50 49 51 52 52 67 53 87 54 50 55 51 56
REMARK SMILES IDX 66 58 88 59 53 60 36 61 37 62 46 63 38 64 39 65 45 66 47 67
REMARK SMILES IDX 40 68 41 69 42 70 43 71 44 72 70 73 71 74 80 75 72 76 73 77
REMARK SMILES IDX 79 78 81 79 74 80 75 81 76 82 77 83 78 84 54 85 55 86 64 87
REMARK SMILES IDX 56 88 57 89 63 90 65 91 58 92 59 93 60 94 61 95 62 96
REMARK H PARENT 20 7 24 27 86 46 52 57
REMARK Flexibility Score: inf
ROOT
ATOM      1  C   UNL A   1      37.599  23.092  25.463  1.00  0.00     0.118 C 
ENDROOT
BRANCH   1   2
ATOM      2  C   UNL A   1      36.132  22.721  25.551  1.00  0.00     0.042 C 
BRANCH   2   3
ATOM      3  C   UNL A   1      35.215  23.947  25.555  1.00  0.00     0.118 C 
BRANCH   3   4
ATOM      4  N   UNL A   1      34.108  23.790  26.461  1.00  0.00    -0.352 N 
ATOM      5  C   UNL A   1      32.753  23.923  26.371  1.00  0.00     0.256 C 
ATOM      6  O   UNL A   1      32.180  23.625  27.423  1.00  0.00    -0.269 OA
ATOM      7  H   UNL A   1      34.398  23.522  27.363  1.00  0.00     0.163 HD
BRANCH   5   8
ATOM      8  C   UNL A   1      31.987  24.334  25.188  1.00  0.00     0.100 A 
ATOM      9  C   UNL A   1      31.731  23.858  23.851  1.00  0.00     0.077 A 
ATOM     10  N   UNL A   1      30.834  24.617  23.198  1.00  0.00    -0.171 NA
ATOM     11  N   UNL A   1      30.679  25.708  23.971  1.00  0.00    -0.221 N 
ATOM     12  C   UNL A   1      31.269  25.527  25.192  1.00  0.00     0.145 A 
ATOM     13  Cl  UNL A   1      30.924  26.633  26.464  1.00  0.00    -0.061 Cl
BRANCH   9  14
ATOM     14  C   UNL A   1      32.293  22.736  23.042  1.00  0.00     0.056 C 
ATOM     15  C   UNL A   1      33.582  23.073  22.304  1.00  0.00     0.011 C 
ENDBRANCH   9  14
BRANCH  11  16
ATOM     16  C   UNL A   1      29.957  26.819  23.472  1.00  0.00     0.072 A 
ATOM     17  C   UNL A   1      30.607  27.835  22.759  1.00  0.00     0.071 A 
ATOM     18  C   UNL A   1      28.582  26.900  23.727  1.00  0.00     0.071 A 
ATOM     19  C   UNL A   1      29.883  28.955  22.360  1.00  0.00     0.164 A 
ATOM     20  C   UNL A   1      27.892  28.050  23.352  1.00  0.00     0.164 A 
ATOM     21  F   UNL A   1      30.503  29.923  21.671  1.00  0.00    -0.204 F 
ATOM     22  C   UNL A   1      28.537  29.078  22.676  1.00  0.00     0.194 A 
ATOM     23  F   UNL A   1      26.597  28.168  23.676  1.00  0.00    -0.204 F 
ATOM     24  F   UNL A   1      27.863  30.185  22.333  1.00  0.00    -0.200 F 
ENDBRANCH  11  16
ENDBRANCH   5   8
ENDBRANCH   3   4
ENDBRANCH   2   3
ENDBRANCH   1   2
BRANCH   1  25
ATOM     25  N   UNL A   1      38.426  22.168  26.240  1.00  0.00    -0.352 N 
ATOM     26  C   UNL A   1      39.609  22.420  26.909  1.00  0.00     0.251 C 
ATOM     27  H   UNL A   1      38.096  21.242  26.294  1.00  0.00     0.163 HD
ATOM     28  O   UNL A   1      40.351  21.512  27.227  1.00  0.00    -0.269 OA
BRANCH  26  29
ATOM     29  C   UNL A   1      39.947  23.824  27.199  1.00  0.00     0.039 A 
ATOM     30  C   UNL A   1      39.011  24.837  26.995  1.00  0.00     0.014 A 
ATOM     31  C   UNL A   1      41.181  24.088  27.786  1.00  0.00     0.014 A 
ATOM     32  C   UNL A   1      39.287  26.105  27.494  1.00  0.00     0.010 A 
ATOM     33  C   UNL A   1      41.374  25.292  28.420  1.00  0.00     0.010 A 
ATOM     34  C   UNL A   1      40.454  26.321  28.248  1.00  0.00    -0.014 A 
BRANCH  34  35
ATOM     35  C   UNL A   1      40.645  27.586  28.958  1.00  0.00     0.031 A 
ATOM     36  C   UNL A   1      41.717  28.468  28.402  1.00  0.00     0.074 A 
ATOM     37  C   UNL A   1      39.810  28.049  29.914  1.00  0.00     0.049 A 
ATOM     38  N   UNL A   1      42.847  28.777  28.946  1.00  0.00    -0.248 NA
ATOM     39  C   UNL A   1      41.573  28.956  27.020  1.00  0.00     0.031 C 
ATOM     40  C   UNL A   1      38.533  27.494  30.376  1.00  0.00     0.029 A 
ATOM     41  N   UNL A   1      39.895  29.209  30.619  1.00  0.00    -0.354 N 
ATOM     42  C   UNL A   1      43.463  29.678  28.079  1.00  0.00     0.074 A 
ATOM     43  C   UNL A   1      42.724  29.609  26.843  1.00  0.00     0.031 C 
ATOM     44  C   UNL A   1      37.859  28.430  31.080  1.00  0.00     0.029 A 
ATOM     45  C   UNL A   1      38.730  29.571  31.282  1.00  0.00     0.049 A 
ATOM     46  H   UNL A   1      40.718  29.748  30.657  1.00  0.00     0.167 HD
ATOM     47  C   UNL A   1      44.393  30.572  28.517  1.00  0.00     0.037 A 
ATOM     48  C   UNL A   1      38.494  30.738  31.933  1.00  0.00     0.037 A 
ATOM     49  C   UNL A   1      44.907  30.201  29.814  1.00  0.00     0.049 A 
ATOM     50  C   UNL A   1      39.823  31.327  32.250  1.00  0.00     0.074 A 
ATOM     51  C   UNL A   1      45.521  29.071  30.319  1.00  0.00     0.029 A 
ATOM     52  N   UNL A   1      44.458  30.894  30.913  1.00  0.00    -0.354 N 
ATOM     53  N   UNL A   1      40.672  30.797  33.088  1.00  0.00    -0.248 NA
ATOM     54  C   UNL A   1      40.395  32.252  31.285  1.00  0.00     0.031 C 
ATOM     55  C   UNL A   1      44.939  28.885  31.609  1.00  0.00     0.029 A 
ATOM     56  C   UNL A   1      44.074  29.955  31.841  1.00  0.00     0.049 A 
ATOM     57  H   UNL A   1      44.420  31.872  31.017  1.00  0.00     0.167 HD
ATOM     58  C   UNL A   1      41.913  30.977  32.498  1.00  0.00     0.074 A 
ATOM     59  C   UNL A   1      41.688  31.950  31.431  1.00  0.00     0.031 C 
ATOM     60  C   UNL A   1      42.951  30.120  32.737  1.00  0.00     0.037 A 
BRANCH  47  61
ATOM     61  C   UNL A   1      44.588  31.954  27.937  1.00  0.00     0.058 A 
ATOM     62  C   UNL A   1      45.759  32.249  27.207  1.00  0.00     0.135 A 
ATOM     63  C   UNL A   1      43.800  33.071  28.296  1.00  0.00     0.135 A 
ATOM     64  F   UNL A   1      46.595  31.269  26.828  1.00  0.00    -0.206 F 
ATOM     65  C   UNL A   1      46.145  33.558  26.907  1.00  0.00     0.059 A 
ATOM     66  C   UNL A   1      44.136  34.376  27.960  1.00  0.00     0.059 A 
ATOM     67  F   UNL A   1      42.716  32.958  29.073  1.00  0.00    -0.206 F 
ATOM     68  C   UNL A   1      45.330  34.616  27.299  1.00  0.00     0.060 A 
BRANCH  68  69
ATOM     69  S   UNL A   1      45.864  36.309  26.995  1.00  0.00     0.124 S 
ATOM     70  O   UNL A   1      46.609  36.602  28.215  1.00  0.00    -0.237 OA
ATOM     71  O   UNL A   1      46.659  36.161  25.780  1.00  0.00    -0.237 OA
ATOM     72  O   UNL A   1      44.607  37.032  26.830  1.00  0.00    -0.744 OA
ENDBRANCH  68  69
ENDBRANCH  47  61
BRANCH  48  73
ATOM     73  C   UNL A   1      37.234  31.524  32.003  1.00  0.00     0.058 A 
ATOM     74  C   UNL A   1      36.742  31.983  33.238  1.00  0.00     0.135 A 
ATOM     75  C   UNL A   1      36.655  32.100  30.853  1.00  0.00     0.135 A 
ATOM     76  F   UNL A   1      37.238  31.492  34.385  1.00  0.00    -0.206 F 
ATOM     77  C   UNL A   1      35.796  33.007  33.333  1.00  0.00     0.059 A 
ATOM     78  C   UNL A   1      35.700  33.115  30.923  1.00  0.00     0.059 A 
ATOM     79  F   UNL A   1      37.070  31.764  29.623  1.00  0.00    -0.206 F 
ATOM     80  C   UNL A   1      35.302  33.589  32.166  1.00  0.00     0.060 A 
BRANCH  80  81
ATOM     81  S   UNL A   1      34.255  35.060  32.285  1.00  0.00     0.124 S 
ATOM     82  O   UNL A   1      33.054  34.524  32.916  1.00  0.00    -0.237 OA
ATOM     83  O   UNL A   1      35.067  35.949  33.110  1.00  0.00    -0.237 OA
ATOM     84  O   UNL A   1      34.099  35.477  30.893  1.00  0.00    -0.744 OA
ENDBRANCH  80  81
ENDBRANCH  48  73
BRANCH  60  85
ATOM     85  C   UNL A   1      42.831  29.127  33.867  1.00  0.00     0.058 A 
ATOM     86  C   UNL A   1      43.084  29.412  35.221  1.00  0.00     0.135 A 
ATOM     87  C   UNL A   1      42.287  27.864  33.578  1.00  0.00     0.135 A 
ATOM     88  F   UNL A   1      43.500  30.627  35.606  1.00  0.00    -0.206 F 
ATOM     89  C   UNL A   1      42.854  28.473  36.231  1.00  0.00     0.059 A 
ATOM     90  C   UNL A   1      42.017  26.925  34.570  1.00  0.00     0.059 A 
ATOM     91  F   UNL A   1      41.962  27.546  32.313  1.00  0.00    -0.206 F 
ATOM     92  C   UNL A   1      42.319  27.230  35.894  1.00  0.00     0.060 A 
BRANCH  92  93
ATOM     93  S   UNL A   1      41.962  26.040  37.204  1.00  0.00     0.124 S 
ATOM     94  O   UNL A   1      42.201  24.766  36.536  1.00  0.00    -0.237 OA
ATOM     95  O   UNL A   1      42.926  26.405  38.238  1.00  0.00    -0.237 OA
ATOM     96  O   UNL A   1      40.567  26.313  37.544  1.00  0.00    -0.744 OA
ENDBRANCH  92  93
ENDBRANCH  60  85
ENDBRANCH  34  35
ENDBRANCH  26  29
ENDBRANCH   1  25
TORSDOF 15
ENDMDL
MODEL 2
REMARK VINA RESULT:     -13.3      1.174      1.687
REMARK SMILES CCc1nn(-c2cc(F)c(F)c(F)c2)c(Cl)c1C(=O)NCCCNC(=O)c1ccc(-c2c3nc(c(-c4c(F)cc(S(=O)(=O)[O-])cc4F)c4ccc([nH]4)c(-c4c(F)cc(S(=O)(=O)[O-])cc4F)c4nc(c(-c5c(F)cc(S(=O)(=O)[O-])cc5F)c5ccc2[nH]5)C=C4)C=C3)cc1
REMARK SMILES IDX 23 1 22 2 21 3 20 4 18 5 19 6 17 8 3 9 4 10 5 11 15 12 16 13
REMARK SMILES IDX 2 14 1 15 6 16 7 17 14 18 8 19 12 20 9 21 10 22 13 23 11 24
REMARK SMILES IDX 24 25 25 26 26 28 27 29 28 30 92 31 29 32 91 33 30 34 31 35
REMARK SMILES IDX 32 36 85 37 33 38 90 39 84 40 86 41 34 42 89 43 83 44 82 45
REMARK SMILES IDX 35 47 69 48 48 49 68 50 49 51 52 52 67 53 87 54 50 55 51 56
REMARK SMILES IDX 66 58 88 59 53 60 36 61 37 62 46 63 38 64 39 65 45 66 47 67
REMARK SMILES IDX 40 68 41 69 42 70 43 71 44 72 70 73 71 74 80 75 72 76 73 77
REMARK SMILES IDX 79 78 81 79 74 80 75 81 76 82 77 83 78 84 54 85 55 86 64 87
REMARK SMILES IDX 56 88 57 89 63 90 65 91 58 92 59 93 60 94 61 95 62 96
REMARK H PARENT 20 7 24 27 86 46 52 57
REMARK Flexibility Score: inf
ROOT
ATOM      1  C   UNL A   1      37.767  23.129  25.818  1.00  0.00     0.118 C 
ENDROOT
BRANCH   1   2
ATOM      2  C   UNL A   1      36.947  22.511  24.702  1.00  0.00     0.042 C 
BRANCH   2   3
ATOM      3  C   UNL A   1      36.473  21.094  25.035  1.00  0.00     0.118 C 
BRANCH   3   4
ATOM      4  N   UNL A   1      35.487  21.088  26.084  1.00  0.00    -0.352 N 
ATOM      5  C   UNL A   1      34.182  21.471  26.190  1.00  0.00     0.256 C 
ATOM      6  O   UNL A   1      33.708  21.221  27.303  1.00  0.00    -0.269 OA
ATOM      7  H   UNL A   1      35.838  20.719  26.926  1.00  0.00     0.163 HD
BRANCH   5   8
ATOM      8  C   UNL A   1      33.356  22.085  25.142  1.00  0.00     0.100 A 
ATOM      9  C   UNL A   1      32.575  21.668  24.004  1.00  0.00     0.077 A 
ATOM     10  N   UNL A   1      31.921  22.691  23.427  1.00  0.00    -0.171 NA
ATOM     11  N   UNL A   1      32.439  23.795  23.996  1.00  0.00    -0.221 N 
ATOM     12  C   UNL A   1      33.215  23.468  25.075  1.00  0.00     0.145 A 
ATOM     13  Cl  UNL A   1      33.709  24.708  26.160  1.00  0.00    -0.061 Cl
BRANCH   9  14
ATOM     14  C   UNL A   1      32.389  20.354  23.320  1.00  0.00     0.056 C 
ATOM     15  C   UNL A   1      32.462  19.145  24.243  1.00  0.00     0.011 C 
ENDBRANCH   9  14
BRANCH  11  16
ATOM     16  C   UNL A   1      32.124  25.068  23.463  1.00  0.00     0.072 A 
ATOM     17  C   UNL A   1      33.103  25.843  22.828  1.00  0.00     0.071 A 
ATOM     18  C   UNL A   1      30.817  25.554  23.604  1.00  0.00     0.071 A 
ATOM     19  C   UNL A   1      32.780  27.125  22.395  1.00  0.00     0.164 A 
ATOM     20  C   UNL A   1      30.533  26.855  23.199  1.00  0.00     0.164 A 
ATOM     21  F   UNL A   1      33.715  27.863  21.781  1.00  0.00    -0.204 F 
ATOM     22  C   UNL A   1      31.508  27.643  22.601  1.00  0.00     0.194 A 
ATOM     23  F   UNL A   1      29.308  27.353  23.416  1.00  0.00    -0.204 F 
ATOM     24  F   UNL A   1      31.224  28.899  22.227  1.00  0.00    -0.200 F 
ENDBRANCH  11  16
ENDBRANCH   5   8
ENDBRANCH   3   4
ENDBRANCH   2   3
ENDBRANCH   1   2
BRANCH   1  25
ATOM     25  N   UNL A   1      38.756  22.181  26.335  1.00  0.00    -0.352 N 
ATOM     26  C   UNL A   1      40.046  22.428  26.764  1.00  0.00     0.251 C 
ATOM     27  H   UNL A   1      38.463  21.243  26.383  1.00  0.00     0.163 HD
ATOM     28  O   UNL A   1      40.857  21.527  26.851  1.00  0.00    -0.269 OA
BRANCH  26  29
ATOM     29  C   UNL A   1      40.408  23.818  27.087  1.00  0.00     0.039 A 
ATOM     30  C   UNL A   1      39.582  24.875  26.704  1.00  0.00     0.014 A 
ATOM     31  C   UNL A   1      41.532  24.031  27.879  1.00  0.00     0.014 A 
ATOM     32  C   UNL A   1      39.838  26.139  27.224  1.00  0.00     0.010 A 
ATOM     33  C   UNL A   1      41.679  25.239  28.518  1.00  0.00     0.010 A 
ATOM     34  C   UNL A   1      40.864  26.311  28.170  1.00  0.00    -0.014 A 
BRANCH  34  35
ATOM     35  C   UNL A   1      41.000  27.581  28.882  1.00  0.00     0.031 A 
ATOM     36  C   UNL A   1      42.067  28.489  28.361  1.00  0.00     0.074 A 
ATOM     37  C   UNL A   1      40.121  28.025  29.808  1.00  0.00     0.049 A 
ATOM     38  N   UNL A   1      43.170  28.827  28.943  1.00  0.00    -0.248 NA
ATOM     39  C   UNL A   1      41.959  28.971  26.973  1.00  0.00     0.031 C 
ATOM     40  C   UNL A   1      38.842  27.440  30.227  1.00  0.00     0.029 A 
ATOM     41  N   UNL A   1      40.152  29.188  30.512  1.00  0.00    -0.354 N 
ATOM     42  C   UNL A   1      43.793  29.741  28.095  1.00  0.00     0.074 A 
ATOM     43  C   UNL A   1      43.099  29.652  26.835  1.00  0.00     0.031 C 
ATOM     44  C   UNL A   1      38.122  28.360  30.905  1.00  0.00     0.029 A 
ATOM     45  C   UNL A   1      38.956  29.523  31.134  1.00  0.00     0.049 A 
ATOM     46  H   UNL A   1      40.959  29.748  30.577  1.00  0.00     0.167 HD
ATOM     47  C   UNL A   1      44.685  30.659  28.563  1.00  0.00     0.037 A 
ATOM     48  C   UNL A   1      38.669  30.684  31.773  1.00  0.00     0.037 A 
ATOM     49  C   UNL A   1      45.163  30.303  29.877  1.00  0.00     0.049 A 
ATOM     50  C   UNL A   1      39.972  31.307  32.133  1.00  0.00     0.074 A 
ATOM     51  C   UNL A   1      45.787  29.190  30.407  1.00  0.00     0.029 A 
ATOM     52  N   UNL A   1      44.659  30.987  30.959  1.00  0.00    -0.354 N 
ATOM     53  N   UNL A   1      40.804  30.801  33.002  1.00  0.00    -0.248 NA
ATOM     54  C   UNL A   1      40.553  32.244  31.186  1.00  0.00     0.031 C 
ATOM     55  C   UNL A   1      45.166  28.992  31.676  1.00  0.00     0.029 A 
ATOM     56  C   UNL A   1      44.267  30.041  31.875  1.00  0.00     0.049 A 
ATOM     57  H   UNL A   1      44.594  31.964  31.059  1.00  0.00     0.167 HD
ATOM     58  C   UNL A   1      42.060  31.009  32.454  1.00  0.00     0.074 A 
ATOM     59  C   UNL A   1      41.848  31.975  31.377  1.00  0.00     0.031 C 
ATOM     60  C   UNL A   1      43.110  30.179  32.732  1.00  0.00     0.037 A 
BRANCH  47  61
ATOM     61  C   UNL A   1      44.865  32.044  27.985  1.00  0.00     0.058 A 
ATOM     62  C   UNL A   1      46.107  32.414  27.425  1.00  0.00     0.135 A 
ATOM     63  C   UNL A   1      43.957  33.105  28.202  1.00  0.00     0.135 A 
ATOM     64  F   UNL A   1      47.054  31.492  27.193  1.00  0.00    -0.206 F 
ATOM     65  C   UNL A   1      46.440  33.744  27.155  1.00  0.00     0.059 A 
ATOM     66  C   UNL A   1      44.248  34.428  27.888  1.00  0.00     0.059 A 
ATOM     67  F   UNL A   1      42.783  32.924  28.818  1.00  0.00    -0.206 F 
ATOM     68  C   UNL A   1      45.505  34.745  27.402  1.00  0.00     0.060 A 
BRANCH  68  69
ATOM     69  S   UNL A   1      45.959  36.468  27.140  1.00  0.00     0.124 S 
ATOM     70  O   UNL A   1      46.653  36.395  25.859  1.00  0.00    -0.237 OA
ATOM     71  O   UNL A   1      44.655  37.124  27.125  1.00  0.00    -0.237 OA
ATOM     72  O   UNL A   1      46.793  36.774  28.298  1.00  0.00    -0.744 OA
ENDBRANCH  68  69
ENDBRANCH  47  61
BRANCH  48  73
ATOM     73  C   UNL A   1      37.388  31.440  31.797  1.00  0.00     0.058 A 
ATOM     74  C   UNL A   1      36.778  31.778  33.019  1.00  0.00     0.135 A 
ATOM     75  C   UNL A   1      36.898  32.105  30.654  1.00  0.00     0.135 A 
ATOM     76  F   UNL A   1      37.184  31.197  34.158  1.00  0.00    -0.206 F 
ATOM     77  C   UNL A   1      35.802  32.774  33.116  1.00  0.00     0.059 A 
ATOM     78  C   UNL A   1      35.916  33.092  30.725  1.00  0.00     0.059 A 
ATOM     79  F   UNL A   1      37.429  31.886  29.442  1.00  0.00    -0.206 F 
ATOM     80  C   UNL A   1      35.398  33.448  31.964  1.00  0.00     0.060 A 
BRANCH  80  81
ATOM     81  S   UNL A   1      34.308  34.884  32.116  1.00  0.00     0.124 S 
ATOM     82  O   UNL A   1      35.144  35.820  32.857  1.00  0.00    -0.237 OA
ATOM     83  O   UNL A   1      34.052  35.223  30.719  1.00  0.00    -0.237 OA
ATOM     84  O   UNL A   1      33.157  34.358  32.846  1.00  0.00    -0.744 OA
ENDBRANCH  80  81
ENDBRANCH  48  73
BRANCH  60  85
ATOM     85  C   UNL A   1      42.975  29.186  33.859  1.00  0.00     0.058 A 
ATOM     86  C   UNL A   1      43.195  29.475  35.218  1.00  0.00     0.135 A 
ATOM     87  C   UNL A   1      42.453  27.917  33.559  1.00  0.00     0.135 A 
ATOM     88  F   UNL A   1      43.588  30.695  35.611  1.00  0.00    -0.206 F 
ATOM     89  C   UNL A   1      42.952  28.535  36.224  1.00  0.00     0.059 A 
ATOM     90  C   UNL A   1      42.171  26.975  34.546  1.00  0.00     0.059 A 
ATOM     91  F   UNL A   1      42.161  27.594  32.288  1.00  0.00    -0.206 F 
ATOM     92  C   UNL A   1      42.439  27.285  35.876  1.00  0.00     0.060 A 
BRANCH  92  93
ATOM     93  S   UNL A   1      42.067  26.091  37.179  1.00  0.00     0.124 S 
ATOM     94  O   UNL A   1      43.017  26.466  38.220  1.00  0.00    -0.237 OA
ATOM     95  O   UNL A   1      40.664  26.367  37.473  1.00  0.00    -0.237 OA
ATOM     96  O   UNL A   1      42.317  24.800  36.541  1.00  0.00    -0.744 OA
ENDBRANCH  92  93
ENDBRANCH  60  85
ENDBRANCH  34  35
ENDBRANCH  26  29
ENDBRANCH   1  25
TORSDOF 15
ENDMDL
MODEL 3
REMARK VINA RESULT:     -13.1      3.707      9.588
REMARK SMILES CCc1nn(-c2cc(F)c(F)c(F)c2)c(Cl)c1C(=O)NCCCNC(=O)c1ccc(-c2c3nc(c(-c4c(F)cc(S(=O)(=O)[O-])cc4F)c4ccc([nH]4)c(-c4c(F)cc(S(=O)(=O)[O-])cc4F)c4nc(c(-c5c(F)cc(S(=O)(=O)[O-])cc5F)c5ccc2[nH]5)C=C4)C=C3)cc1
REMARK SMILES IDX 23 1 22 2 21 3 20 4 18 5 19 6 17 8 3 9 4 10 5 11 15 12 16 13
REMARK SMILES IDX 2 14 1 15 6 16 7 17 14 18 8 19 12 20 9 21 10 22 13 23 11 24
REMARK SMILES IDX 24 25 25 26 26 28 27 29 28 30 92 31 29 32 91 33 30 34 31 35
REMARK SMILES IDX 32 36 85 37 33 38 90 39 84 40 86 41 34 42 89 43 83 44 82 45
REMARK SMILES IDX 35 47 69 48 48 49 68 50 49 51 52 52 67 53 87 54 50 55 51 56
REMARK SMILES IDX 66 58 88 59 53 60 36 61 37 62 46 63 38 64 39 65 45 66 47 67
REMARK SMILES IDX 40 68 41 69 42 70 43 71 44 72 70 73 71 74 80 75 72 76 73 77
REMARK SMILES IDX 79 78 81 79 74 80 75 81 76 82 77 83 78 84 54 85 55 86 64 87
REMARK SMILES IDX 56 88 57 89 63 90 65 91 58 92 59 93 60 94 61 95 62 96
REMARK H PARENT 20 7 24 27 86 46 52 57
REMARK Flexibility Score: inf
ROOT
ATOM      1  C   UNL A   1      34.539  29.404  26.849  1.00  0.00     0.118 C 
ENDROOT
BRANCH   1   2
ATOM      2  C   UNL A   1      33.345  28.531  27.177  1.00  0.00     0.042 C 
BRANCH   2   3
ATOM      3  C   UNL A   1      32.369  28.405  26.005  1.00  0.00     0.118 C 
BRANCH   3   4
ATOM      4  N   UNL A   1      31.295  27.491  26.293  1.00  0.00    -0.352 N 
ATOM      5  C   UNL A   1      31.034  26.181  26.013  1.00  0.00     0.256 C 
ATOM      6  O   UNL A   1      29.980  25.792  26.526  1.00  0.00    -0.269 OA
ATOM      7  H   UNL A   1      30.576  27.911  26.818  1.00  0.00     0.163 HD
BRANCH   5   8
ATOM      8  C   UNL A   1      31.873  25.265  25.230  1.00  0.00     0.100 A 
ATOM      9  C   UNL A   1      32.526  25.236  23.945  1.00  0.00     0.077 A 
ATOM     10  N   UNL A   1      33.276  24.132  23.774  1.00  0.00    -0.171 NA
ATOM     11  N   UNL A   1      32.940  23.328  24.799  1.00  0.00    -0.221 N 
ATOM     12  C   UNL A   1      32.191  24.003  25.724  1.00  0.00     0.145 A 
ATOM     13  Cl  UNL A   1      31.926  23.295  27.269  1.00  0.00    -0.061 Cl
BRANCH   9  14
ATOM     14  C   UNL A   1      32.499  26.150  22.765  1.00  0.00     0.056 C 
ATOM     15  C   UNL A   1      32.631  25.448  21.419  1.00  0.00     0.011 C 
ENDBRANCH   9  14
BRANCH  11  16
ATOM     16  C   UNL A   1      33.391  21.986  24.808  1.00  0.00     0.072 A 
ATOM     17  C   UNL A   1      34.741  21.683  25.028  1.00  0.00     0.071 A 
ATOM     18  C   UNL A   1      32.466  20.962  24.567  1.00  0.00     0.071 A 
ATOM     19  C   UNL A   1      35.164  20.360  24.943  1.00  0.00     0.164 A 
ATOM     20  C   UNL A   1      32.923  19.652  24.446  1.00  0.00     0.164 A 
ATOM     21  F   UNL A   1      36.454  20.071  25.161  1.00  0.00    -0.204 F 
ATOM     22  C   UNL A   1      34.267  19.348  24.627  1.00  0.00     0.194 A 
ATOM     23  F   UNL A   1      32.054  18.684  24.125  1.00  0.00    -0.204 F 
ATOM     24  F   UNL A   1      34.696  18.085  24.495  1.00  0.00    -0.200 F 
ENDBRANCH  11  16
ENDBRANCH   5   8
ENDBRANCH   3   4
ENDBRANCH   2   3
ENDBRANCH   1   2
BRANCH   1  25
ATOM     25  N   UNL A   1      34.313  30.789  27.266  1.00  0.00    -0.352 N 
ATOM     26  C   UNL A   1      34.907  31.487  28.302  1.00  0.00     0.251 C 
ATOM     27  H   UNL A   1      33.650  31.290  26.740  1.00  0.00     0.163 HD
ATOM     28  O   UNL A   1      34.399  32.499  28.742  1.00  0.00    -0.269 OA
BRANCH  26  29
ATOM     29  C   UNL A   1      36.156  30.949  28.864  1.00  0.00     0.039 A 
ATOM     30  C   UNL A   1      36.242  29.613  29.256  1.00  0.00     0.014 A 
ATOM     31  C   UNL A   1      37.272  31.780  28.885  1.00  0.00     0.014 A 
ATOM     32  C   UNL A   1      37.494  29.091  29.562  1.00  0.00     0.010 A 
ATOM     33  C   UNL A   1      38.519  31.220  29.025  1.00  0.00     0.010 A 
ATOM     34  C   UNL A   1      38.642  29.887  29.403  1.00  0.00    -0.014 A 
BRANCH  34  35
ATOM     35  C   UNL A   1      39.971  29.288  29.510  1.00  0.00     0.031 A 
ATOM     36  C   UNL A   1      40.457  29.071  30.907  1.00  0.00     0.074 A 
ATOM     37  C   UNL A   1      40.653  28.770  28.464  1.00  0.00     0.049 A 
ATOM     38  N   UNL A   1      41.429  29.675  31.509  1.00  0.00    -0.248 NA
ATOM     39  C   UNL A   1      39.687  28.172  31.784  1.00  0.00     0.031 C 
ATOM     40  C   UNL A   1      40.220  28.592  27.073  1.00  0.00     0.029 A 
ATOM     41  N   UNL A   1      41.880  28.184  28.464  1.00  0.00    -0.354 N 
ATOM     42  C   UNL A   1      41.540  29.079  32.763  1.00  0.00     0.074 A 
ATOM     43  C   UNL A   1      40.342  28.297  32.940  1.00  0.00     0.031 C 
ATOM     44  C   UNL A   1      41.053  27.733  26.445  1.00  0.00     0.029 A 
ATOM     45  C   UNL A   1      42.175  27.453  27.320  1.00  0.00     0.049 A 
ATOM     46  H   UNL A   1      42.511  28.273  29.215  1.00  0.00     0.167 HD
ATOM     47  C   UNL A   1      42.709  29.096  33.463  1.00  0.00     0.037 A 
ATOM     48  C   UNL A   1      43.256  26.660  27.118  1.00  0.00     0.037 A 
ATOM     49  C   UNL A   1      43.614  30.094  32.947  1.00  0.00     0.049 A 
ATOM     50  C   UNL A   1      44.294  27.096  28.089  1.00  0.00     0.074 A 
ATOM     51  C   UNL A   1      43.530  31.459  32.744  1.00  0.00     0.029 A 
ATOM     52  N   UNL A   1      44.670  29.676  32.171  1.00  0.00    -0.354 N 
ATOM     53  N   UNL A   1      44.888  28.258  28.046  1.00  0.00    -0.248 NA
ATOM     54  C   UNL A   1      44.334  26.424  29.378  1.00  0.00     0.031 C 
ATOM     55  C   UNL A   1      44.159  31.680  31.483  1.00  0.00     0.029 A 
ATOM     56  C   UNL A   1      44.660  30.455  31.039  1.00  0.00     0.049 A 
ATOM     57  H   UNL A   1      45.309  28.959  32.385  1.00  0.00     0.167 HD
ATOM     58  C   UNL A   1      44.993  28.653  29.371  1.00  0.00     0.074 A 
ATOM     59  C   UNL A   1      44.710  27.448  30.149  1.00  0.00     0.031 C 
ATOM     60  C   UNL A   1      45.022  29.973  29.725  1.00  0.00     0.037 A 
BRANCH  47  61
ATOM     61  C   UNL A   1      43.168  27.989  34.385  1.00  0.00     0.058 A 
ATOM     62  C   UNL A   1      43.491  28.283  35.726  1.00  0.00     0.135 A 
ATOM     63  C   UNL A   1      43.558  26.708  33.934  1.00  0.00     0.135 A 
ATOM     64  F   UNL A   1      43.187  29.478  36.258  1.00  0.00    -0.206 F 
ATOM     65  C   UNL A   1      44.199  27.393  36.538  1.00  0.00     0.059 A 
ATOM     66  C   UNL A   1      44.213  25.786  34.742  1.00  0.00     0.059 A 
ATOM     67  F   UNL A   1      43.410  26.324  32.660  1.00  0.00    -0.206 F 
ATOM     68  C   UNL A   1      44.565  26.150  36.031  1.00  0.00     0.060 A 
BRANCH  68  69
ATOM     69  S   UNL A   1      45.553  25.034  37.042  1.00  0.00     0.124 S 
ATOM     70  O   UNL A   1      44.638  24.750  38.141  1.00  0.00    -0.237 OA
ATOM     71  O   UNL A   1      45.805  23.933  36.117  1.00  0.00    -0.237 OA
ATOM     72  O   UNL A   1      46.723  25.838  37.381  1.00  0.00    -0.744 OA
ENDBRANCH  68  69
ENDBRANCH  47  61
BRANCH  48  73
ATOM     73  C   UNL A   1      43.334  25.364  26.392  1.00  0.00     0.058 A 
ATOM     74  C   UNL A   1      44.254  25.183  25.344  1.00  0.00     0.135 A 
ATOM     75  C   UNL A   1      42.736  24.192  26.901  1.00  0.00     0.135 A 
ATOM     76  F   UNL A   1      44.874  26.242  24.801  1.00  0.00    -0.206 F 
ATOM     77  C   UNL A   1      44.624  23.916  24.884  1.00  0.00     0.059 A 
ATOM     78  C   UNL A   1      43.079  22.918  26.449  1.00  0.00     0.059 A 
ATOM     79  F   UNL A   1      41.870  24.242  27.924  1.00  0.00    -0.206 F 
ATOM     80  C   UNL A   1      44.051  22.785  25.465  1.00  0.00     0.060 A 
BRANCH  80  81
ATOM     81  S   UNL A   1      44.689  21.148  25.033  1.00  0.00     0.124 S 
ATOM     82  O   UNL A   1      46.030  21.187  25.604  1.00  0.00    -0.237 OA
ATOM     83  O   UNL A   1      43.737  20.263  25.697  1.00  0.00    -0.237 OA
ATOM     84  O   UNL A   1      44.630  21.138  23.573  1.00  0.00    -0.744 OA
ENDBRANCH  80  81
ENDBRANCH  48  73
BRANCH  60  85
ATOM     85  C   UNL A   1      45.219  31.012  28.649  1.00  0.00     0.058 A 
ATOM     86  C   UNL A   1      44.194  31.541  27.844  1.00  0.00     0.135 A 
ATOM     87  C   UNL A   1      46.486  31.607  28.533  1.00  0.00     0.135 A 
ATOM     88  F   UNL A   1      42.929  31.113  27.963  1.00  0.00    -0.206 F 
ATOM     89  C   UNL A   1      44.428  32.577  26.935  1.00  0.00     0.059 A 
ATOM     90  C   UNL A   1      46.735  32.663  27.659  1.00  0.00     0.059 A 
ATOM     91  F   UNL A   1      47.497  31.193  29.315  1.00  0.00    -0.206 F 
ATOM     92  C   UNL A   1      45.705  33.132  26.850  1.00  0.00     0.060 A 
BRANCH  92  93
ATOM     93  S   UNL A   1      45.993  34.513  25.722  1.00  0.00     0.124 S 
ATOM     94  O   UNL A   1      45.081  34.209  24.626  1.00  0.00    -0.237 OA
ATOM     95  O   UNL A   1      45.641  35.671  26.538  1.00  0.00    -0.237 OA
ATOM     96  O   UNL A   1      47.414  34.400  25.400  1.00  0.00    -0.744 OA
ENDBRANCH  92  93
ENDBRANCH  60  85
ENDBRANCH  34  35
ENDBRANCH  26  29
ENDBRANCH   1  25
TORSDOF 15
ENDMDL
