MODEL 1
REMARK VINA RESULT:     -11.5      0.000      0.000
REMARK SMILES O=C(CCCC(=O)Nc1ccccc1F)NCCCNC(=O)c1ccc(-c2c3nc(c(-c4c(F)cc(S(=O)(=O)[O-])cc4F)c4ccc([nH]4)c(-c4c(F)cc(S(=O)(=O)[O-])cc4F)c4nc(c(-c5c(F)cc(S(=O)(=O)[O-])cc5F)c5ccc2[nH]5)C=C4)C=C3)cc1
REMARK SMILES IDX 17 1 16 2 1 3 2 4 3 6 4 7 5 8 6 9 7 10 8 11 9 13 10 14 14 15
REMARK SMILES IDX 11 16 13 17 15 18 12 19 18 20 19 21 20 22 21 23 22 25 23 26
REMARK SMILES IDX 24 27 88 28 25 29 87 30 26 31 27 32 28 33 81 34 29 35 86 36
REMARK SMILES IDX 80 37 82 38 30 39 85 40 79 41 78 42 31 44 65 45 44 46 64 47
REMARK SMILES IDX 45 48 48 49 63 50 83 51 46 52 47 53 62 55 84 56 49 57 32 58
REMARK SMILES IDX 33 59 42 60 34 61 35 62 41 63 43 64 36 65 37 66 38 67 39 68
REMARK SMILES IDX 40 69 66 70 67 71 76 72 68 73 69 74 75 75 77 76 70 77 71 78
REMARK SMILES IDX 72 79 73 80 74 81 50 82 51 83 60 84 52 85 53 86 59 87 61 88
REMARK SMILES IDX 54 89 55 90 56 91 57 92 58 93
REMARK H PARENT 16 5 8 12 20 24 82 43 48 54
REMARK Flexibility Score: inf
ROOT
ATOM      1  C   UNL A   1      39.763  21.907  26.135  1.00  0.00     0.117 C 
ENDROOT
BRANCH   1   2
ATOM      2  N   UNL A   1      38.582  22.690  25.832  1.00  0.00    -0.356 N 
ATOM      3  O   UNL A   1      37.446  20.955  24.861  1.00  0.00    -0.275 OA
ATOM      4  C   UNL A   1      37.482  22.127  25.223  1.00  0.00     0.220 C 
ATOM      5  H   UNL A   1      38.564  23.646  26.067  1.00  0.00     0.163 HD
BRANCH   4   6
ATOM      6  C   UNL A   1      36.326  23.079  24.967  1.00  0.00     0.100 C 
BRANCH   6   7
ATOM      7  C   UNL A   1      35.851  23.235  23.520  1.00  0.00     0.020 C 
BRANCH   7   8
ATOM      8  C   UNL A   1      34.452  22.758  23.141  1.00  0.00     0.101 C 
BRANCH   8   9
ATOM      9  C   UNL A   1      33.417  22.511  24.239  1.00  0.00     0.224 C 
ATOM     10  O   UNL A   1      33.184  23.364  25.096  1.00  0.00    -0.275 OA
ATOM     11  N   UNL A   1      32.560  21.450  24.078  1.00  0.00    -0.324 N 
ATOM     12  H   UNL A   1      31.597  21.658  24.094  1.00  0.00     0.170 HD
BRANCH  11  13
ATOM     13  C   UNL A   1      32.905  20.103  23.893  1.00  0.00     0.077 A 
ATOM     14  C   UNL A   1      32.180  19.345  22.972  1.00  0.00     0.029 A 
ATOM     15  C   UNL A   1      33.904  19.478  24.644  1.00  0.00     0.146 A 
ATOM     16  C   UNL A   1      32.553  18.023  22.708  1.00  0.00     0.002 A 
ATOM     17  C   UNL A   1      34.260  18.152  24.407  1.00  0.00     0.041 A 
ATOM     18  F   UNL A   1      34.548  20.150  25.609  1.00  0.00    -0.205 F 
ATOM     19  C   UNL A   1      33.603  17.432  23.413  1.00  0.00     0.003 A 
ENDBRANCH  11  13
ENDBRANCH   8   9
ENDBRANCH   7   8
ENDBRANCH   6   7
ENDBRANCH   4   6
ENDBRANCH   1   2
BRANCH   1  20
ATOM     20  C   UNL A   1      40.462  22.315  27.430  1.00  0.00     0.042 C 
BRANCH  20  21
ATOM     21  C   UNL A   1      41.830  22.978  27.266  1.00  0.00     0.118 C 
BRANCH  21  22
ATOM     22  N   UNL A   1      41.891  23.900  26.148  1.00  0.00    -0.352 N 
ATOM     23  C   UNL A   1      41.637  25.247  26.073  1.00  0.00     0.251 C 
ATOM     24  H   UNL A   1      42.161  23.489  25.295  1.00  0.00     0.163 HD
ATOM     25  O   UNL A   1      41.624  25.779  24.964  1.00  0.00    -0.269 OA
BRANCH  23  26
ATOM     26  C   UNL A   1      41.358  26.071  27.277  1.00  0.00     0.039 A 
ATOM     27  C   UNL A   1      42.308  27.028  27.649  1.00  0.00     0.014 A 
ATOM     28  C   UNL A   1      40.234  25.874  28.086  1.00  0.00     0.014 A 
ATOM     29  C   UNL A   1      42.112  27.812  28.790  1.00  0.00     0.010 A 
ATOM     30  C   UNL A   1      40.007  26.703  29.194  1.00  0.00     0.010 A 
ATOM     31  C   UNL A   1      40.945  27.680  29.562  1.00  0.00    -0.014 A 
BRANCH  31  32
ATOM     32  C   UNL A   1      40.714  28.577  30.729  1.00  0.00     0.031 A 
ATOM     33  C   UNL A   1      41.566  28.485  31.969  1.00  0.00     0.074 A 
ATOM     34  C   UNL A   1      39.726  29.494  30.672  1.00  0.00     0.049 A 
ATOM     35  N   UNL A   1      41.530  29.224  33.050  1.00  0.00    -0.248 NA
ATOM     36  C   UNL A   1      42.575  27.416  32.011  1.00  0.00     0.031 C 
ATOM     37  C   UNL A   1      38.796  29.659  29.552  1.00  0.00     0.029 A 
ATOM     38  N   UNL A   1      39.346  30.467  31.563  1.00  0.00    -0.354 N 
ATOM     39  C   UNL A   1      42.509  28.716  33.896  1.00  0.00     0.074 A 
ATOM     40  C   UNL A   1      43.084  27.568  33.226  1.00  0.00     0.031 C 
ATOM     41  C   UNL A   1      37.987  30.701  29.803  1.00  0.00     0.029 A 
ATOM     42  C   UNL A   1      38.317  31.260  31.110  1.00  0.00     0.049 A 
ATOM     43  H   UNL A   1      39.771  30.587  32.443  1.00  0.00     0.167 HD
ATOM     44  C   UNL A   1      42.912  29.175  35.106  1.00  0.00     0.037 A 
ATOM     45  C   UNL A   1      37.713  32.326  31.672  1.00  0.00     0.037 A 
ATOM     46  C   UNL A   1      42.355  30.330  35.766  1.00  0.00     0.049 A 
ATOM     47  C   UNL A   1      38.185  32.824  33.009  1.00  0.00     0.074 A 
ATOM     48  C   UNL A   1      42.733  30.897  36.973  1.00  0.00     0.029 A 
ATOM     49  N   UNL A   1      41.307  31.097  35.280  1.00  0.00    -0.354 N 
ATOM     50  N   UNL A   1      39.145  32.357  33.770  1.00  0.00    -0.248 NA
ATOM     51  C   UNL A   1      37.496  33.999  33.561  1.00  0.00     0.031 C 
ATOM     52  C   UNL A   1      41.888  31.982  37.234  1.00  0.00     0.029 A 
ATOM     53  C   UNL A   1      41.014  32.120  36.170  1.00  0.00     0.049 A 
ATOM     54  H   UNL A   1      40.840  30.939  34.428  1.00  0.00     0.167 HD
ATOM     55  C   UNL A   1      39.184  33.187  34.885  1.00  0.00     0.074 A 
ATOM     56  C   UNL A   1      38.168  34.201  34.687  1.00  0.00     0.031 C 
ATOM     57  C   UNL A   1      39.988  33.114  35.975  1.00  0.00     0.037 A 
BRANCH  44  58
ATOM     58  C   UNL A   1      44.029  28.441  35.800  1.00  0.00     0.058 A 
ATOM     59  C   UNL A   1      45.371  28.750  35.526  1.00  0.00     0.135 A 
ATOM     60  C   UNL A   1      43.770  27.383  36.687  1.00  0.00     0.135 A 
ATOM     61  F   UNL A   1      45.677  29.754  34.689  1.00  0.00    -0.206 F 
ATOM     62  C   UNL A   1      46.416  28.029  36.096  1.00  0.00     0.059 A 
ATOM     63  C   UNL A   1      44.800  26.665  37.289  1.00  0.00     0.059 A 
ATOM     64  F   UNL A   1      42.506  27.058  36.998  1.00  0.00    -0.206 F 
ATOM     65  C   UNL A   1      46.120  26.987  36.976  1.00  0.00     0.060 A 
BRANCH  65  66
ATOM     66  S   UNL A   1      47.487  26.081  37.733  1.00  0.00     0.124 S 
ATOM     67  O   UNL A   1      47.201  26.238  39.154  1.00  0.00    -0.237 OA
ATOM     68  O   UNL A   1      47.302  24.738  37.190  1.00  0.00    -0.237 OA
ATOM     69  O   UNL A   1      48.668  26.786  37.246  1.00  0.00    -0.744 OA
ENDBRANCH  65  66
ENDBRANCH  44  58
BRANCH  45  70
ATOM     70  C   UNL A   1      36.621  33.021  30.940  1.00  0.00     0.058 A 
ATOM     71  C   UNL A   1      36.899  33.911  29.892  1.00  0.00     0.135 A 
ATOM     72  C   UNL A   1      35.278  32.835  31.303  1.00  0.00     0.135 A 
ATOM     73  F   UNL A   1      38.167  34.133  29.514  1.00  0.00    -0.206 F 
ATOM     74  C   UNL A   1      35.887  34.614  29.248  1.00  0.00     0.059 A 
ATOM     75  C   UNL A   1      34.246  33.507  30.657  1.00  0.00     0.059 A 
ATOM     76  F   UNL A   1      34.965  31.981  32.290  1.00  0.00    -0.206 F 
ATOM     77  C   UNL A   1      34.563  34.410  29.644  1.00  0.00     0.060 A 
BRANCH  77  78
ATOM     78  S   UNL A   1      33.268  35.352  28.808  1.00  0.00     0.124 S 
ATOM     79  O   UNL A   1      34.059  36.289  28.015  1.00  0.00    -0.237 OA
ATOM     80  O   UNL A   1      32.568  34.318  28.062  1.00  0.00    -0.237 OA
ATOM     81  O   UNL A   1      32.518  35.945  29.915  1.00  0.00    -0.744 OA
ENDBRANCH  77  78
ENDBRANCH  45  70
BRANCH  57  82
ATOM     82  C   UNL A   1      39.801  34.160  37.040  1.00  0.00     0.058 A 
ATOM     83  C   UNL A   1      40.340  35.446  36.886  1.00  0.00     0.135 A 
ATOM     84  C   UNL A   1      39.106  33.880  38.228  1.00  0.00     0.135 A 
ATOM     85  F   UNL A   1      41.019  35.767  35.773  1.00  0.00    -0.206 F 
ATOM     86  C   UNL A   1      40.193  36.420  37.867  1.00  0.00     0.059 A 
ATOM     87  C   UNL A   1      38.924  34.847  39.213  1.00  0.00     0.059 A 
ATOM     88  F   UNL A   1      38.562  32.667  38.423  1.00  0.00    -0.206 F 
ATOM     89  C   UNL A   1      39.480  36.112  39.027  1.00  0.00     0.060 A 
BRANCH  89  90
ATOM     90  S   UNL A   1      39.243  37.406  40.266  1.00  0.00     0.124 S 
ATOM     91  O   UNL A   1      40.615  37.820  40.532  1.00  0.00    -0.237 OA
ATOM     92  O   UNL A   1      38.413  38.372  39.551  1.00  0.00    -0.237 OA
ATOM     93  O   UNL A   1      38.573  36.707  41.358  1.00  0.00    -0.744 OA
ENDBRANCH  89  90
ENDBRANCH  57  82
ENDBRANCH  31  32
ENDBRANCH  23  26
ENDBRANCH  21  22
ENDBRANCH  20  21
ENDBRANCH   1  20
TORSDOF 17
ENDMDL
MODEL 2
REMARK VINA RESULT:     -11.5      3.252      5.064
REMARK SMILES O=C(CCCC(=O)Nc1ccccc1F)NCCCNC(=O)c1ccc(-c2c3nc(c(-c4c(F)cc(S(=O)(=O)[O-])cc4F)c4ccc([nH]4)c(-c4c(F)cc(S(=O)(=O)[O-])cc4F)c4nc(c(-c5c(F)cc(S(=O)(=O)[O-])cc5F)c5ccc2[nH]5)C=C4)C=C3)cc1
REMARK SMILES IDX 17 1 16 2 1 3 2 4 3 6 4 7 5 8 6 9 7 10 8 11 9 13 10 14 14 15
REMARK SMILES IDX 11 16 13 17 15 18 12 19 18 20 19 21 20 22 21 23 22 25 23 26
REMARK SMILES IDX 24 27 88 28 25 29 87 30 26 31 27 32 28 33 81 34 29 35 86 36
REMARK SMILES IDX 80 37 82 38 30 39 85 40 79 41 78 42 31 44 65 45 44 46 64 47
REMARK SMILES IDX 45 48 48 49 63 50 83 51 46 52 47 53 62 55 84 56 49 57 32 58
REMARK SMILES IDX 33 59 42 60 34 61 35 62 41 63 43 64 36 65 37 66 38 67 39 68
REMARK SMILES IDX 40 69 66 70 67 71 76 72 68 73 69 74 75 75 77 76 70 77 71 78
REMARK SMILES IDX 72 79 73 80 74 81 50 82 51 83 60 84 52 85 53 86 59 87 61 88
REMARK SMILES IDX 54 89 55 90 56 91 57 92 58 93
REMARK H PARENT 16 5 8 12 20 24 82 43 48 54
REMARK Flexibility Score: inf
ROOT
ATOM      1  C   UNL A   1      41.000  20.459  26.521  1.00  0.00     0.117 C 
ENDROOT
BRANCH   1   2
ATOM      2  N   UNL A   1      42.103  20.320  25.592  1.00  0.00    -0.356 N 
ATOM      3  O   UNL A   1      42.993  18.481  26.627  1.00  0.00    -0.275 OA
ATOM      4  C   UNL A   1      43.021  19.300  25.713  1.00  0.00     0.220 C 
ATOM      5  H   UNL A   1      42.199  20.968  24.857  1.00  0.00     0.163 HD
BRANCH   4   6
ATOM      6  C   UNL A   1      44.121  19.292  24.665  1.00  0.00     0.100 C 
BRANCH   6   7
ATOM      7  C   UNL A   1      45.494  19.827  25.084  1.00  0.00     0.020 C 
BRANCH   7   8
ATOM      8  C   UNL A   1      45.795  21.313  24.917  1.00  0.00     0.101 C 
BRANCH   8   9
ATOM      9  C   UNL A   1      44.781  22.213  24.210  1.00  0.00     0.224 C 
ATOM     10  O   UNL A   1      44.456  22.009  23.040  1.00  0.00    -0.275 OA
ATOM     11  N   UNL A   1      44.035  23.064  24.989  1.00  0.00    -0.324 N 
ATOM     12  H   UNL A   1      43.056  22.977  24.921  1.00  0.00     0.170 HD
BRANCH  11  13
ATOM     13  C   UNL A   1      44.514  24.044  25.871  1.00  0.00     0.077 A 
ATOM     14  C   UNL A   1      45.054  25.217  25.341  1.00  0.00     0.029 A 
ATOM     15  C   UNL A   1      44.529  23.860  27.256  1.00  0.00     0.146 A 
ATOM     16  C   UNL A   1      45.465  26.245  26.196  1.00  0.00     0.002 A 
ATOM     17  C   UNL A   1      44.966  24.868  28.112  1.00  0.00     0.041 A 
ATOM     18  F   UNL A   1      44.114  22.702  27.790  1.00  0.00    -0.205 F 
ATOM     19  C   UNL A   1      45.405  26.078  27.580  1.00  0.00     0.003 A 
ENDBRANCH  11  13
ENDBRANCH   8   9
ENDBRANCH   7   8
ENDBRANCH   6   7
ENDBRANCH   4   6
ENDBRANCH   1   2
BRANCH   1  20
ATOM     20  C   UNL A   1      41.171  21.602  27.520  1.00  0.00     0.042 C 
BRANCH  20  21
ATOM     21  C   UNL A   1      40.321  22.845  27.259  1.00  0.00     0.118 C 
BRANCH  21  22
ATOM     22  N   UNL A   1      40.867  23.707  26.227  1.00  0.00    -0.352 N 
ATOM     23  C   UNL A   1      41.067  25.065  26.196  1.00  0.00     0.251 C 
ATOM     24  H   UNL A   1      41.143  23.237  25.407  1.00  0.00     0.163 HD
ATOM     25  O   UNL A   1      41.420  25.580  25.136  1.00  0.00    -0.269 OA
BRANCH  23  26
ATOM     26  C   UNL A   1      40.849  25.927  27.386  1.00  0.00     0.039 A 
ATOM     27  C   UNL A   1      41.803  26.914  27.661  1.00  0.00     0.014 A 
ATOM     28  C   UNL A   1      39.785  25.741  28.273  1.00  0.00     0.014 A 
ATOM     29  C   UNL A   1      41.666  27.735  28.784  1.00  0.00     0.010 A 
ATOM     30  C   UNL A   1      39.613  26.605  29.363  1.00  0.00     0.010 A 
ATOM     31  C   UNL A   1      40.553  27.611  29.635  1.00  0.00    -0.014 A 
BRANCH  31  32
ATOM     32  C   UNL A   1      40.381  28.546  30.782  1.00  0.00     0.031 A 
ATOM     33  C   UNL A   1      41.265  28.464  32.000  1.00  0.00     0.074 A 
ATOM     34  C   UNL A   1      39.417  29.489  30.726  1.00  0.00     0.049 A 
ATOM     35  N   UNL A   1      41.280  29.233  33.060  1.00  0.00    -0.248 NA
ATOM     36  C   UNL A   1      42.245  27.368  32.044  1.00  0.00     0.031 C 
ATOM     37  C   UNL A   1      38.460  29.649  29.629  1.00  0.00     0.029 A 
ATOM     38  N   UNL A   1      39.089  30.496  31.600  1.00  0.00    -0.354 N 
ATOM     39  C   UNL A   1      42.269  28.720  33.892  1.00  0.00     0.074 A 
ATOM     40  C   UNL A   1      42.793  27.539  33.240  1.00  0.00     0.031 C 
ATOM     41  C   UNL A   1      37.687  30.719  29.873  1.00  0.00     0.029 A 
ATOM     42  C   UNL A   1      38.070  31.304  31.154  1.00  0.00     0.049 A 
ATOM     43  H   UNL A   1      39.542  30.628  32.465  1.00  0.00     0.167 HD
ATOM     44  C   UNL A   1      42.719  29.202  35.078  1.00  0.00     0.037 A 
ATOM     45  C   UNL A   1      37.512  32.402  31.702  1.00  0.00     0.037 A 
ATOM     46  C   UNL A   1      42.213  30.390  35.720  1.00  0.00     0.049 A 
ATOM     47  C   UNL A   1      38.035  32.923  33.011  1.00  0.00     0.074 A 
ATOM     48  C   UNL A   1      42.641  30.978  36.899  1.00  0.00     0.029 A 
ATOM     49  N   UNL A   1      41.173  31.172  35.242  1.00  0.00    -0.354 N 
ATOM     50  N   UNL A   1      39.004  32.450  33.757  1.00  0.00    -0.248 NA
ATOM     51  C   UNL A   1      37.395  34.132  33.549  1.00  0.00     0.031 C 
ATOM     52  C   UNL A   1      41.834  32.093  37.153  1.00  0.00     0.029 A 
ATOM     53  C   UNL A   1      40.933  32.227  36.110  1.00  0.00     0.049 A 
ATOM     54  H   UNL A   1      40.677  31.004  34.408  1.00  0.00     0.167 HD
ATOM     55  C   UNL A   1      39.097  33.309  34.847  1.00  0.00     0.074 A 
ATOM     56  C   UNL A   1      38.104  34.345  34.649  1.00  0.00     0.031 C 
ATOM     57  C   UNL A   1      39.930  33.243  35.916  1.00  0.00     0.037 A 
BRANCH  44  58
ATOM     58  C   UNL A   1      43.835  28.456  35.761  1.00  0.00     0.058 A 
ATOM     59  C   UNL A   1      43.558  27.472  36.723  1.00  0.00     0.135 A 
ATOM     60  C   UNL A   1      45.182  28.764  35.510  1.00  0.00     0.135 A 
ATOM     61  F   UNL A   1      42.289  27.135  37.001  1.00  0.00    -0.206 F 
ATOM     62  C   UNL A   1      44.576  26.830  37.422  1.00  0.00     0.059 A 
ATOM     63  C   UNL A   1      46.218  28.115  36.178  1.00  0.00     0.059 A 
ATOM     64  F   UNL A   1      45.503  29.683  34.585  1.00  0.00    -0.206 F 
ATOM     65  C   UNL A   1      45.904  27.160  37.143  1.00  0.00     0.060 A 
BRANCH  65  66
ATOM     66  S   UNL A   1      47.214  26.295  38.034  1.00  0.00     0.124 S 
ATOM     67  O   UNL A   1      47.913  27.397  38.684  1.00  0.00    -0.237 OA
ATOM     68  O   UNL A   1      46.454  25.413  38.917  1.00  0.00    -0.237 OA
ATOM     69  O   UNL A   1      47.953  25.617  36.973  1.00  0.00    -0.744 OA
ENDBRANCH  65  66
ENDBRANCH  44  58
BRANCH  45  70
ATOM     70  C   UNL A   1      36.419  33.108  30.982  1.00  0.00     0.058 A 
ATOM     71  C   UNL A   1      36.683  33.908  29.861  1.00  0.00     0.135 A 
ATOM     72  C   UNL A   1      35.090  33.022  31.427  1.00  0.00     0.135 A 
ATOM     73  F   UNL A   1      37.939  34.031  29.402  1.00  0.00    -0.206 F 
ATOM     74  C   UNL A   1      35.675  34.622  29.223  1.00  0.00     0.059 A 
ATOM     75  C   UNL A   1      34.061  33.707  30.791  1.00  0.00     0.059 A 
ATOM     76  F   UNL A   1      34.789  32.257  32.487  1.00  0.00    -0.206 F 
ATOM     77  C   UNL A   1      34.367  34.521  29.701  1.00  0.00     0.060 A 
BRANCH  77  78
ATOM     78  S   UNL A   1      33.079  35.476  28.871  1.00  0.00     0.124 S 
ATOM     79  O   UNL A   1      32.378  34.431  28.129  1.00  0.00    -0.237 OA
ATOM     80  O   UNL A   1      32.355  36.056  29.991  1.00  0.00    -0.237 OA
ATOM     81  O   UNL A   1      33.837  36.423  28.054  1.00  0.00    -0.744 OA
ENDBRANCH  77  78
ENDBRANCH  45  70
BRANCH  57  82
ATOM     82  C   UNL A   1      39.802  34.323  36.957  1.00  0.00     0.058 A 
ATOM     83  C   UNL A   1      39.026  34.121  38.108  1.00  0.00     0.135 A 
ATOM     84  C   UNL A   1      40.430  35.569  36.800  1.00  0.00     0.135 A 
ATOM     85  F   UNL A   1      38.398  32.951  38.306  1.00  0.00    -0.206 F 
ATOM     86  C   UNL A   1      38.880  35.114  39.071  1.00  0.00     0.059 A 
ATOM     87  C   UNL A   1      40.319  36.569  37.764  1.00  0.00     0.059 A 
ATOM     88  F   UNL A   1      41.191  35.812  35.721  1.00  0.00    -0.206 F 
ATOM     89  C   UNL A   1      39.534  36.334  38.892  1.00  0.00     0.060 A 
BRANCH  89  90
ATOM     90  S   UNL A   1      39.388  37.591  40.181  1.00  0.00     0.124 S 
ATOM     91  O   UNL A   1      39.039  36.786  41.345  1.00  0.00    -0.237 OA
ATOM     92  O   UNL A   1      40.724  38.181  40.193  1.00  0.00    -0.237 OA
ATOM     93  O   UNL A   1      38.332  38.465  39.680  1.00  0.00    -0.744 OA
ENDBRANCH  89  90
ENDBRANCH  57  82
ENDBRANCH  31  32
ENDBRANCH  23  26
ENDBRANCH  21  22
ENDBRANCH  20  21
ENDBRANCH   1  20
TORSDOF 17
ENDMDL
MODEL 3
REMARK VINA RESULT:     -11.3      7.269     12.855
REMARK SMILES O=C(CCCC(=O)Nc1ccccc1F)NCCCNC(=O)c1ccc(-c2c3nc(c(-c4c(F)cc(S(=O)(=O)[O-])cc4F)c4ccc([nH]4)c(-c4c(F)cc(S(=O)(=O)[O-])cc4F)c4nc(c(-c5c(F)cc(S(=O)(=O)[O-])cc5F)c5ccc2[nH]5)C=C4)C=C3)cc1
REMARK SMILES IDX 17 1 16 2 1 3 2 4 3 6 4 7 5 8 6 9 7 10 8 11 9 13 10 14 14 15
REMARK SMILES IDX 11 16 13 17 15 18 12 19 18 20 19 21 20 22 21 23 22 25 23 26
REMARK SMILES IDX 24 27 88 28 25 29 87 30 26 31 27 32 28 33 81 34 29 35 86 36
REMARK SMILES IDX 80 37 82 38 30 39 85 40 79 41 78 42 31 44 65 45 44 46 64 47
REMARK SMILES IDX 45 48 48 49 63 50 83 51 46 52 47 53 62 55 84 56 49 57 32 58
REMARK SMILES IDX 33 59 42 60 34 61 35 62 41 63 43 64 36 65 37 66 38 67 39 68
REMARK SMILES IDX 40 69 66 70 67 71 76 72 68 73 69 74 75 75 77 76 70 77 71 78
REMARK SMILES IDX 72 79 73 80 74 81 50 82 51 83 60 84 52 85 53 86 59 87 61 88
REMARK SMILES IDX 54 89 55 90 56 91 57 92 58 93
REMARK H PARENT 16 5 8 12 20 24 82 43 48 54
REMARK Flexibility Score: inf
ROOT
ATOM      1  C   UNL A   1      34.618  29.548  27.462  1.00  0.00     0.117 C 
ENDROOT
BRANCH   1   2
ATOM      2  N   UNL A   1      34.483  29.410  26.026  1.00  0.00    -0.356 N 
ATOM      3  O   UNL A   1      33.406  27.391  26.129  1.00  0.00    -0.275 OA
ATOM      4  C   UNL A   1      33.850  28.323  25.465  1.00  0.00     0.220 C 
ATOM      5  H   UNL A   1      34.850  30.109  25.438  1.00  0.00     0.163 HD
BRANCH   4   6
ATOM      6  C   UNL A   1      33.792  28.321  23.947  1.00  0.00     0.100 C 
BRANCH   6   7
ATOM      7  C   UNL A   1      32.547  27.715  23.291  1.00  0.00     0.020 C 
BRANCH   7   8
ATOM      8  C   UNL A   1      31.417  28.639  22.847  1.00  0.00     0.101 C 
BRANCH   8   9
ATOM      9  C   UNL A   1      29.965  28.220  23.082  1.00  0.00     0.224 C 
ATOM     10  O   UNL A   1      29.657  27.034  23.204  1.00  0.00    -0.275 OA
ATOM     11  N   UNL A   1      29.071  29.200  23.439  1.00  0.00    -0.324 N 
ATOM     12  H   UNL A   1      28.584  29.062  24.285  1.00  0.00     0.170 HD
BRANCH  11  13
ATOM     13  C   UNL A   1      28.774  30.374  22.732  1.00  0.00     0.077 A 
ATOM     14  C   UNL A   1      28.313  30.269  21.420  1.00  0.00     0.029 A 
ATOM     15  C   UNL A   1      28.985  31.645  23.274  1.00  0.00     0.146 A 
ATOM     16  C   UNL A   1      27.932  31.418  20.718  1.00  0.00     0.002 A 
ATOM     17  C   UNL A   1      28.637  32.795  22.569  1.00  0.00     0.041 A 
ATOM     18  F   UNL A   1      29.525  31.782  24.493  1.00  0.00    -0.205 F 
ATOM     19  C   UNL A   1      28.078  32.679  21.298  1.00  0.00     0.003 A 
ENDBRANCH  11  13
ENDBRANCH   8   9
ENDBRANCH   7   8
ENDBRANCH   6   7
ENDBRANCH   4   6
ENDBRANCH   1   2
BRANCH   1  20
ATOM     20  C   UNL A   1      34.443  30.979  27.967  1.00  0.00     0.042 C 
BRANCH  20  21
ATOM     21  C   UNL A   1      35.591  31.531  28.812  1.00  0.00     0.118 C 
BRANCH  21  22
ATOM     22  N   UNL A   1      35.611  31.007  30.165  1.00  0.00    -0.352 N 
ATOM     23  C   UNL A   1      36.546  30.251  30.827  1.00  0.00     0.251 C 
ATOM     24  H   UNL A   1      34.817  31.234  30.701  1.00  0.00     0.163 HD
ATOM     25  O   UNL A   1      36.260  29.811  31.940  1.00  0.00    -0.269 OA
BRANCH  23  26
ATOM     26  C   UNL A   1      37.871  29.931  30.237  1.00  0.00     0.039 A 
ATOM     27  C   UNL A   1      38.919  29.625  31.113  1.00  0.00     0.014 A 
ATOM     28  C   UNL A   1      38.127  30.000  28.865  1.00  0.00     0.014 A 
ATOM     29  C   UNL A   1      40.196  29.344  30.616  1.00  0.00     0.010 A 
ATOM     30  C   UNL A   1      39.390  29.657  28.363  1.00  0.00     0.010 A 
ATOM     31  C   UNL A   1      40.442  29.329  29.232  1.00  0.00    -0.014 A 
BRANCH  31  32
ATOM     32  C   UNL A   1      41.787  28.950  28.716  1.00  0.00     0.031 A 
ATOM     33  C   UNL A   1      42.920  29.944  28.677  1.00  0.00     0.074 A 
ATOM     34  C   UNL A   1      41.996  27.691  28.278  1.00  0.00     0.049 A 
ATOM     35  N   UNL A   1      44.163  29.762  28.307  1.00  0.00    -0.248 NA
ATOM     36  C   UNL A   1      42.616  31.322  29.090  1.00  0.00     0.031 C 
ATOM     37  C   UNL A   1      40.975  26.642  28.214  1.00  0.00     0.029 A 
ATOM     38  N   UNL A   1      43.133  27.073  27.820  1.00  0.00    -0.354 N 
ATOM     39  C   UNL A   1      44.790  30.995  28.445  1.00  0.00     0.074 A 
ATOM     40  C   UNL A   1      43.775  31.932  28.879  1.00  0.00     0.031 C 
ATOM     41  C   UNL A   1      41.543  25.502  27.790  1.00  0.00     0.029 A 
ATOM     42  C   UNL A   1      42.957  25.741  27.524  1.00  0.00     0.049 A 
ATOM     43  H   UNL A   1      43.994  27.539  27.713  1.00  0.00     0.167 HD
ATOM     44  C   UNL A   1      46.094  31.314  28.254  1.00  0.00     0.037 A 
ATOM     45  C   UNL A   1      43.834  24.809  27.099  1.00  0.00     0.037 A 
ATOM     46  C   UNL A   1      47.110  30.378  27.842  1.00  0.00     0.049 A 
ATOM     47  C   UNL A   1      45.276  25.185  26.906  1.00  0.00     0.074 A 
ATOM     48  C   UNL A   1      48.466  30.603  27.669  1.00  0.00     0.029 A 
ATOM     49  N   UNL A   1      46.889  29.043  27.541  1.00  0.00    -0.354 N 
ATOM     50  N   UNL A   1      45.857  26.346  27.088  1.00  0.00    -0.248 NA
ATOM     51  C   UNL A   1      46.185  24.121  26.456  1.00  0.00     0.031 C 
ATOM     52  C   UNL A   1      49.057  29.414  27.226  1.00  0.00     0.029 A 
ATOM     53  C   UNL A   1      48.078  28.436  27.167  1.00  0.00     0.049 A 
ATOM     54  H   UNL A   1      46.015  28.592  27.587  1.00  0.00     0.167 HD
ATOM     55  C   UNL A   1      47.201  26.151  26.788  1.00  0.00     0.074 A 
ATOM     56  C   UNL A   1      47.351  24.753  26.436  1.00  0.00     0.031 C 
ATOM     57  C   UNL A   1      48.217  27.049  26.799  1.00  0.00     0.037 A 
BRANCH  44  58
ATOM     58  C   UNL A   1      46.512  32.739  28.508  1.00  0.00     0.058 A 
ATOM     59  C   UNL A   1      46.569  33.669  27.458  1.00  0.00     0.135 A 
ATOM     60  C   UNL A   1      46.924  33.164  29.781  1.00  0.00     0.135 A 
ATOM     61  F   UNL A   1      46.184  33.317  26.221  1.00  0.00    -0.206 F 
ATOM     62  C   UNL A   1      47.030  34.967  27.659  1.00  0.00     0.059 A 
ATOM     63  C   UNL A   1      47.364  34.466  30.010  1.00  0.00     0.059 A 
ATOM     64  F   UNL A   1      46.873  32.321  30.824  1.00  0.00    -0.206 F 
ATOM     65  C   UNL A   1      47.427  35.356  28.939  1.00  0.00     0.060 A 
BRANCH  65  66
ATOM     66  S   UNL A   1      47.992  37.052  29.190  1.00  0.00     0.124 S 
ATOM     67  O   UNL A   1      48.229  37.495  27.821  1.00  0.00    -0.237 OA
ATOM     68  O   UNL A   1      46.848  37.659  29.867  1.00  0.00    -0.237 OA
ATOM     69  O   UNL A   1      49.184  36.891  30.017  1.00  0.00    -0.744 OA
ENDBRANCH  65  66
ENDBRANCH  44  58
BRANCH  45  70
ATOM     70  C   UNL A   1      43.371  23.415  26.873  1.00  0.00     0.058 A 
ATOM     71  C   UNL A   1      43.092  22.557  27.947  1.00  0.00     0.135 A 
ATOM     72  C   UNL A   1      43.236  22.903  25.573  1.00  0.00     0.135 A 
ATOM     73  F   UNL A   1      43.216  22.996  29.209  1.00  0.00    -0.206 F 
ATOM     74  C   UNL A   1      42.723  21.233  27.742  1.00  0.00     0.059 A 
ATOM     75  C   UNL A   1      42.843  21.589  25.343  1.00  0.00     0.059 A 
ATOM     76  F   UNL A   1      43.478  23.692  24.515  1.00  0.00    -0.206 F 
ATOM     77  C   UNL A   1      42.608  20.756  26.435  1.00  0.00     0.060 A 
BRANCH  77  78
ATOM     78  S   UNL A   1      42.149  19.026  26.195  1.00  0.00     0.124 S 
ATOM     79  O   UNL A   1      40.727  19.145  25.887  1.00  0.00    -0.237 OA
ATOM     80  O   UNL A   1      43.008  18.629  25.091  1.00  0.00    -0.237 OA
ATOM     81  O   UNL A   1      42.461  18.413  27.486  1.00  0.00    -0.744 OA
ENDBRANCH  77  78
ENDBRANCH  45  70
BRANCH  57  82
ATOM     82  C   UNL A   1      49.584  26.548  26.420  1.00  0.00     0.058 A 
ATOM     83  C   UNL A   1      50.421  25.954  27.376  1.00  0.00     0.135 A 
ATOM     84  C   UNL A   1      50.075  26.678  25.110  1.00  0.00     0.135 A 
ATOM     85  F   UNL A   1      50.006  25.809  28.645  1.00  0.00    -0.206 F 
ATOM     86  C   UNL A   1      51.695  25.501  27.048  1.00  0.00     0.059 A 
ATOM     87  C   UNL A   1      51.336  26.209  24.753  1.00  0.00     0.059 A 
ATOM     88  F   UNL A   1      49.311  27.231  24.155  1.00  0.00    -0.206 F 
ATOM     89  C   UNL A   1      52.143  25.630  25.733  1.00  0.00     0.060 A 
BRANCH  89  90
ATOM     90  S   UNL A   1      53.774  24.981  25.307  1.00  0.00     0.124 S 
ATOM     91  O   UNL A   1      54.096  25.746  24.108  1.00  0.00    -0.237 OA
ATOM     92  O   UNL A   1      54.557  25.303  26.497  1.00  0.00    -0.237 OA
ATOM     93  O   UNL A   1      53.526  23.558  25.098  1.00  0.00    -0.744 OA
ENDBRANCH  89  90
ENDBRANCH  57  82
ENDBRANCH  31  32
ENDBRANCH  23  26
ENDBRANCH  21  22
ENDBRANCH  20  21
ENDBRANCH   1  20
TORSDOF 17
ENDMDL
