MODEL 1
REMARK VINA RESULT:     -13.7      0.000      0.000
REMARK SMILES O=C(NCCCNC(=O)c1ccc(-c2c3nc(c(-c4c(F)cc(S(=O)(=O)[O-])cc4F)c4ccc([nH]4)c(-c4c(F)cc(S(=O)(=O)[O-])cc4F)c4nc(c(-c5c(F)cc(S(=O)(=O)[O-])cc5F)c5ccc2[nH]5)C=C4)C=C3)cc1)C1=Cc2cc(Cl)cc(-c3ccc(O)cc3)c2O[C@@H]1C(F)(F)F
REMARK SMILES IDX 5 1 4 2 3 3 1 4 2 5 76 7 77 8 93 9 78 10 92 11 79 12 91 13
REMARK SMILES IDX 80 14 83 15 81 16 82 17 94 18 95 19 96 20 97 21 84 22 85 23
REMARK SMILES IDX 90 24 86 25 89 26 87 27 88 28 6 30 7 31 8 32 9 34 10 35
REMARK SMILES IDX 11 36 75 37 12 38 74 39 13 40 14 41 15 42 68 43 16 44 73 45
REMARK SMILES IDX 67 46 69 47 17 48 72 49 66 50 65 51 18 53 52 54 31 55 51 56
REMARK SMILES IDX 32 57 35 58 50 59 70 60 33 61 34 62 49 64 71 65 36 66 19 67
REMARK SMILES IDX 20 68 29 69 21 70 22 71 28 72 30 73 23 74 24 75 25 76 26 77
REMARK SMILES IDX 27 78 53 79 54 80 63 81 55 82 56 83 62 84 64 85 57 86 58 87
REMARK SMILES IDX 59 88 60 89 61 90 37 91 38 92 47 93 39 94 40 95 46 96 48 97
REMARK SMILES IDX 41 98 42 99 43 100 44 101 45 102
REMARK H PARENT 3 6 88 29 7 33 69 52 35 63
REMARK Flexibility Score: inf
ROOT
ATOM      1  C   UNL A   1      32.760  28.631  27.431  1.00  0.00     0.042 C 
ENDROOT
BRANCH   1   2
ATOM      2  C   UNL A   1      32.507  27.583  26.348  1.00  0.00     0.118 C 
BRANCH   2   3
ATOM      3  N   UNL A   1      31.751  26.423  26.837  1.00  0.00    -0.352 N 
ATOM      4  O   UNL A   1      31.397  24.223  27.284  1.00  0.00    -0.270 OA
ATOM      5  C   UNL A   1      31.946  25.083  26.609  1.00  0.00     0.251 C 
ATOM      6  H   UNL A   1      30.986  26.640  27.417  1.00  0.00     0.163 HD
BRANCH   5   7
ATOM      7  C   UNL A   1      32.908  24.725  25.559  1.00  0.00     0.067 C 
ATOM      8  C   UNL A   1      34.208  24.906  25.824  1.00  0.00     0.025 C 
ATOM      9  C   UNL A   1      32.424  23.862  24.441  1.00  0.00     0.314 C 
ATOM     10  C   UNL A   1      35.082  23.849  25.312  1.00  0.00     0.019 A 
ATOM     11  O   UNL A   1      33.176  22.627  24.382  1.00  0.00    -0.475 OA
ATOM     12  C   UNL A   1      36.419  23.845  25.716  1.00  0.00     0.032 A 
ATOM     13  C   UNL A   1      34.491  22.675  24.795  1.00  0.00     0.135 A 
ATOM     14  C   UNL A   1      37.129  22.650  25.706  1.00  0.00     0.042 A 
ATOM     15  C   UNL A   1      35.182  21.454  24.852  1.00  0.00     0.026 A 
ATOM     16  Cl  UNL A   1      38.726  22.611  26.341  1.00  0.00    -0.084 Cl
ATOM     17  C   UNL A   1      36.513  21.462  25.308  1.00  0.00     0.033 A 
BRANCH   9  18
ATOM     18  C   UNL A   1      32.411  24.598  23.090  1.00  0.00     0.429 C 
ATOM     19  F   UNL A   1      31.223  24.434  22.454  1.00  0.00    -0.167 F 
ATOM     20  F   UNL A   1      32.582  25.934  23.243  1.00  0.00    -0.167 F 
ATOM     21  F   UNL A   1      33.375  24.165  22.244  1.00  0.00    -0.167 F 
ENDBRANCH   9  18
BRANCH  15  22
ATOM     22  C   UNL A   1      34.501  20.163  24.671  1.00  0.00    -0.014 A 
ATOM     23  C   UNL A   1      35.250  18.970  24.665  1.00  0.00     0.012 A 
ATOM     24  C   UNL A   1      33.125  20.082  24.424  1.00  0.00     0.012 A 
ATOM     25  C   UNL A   1      34.662  17.745  24.357  1.00  0.00     0.047 A 
ATOM     26  C   UNL A   1      32.527  18.851  24.130  1.00  0.00     0.047 A 
ATOM     27  C   UNL A   1      33.307  17.698  24.078  1.00  0.00     0.115 A 
BRANCH  27  28
ATOM     28  O   UNL A   1      32.773  16.490  23.740  1.00  0.00    -0.508 OA
ATOM     29  H   UNL A   1      33.060  15.712  24.177  1.00  0.00     0.293 HD
ENDBRANCH  27  28
ENDBRANCH  15  22
ENDBRANCH   5   7
ENDBRANCH   2   3
ENDBRANCH   1   2
BRANCH   1  30
ATOM     30  C   UNL A   1      33.424  29.903  26.899  1.00  0.00     0.118 C 
BRANCH  30  31
ATOM     31  N   UNL A   1      33.663  30.948  27.883  1.00  0.00    -0.352 N 
ATOM     32  C   UNL A   1      34.782  31.183  28.664  1.00  0.00     0.251 C 
ATOM     33  H   UNL A   1      32.919  31.580  28.014  1.00  0.00     0.163 HD
ATOM     34  O   UNL A   1      34.806  32.153  29.410  1.00  0.00    -0.269 OA
BRANCH  32  35
ATOM     35  C   UNL A   1      35.884  30.187  28.709  1.00  0.00     0.039 A 
ATOM     36  C   UNL A   1      36.646  30.016  27.548  1.00  0.00     0.014 A 
ATOM     37  C   UNL A   1      36.275  29.559  29.890  1.00  0.00     0.014 A 
ATOM     38  C   UNL A   1      37.895  29.397  27.623  1.00  0.00     0.010 A 
ATOM     39  C   UNL A   1      37.557  29.027  29.988  1.00  0.00     0.010 A 
ATOM     40  C   UNL A   1      38.405  29.012  28.870  1.00  0.00    -0.014 A 
BRANCH  40  41
ATOM     41  C   UNL A   1      39.855  28.751  29.065  1.00  0.00     0.031 A 
ATOM     42  C   UNL A   1      40.780  29.847  29.503  1.00  0.00     0.074 A 
ATOM     43  C   UNL A   1      40.349  27.548  28.701  1.00  0.00     0.049 A 
ATOM     44  N   UNL A   1      42.086  29.846  29.562  1.00  0.00    -0.248 NA
ATOM     45  C   UNL A   1      40.160  31.124  29.887  1.00  0.00     0.031 C 
ATOM     46  C   UNL A   1      39.557  26.427  28.179  1.00  0.00     0.029 A 
ATOM     47  N   UNL A   1      41.634  27.066  28.690  1.00  0.00    -0.354 N 
ATOM     48  C   UNL A   1      42.447  31.127  29.963  1.00  0.00     0.074 A 
ATOM     49  C   UNL A   1      41.222  31.888  30.095  1.00  0.00     0.031 C 
ATOM     50  C   UNL A   1      40.366  25.386  27.929  1.00  0.00     0.029 A 
ATOM     51  C   UNL A   1      41.738  25.775  28.222  1.00  0.00     0.049 A 
ATOM     52  H   UNL A   1      42.409  27.595  28.987  1.00  0.00     0.167 HD
ATOM     53  C   UNL A   1      43.685  31.615  30.213  1.00  0.00     0.037 A 
ATOM     54  C   UNL A   1      42.820  24.995  28.036  1.00  0.00     0.037 A 
ATOM     55  C   UNL A   1      44.892  30.837  30.117  1.00  0.00     0.049 A 
ATOM     56  C   UNL A   1      44.178  25.548  28.356  1.00  0.00     0.074 A 
ATOM     57  C   UNL A   1      46.188  31.215  30.424  1.00  0.00     0.029 A 
ATOM     58  N   UNL A   1      44.952  29.520  29.684  1.00  0.00    -0.354 N 
ATOM     59  N   UNL A   1      44.493  26.745  28.791  1.00  0.00    -0.248 NA
ATOM     60  C   UNL A   1      45.326  24.656  28.154  1.00  0.00     0.031 C 
ATOM     61  C   UNL A   1      47.034  30.132  30.156  1.00  0.00     0.029 A 
ATOM     62  C   UNL A   1      46.262  29.073  29.705  1.00  0.00     0.049 A 
ATOM     63  H   UNL A   1      44.176  28.982  29.404  1.00  0.00     0.167 HD
ATOM     64  C   UNL A   1      45.876  26.748  28.921  1.00  0.00     0.074 A 
ATOM     65  C   UNL A   1      46.335  25.428  28.537  1.00  0.00     0.031 C 
ATOM     66  C   UNL A   1      46.693  27.754  29.315  1.00  0.00     0.037 A 
BRANCH  53  67
ATOM     67  C   UNL A   1      43.787  33.055  30.630  1.00  0.00     0.058 A 
ATOM     68  C   UNL A   1      43.960  34.078  29.686  1.00  0.00     0.135 A 
ATOM     69  C   UNL A   1      43.703  33.417  31.984  1.00  0.00     0.135 A 
ATOM     70  F   UNL A   1      44.062  33.784  28.380  1.00  0.00    -0.206 F 
ATOM     71  C   UNL A   1      44.081  35.409  30.071  1.00  0.00     0.059 A 
ATOM     72  C   UNL A   1      43.799  34.746  32.389  1.00  0.00     0.059 A 
ATOM     73  F   UNL A   1      43.538  32.477  32.927  1.00  0.00    -0.206 F 
ATOM     74  C   UNL A   1      44.007  35.732  31.427  1.00  0.00     0.060 A 
BRANCH  74  75
ATOM     75  S   UNL A   1      44.186  37.460  31.914  1.00  0.00     0.124 S 
ATOM     76  O   UNL A   1      43.305  37.527  33.075  1.00  0.00    -0.237 OA
ATOM     77  O   UNL A   1      45.614  37.563  32.197  1.00  0.00    -0.237 OA
ATOM     78  O   UNL A   1      43.730  38.193  30.736  1.00  0.00    -0.744 OA
ENDBRANCH  74  75
ENDBRANCH  53  67
BRANCH  54  79
ATOM     79  C   UNL A   1      42.660  23.604  27.533  1.00  0.00     0.058 A 
ATOM     80  C   UNL A   1      42.765  23.323  26.163  1.00  0.00     0.135 A 
ATOM     81  C   UNL A   1      42.416  22.532  28.404  1.00  0.00     0.135 A 
ATOM     82  F   UNL A   1      42.993  24.317  25.291  1.00  0.00    -0.206 F 
ATOM     83  C   UNL A   1      42.618  22.031  25.671  1.00  0.00     0.059 A 
ATOM     84  C   UNL A   1      42.285  21.227  27.938  1.00  0.00     0.059 A 
ATOM     85  F   UNL A   1      42.327  22.747  29.727  1.00  0.00    -0.206 F 
ATOM     86  C   UNL A   1      42.378  20.989  26.568  1.00  0.00     0.060 A 
BRANCH  86  87
ATOM     87  S   UNL A   1      42.235  19.304  25.928  1.00  0.00     0.124 S 
ATOM     88  O   UNL A   1      42.725  18.521  27.055  1.00  0.00    -0.237 OA
ATOM     89  O   UNL A   1      40.805  19.198  25.651  1.00  0.00    -0.237 OA
ATOM     90  O   UNL A   1      43.094  19.323  24.748  1.00  0.00    -0.744 OA
ENDBRANCH  86  87
ENDBRANCH  54  79
BRANCH  66  91
ATOM     91  C   UNL A   1      48.164  27.464  29.352  1.00  0.00     0.058 A 
ATOM     92  C   UNL A   1      48.989  27.753  28.255  1.00  0.00     0.135 A 
ATOM     93  C   UNL A   1      48.762  26.946  30.512  1.00  0.00     0.135 A 
ATOM     94  F   UNL A   1      48.459  28.237  27.121  1.00  0.00    -0.206 F 
ATOM     95  C   UNL A   1      50.360  27.531  28.303  1.00  0.00     0.059 A 
ATOM     96  C   UNL A   1      50.133  26.734  30.589  1.00  0.00     0.059 A 
ATOM     97  F   UNL A   1      48.011  26.658  31.587  1.00  0.00    -0.206 F 
ATOM     98  C   UNL A   1      50.923  27.024  29.475  1.00  0.00     0.060 A 
BRANCH  98  99
ATOM     99  S   UNL A   1      52.712  26.789  29.548  1.00  0.00     0.124 S 
ATOM    100  O   UNL A   1      52.851  25.954  30.736  1.00  0.00    -0.237 OA
ATOM    101  O   UNL A   1      52.995  26.133  28.275  1.00  0.00    -0.237 OA
ATOM    102  O   UNL A   1      53.226  28.150  29.669  1.00  0.00    -0.744 OA
ENDBRANCH  98  99
ENDBRANCH  66  91
ENDBRANCH  40  41
ENDBRANCH  32  35
ENDBRANCH  30  31
ENDBRANCH   1  30
TORSDOF 16
ENDMDL
MODEL 2
REMARK VINA RESULT:     -13.2      3.760      9.851
REMARK SMILES O=C(NCCCNC(=O)c1ccc(-c2c3nc(c(-c4c(F)cc(S(=O)(=O)[O-])cc4F)c4ccc([nH]4)c(-c4c(F)cc(S(=O)(=O)[O-])cc4F)c4nc(c(-c5c(F)cc(S(=O)(=O)[O-])cc5F)c5ccc2[nH]5)C=C4)C=C3)cc1)C1=Cc2cc(Cl)cc(-c3ccc(O)cc3)c2O[C@@H]1C(F)(F)F
REMARK SMILES IDX 5 1 4 2 3 3 1 4 2 5 76 7 77 8 93 9 78 10 92 11 79 12 91 13
REMARK SMILES IDX 80 14 83 15 81 16 82 17 94 18 95 19 96 20 97 21 84 22 85 23
REMARK SMILES IDX 90 24 86 25 89 26 87 27 88 28 6 30 7 31 8 32 9 34 10 35
REMARK SMILES IDX 11 36 75 37 12 38 74 39 13 40 14 41 15 42 68 43 16 44 73 45
REMARK SMILES IDX 67 46 69 47 17 48 72 49 66 50 65 51 18 53 52 54 31 55 51 56
REMARK SMILES IDX 32 57 35 58 50 59 70 60 33 61 34 62 49 64 71 65 36 66 19 67
REMARK SMILES IDX 20 68 29 69 21 70 22 71 28 72 30 73 23 74 24 75 25 76 26 77
REMARK SMILES IDX 27 78 53 79 54 80 63 81 55 82 56 83 62 84 64 85 57 86 58 87
REMARK SMILES IDX 59 88 60 89 61 90 37 91 38 92 47 93 39 94 40 95 46 96 48 97
REMARK SMILES IDX 41 98 42 99 43 100 44 101 45 102
REMARK H PARENT 3 6 88 29 7 33 69 52 35 63
REMARK Flexibility Score: inf
ROOT
ATOM      1  C   UNL A   1      36.496  21.582  25.372  1.00  0.00     0.042 C 
ENDROOT
BRANCH   1   2
ATOM      2  C   UNL A   1      35.105  22.205  25.254  1.00  0.00     0.118 C 
BRANCH   2   3
ATOM      3  N   UNL A   1      34.885  22.877  23.968  1.00  0.00    -0.352 N 
ATOM      4  O   UNL A   1      34.386  24.628  22.607  1.00  0.00    -0.270 OA
ATOM      5  C   UNL A   1      34.271  24.074  23.691  1.00  0.00     0.251 C 
ATOM      6  H   UNL A   1      35.231  22.395  23.181  1.00  0.00     0.163 HD
BRANCH   5   7
ATOM      7  C   UNL A   1      33.524  24.701  24.789  1.00  0.00     0.067 C 
ATOM      8  C   UNL A   1      34.179  25.577  25.560  1.00  0.00     0.025 C 
ATOM      9  C   UNL A   1      32.033  24.613  24.751  1.00  0.00     0.314 C 
ATOM     10  C   UNL A   1      33.387  26.744  25.956  1.00  0.00     0.019 A 
ATOM     11  O   UNL A   1      31.441  25.933  24.712  1.00  0.00    -0.475 OA
ATOM     12  C   UNL A   1      34.044  27.804  26.583  1.00  0.00     0.032 A 
ATOM     13  C   UNL A   1      32.131  26.947  25.343  1.00  0.00     0.135 A 
ATOM     14  C   UNL A   1      33.502  29.082  26.506  1.00  0.00     0.042 A 
ATOM     15  C   UNL A   1      31.618  28.246  25.201  1.00  0.00     0.026 A 
ATOM     16  Cl  UNL A   1      34.380  30.413  27.149  1.00  0.00    -0.084 Cl
ATOM     17  C   UNL A   1      32.319  29.309  25.800  1.00  0.00     0.033 A 
BRANCH   9  18
ATOM     18  C   UNL A   1      31.464  23.756  25.894  1.00  0.00     0.429 C 
ATOM     19  F   UNL A   1      31.007  22.564  25.432  1.00  0.00    -0.167 F 
ATOM     20  F   UNL A   1      32.406  23.469  26.826  1.00  0.00    -0.167 F 
ATOM     21  F   UNL A   1      30.433  24.351  26.537  1.00  0.00    -0.167 F 
ENDBRANCH   9  18
BRANCH  15  22
ATOM     22  C   UNL A   1      30.518  28.553  24.274  1.00  0.00    -0.014 A 
ATOM     23  C   UNL A   1      30.324  29.875  23.829  1.00  0.00     0.012 A 
ATOM     24  C   UNL A   1      29.596  27.579  23.873  1.00  0.00     0.012 A 
ATOM     25  C   UNL A   1      29.214  30.230  23.065  1.00  0.00     0.047 A 
ATOM     26  C   UNL A   1      28.489  27.927  23.092  1.00  0.00     0.047 A 
ATOM     27  C   UNL A   1      28.297  29.254  22.715  1.00  0.00     0.115 A 
BRANCH  27  28
ATOM     28  O   UNL A   1      27.202  29.643  22.003  1.00  0.00    -0.508 OA
ATOM     29  H   UNL A   1      26.944  30.543  21.995  1.00  0.00     0.293 HD
ENDBRANCH  27  28
ENDBRANCH  15  22
ENDBRANCH   5   7
ENDBRANCH   2   3
ENDBRANCH   1   2
BRANCH   1  30
ATOM     30  C   UNL A   1      37.629  22.586  25.156  1.00  0.00     0.118 C 
BRANCH  30  31
ATOM     31  N   UNL A   1      38.959  22.126  25.525  1.00  0.00    -0.352 N 
ATOM     32  C   UNL A   1      39.934  22.760  26.276  1.00  0.00     0.251 C 
ATOM     33  H   UNL A   1      39.202  21.232  25.189  1.00  0.00     0.163 HD
ATOM     34  O   UNL A   1      40.985  22.181  26.516  1.00  0.00    -0.269 OA
BRANCH  32  35
ATOM     35  C   UNL A   1      39.769  24.185  26.663  1.00  0.00     0.039 A 
ATOM     36  C   UNL A   1      38.929  24.466  27.747  1.00  0.00     0.014 A 
ATOM     37  C   UNL A   1      40.536  25.205  26.101  1.00  0.00     0.014 A 
ATOM     38  C   UNL A   1      39.015  25.702  28.389  1.00  0.00     0.010 A 
ATOM     39  C   UNL A   1      40.693  26.401  26.795  1.00  0.00     0.010 A 
ATOM     40  C   UNL A   1      39.989  26.627  27.987  1.00  0.00    -0.014 A 
BRANCH  40  41
ATOM     41  C   UNL A   1      40.407  27.744  28.874  1.00  0.00     0.031 A 
ATOM     42  C   UNL A   1      41.655  27.644  29.698  1.00  0.00     0.074 A 
ATOM     43  C   UNL A   1      39.567  28.789  29.034  1.00  0.00     0.049 A 
ATOM     44  N   UNL A   1      42.083  28.440  30.644  1.00  0.00    -0.248 NA
ATOM     45  C   UNL A   1      42.517  26.477  29.457  1.00  0.00     0.031 C 
ATOM     46  C   UNL A   1      38.279  28.958  28.348  1.00  0.00     0.029 A 
ATOM     47  N   UNL A   1      39.651  29.899  29.837  1.00  0.00    -0.354 N 
ATOM     48  C   UNL A   1      43.247  27.858  31.130  1.00  0.00     0.074 A 
ATOM     49  C   UNL A   1      43.436  26.621  30.400  1.00  0.00     0.031 C 
ATOM     50  C   UNL A   1      37.714  30.110  28.736  1.00  0.00     0.029 A 
ATOM     51  C   UNL A   1      38.567  30.742  29.733  1.00  0.00     0.049 A 
ATOM     52  H   UNL A   1      40.414  30.075  30.433  1.00  0.00     0.167 HD
ATOM     53  C   UNL A   1      44.087  28.322  32.086  1.00  0.00     0.037 A 
ATOM     54  C   UNL A   1      38.283  31.888  30.380  1.00  0.00     0.037 A 
ATOM     55  C   UNL A   1      43.909  29.572  32.776  1.00  0.00     0.049 A 
ATOM     56  C   UNL A   1      39.249  32.400  31.408  1.00  0.00     0.074 A 
ATOM     57  C   UNL A   1      44.743  30.171  33.705  1.00  0.00     0.029 A 
ATOM     58  N   UNL A   1      42.822  30.420  32.610  1.00  0.00    -0.354 N 
ATOM     59  N   UNL A   1      40.376  31.864  31.812  1.00  0.00    -0.248 NA
ATOM     60  C   UNL A   1      38.906  33.663  32.075  1.00  0.00     0.031 C 
ATOM     61  C   UNL A   1      44.149  31.371  34.116  1.00  0.00     0.029 A 
ATOM     62  C   UNL A   1      42.958  31.530  33.426  1.00  0.00     0.049 A 
ATOM     63  H   UNL A   1      42.066  30.255  32.001  1.00  0.00     0.167 HD
ATOM     64  C   UNL A   1      40.881  32.727  32.776  1.00  0.00     0.074 A 
ATOM     65  C   UNL A   1      39.946  33.830  32.881  1.00  0.00     0.031 C 
ATOM     66  C   UNL A   1      42.011  32.613  33.514  1.00  0.00     0.037 A 
BRANCH  53  67
ATOM     67  C   UNL A   1      45.281  27.476  32.424  1.00  0.00     0.058 A 
ATOM     68  C   UNL A   1      45.186  26.404  33.323  1.00  0.00     0.135 A 
ATOM     69  C   UNL A   1      46.531  27.733  31.838  1.00  0.00     0.135 A 
ATOM     70  F   UNL A   1      44.017  26.126  33.923  1.00  0.00    -0.206 F 
ATOM     71  C   UNL A   1      46.296  25.635  33.659  1.00  0.00     0.059 A 
ATOM     72  C   UNL A   1      47.650  26.962  32.142  1.00  0.00     0.059 A 
ATOM     73  F   UNL A   1      46.677  28.747  30.971  1.00  0.00    -0.206 F 
ATOM     74  C   UNL A   1      47.526  25.928  33.068  1.00  0.00     0.060 A 
BRANCH  74  75
ATOM     75  S   UNL A   1      48.962  24.935  33.527  1.00  0.00     0.124 S 
ATOM     76  O   UNL A   1      49.690  25.862  34.388  1.00  0.00    -0.237 OA
ATOM     77  O   UNL A   1      48.354  23.792  34.200  1.00  0.00    -0.237 OA
ATOM     78  O   UNL A   1      49.594  24.641  32.245  1.00  0.00    -0.744 OA
ENDBRANCH  74  75
ENDBRANCH  53  67
BRANCH  54  79
ATOM     79  C   UNL A   1      37.035  32.635  30.064  1.00  0.00     0.058 A 
ATOM     80  C   UNL A   1      35.856  32.392  30.782  1.00  0.00     0.135 A 
ATOM     81  C   UNL A   1      36.999  33.610  29.056  1.00  0.00     0.135 A 
ATOM     82  F   UNL A   1      35.840  31.465  31.752  1.00  0.00    -0.206 F 
ATOM     83  C   UNL A   1      34.678  33.078  30.503  1.00  0.00     0.059 A 
ATOM     84  C   UNL A   1      35.839  34.324  28.771  1.00  0.00     0.059 A 
ATOM     85  F   UNL A   1      38.108  33.893  28.353  1.00  0.00    -0.206 F 
ATOM     86  C   UNL A   1      34.680  34.042  29.494  1.00  0.00     0.060 A 
BRANCH  86  87
ATOM     87  S   UNL A   1      33.160  34.964  29.167  1.00  0.00     0.124 S 
ATOM     88  O   UNL A   1      32.516  34.937  30.475  1.00  0.00    -0.237 OA
ATOM     89  O   UNL A   1      33.670  36.261  28.734  1.00  0.00    -0.237 OA
ATOM     90  O   UNL A   1      32.511  34.175  28.125  1.00  0.00    -0.744 OA
ENDBRANCH  86  87
ENDBRANCH  54  79
BRANCH  66  91
ATOM     91  C   UNL A   1      42.299  33.711  34.495  1.00  0.00     0.058 A 
ATOM     92  C   UNL A   1      41.873  33.622  35.828  1.00  0.00     0.135 A 
ATOM     93  C   UNL A   1      43.054  34.831  34.114  1.00  0.00     0.135 A 
ATOM     94  F   UNL A   1      41.138  32.575  36.234  1.00  0.00    -0.206 F 
ATOM     95  C   UNL A   1      42.179  34.614  36.753  1.00  0.00     0.059 A 
ATOM     96  C   UNL A   1      43.389  35.825  35.026  1.00  0.00     0.059 A 
ATOM     97  F   UNL A   1      43.486  34.955  32.849  1.00  0.00    -0.206 F 
ATOM     98  C   UNL A   1      42.941  35.710  36.343  1.00  0.00     0.060 A 
BRANCH  98  99
ATOM     99  S   UNL A   1      43.380  36.966  37.562  1.00  0.00     0.124 S 
ATOM    100  O   UNL A   1      43.875  38.042  36.711  1.00  0.00    -0.237 OA
ATOM    101  O   UNL A   1      42.105  37.219  38.227  1.00  0.00    -0.237 OA
ATOM    102  O   UNL A   1      44.385  36.300  38.386  1.00  0.00    -0.744 OA
ENDBRANCH  98  99
ENDBRANCH  66  91
ENDBRANCH  40  41
ENDBRANCH  32  35
ENDBRANCH  30  31
ENDBRANCH   1  30
TORSDOF 16
ENDMDL
MODEL 3
REMARK VINA RESULT:     -13.2      0.703      8.069
REMARK SMILES O=C(NCCCNC(=O)c1ccc(-c2c3nc(c(-c4c(F)cc(S(=O)(=O)[O-])cc4F)c4ccc([nH]4)c(-c4c(F)cc(S(=O)(=O)[O-])cc4F)c4nc(c(-c5c(F)cc(S(=O)(=O)[O-])cc5F)c5ccc2[nH]5)C=C4)C=C3)cc1)C1=Cc2cc(Cl)cc(-c3ccc(O)cc3)c2O[C@@H]1C(F)(F)F
REMARK SMILES IDX 5 1 4 2 3 3 1 4 2 5 76 7 77 8 93 9 78 10 92 11 79 12 91 13
REMARK SMILES IDX 80 14 83 15 81 16 82 17 94 18 95 19 96 20 97 21 84 22 85 23
REMARK SMILES IDX 90 24 86 25 89 26 87 27 88 28 6 30 7 31 8 32 9 34 10 35
REMARK SMILES IDX 11 36 75 37 12 38 74 39 13 40 14 41 15 42 68 43 16 44 73 45
REMARK SMILES IDX 67 46 69 47 17 48 72 49 66 50 65 51 18 53 52 54 31 55 51 56
REMARK SMILES IDX 32 57 35 58 50 59 70 60 33 61 34 62 49 64 71 65 36 66 19 67
REMARK SMILES IDX 20 68 29 69 21 70 22 71 28 72 30 73 23 74 24 75 25 76 26 77
REMARK SMILES IDX 27 78 53 79 54 80 63 81 55 82 56 83 62 84 64 85 57 86 58 87
REMARK SMILES IDX 59 88 60 89 61 90 37 91 38 92 47 93 39 94 40 95 46 96 48 97
REMARK SMILES IDX 41 98 42 99 43 100 44 101 45 102
REMARK H PARENT 3 6 88 29 7 33 69 52 35 63
REMARK Flexibility Score: inf
ROOT
ATOM      1  C   UNL A   1      32.405  28.575  27.312  1.00  0.00     0.042 C 
ENDROOT
BRANCH   1   2
ATOM      2  C   UNL A   1      32.281  27.431  26.306  1.00  0.00     0.118 C 
BRANCH   2   3
ATOM      3  N   UNL A   1      31.544  26.277  26.836  1.00  0.00    -0.352 N 
ATOM      4  O   UNL A   1      31.221  24.087  27.350  1.00  0.00    -0.270 OA
ATOM      5  C   UNL A   1      31.752  24.933  26.645  1.00  0.00     0.251 C 
ATOM      6  H   UNL A   1      30.782  26.502  27.419  1.00  0.00     0.163 HD
BRANCH   5   7
ATOM      7  C   UNL A   1      32.707  24.557  25.594  1.00  0.00     0.067 C 
ATOM      8  C   UNL A   1      34.001  24.817  25.814  1.00  0.00     0.025 C 
ATOM      9  C   UNL A   1      32.240  23.601  24.545  1.00  0.00     0.314 C 
ATOM     10  C   UNL A   1      34.915  23.772  25.346  1.00  0.00     0.019 A 
ATOM     11  O   UNL A   1      33.051  22.403  24.544  1.00  0.00    -0.475 OA
ATOM     12  C   UNL A   1      36.259  23.859  25.715  1.00  0.00     0.032 A 
ATOM     13  C   UNL A   1      34.371  22.541  24.920  1.00  0.00     0.135 A 
ATOM     14  C   UNL A   1      37.027  22.701  25.762  1.00  0.00     0.042 A 
ATOM     15  C   UNL A   1      35.124  21.361  25.035  1.00  0.00     0.026 A 
ATOM     16  Cl  UNL A   1      38.639  22.780  26.356  1.00  0.00    -0.084 Cl
ATOM     17  C   UNL A   1      36.463  21.462  25.454  1.00  0.00     0.033 A 
BRANCH   9  18
ATOM     18  C   UNL A   1      32.160  24.249  23.152  1.00  0.00     0.429 C 
ATOM     19  F   UNL A   1      30.872  24.483  22.795  1.00  0.00    -0.167 F 
ATOM     20  F   UNL A   1      32.791  25.448  23.117  1.00  0.00    -0.167 F 
ATOM     21  F   UNL A   1      32.706  23.481  22.181  1.00  0.00    -0.167 F 
ENDBRANCH   9  18
BRANCH  15  22
ATOM     22  C   UNL A   1      34.504  20.029  24.951  1.00  0.00    -0.014 A 
ATOM     23  C   UNL A   1      35.244  18.941  24.449  1.00  0.00     0.012 A 
ATOM     24  C   UNL A   1      33.161  19.817  25.286  1.00  0.00     0.012 A 
ATOM     25  C   UNL A   1      34.652  17.701  24.225  1.00  0.00     0.047 A 
ATOM     26  C   UNL A   1      32.565  18.568  25.077  1.00  0.00     0.047 A 
ATOM     27  C   UNL A   1      33.312  17.529  24.527  1.00  0.00     0.115 A 
BRANCH  27  28
ATOM     28  O   UNL A   1      32.754  16.315  24.256  1.00  0.00    -0.508 OA
ATOM     29  H   UNL A   1      32.949  15.578  24.799  1.00  0.00     0.293 HD
ENDBRANCH  27  28
ENDBRANCH  15  22
ENDBRANCH   5   7
ENDBRANCH   2   3
ENDBRANCH   1   2
BRANCH   1  30
ATOM     30  C   UNL A   1      33.374  29.671  26.865  1.00  0.00     0.118 C 
BRANCH  30  31
ATOM     31  N   UNL A   1      33.606  30.738  27.827  1.00  0.00    -0.352 N 
ATOM     32  C   UNL A   1      34.749  31.041  28.547  1.00  0.00     0.251 C 
ATOM     33  H   UNL A   1      32.836  31.330  27.990  1.00  0.00     0.163 HD
ATOM     34  O   UNL A   1      34.758  32.018  29.283  1.00  0.00    -0.269 OA
BRANCH  32  35
ATOM     35  C   UNL A   1      35.904  30.106  28.544  1.00  0.00     0.039 A 
ATOM     36  C   UNL A   1      36.643  29.999  27.360  1.00  0.00     0.014 A 
ATOM     37  C   UNL A   1      36.359  29.478  29.702  1.00  0.00     0.014 A 
ATOM     38  C   UNL A   1      37.925  29.448  27.391  1.00  0.00     0.010 A 
ATOM     39  C   UNL A   1      37.671  29.014  29.756  1.00  0.00     0.010 A 
ATOM     40  C   UNL A   1      38.488  29.067  28.617  1.00  0.00    -0.014 A 
BRANCH  40  41
ATOM     41  C   UNL A   1      39.955  28.882  28.770  1.00  0.00     0.031 A 
ATOM     42  C   UNL A   1      40.603  27.575  28.424  1.00  0.00     0.074 A 
ATOM     43  C   UNL A   1      40.670  29.862  29.363  1.00  0.00     0.049 A 
ATOM     44  N   UNL A   1      41.830  27.180  28.649  1.00  0.00    -0.248 NA
ATOM     45  C   UNL A   1      39.754  26.564  27.777  1.00  0.00     0.031 C 
ATOM     46  C   UNL A   1      40.132  31.148  29.822  1.00  0.00     0.029 A 
ATOM     47  N   UNL A   1      41.998  29.929  29.704  1.00  0.00    -0.354 N 
ATOM     48  C   UNL A   1      41.894  25.868  28.197  1.00  0.00     0.074 A 
ATOM     49  C   UNL A   1      40.571  25.522  27.721  1.00  0.00     0.031 C 
ATOM     50  C   UNL A   1      41.121  31.882  30.354  1.00  0.00     0.029 A 
ATOM     51  C   UNL A   1      42.353  31.107  30.322  1.00  0.00     0.049 A 
ATOM     52  H   UNL A   1      42.637  29.201  29.525  1.00  0.00     0.167 HD
ATOM     53  C   UNL A   1      42.963  25.036  28.168  1.00  0.00     0.037 A 
ATOM     54  C   UNL A   1      43.535  31.513  30.823  1.00  0.00     0.037 A 
ATOM     55  C   UNL A   1      44.282  25.406  28.608  1.00  0.00     0.049 A 
ATOM     56  C   UNL A   1      44.713  30.586  30.745  1.00  0.00     0.074 A 
ATOM     57  C   UNL A   1      45.450  24.664  28.548  1.00  0.00     0.029 A 
ATOM     58  N   UNL A   1      44.611  26.624  29.185  1.00  0.00    -0.354 N 
ATOM     59  N   UNL A   1      44.767  29.369  30.259  1.00  0.00    -0.248 NA
ATOM     60  C   UNL A   1      45.986  31.078  31.287  1.00  0.00     0.031 C 
ATOM     61  C   UNL A   1      46.481  25.427  29.110  1.00  0.00     0.029 A 
ATOM     62  C   UNL A   1      45.960  26.652  29.498  1.00  0.00     0.049 A 
ATOM     63  H   UNL A   1      43.978  27.361  29.349  1.00  0.00     0.167 HD
ATOM     64  C   UNL A   1      46.081  28.950  30.431  1.00  0.00     0.074 A 
ATOM     65  C   UNL A   1      46.792  30.052  31.048  1.00  0.00     0.031 C 
ATOM     66  C   UNL A   1      46.644  27.760  30.115  1.00  0.00     0.037 A 
BRANCH  53  67
ATOM     67  C   UNL A   1      42.744  23.653  27.627  1.00  0.00     0.058 A 
ATOM     68  C   UNL A   1      42.426  22.579  28.473  1.00  0.00     0.135 A 
ATOM     69  C   UNL A   1      42.846  23.396  26.250  1.00  0.00     0.135 A 
ATOM     70  F   UNL A   1      42.332  22.768  29.799  1.00  0.00    -0.206 F 
ATOM     71  C   UNL A   1      42.249  21.291  27.978  1.00  0.00     0.059 A 
ATOM     72  C   UNL A   1      42.651  22.119  25.731  1.00  0.00     0.059 A 
ATOM     73  F   UNL A   1      43.149  24.388  25.398  1.00  0.00    -0.206 F 
ATOM     74  C   UNL A   1      42.372  21.070  26.606  1.00  0.00     0.060 A 
BRANCH  74  75
ATOM     75  S   UNL A   1      42.160  19.390  25.980  1.00  0.00     0.124 S 
ATOM     76  O   UNL A   1      42.687  18.600  27.088  1.00  0.00    -0.237 OA
ATOM     77  O   UNL A   1      40.718  19.309  25.774  1.00  0.00    -0.237 OA
ATOM     78  O   UNL A   1      42.965  19.379  24.762  1.00  0.00    -0.744 OA
ENDBRANCH  74  75
ENDBRANCH  53  67
BRANCH  54  79
ATOM     79  C   UNL A   1      43.665  32.864  31.430  1.00  0.00     0.058 A 
ATOM     80  C   UNL A   1      43.935  33.985  30.630  1.00  0.00     0.135 A 
ATOM     81  C   UNL A   1      43.508  33.067  32.809  1.00  0.00     0.135 A 
ATOM     82  F   UNL A   1      44.097  33.840  29.306  1.00  0.00    -0.206 F 
ATOM     83  C   UNL A   1      44.060  35.257  31.177  1.00  0.00     0.059 A 
ATOM     84  C   UNL A   1      43.610  34.334  33.378  1.00  0.00     0.059 A 
ATOM     85  F   UNL A   1      43.230  32.029  33.614  1.00  0.00    -0.206 F 
ATOM     86  C   UNL A   1      43.897  35.421  32.554  1.00  0.00     0.060 A 
BRANCH  86  87
ATOM     87  S   UNL A   1      44.015  37.084  33.253  1.00  0.00     0.124 S 
ATOM     88  O   UNL A   1      42.740  37.197  33.952  1.00  0.00    -0.237 OA
ATOM     89  O   UNL A   1      45.200  36.981  34.099  1.00  0.00    -0.237 OA
ATOM     90  O   UNL A   1      44.168  37.930  32.074  1.00  0.00    -0.744 OA
ENDBRANCH  86  87
ENDBRANCH  54  79
BRANCH  66  91
ATOM     91  C   UNL A   1      48.101  27.590  30.428  1.00  0.00     0.058 A 
ATOM     92  C   UNL A   1      48.521  27.028  31.642  1.00  0.00     0.135 A 
ATOM     93  C   UNL A   1      49.081  27.940  29.486  1.00  0.00     0.135 A 
ATOM     94  F   UNL A   1      47.620  26.690  32.578  1.00  0.00    -0.206 F 
ATOM     95  C   UNL A   1      49.869  26.824  31.917  1.00  0.00     0.059 A 
ATOM     96  C   UNL A   1      50.432  27.728  29.731  1.00  0.00     0.059 A 
ATOM     97  F   UNL A   1      48.724  28.478  28.308  1.00  0.00    -0.206 F 
ATOM     98  C   UNL A   1      50.817  27.175  30.953  1.00  0.00     0.060 A 
BRANCH  98  99
ATOM     99  S   UNL A   1      52.560  26.856  31.296  1.00  0.00     0.124 S 
ATOM    100  O   UNL A   1      52.477  25.734  32.224  1.00  0.00    -0.237 OA
ATOM    101  O   UNL A   1      53.090  26.546  29.971  1.00  0.00    -0.237 OA
ATOM    102  O   UNL A   1      53.027  28.115  31.869  1.00  0.00    -0.744 OA
ENDBRANCH  98  99
ENDBRANCH  66  91
ENDBRANCH  40  41
ENDBRANCH  32  35
ENDBRANCH  30  31
ENDBRANCH   1  30
TORSDOF 16
ENDMDL
