MODEL 1
REMARK VINA RESULT:     -11.5      0.000      0.000
REMARK SMILES COc1ccc([C@H]2CC(c3ccc(S(C)(=O)=O)cc3)=NN2c2ccc(C(=O)NCCCNC(=O)c3ccc(-c4c5nc(c(-c6c(F)cc(S(=O)(=O)[O-])cc6F)c6ccc([nH]6)c(-c6c(F)cc(S(=O)(=O)[O-])cc6F)c6nc(c(-c7c(F)cc(S(=O)(=O)[O-])cc7F)c7ccc4[nH]7)C=C6)C=C5)cc3)cc2)cc1OC
REMARK SMILES IDX 30 1 29 2 28 3 26 4 27 5 25 7 22 8 23 9 102 10 24 11 101 12
REMARK SMILES IDX 21 13 7 14 8 15 9 16 20 17 6 18 3 19 4 20 104 21 5 22 103 23
REMARK SMILES IDX 2 24 1 25 105 26 106 27 10 28 11 29 19 30 12 31 18 32 13 33
REMARK SMILES IDX 14 34 15 35 16 36 17 37 31 38 32 39 33 40 34 42 35 43 36 44
REMARK SMILES IDX 100 45 37 46 99 47 38 48 39 49 40 50 93 51 41 52 98 53 92 54
REMARK SMILES IDX 94 55 42 56 97 57 91 58 90 59 43 61 77 62 56 63 76 64 57 65
REMARK SMILES IDX 60 66 75 67 95 68 58 69 59 70 74 72 96 73 61 74 44 75 45 76
REMARK SMILES IDX 54 77 46 78 47 79 53 80 55 81 48 82 49 83 50 84 51 85 52 86
REMARK SMILES IDX 78 87 79 88 88 89 80 90 81 91 87 92 89 93 82 94 83 95 84 96
REMARK SMILES IDX 85 97 86 98 62 99 63 100 72 101 64 102 65 103 71 104 73 105
REMARK SMILES IDX 66 106 67 107 68 108 69 109 70 110
REMARK H PARENT 28 6 32 41 94 60 60 71
REMARK Flexibility Score: inf
ROOT
ATOM      1  C   UNL A   1      40.733  21.594  27.361  1.00  0.00     0.042 C 
ENDROOT
BRANCH   1   2
ATOM      2  C   UNL A   1      42.139  21.048  27.602  1.00  0.00     0.118 C 
BRANCH   2   3
ATOM      3  N   UNL A   1      42.589  20.250  26.475  1.00  0.00    -0.352 N 
ATOM      4  C   UNL A   1      43.460  20.506  25.448  1.00  0.00     0.251 C 
ATOM      5  O   UNL A   1      43.683  19.588  24.657  1.00  0.00    -0.269 OA
ATOM      6  H   UNL A   1      42.191  19.351  26.442  1.00  0.00     0.163 HD
BRANCH   4   7
ATOM      7  C   UNL A   1      44.183  21.798  25.284  1.00  0.00     0.039 A 
ATOM      8  C   UNL A   1      45.702  24.181  25.107  1.00  0.00     0.060 A 
ATOM      9  C   UNL A   1      46.293  22.984  25.526  1.00  0.00     0.029 A 
ATOM     10  C   UNL A   1      44.361  24.156  24.724  1.00  0.00     0.029 A 
ATOM     11  C   UNL A   1      45.540  21.812  25.633  1.00  0.00     0.016 A 
ATOM     12  C   UNL A   1      43.618  22.969  24.773  1.00  0.00     0.016 A 
BRANCH   8  13
ATOM     13  N   UNL A   1      46.448  25.345  25.060  1.00  0.00    -0.257 N 
ATOM     14  C   UNL A   1      46.135  26.561  25.807  1.00  0.00     0.144 C 
ATOM     15  C   UNL A   1      47.132  27.573  25.226  1.00  0.00     0.091 C 
ATOM     16  C   UNL A   1      47.850  26.699  24.237  1.00  0.00     0.071 C 
ATOM     17  N   UNL A   1      47.452  25.470  24.159  1.00  0.00    -0.176 NA
BRANCH  14  18
ATOM     18  C   UNL A   1      46.319  26.356  27.305  1.00  0.00    -0.019 A 
ATOM     19  C   UNL A   1      46.673  25.907  30.069  1.00  0.00     0.160 A 
ATOM     20  C   UNL A   1      45.398  26.159  29.544  1.00  0.00     0.051 A 
ATOM     21  C   UNL A   1      47.782  25.863  29.218  1.00  0.00     0.161 A 
ATOM     22  C   UNL A   1      45.222  26.391  28.175  1.00  0.00     0.010 A 
ATOM     23  C   UNL A   1      47.589  26.090  27.848  1.00  0.00     0.056 A 
BRANCH  19  24
ATOM     24  O   UNL A   1      46.782  25.594  31.397  1.00  0.00    -0.493 OA
ATOM     25  C   UNL A   1      45.514  25.305  31.984  1.00  0.00     0.278 C 
ENDBRANCH  19  24
BRANCH  21  26
ATOM     26  O   UNL A   1      49.090  25.603  29.528  1.00  0.00    -0.493 OA
ATOM     27  C   UNL A   1      49.949  26.695  29.812  1.00  0.00     0.278 C 
ENDBRANCH  21  26
ENDBRANCH  14  18
BRANCH  16  28
ATOM     28  C   UNL A   1      48.906  27.242  23.381  1.00  0.00    -0.002 A 
ATOM     29  C   UNL A   1      48.588  27.609  22.069  1.00  0.00     0.011 A 
ATOM     30  C   UNL A   1      50.208  27.359  23.869  1.00  0.00     0.011 A 
ATOM     31  C   UNL A   1      49.583  28.122  21.238  1.00  0.00     0.021 A 
ATOM     32  C   UNL A   1      51.210  27.849  23.031  1.00  0.00     0.021 A 
ATOM     33  C   UNL A   1      50.892  28.227  21.719  1.00  0.00     0.067 A 
BRANCH  33  34
ATOM     34  S   UNL A   1      52.164  28.863  20.653  1.00  0.00     0.175 S 
ATOM     35  C   UNL A   1      52.678  30.372  21.430  1.00  0.00     0.163 C 
ATOM     36  O   UNL A   1      53.267  27.918  20.706  1.00  0.00    -0.224 OA
ATOM     37  O   UNL A   1      51.546  29.211  19.390  1.00  0.00    -0.224 OA
ENDBRANCH  33  34
ENDBRANCH  16  28
ENDBRANCH   8  13
ENDBRANCH   4   7
ENDBRANCH   2   3
ENDBRANCH   1   2
BRANCH   1  38
ATOM     38  C   UNL A   1      40.620  23.096  27.617  1.00  0.00     0.118 C 
BRANCH  38  39
ATOM     39  N   UNL A   1      40.929  23.873  26.425  1.00  0.00    -0.352 N 
ATOM     40  C   UNL A   1      40.947  25.234  26.244  1.00  0.00     0.251 C 
ATOM     41  H   UNL A   1      41.160  23.342  25.628  1.00  0.00     0.163 HD
ATOM     42  O   UNL A   1      40.999  25.691  25.105  1.00  0.00    -0.269 OA
BRANCH  40  43
ATOM     43  C   UNL A   1      40.894  26.146  27.407  1.00  0.00     0.039 A 
ATOM     44  C   UNL A   1      41.880  27.127  27.542  1.00  0.00     0.014 A 
ATOM     45  C   UNL A   1      39.899  26.015  28.380  1.00  0.00     0.014 A 
ATOM     46  C   UNL A   1      41.834  28.016  28.619  1.00  0.00     0.010 A 
ATOM     47  C   UNL A   1      39.819  26.939  29.419  1.00  0.00     0.010 A 
ATOM     48  C   UNL A   1      40.783  27.949  29.548  1.00  0.00    -0.014 A 
BRANCH  48  49
ATOM     49  C   UNL A   1      40.663  28.936  30.651  1.00  0.00     0.031 A 
ATOM     50  C   UNL A   1      41.521  28.806  31.880  1.00  0.00     0.074 A 
ATOM     51  C   UNL A   1      39.722  29.898  30.580  1.00  0.00     0.049 A 
ATOM     52  N   UNL A   1      41.485  29.499  32.989  1.00  0.00    -0.248 NA
ATOM     53  C   UNL A   1      42.536  27.741  31.870  1.00  0.00     0.031 C 
ATOM     54  C   UNL A   1      38.804  30.101  29.456  1.00  0.00     0.029 A 
ATOM     55  N   UNL A   1      39.367  30.875  31.477  1.00  0.00    -0.354 N 
ATOM     56  C   UNL A   1      42.456  28.946  33.815  1.00  0.00     0.074 A 
ATOM     57  C   UNL A   1      43.038  27.833  33.094  1.00  0.00     0.031 C 
ATOM     58  C   UNL A   1      38.001  31.142  29.726  1.00  0.00     0.029 A 
ATOM     59  C   UNL A   1      38.316  31.655  31.055  1.00  0.00     0.049 A 
ATOM     60  H   UNL A   1      39.822  31.004  32.339  1.00  0.00     0.167 HD
ATOM     61  C   UNL A   1      42.837  29.338  35.053  1.00  0.00     0.037 A 
ATOM     62  C   UNL A   1      37.668  32.660  31.677  1.00  0.00     0.037 A 
ATOM     63  C   UNL A   1      42.271  30.463  35.752  1.00  0.00     0.049 A 
ATOM     64  C   UNL A   1      38.104  33.072  33.056  1.00  0.00     0.074 A 
ATOM     65  C   UNL A   1      42.634  30.983  36.982  1.00  0.00     0.029 A 
ATOM     66  N   UNL A   1      41.221  31.240  35.285  1.00  0.00    -0.354 N 
ATOM     67  N   UNL A   1      39.065  32.576  33.798  1.00  0.00    -0.248 NA
ATOM     68  C   UNL A   1      37.371  34.181  33.682  1.00  0.00     0.031 C 
ATOM     69  C   UNL A   1      41.777  32.048  37.278  1.00  0.00     0.029 A 
ATOM     70  C   UNL A   1      40.908  32.220  36.213  1.00  0.00     0.049 A 
ATOM     71  H   UNL A   1      40.766  31.114  34.422  1.00  0.00     0.167 HD
ATOM     72  C   UNL A   1      39.066  33.325  34.968  1.00  0.00     0.074 A 
ATOM     73  C   UNL A   1      38.019  34.315  34.832  1.00  0.00     0.031 C 
ATOM     74  C   UNL A   1      39.865  33.203  36.058  1.00  0.00     0.037 A 
BRANCH  61  75
ATOM     75  C   UNL A   1      43.920  28.548  35.735  1.00  0.00     0.058 A 
ATOM     76  C   UNL A   1      45.279  28.860  35.564  1.00  0.00     0.135 A 
ATOM     77  C   UNL A   1      43.596  27.487  36.597  1.00  0.00     0.135 A 
ATOM     78  F   UNL A   1      45.646  29.856  34.742  1.00  0.00    -0.206 F 
ATOM     79  C   UNL A   1      46.278  28.131  36.201  1.00  0.00     0.059 A 
ATOM     80  C   UNL A   1      44.578  26.762  37.265  1.00  0.00     0.059 A 
ATOM     81  F   UNL A   1      42.313  27.147  36.797  1.00  0.00    -0.206 F 
ATOM     82  C   UNL A   1      45.918  27.083  37.049  1.00  0.00     0.060 A 
BRANCH  82  83
ATOM     83  S   UNL A   1      47.227  26.148  37.869  1.00  0.00     0.124 S 
ATOM     84  O   UNL A   1      46.694  24.790  37.810  1.00  0.00    -0.237 OA
ATOM     85  O   UNL A   1      48.381  26.412  37.018  1.00  0.00    -0.237 OA
ATOM     86  O   UNL A   1      47.285  26.742  39.201  1.00  0.00    -0.744 OA
ENDBRANCH  82  83
ENDBRANCH  61  75
BRANCH  62  87
ATOM     87  C   UNL A   1      36.545  33.353  30.991  1.00  0.00     0.058 A 
ATOM     88  C   UNL A   1      35.224  33.185  31.430  1.00  0.00     0.135 A 
ATOM     89  C   UNL A   1      36.770  34.210  29.903  1.00  0.00     0.135 A 
ATOM     90  F   UNL A   1      34.959  32.371  32.462  1.00  0.00    -0.206 F 
ATOM     91  C   UNL A   1      34.162  33.834  30.807  1.00  0.00     0.059 A 
ATOM     92  C   UNL A   1      35.728  34.888  29.279  1.00  0.00     0.059 A 
ATOM     93  F   UNL A   1      38.019  34.417  29.457  1.00  0.00    -0.206 F 
ATOM     94  C   UNL A   1      34.426  34.685  29.733  1.00  0.00     0.060 A 
BRANCH  94  95
ATOM     95  S   UNL A   1      33.047  35.566  28.967  1.00  0.00     0.124 S 
ATOM     96  O   UNL A   1      32.430  34.512  28.172  1.00  0.00    -0.237 OA
ATOM     97  O   UNL A   1      32.287  36.018  30.128  1.00  0.00    -0.237 OA
ATOM     98  O   UNL A   1      33.706  36.626  28.210  1.00  0.00    -0.744 OA
ENDBRANCH  94  95
ENDBRANCH  62  87
BRANCH  74  99
ATOM     99  C   UNL A   1      39.658  34.182  37.180  1.00  0.00     0.058 A 
ATOM    100  C   UNL A   1      38.919  33.844  38.323  1.00  0.00     0.135 A 
ATOM    101  C   UNL A   1      40.263  35.449  37.138  1.00  0.00     0.135 A 
ATOM    102  F   UNL A   1      38.313  32.648  38.406  1.00  0.00    -0.206 F 
ATOM    103  C   UNL A   1      38.774  34.733  39.383  1.00  0.00     0.059 A 
ATOM    104  C   UNL A   1      40.153  36.344  38.197  1.00  0.00     0.059 A 
ATOM    105  F   UNL A   1      40.987  35.817  36.070  1.00  0.00    -0.206 F 
ATOM    106  C   UNL A   1      39.400  35.979  39.312  1.00  0.00     0.060 A 
BRANCH 106 107
ATOM    107  S   UNL A   1      39.247  37.105  40.716  1.00  0.00     0.124 S 
ATOM    108  O   UNL A   1      38.621  36.247  41.715  1.00  0.00    -0.237 OA
ATOM    109  O   UNL A   1      40.637  37.472  40.975  1.00  0.00    -0.237 OA
ATOM    110  O   UNL A   1      38.409  38.181  40.198  1.00  0.00    -0.744 OA
ENDBRANCH 106 107
ENDBRANCH  74  99
ENDBRANCH  48  49
ENDBRANCH  40  43
ENDBRANCH  38  39
ENDBRANCH   1  38
TORSDOF 19
ENDMDL
MODEL 2
REMARK VINA RESULT:     -10.6      2.275      8.774
REMARK SMILES COc1ccc([C@H]2CC(c3ccc(S(C)(=O)=O)cc3)=NN2c2ccc(C(=O)NCCCNC(=O)c3ccc(-c4c5nc(c(-c6c(F)cc(S(=O)(=O)[O-])cc6F)c6ccc([nH]6)c(-c6c(F)cc(S(=O)(=O)[O-])cc6F)c6nc(c(-c7c(F)cc(S(=O)(=O)[O-])cc7F)c7ccc4[nH]7)C=C6)C=C5)cc3)cc2)cc1OC
REMARK SMILES IDX 30 1 29 2 28 3 26 4 27 5 25 7 22 8 23 9 102 10 24 11 101 12
REMARK SMILES IDX 21 13 7 14 8 15 9 16 20 17 6 18 3 19 4 20 104 21 5 22 103 23
REMARK SMILES IDX 2 24 1 25 105 26 106 27 10 28 11 29 19 30 12 31 18 32 13 33
REMARK SMILES IDX 14 34 15 35 16 36 17 37 31 38 32 39 33 40 34 42 35 43 36 44
REMARK SMILES IDX 100 45 37 46 99 47 38 48 39 49 40 50 93 51 41 52 98 53 92 54
REMARK SMILES IDX 94 55 42 56 97 57 91 58 90 59 43 61 77 62 56 63 76 64 57 65
REMARK SMILES IDX 60 66 75 67 95 68 58 69 59 70 74 72 96 73 61 74 44 75 45 76
REMARK SMILES IDX 54 77 46 78 47 79 53 80 55 81 48 82 49 83 50 84 51 85 52 86
REMARK SMILES IDX 78 87 79 88 88 89 80 90 81 91 87 92 89 93 82 94 83 95 84 96
REMARK SMILES IDX 85 97 86 98 62 99 63 100 72 101 64 102 65 103 71 104 73 105
REMARK SMILES IDX 66 106 67 107 68 108 69 109 70 110
REMARK H PARENT 28 6 32 41 94 60 60 71
REMARK Flexibility Score: inf
ROOT
ATOM      1  C   UNL A   1      40.097  21.862  27.026  1.00  0.00     0.042 C 
ENDROOT
BRANCH   1   2
ATOM      2  C   UNL A   1      41.437  21.352  27.553  1.00  0.00     0.118 C 
BRANCH   2   3
ATOM      3  N   UNL A   1      42.340  21.035  26.462  1.00  0.00    -0.352 N 
ATOM      4  C   UNL A   1      43.376  21.725  25.886  1.00  0.00     0.251 C 
ATOM      5  O   UNL A   1      44.003  21.155  24.991  1.00  0.00    -0.269 OA
ATOM      6  H   UNL A   1      42.178  20.154  26.055  1.00  0.00     0.163 HD
BRANCH   4   7
ATOM      7  C   UNL A   1      43.808  23.080  26.326  1.00  0.00     0.039 A 
ATOM      8  C   UNL A   1      44.722  25.681  26.973  1.00  0.00     0.060 A 
ATOM      9  C   UNL A   1      44.576  25.284  25.640  1.00  0.00     0.029 A 
ATOM     10  C   UNL A   1      44.350  24.783  27.974  1.00  0.00     0.029 A 
ATOM     11  C   UNL A   1      44.145  23.994  25.319  1.00  0.00     0.016 A 
ATOM     12  C   UNL A   1      43.861  23.509  27.654  1.00  0.00     0.016 A 
BRANCH   8  13
ATOM     13  N   UNL A   1      45.204  26.942  27.274  1.00  0.00    -0.257 N 
ATOM     14  C   UNL A   1      46.614  27.264  27.484  1.00  0.00     0.144 C 
ATOM     15  C   UNL A   1      46.552  28.711  27.990  1.00  0.00     0.091 C 
ATOM     16  C   UNL A   1      45.068  28.941  27.955  1.00  0.00     0.071 C 
ATOM     17  N   UNL A   1      44.340  27.947  27.560  1.00  0.00    -0.176 NA
BRANCH  14  18
ATOM     18  C   UNL A   1      47.412  27.130  26.194  1.00  0.00    -0.019 A 
ATOM     19  C   UNL A   1      48.939  26.927  23.829  1.00  0.00     0.160 A 
ATOM     20  C   UNL A   1      47.701  27.585  23.826  1.00  0.00     0.051 A 
ATOM     21  C   UNL A   1      49.433  26.375  25.016  1.00  0.00     0.161 A 
ATOM     22  C   UNL A   1      46.938  27.679  24.996  1.00  0.00     0.010 A 
ATOM     23  C   UNL A   1      48.661  26.483  26.181  1.00  0.00     0.056 A 
BRANCH  19  24
ATOM     24  O   UNL A   1      49.691  26.944  22.685  1.00  0.00    -0.493 OA
ATOM     25  C   UNL A   1      48.972  27.493  21.581  1.00  0.00     0.278 C 
ENDBRANCH  19  24
BRANCH  21  26
ATOM     26  O   UNL A   1      50.620  25.729  25.230  1.00  0.00    -0.493 OA
ATOM     27  C   UNL A   1      51.105  25.625  26.559  1.00  0.00     0.278 C 
ENDBRANCH  21  26
ENDBRANCH  14  18
BRANCH  16  28
ATOM     28  C   UNL A   1      44.492  30.212  28.398  1.00  0.00    -0.002 A 
ATOM     29  C   UNL A   1      44.841  31.383  27.717  1.00  0.00     0.011 A 
ATOM     30  C   UNL A   1      43.633  30.244  29.498  1.00  0.00     0.011 A 
ATOM     31  C   UNL A   1      44.307  32.603  28.128  1.00  0.00     0.021 A 
ATOM     32  C   UNL A   1      43.118  31.468  29.926  1.00  0.00     0.021 A 
ATOM     33  C   UNL A   1      43.458  32.641  29.240  1.00  0.00     0.067 A 
BRANCH  33  34
ATOM     34  S   UNL A   1      42.793  34.200  29.776  1.00  0.00     0.175 S 
ATOM     35  C   UNL A   1      42.889  35.237  28.341  1.00  0.00     0.163 C 
ATOM     36  O   UNL A   1      41.391  33.972  30.088  1.00  0.00    -0.224 OA
ATOM     37  O   UNL A   1      43.694  34.745  30.769  1.00  0.00    -0.224 OA
ENDBRANCH  33  34
ENDBRANCH  16  28
ENDBRANCH   8  13
ENDBRANCH   4   7
ENDBRANCH   2   3
ENDBRANCH   1   2
BRANCH   1  38
ATOM     38  C   UNL A   1      39.914  23.368  27.205  1.00  0.00     0.118 C 
BRANCH  38  39
ATOM     39  N   UNL A   1      40.607  24.125  26.172  1.00  0.00    -0.352 N 
ATOM     40  C   UNL A   1      40.852  25.473  26.086  1.00  0.00     0.251 C 
ATOM     41  H   UNL A   1      40.951  23.589  25.421  1.00  0.00     0.163 HD
ATOM     42  O   UNL A   1      41.242  25.949  25.023  1.00  0.00    -0.269 OA
BRANCH  40  43
ATOM     43  C   UNL A   1      40.641  26.350  27.258  1.00  0.00     0.039 A 
ATOM     44  C   UNL A   1      39.889  25.871  28.334  1.00  0.00     0.014 A 
ATOM     45  C   UNL A   1      41.148  27.652  27.283  1.00  0.00     0.014 A 
ATOM     46  C   UNL A   1      39.699  26.673  29.462  1.00  0.00     0.010 A 
ATOM     47  C   UNL A   1      41.011  28.428  28.432  1.00  0.00     0.010 A 
ATOM     48  C   UNL A   1      40.288  27.947  29.533  1.00  0.00    -0.014 A 
BRANCH  48  49
ATOM     49  C   UNL A   1      40.175  28.785  30.754  1.00  0.00     0.031 A 
ATOM     50  C   UNL A   1      39.176  29.908  30.811  1.00  0.00     0.074 A 
ATOM     51  C   UNL A   1      41.030  28.584  31.776  1.00  0.00     0.049 A 
ATOM     52  N   UNL A   1      39.004  30.813  31.740  1.00  0.00    -0.248 NA
ATOM     53  C   UNL A   1      38.268  30.047  29.661  1.00  0.00     0.031 C 
ATOM     54  C   UNL A   1      42.067  27.551  31.820  1.00  0.00     0.029 A 
ATOM     55  N   UNL A   1      41.176  29.251  32.967  1.00  0.00    -0.354 N 
ATOM     56  C   UNL A   1      37.985  31.639  31.282  1.00  0.00     0.074 A 
ATOM     57  C   UNL A   1      37.603  31.151  29.973  1.00  0.00     0.031 C 
ATOM     58  C   UNL A   1      42.733  27.645  32.981  1.00  0.00     0.029 A 
ATOM     59  C   UNL A   1      42.201  28.768  33.746  1.00  0.00     0.049 A 
ATOM     60  H   UNL A   1      40.601  30.002  33.237  1.00  0.00     0.167 HD
ATOM     61  C   UNL A   1      37.410  32.697  31.902  1.00  0.00     0.037 A 
ATOM     62  C   UNL A   1      42.671  29.194  34.935  1.00  0.00     0.037 A 
ATOM     63  C   UNL A   1      37.778  33.159  33.215  1.00  0.00     0.049 A 
ATOM     64  C   UNL A   1      42.022  30.377  35.600  1.00  0.00     0.074 A 
ATOM     65  C   UNL A   1      37.211  34.180  33.957  1.00  0.00     0.029 A 
ATOM     66  N   UNL A   1      38.809  32.633  33.980  1.00  0.00    -0.354 N 
ATOM     67  N   UNL A   1      41.018  31.109  35.179  1.00  0.00    -0.248 NA
ATOM     68  C   UNL A   1      42.567  30.791  36.901  1.00  0.00     0.031 C 
ATOM     69  C   UNL A   1      37.926  34.300  35.155  1.00  0.00     0.029 A 
ATOM     70  C   UNL A   1      38.910  33.325  35.177  1.00  0.00     0.049 A 
ATOM     71  H   UNL A   1      39.384  31.881  33.712  1.00  0.00     0.167 HD
ATOM     72  C   UNL A   1      40.797  32.056  36.172  1.00  0.00     0.074 A 
ATOM     73  C   UNL A   1      41.763  31.797  37.219  1.00  0.00     0.031 C 
ATOM     74  C   UNL A   1      39.875  33.049  36.212  1.00  0.00     0.037 A 
BRANCH  61  75
ATOM     75  C   UNL A   1      36.319  33.429  31.169  1.00  0.00     0.058 A 
ATOM     76  C   UNL A   1      36.592  34.222  30.043  1.00  0.00     0.135 A 
ATOM     77  C   UNL A   1      34.980  33.308  31.575  1.00  0.00     0.135 A 
ATOM     78  F   UNL A   1      37.856  34.382  29.619  1.00  0.00    -0.206 F 
ATOM     79  C   UNL A   1      35.581  34.893  29.363  1.00  0.00     0.059 A 
ATOM     80  C   UNL A   1      33.950  33.949  30.894  1.00  0.00     0.059 A 
ATOM     81  F   UNL A   1      34.663  32.562  32.644  1.00  0.00    -0.206 F 
ATOM     82  C   UNL A   1      34.262  34.752  29.797  1.00  0.00     0.060 A 
BRANCH  82  83
ATOM     83  S   UNL A   1      32.961  35.628  28.902  1.00  0.00     0.124 S 
ATOM     84  O   UNL A   1      32.371  34.547  28.118  1.00  0.00    -0.237 OA
ATOM     85  O   UNL A   1      32.133  36.149  29.985  1.00  0.00    -0.237 OA
ATOM     86  O   UNL A   1      33.692  36.632  28.136  1.00  0.00    -0.744 OA
ENDBRANCH  82  83
ENDBRANCH  61  75
BRANCH  62  87
ATOM     87  C   UNL A   1      43.810  28.487  35.578  1.00  0.00     0.058 A 
ATOM     88  C   UNL A   1      43.586  27.444  36.488  1.00  0.00     0.135 A 
ATOM     89  C   UNL A   1      45.140  28.821  35.280  1.00  0.00     0.135 A 
ATOM     90  F   UNL A   1      42.332  27.092  36.808  1.00  0.00    -0.206 F 
ATOM     91  C   UNL A   1      44.639  26.764  37.091  1.00  0.00     0.059 A 
ATOM     92  C   UNL A   1      46.210  28.141  35.853  1.00  0.00     0.059 A 
ATOM     93  F   UNL A   1      45.408  29.801  34.402  1.00  0.00    -0.206 F 
ATOM     94  C   UNL A   1      45.949  27.119  36.764  1.00  0.00     0.060 A 
BRANCH  94  95
ATOM     95  S   UNL A   1      47.310  26.193  37.509  1.00  0.00     0.124 S 
ATOM     96  O   UNL A   1      46.623  25.462  38.567  1.00  0.00    -0.237 OA
ATOM     97  O   UNL A   1      47.788  25.393  36.386  1.00  0.00    -0.237 OA
ATOM     98  O   UNL A   1      48.223  27.241  37.954  1.00  0.00    -0.744 OA
ENDBRANCH  94  95
ENDBRANCH  62  87
BRANCH  74  99
ATOM     99  C   UNL A   1      39.845  33.917  37.439  1.00  0.00     0.058 A 
ATOM    100  C   UNL A   1      40.500  35.156  37.479  1.00  0.00     0.135 A 
ATOM    101  C   UNL A   1      39.097  33.531  38.564  1.00  0.00     0.135 A 
ATOM    102  F   UNL A   1      41.235  35.566  36.433  1.00  0.00    -0.206 F 
ATOM    103  C   UNL A   1      40.426  35.981  38.598  1.00  0.00     0.059 A 
ATOM    104  C   UNL A   1      38.989  34.349  39.683  1.00  0.00     0.059 A 
ATOM    105  F   UNL A   1      38.446  32.357  38.573  1.00  0.00    -0.206 F 
ATOM    106  C   UNL A   1      39.663  35.570  39.693  1.00  0.00     0.060 A 
BRANCH 106 107
ATOM    107  S   UNL A   1      39.533  36.671  41.118  1.00  0.00     0.124 S 
ATOM    108  O   UNL A   1      38.980  37.875  40.511  1.00  0.00    -0.237 OA
ATOM    109  O   UNL A   1      38.633  35.934  42.001  1.00  0.00    -0.237 OA
ATOM    110  O   UNL A   1      40.910  36.780  41.589  1.00  0.00    -0.744 OA
ENDBRANCH 106 107
ENDBRANCH  74  99
ENDBRANCH  48  49
ENDBRANCH  40  43
ENDBRANCH  38  39
ENDBRANCH   1  38
TORSDOF 19
ENDMDL
MODEL 3
REMARK VINA RESULT:     -10.5      1.516      7.939
REMARK SMILES COc1ccc([C@H]2CC(c3ccc(S(C)(=O)=O)cc3)=NN2c2ccc(C(=O)NCCCNC(=O)c3ccc(-c4c5nc(c(-c6c(F)cc(S(=O)(=O)[O-])cc6F)c6ccc([nH]6)c(-c6c(F)cc(S(=O)(=O)[O-])cc6F)c6nc(c(-c7c(F)cc(S(=O)(=O)[O-])cc7F)c7ccc4[nH]7)C=C6)C=C5)cc3)cc2)cc1OC
REMARK SMILES IDX 30 1 29 2 28 3 26 4 27 5 25 7 22 8 23 9 102 10 24 11 101 12
REMARK SMILES IDX 21 13 7 14 8 15 9 16 20 17 6 18 3 19 4 20 104 21 5 22 103 23
REMARK SMILES IDX 2 24 1 25 105 26 106 27 10 28 11 29 19 30 12 31 18 32 13 33
REMARK SMILES IDX 14 34 15 35 16 36 17 37 31 38 32 39 33 40 34 42 35 43 36 44
REMARK SMILES IDX 100 45 37 46 99 47 38 48 39 49 40 50 93 51 41 52 98 53 92 54
REMARK SMILES IDX 94 55 42 56 97 57 91 58 90 59 43 61 77 62 56 63 76 64 57 65
REMARK SMILES IDX 60 66 75 67 95 68 58 69 59 70 74 72 96 73 61 74 44 75 45 76
REMARK SMILES IDX 54 77 46 78 47 79 53 80 55 81 48 82 49 83 50 84 51 85 52 86
REMARK SMILES IDX 78 87 79 88 88 89 80 90 81 91 87 92 89 93 82 94 83 95 84 96
REMARK SMILES IDX 85 97 86 98 62 99 63 100 72 101 64 102 65 103 71 104 73 105
REMARK SMILES IDX 66 106 67 107 68 108 69 109 70 110
REMARK H PARENT 28 6 32 41 94 60 60 71
REMARK Flexibility Score: inf
ROOT
ATOM      1  C   UNL A   1      40.675  21.562  27.344  1.00  0.00     0.042 C 
ENDROOT
BRANCH   1   2
ATOM      2  C   UNL A   1      42.185  21.372  27.479  1.00  0.00     0.118 C 
BRANCH   2   3
ATOM      3  N   UNL A   1      42.651  21.804  28.785  1.00  0.00    -0.352 N 
ATOM      4  C   UNL A   1      43.546  22.765  29.178  1.00  0.00     0.251 C 
ATOM      5  O   UNL A   1      43.693  22.936  30.389  1.00  0.00    -0.269 OA
ATOM      6  H   UNL A   1      42.246  21.310  29.533  1.00  0.00     0.163 HD
BRANCH   4   7
ATOM      7  C   UNL A   1      44.288  23.639  28.227  1.00  0.00     0.039 A 
ATOM      8  C   UNL A   1      45.711  25.444  26.573  1.00  0.00     0.060 A 
ATOM      9  C   UNL A   1      45.783  25.539  27.966  1.00  0.00     0.029 A 
ATOM     10  C   UNL A   1      44.966  24.401  26.021  1.00  0.00     0.029 A 
ATOM     11  C   UNL A   1      45.066  24.662  28.784  1.00  0.00     0.016 A 
ATOM     12  C   UNL A   1      44.293  23.483  26.839  1.00  0.00     0.016 A 
BRANCH   8  13
ATOM     13  N   UNL A   1      46.382  26.354  25.777  1.00  0.00    -0.257 N 
ATOM     14  C   UNL A   1      45.783  27.561  25.211  1.00  0.00     0.144 C 
ATOM     15  C   UNL A   1      46.882  28.064  24.265  1.00  0.00     0.091 C 
ATOM     16  C   UNL A   1      47.932  27.014  24.497  1.00  0.00     0.071 C 
ATOM     17  N   UNL A   1      47.632  26.076  25.335  1.00  0.00    -0.176 NA
BRANCH  14  18
ATOM     18  C   UNL A   1      45.439  28.572  26.296  1.00  0.00    -0.019 A 
ATOM     19  C   UNL A   1      44.812  30.398  28.356  1.00  0.00     0.160 A 
ATOM     20  C   UNL A   1      43.818  29.939  27.480  1.00  0.00     0.051 A 
ATOM     21  C   UNL A   1      46.127  29.939  28.221  1.00  0.00     0.161 A 
ATOM     22  C   UNL A   1      44.129  29.041  26.453  1.00  0.00     0.010 A 
ATOM     23  C   UNL A   1      46.421  29.035  27.191  1.00  0.00     0.056 A 
BRANCH  19  24
ATOM     24  O   UNL A   1      44.442  31.200  29.402  1.00  0.00    -0.493 OA
ATOM     25  C   UNL A   1      43.023  31.292  29.529  1.00  0.00     0.278 C 
ENDBRANCH  19  24
BRANCH  21  26
ATOM     26  O   UNL A   1      47.221  30.239  28.986  1.00  0.00    -0.493 OA
ATOM     27  C   UNL A   1      47.600  29.333  30.009  1.00  0.00     0.278 C 
ENDBRANCH  21  26
ENDBRANCH  14  18
BRANCH  16  28
ATOM     28  C   UNL A   1      49.200  27.043  23.766  1.00  0.00    -0.002 A 
ATOM     29  C   UNL A   1      49.174  27.238  22.381  1.00  0.00     0.011 A 
ATOM     30  C   UNL A   1      50.403  26.852  24.448  1.00  0.00     0.011 A 
ATOM     31  C   UNL A   1      50.372  27.263  21.668  1.00  0.00     0.021 A 
ATOM     32  C   UNL A   1      51.600  26.852  23.732  1.00  0.00     0.021 A 
ATOM     33  C   UNL A   1      51.579  27.056  22.346  1.00  0.00     0.067 A 
BRANCH  33  34
ATOM     34  S   UNL A   1      53.104  27.068  21.433  1.00  0.00     0.175 S 
ATOM     35  C   UNL A   1      53.291  28.752  20.908  1.00  0.00     0.163 C 
ATOM     36  O   UNL A   1      54.162  26.760  22.381  1.00  0.00    -0.224 OA
ATOM     37  O   UNL A   1      52.913  26.260  20.246  1.00  0.00    -0.224 OA
ENDBRANCH  33  34
ENDBRANCH  16  28
ENDBRANCH   8  13
ENDBRANCH   4   7
ENDBRANCH   2   3
ENDBRANCH   1   2
BRANCH   1  38
ATOM     38  C   UNL A   1      40.238  23.019  27.478  1.00  0.00     0.118 C 
BRANCH  38  39
ATOM     39  N   UNL A   1      40.799  23.852  26.423  1.00  0.00    -0.352 N 
ATOM     40  C   UNL A   1      40.992  25.210  26.386  1.00  0.00     0.251 C 
ATOM     41  H   UNL A   1      41.082  23.367  25.614  1.00  0.00     0.163 HD
ATOM     42  O   UNL A   1      41.257  25.753  25.316  1.00  0.00    -0.269 OA
BRANCH  40  43
ATOM     43  C   UNL A   1      40.873  26.019  27.618  1.00  0.00     0.039 A 
ATOM     44  C   UNL A   1      41.986  26.734  28.067  1.00  0.00     0.014 A 
ATOM     45  C   UNL A   1      39.682  26.045  28.350  1.00  0.00     0.014 A 
ATOM     46  C   UNL A   1      41.888  27.526  29.215  1.00  0.00     0.010 A 
ATOM     47  C   UNL A   1      39.567  26.882  29.458  1.00  0.00     0.010 A 
ATOM     48  C   UNL A   1      40.667  27.631  29.900  1.00  0.00    -0.014 A 
BRANCH  48  49
ATOM     49  C   UNL A   1      40.512  28.532  31.071  1.00  0.00     0.031 A 
ATOM     50  C   UNL A   1      39.494  29.640  31.043  1.00  0.00     0.074 A 
ATOM     51  C   UNL A   1      41.345  28.402  32.122  1.00  0.00     0.049 A 
ATOM     52  N   UNL A   1      39.285  30.591  31.916  1.00  0.00    -0.248 NA
ATOM     53  C   UNL A   1      38.611  29.700  29.866  1.00  0.00     0.031 C 
ATOM     54  C   UNL A   1      42.397  27.391  32.247  1.00  0.00     0.029 A 
ATOM     55  N   UNL A   1      41.452  29.135  33.278  1.00  0.00    -0.354 N 
ATOM     56  C   UNL A   1      38.264  31.373  31.390  1.00  0.00     0.074 A 
ATOM     57  C   UNL A   1      37.922  30.808  30.102  1.00  0.00     0.031 C 
ATOM     58  C   UNL A   1      43.034  27.560  33.416  1.00  0.00     0.029 A 
ATOM     59  C   UNL A   1      42.466  28.714  34.105  1.00  0.00     0.049 A 
ATOM     60  H   UNL A   1      40.858  29.890  33.493  1.00  0.00     0.167 HD
ATOM     61  C   UNL A   1      37.658  32.453  31.938  1.00  0.00     0.037 A 
ATOM     62  C   UNL A   1      42.900  29.212  35.280  1.00  0.00     0.037 A 
ATOM     63  C   UNL A   1      37.987  32.992  33.232  1.00  0.00     0.049 A 
ATOM     64  C   UNL A   1      42.217  30.418  35.863  1.00  0.00     0.074 A 
ATOM     65  C   UNL A   1      37.387  34.043  33.904  1.00  0.00     0.029 A 
ATOM     66  N   UNL A   1      39.008  32.527  34.048  1.00  0.00    -0.354 N 
ATOM     67  N   UNL A   1      41.212  31.109  35.380  1.00  0.00    -0.248 NA
ATOM     68  C   UNL A   1      42.723  30.911  37.152  1.00  0.00     0.031 C 
ATOM     69  C   UNL A   1      38.071  34.240  35.109  1.00  0.00     0.029 A 
ATOM     70  C   UNL A   1      39.069  33.284  35.207  1.00  0.00     0.049 A 
ATOM     71  H   UNL A   1      39.601  31.772  33.836  1.00  0.00     0.167 HD
ATOM     72  C   UNL A   1      40.951  32.104  36.314  1.00  0.00     0.074 A 
ATOM     73  C   UNL A   1      41.896  31.920  37.396  1.00  0.00     0.031 C 
ATOM     74  C   UNL A   1      40.013  33.083  36.278  1.00  0.00     0.037 A 
BRANCH  61  75
ATOM     75  C   UNL A   1      36.574  33.125  31.141  1.00  0.00     0.058 A 
ATOM     76  C   UNL A   1      35.219  33.005  31.492  1.00  0.00     0.135 A 
ATOM     77  C   UNL A   1      36.894  33.928  30.033  1.00  0.00     0.135 A 
ATOM     78  F   UNL A   1      34.856  32.240  32.534  1.00  0.00    -0.206 F 
ATOM     79  C   UNL A   1      34.219  33.633  30.757  1.00  0.00     0.059 A 
ATOM     80  C   UNL A   1      35.912  34.586  29.300  1.00  0.00     0.059 A 
ATOM     81  F   UNL A   1      38.173  34.078  29.655  1.00  0.00    -0.206 F 
ATOM     82  C   UNL A   1      34.575  34.421  29.661  1.00  0.00     0.060 A 
BRANCH  82  83
ATOM     83  S   UNL A   1      33.265  35.231  28.719  1.00  0.00     0.124 S 
ATOM     84  O   UNL A   1      32.464  35.823  29.786  1.00  0.00    -0.237 OA
ATOM     85  O   UNL A   1      34.011  36.172  27.891  1.00  0.00    -0.237 OA
ATOM     86  O   UNL A   1      32.634  34.129  27.998  1.00  0.00    -0.744 OA
ENDBRANCH  82  83
ENDBRANCH  61  75
BRANCH  62  87
ATOM     87  C   UNL A   1      44.034  28.560  35.986  1.00  0.00     0.058 A 
ATOM     88  C   UNL A   1      43.816  27.473  36.844  1.00  0.00     0.135 A 
ATOM     89  C   UNL A   1      45.356  28.994  35.802  1.00  0.00     0.135 A 
ATOM     90  F   UNL A   1      42.569  27.027  37.056  1.00  0.00    -0.206 F 
ATOM     91  C   UNL A   1      44.866  26.844  37.505  1.00  0.00     0.059 A 
ATOM     92  C   UNL A   1      46.426  28.367  36.434  1.00  0.00     0.059 A 
ATOM     93  F   UNL A   1      45.620  30.020  34.978  1.00  0.00    -0.206 F 
ATOM     94  C   UNL A   1      46.169  27.298  37.292  1.00  0.00     0.060 A 
BRANCH  94  95
ATOM     95  S   UNL A   1      47.531  26.440  38.111  1.00  0.00     0.124 S 
ATOM     96  O   UNL A   1      48.657  27.310  37.798  1.00  0.00    -0.237 OA
ATOM     97  O   UNL A   1      47.097  26.433  39.504  1.00  0.00    -0.237 OA
ATOM     98  O   UNL A   1      47.541  25.133  37.461  1.00  0.00    -0.744 OA
ENDBRANCH  94  95
ENDBRANCH  62  87
BRANCH  74  99
ATOM     99  C   UNL A   1      39.940  34.015  37.455  1.00  0.00     0.058 A 
ATOM    100  C   UNL A   1      40.611  35.246  37.460  1.00  0.00     0.135 A 
ATOM    101  C   UNL A   1      39.135  33.700  38.562  1.00  0.00     0.135 A 
ATOM    102  F   UNL A   1      41.401  35.589  36.429  1.00  0.00    -0.206 F 
ATOM    103  C   UNL A   1      40.499  36.130  38.528  1.00  0.00     0.059 A 
ATOM    104  C   UNL A   1      38.988  34.578  39.630  1.00  0.00     0.059 A 
ATOM    105  F   UNL A   1      38.467  32.537  38.602  1.00  0.00    -0.206 F 
ATOM    106  C   UNL A   1      39.680  35.789  39.607  1.00  0.00     0.060 A 
BRANCH 106 107
ATOM    107  S   UNL A   1      39.502  36.966  40.964  1.00  0.00     0.124 S 
ATOM    108  O   UNL A   1      40.892  37.190  41.345  1.00  0.00    -0.237 OA
ATOM    109  O   UNL A   1      38.832  38.091  40.317  1.00  0.00    -0.237 OA
ATOM    110  O   UNL A   1      38.692  36.241  41.938  1.00  0.00    -0.744 OA
ENDBRANCH 106 107
ENDBRANCH  74  99
ENDBRANCH  48  49
ENDBRANCH  40  43
ENDBRANCH  38  39
ENDBRANCH   1  38
TORSDOF 19
ENDMDL
