MODEL 1
REMARK VINA RESULT:     -12.6      0.000      0.000
REMARK SMILES O=C(NCCCNC(=O)c1cccc(Nc2ccnc3ccc(Cl)cc23)c1)c1ccc(-c2c3nc(c(-c4c(F)cc(S(=O)(=O)[O-])cc4F)c4ccc([nH]4)c(-c4c(F)cc(S(=O)(=O)[O-])cc4F)c4nc(c(-c5c(F)cc(S(=O)(=O)[O-])cc5F)c5ccc2[nH]5)C=C4)C=C3)cc1
REMARK SMILES IDX 4 1 3 2 1 3 2 4 28 6 29 7 93 8 30 9 92 10 31 11 32 12 33 13
REMARK SMILES IDX 86 14 34 15 91 16 85 17 87 18 35 19 90 20 84 21 83 22 36 24
REMARK SMILES IDX 70 25 49 26 69 27 50 28 53 29 68 30 88 31 51 32 52 33 67 35
REMARK SMILES IDX 89 36 54 37 37 38 38 39 47 40 39 41 40 42 46 43 48 44 41 45
REMARK SMILES IDX 42 46 43 47 44 48 45 49 71 50 72 51 81 52 73 53 74 54 80 55
REMARK SMILES IDX 82 56 75 57 76 58 77 59 78 60 79 61 55 62 56 63 65 64 57 65
REMARK SMILES IDX 58 66 64 67 66 68 59 69 60 70 61 71 62 72 63 73 5 74 6 75
REMARK SMILES IDX 7 76 8 77 9 79 10 80 11 81 27 82 12 83 14 84 13 85 15 86
REMARK SMILES IDX 16 88 17 89 26 90 18 91 20 92 25 93 19 94 21 95 23 96 22 97
REMARK SMILES IDX 24 98
REMARK H PARENT 3 5 87 23 53 34 7 78 15 87
REMARK Flexibility Score: inf
ROOT
ATOM      1  C   UNL A   1      35.285  29.977  27.687  1.00  0.00     0.118 C 
ENDROOT
BRANCH   1   2
ATOM      2  N   UNL A   1      35.333  30.221  29.124  1.00  0.00    -0.352 N 
ATOM      3  O   UNL A   1      36.080  30.157  31.239  1.00  0.00    -0.269 OA
ATOM      4  C   UNL A   1      36.342  30.048  30.040  1.00  0.00     0.251 C 
ATOM      5  H   UNL A   1      34.495  30.570  29.504  1.00  0.00     0.163 HD
BRANCH   4   6
ATOM      6  C   UNL A   1      37.720  29.715  29.618  1.00  0.00     0.039 A 
ATOM      7  C   UNL A   1      38.110  29.808  28.283  1.00  0.00     0.014 A 
ATOM      8  C   UNL A   1      38.663  29.355  30.588  1.00  0.00     0.014 A 
ATOM      9  C   UNL A   1      39.380  29.390  27.896  1.00  0.00     0.010 A 
ATOM     10  C   UNL A   1      39.972  29.028  30.210  1.00  0.00     0.010 A 
ATOM     11  C   UNL A   1      40.333  29.011  28.854  1.00  0.00    -0.014 A 
BRANCH  11  12
ATOM     12  C   UNL A   1      41.713  28.669  28.417  1.00  0.00     0.031 A 
ATOM     13  C   UNL A   1      42.805  29.704  28.401  1.00  0.00     0.074 A 
ATOM     14  C   UNL A   1      41.983  27.397  28.060  1.00  0.00     0.049 A 
ATOM     15  N   UNL A   1      44.064  29.567  28.066  1.00  0.00    -0.248 NA
ATOM     16  C   UNL A   1      42.441  31.070  28.807  1.00  0.00     0.031 C 
ATOM     17  C   UNL A   1      41.004  26.308  28.028  1.00  0.00     0.029 A 
ATOM     18  N   UNL A   1      43.156  26.797  27.678  1.00  0.00    -0.354 N 
ATOM     19  C   UNL A   1      44.640  30.825  28.211  1.00  0.00     0.074 A 
ATOM     20  C   UNL A   1      43.584  31.722  28.632  1.00  0.00     0.031 C 
ATOM     21  C   UNL A   1      41.625  25.167  27.695  1.00  0.00     0.029 A 
ATOM     22  C   UNL A   1      43.028  25.452  27.423  1.00  0.00     0.049 A 
ATOM     23  H   UNL A   1      44.008  27.284  27.593  1.00  0.00     0.167 HD
ATOM     24  C   UNL A   1      45.931  31.192  28.020  1.00  0.00     0.037 A 
ATOM     25  C   UNL A   1      43.932  24.549  27.000  1.00  0.00     0.037 A 
ATOM     26  C   UNL A   1      46.976  30.289  27.605  1.00  0.00     0.049 A 
ATOM     27  C   UNL A   1      45.345  24.992  26.754  1.00  0.00     0.074 A 
ATOM     28  C   UNL A   1      48.319  30.561  27.405  1.00  0.00     0.029 A 
ATOM     29  N   UNL A   1      46.797  28.942  27.320  1.00  0.00    -0.354 N 
ATOM     30  N   UNL A   1      45.875  26.181  26.921  1.00  0.00    -0.248 NA
ATOM     31  C   UNL A   1      46.283  23.976  26.261  1.00  0.00     0.031 C 
ATOM     32  C   UNL A   1      48.942  29.394  26.951  1.00  0.00     0.029 A 
ATOM     33  C   UNL A   1      48.000  28.376  26.923  1.00  0.00     0.049 A 
ATOM     34  H   UNL A   1      45.943  28.459  27.389  1.00  0.00     0.167 HD
ATOM     35  C   UNL A   1      47.215  26.050  26.572  1.00  0.00     0.074 A 
ATOM     36  C   UNL A   1      47.415  24.664  26.203  1.00  0.00     0.031 C 
ATOM     37  C   UNL A   1      48.188  26.994  26.560  1.00  0.00     0.037 A 
BRANCH  24  38
ATOM     38  C   UNL A   1      46.292  32.637  28.244  1.00  0.00     0.058 A 
ATOM     39  C   UNL A   1      46.761  33.099  29.484  1.00  0.00     0.135 A 
ATOM     40  C   UNL A   1      46.219  33.564  27.189  1.00  0.00     0.135 A 
ATOM     41  F   UNL A   1      46.840  32.263  30.531  1.00  0.00    -0.206 F 
ATOM     42  C   UNL A   1      47.119  34.431  29.678  1.00  0.00     0.059 A 
ATOM     43  C   UNL A   1      46.598  34.894  27.354  1.00  0.00     0.059 A 
ATOM     44  F   UNL A   1      45.780  33.178  25.981  1.00  0.00    -0.206 F 
ATOM     45  C   UNL A   1      47.034  35.321  28.606  1.00  0.00     0.060 A 
BRANCH  45  46
ATOM     46  S   UNL A   1      47.506  37.042  28.876  1.00  0.00     0.124 S 
ATOM     47  O   UNL A   1      48.599  36.897  29.832  1.00  0.00    -0.237 OA
ATOM     48  O   UNL A   1      47.889  37.475  27.537  1.00  0.00    -0.237 OA
ATOM     49  O   UNL A   1      46.289  37.651  29.404  1.00  0.00    -0.744 OA
ENDBRANCH  45  46
ENDBRANCH  24  38
BRANCH  25  50
ATOM     50  C   UNL A   1      43.517  23.138  26.778  1.00  0.00     0.058 A 
ATOM     51  C   UNL A   1      43.406  22.611  25.483  1.00  0.00     0.135 A 
ATOM     52  C   UNL A   1      43.248  22.281  27.857  1.00  0.00     0.135 A 
ATOM     53  F   UNL A   1      43.647  23.392  24.419  1.00  0.00    -0.206 F 
ATOM     54  C   UNL A   1      43.031  21.289  25.264  1.00  0.00     0.059 A 
ATOM     55  C   UNL A   1      42.903  20.949  27.666  1.00  0.00     0.059 A 
ATOM     56  F   UNL A   1      43.358  22.732  29.117  1.00  0.00    -0.206 F 
ATOM     57  C   UNL A   1      42.786  20.465  26.364  1.00  0.00     0.060 A 
BRANCH  57  58
ATOM     58  S   UNL A   1      42.350  18.737  26.071  1.00  0.00     0.124 S 
ATOM     59  O   UNL A   1      43.287  18.374  25.013  1.00  0.00    -0.237 OA
ATOM     60  O   UNL A   1      42.596  18.134  27.378  1.00  0.00    -0.237 OA
ATOM     61  O   UNL A   1      40.947  18.808  25.675  1.00  0.00    -0.744 OA
ENDBRANCH  57  58
ENDBRANCH  25  50
BRANCH  37  62
ATOM     62  C   UNL A   1      49.570  26.551  26.164  1.00  0.00     0.058 A 
ATOM     63  C   UNL A   1      50.069  26.756  24.869  1.00  0.00     0.135 A 
ATOM     64  C   UNL A   1      50.420  25.952  27.107  1.00  0.00     0.135 A 
ATOM     65  F   UNL A   1      49.294  27.317  23.925  1.00  0.00    -0.206 F 
ATOM     66  C   UNL A   1      51.355  26.360  24.514  1.00  0.00     0.059 A 
ATOM     67  C   UNL A   1      51.719  25.574  26.783  1.00  0.00     0.059 A 
ATOM     68  F   UNL A   1      49.995  25.740  28.363  1.00  0.00    -0.206 F 
ATOM     69  C   UNL A   1      52.174  25.771  25.480  1.00  0.00     0.060 A 
BRANCH  69  70
ATOM     70  S   UNL A   1      53.850  25.291  25.016  1.00  0.00     0.124 S 
ATOM     71  O   UNL A   1      54.010  25.976  23.738  1.00  0.00    -0.237 OA
ATOM     72  O   UNL A   1      54.644  25.819  26.122  1.00  0.00    -0.237 OA
ATOM     73  O   UNL A   1      53.779  23.835  24.944  1.00  0.00    -0.744 OA
ENDBRANCH  69  70
ENDBRANCH  37  62
ENDBRANCH  11  12
ENDBRANCH   4   6
ENDBRANCH   1   2
BRANCH   1  74
ATOM     74  C   UNL A   1      34.099  29.119  27.260  1.00  0.00     0.042 C 
BRANCH  74  75
ATOM     75  C   UNL A   1      33.229  29.740  26.176  1.00  0.00     0.118 C 
BRANCH  75  76
ATOM     76  N   UNL A   1      33.614  29.344  24.833  1.00  0.00    -0.352 N 
ATOM     77  C   UNL A   1      33.395  28.208  24.103  1.00  0.00     0.251 C 
ATOM     78  H   UNL A   1      34.135  30.029  24.353  1.00  0.00     0.163 HD
ATOM     79  O   UNL A   1      33.938  28.112  23.003  1.00  0.00    -0.269 OA
BRANCH  77  80
ATOM     80  C   UNL A   1      32.551  27.085  24.579  1.00  0.00     0.041 A 
ATOM     81  C   UNL A   1      31.164  27.290  24.580  1.00  0.00     0.014 A 
ATOM     82  C   UNL A   1      33.075  25.934  25.181  1.00  0.00     0.039 A 
ATOM     83  C   UNL A   1      30.307  26.345  25.140  1.00  0.00     0.003 A 
ATOM     84  C   UNL A   1      32.217  24.979  25.748  1.00  0.00     0.039 A 
ATOM     85  C   UNL A   1      30.834  25.198  25.724  1.00  0.00     0.026 A 
BRANCH  84  86
ATOM     86  N   UNL A   1      32.726  23.940  26.569  1.00  0.00    -0.355 N 
ATOM     87  H   UNL A   1      32.766  24.057  27.546  1.00  0.00     0.167 HD
BRANCH  86  88
ATOM     88  C   UNL A   1      33.178  22.727  25.975  1.00  0.00     0.050 A 
ATOM     89  C   UNL A   1      32.225  21.757  25.651  1.00  0.00     0.047 A 
ATOM     90  C   UNL A   1      34.545  22.470  25.725  1.00  0.00     0.025 A 
ATOM     91  C   UNL A   1      32.641  20.616  25.005  1.00  0.00     0.114 A 
ATOM     92  C   UNL A   1      34.857  21.236  25.108  1.00  0.00     0.072 A 
ATOM     93  C   UNL A   1      35.596  23.367  26.035  1.00  0.00     0.033 A 
ATOM     94  N   UNL A   1      33.930  20.341  24.735  1.00  0.00    -0.256 NA
ATOM     95  C   UNL A   1      36.185  20.916  24.872  1.00  0.00     0.030 A 
ATOM     96  C   UNL A   1      36.921  23.017  25.781  1.00  0.00     0.041 A 
ATOM     97  C   UNL A   1      37.221  21.784  25.216  1.00  0.00     0.023 A 
ATOM     98  Cl  UNL A   1      38.196  24.104  26.167  1.00  0.00    -0.084 Cl
ENDBRANCH  86  88
ENDBRANCH  84  86
ENDBRANCH  77  80
ENDBRANCH  75  76
ENDBRANCH  74  75
ENDBRANCH   1  74
TORSDOF 15
ENDMDL
MODEL 2
REMARK VINA RESULT:     -12.6      6.669     12.126
REMARK SMILES O=C(NCCCNC(=O)c1cccc(Nc2ccnc3ccc(Cl)cc23)c1)c1ccc(-c2c3nc(c(-c4c(F)cc(S(=O)(=O)[O-])cc4F)c4ccc([nH]4)c(-c4c(F)cc(S(=O)(=O)[O-])cc4F)c4nc(c(-c5c(F)cc(S(=O)(=O)[O-])cc5F)c5ccc2[nH]5)C=C4)C=C3)cc1
REMARK SMILES IDX 4 1 3 2 1 3 2 4 28 6 29 7 93 8 30 9 92 10 31 11 32 12 33 13
REMARK SMILES IDX 86 14 34 15 91 16 85 17 87 18 35 19 90 20 84 21 83 22 36 24
REMARK SMILES IDX 70 25 49 26 69 27 50 28 53 29 68 30 88 31 51 32 52 33 67 35
REMARK SMILES IDX 89 36 54 37 37 38 38 39 47 40 39 41 40 42 46 43 48 44 41 45
REMARK SMILES IDX 42 46 43 47 44 48 45 49 71 50 72 51 81 52 73 53 74 54 80 55
REMARK SMILES IDX 82 56 75 57 76 58 77 59 78 60 79 61 55 62 56 63 65 64 57 65
REMARK SMILES IDX 58 66 64 67 66 68 59 69 60 70 61 71 62 72 63 73 5 74 6 75
REMARK SMILES IDX 7 76 8 77 9 79 10 80 11 81 27 82 12 83 14 84 13 85 15 86
REMARK SMILES IDX 16 88 17 89 26 90 18 91 20 92 25 93 19 94 21 95 23 96 22 97
REMARK SMILES IDX 24 98
REMARK H PARENT 3 5 87 23 53 34 7 78 15 87
REMARK Flexibility Score: inf
ROOT
ATOM      1  C   UNL A   1      40.370  23.136  27.030  1.00  0.00     0.118 C 
ENDROOT
BRANCH   1   2
ATOM      2  N   UNL A   1      41.170  23.886  26.069  1.00  0.00    -0.352 N 
ATOM      3  O   UNL A   1      42.095  25.648  25.031  1.00  0.00    -0.269 OA
ATOM      4  C   UNL A   1      41.568  25.201  26.051  1.00  0.00     0.251 C 
ATOM      5  H   UNL A   1      41.479  23.358  25.299  1.00  0.00     0.163 HD
BRANCH   4   6
ATOM      6  C   UNL A   1      41.356  26.088  27.217  1.00  0.00     0.039 A 
ATOM      7  C   UNL A   1      42.197  27.172  27.462  1.00  0.00     0.014 A 
ATOM      8  C   UNL A   1      40.256  25.864  28.054  1.00  0.00     0.014 A 
ATOM      9  C   UNL A   1      42.041  27.927  28.621  1.00  0.00     0.010 A 
ATOM     10  C   UNL A   1      40.042  26.686  29.167  1.00  0.00     0.010 A 
ATOM     11  C   UNL A   1      40.953  27.706  29.480  1.00  0.00    -0.014 A 
BRANCH  11  12
ATOM     12  C   UNL A   1      40.755  28.599  30.654  1.00  0.00     0.031 A 
ATOM     13  C   UNL A   1      41.629  28.489  31.874  1.00  0.00     0.074 A 
ATOM     14  C   UNL A   1      39.791  29.540  30.597  1.00  0.00     0.049 A 
ATOM     15  N   UNL A   1      41.601  29.201  32.973  1.00  0.00    -0.248 NA
ATOM     16  C   UNL A   1      42.663  27.444  31.866  1.00  0.00     0.031 C 
ATOM     17  C   UNL A   1      38.875  29.737  29.470  1.00  0.00     0.029 A 
ATOM     18  N   UNL A   1      39.430  30.517  31.489  1.00  0.00    -0.354 N 
ATOM     19  C   UNL A   1      42.604  28.688  33.789  1.00  0.00     0.074 A 
ATOM     20  C   UNL A   1      43.200  27.580  33.072  1.00  0.00     0.031 C 
ATOM     21  C   UNL A   1      38.094  30.798  29.717  1.00  0.00     0.029 A 
ATOM     22  C   UNL A   1      38.402  31.314  31.045  1.00  0.00     0.049 A 
ATOM     23  H   UNL A   1      39.865  30.635  32.365  1.00  0.00     0.167 HD
ATOM     24  C   UNL A   1      42.994  29.110  35.017  1.00  0.00     0.037 A 
ATOM     25  C   UNL A   1      37.762  32.337  31.643  1.00  0.00     0.037 A 
ATOM     26  C   UNL A   1      42.396  30.218  35.720  1.00  0.00     0.049 A 
ATOM     27  C   UNL A   1      38.187  32.755  33.022  1.00  0.00     0.074 A 
ATOM     28  C   UNL A   1      42.737  30.736  36.958  1.00  0.00     0.029 A 
ATOM     29  N   UNL A   1      41.331  30.976  35.252  1.00  0.00    -0.354 N 
ATOM     30  N   UNL A   1      39.153  32.273  33.766  1.00  0.00    -0.248 NA
ATOM     31  C   UNL A   1      37.435  33.853  33.643  1.00  0.00     0.031 C 
ATOM     32  C   UNL A   1      41.847  31.772  37.262  1.00  0.00     0.029 A 
ATOM     33  C   UNL A   1      40.988  31.941  36.187  1.00  0.00     0.049 A 
ATOM     34  H   UNL A   1      40.886  30.848  34.384  1.00  0.00     0.167 HD
ATOM     35  C   UNL A   1      39.139  33.023  34.937  1.00  0.00     0.074 A 
ATOM     36  C   UNL A   1      38.080  34.000  34.792  1.00  0.00     0.031 C 
ATOM     37  C   UNL A   1      39.932  32.910  36.031  1.00  0.00     0.037 A 
BRANCH  24  38
ATOM     38  C   UNL A   1      44.116  28.365  35.692  1.00  0.00     0.058 A 
ATOM     39  C   UNL A   1      45.462  28.713  35.491  1.00  0.00     0.135 A 
ATOM     40  C   UNL A   1      43.840  27.324  36.595  1.00  0.00     0.135 A 
ATOM     41  F   UNL A   1      45.786  29.691  34.631  1.00  0.00    -0.206 F 
ATOM     42  C   UNL A   1      46.493  28.039  36.140  1.00  0.00     0.059 A 
ATOM     43  C   UNL A   1      44.855  26.655  37.275  1.00  0.00     0.059 A 
ATOM     44  F   UNL A   1      42.573  26.950  36.828  1.00  0.00    -0.206 F 
ATOM     45  C   UNL A   1      46.179  27.010  37.030  1.00  0.00     0.060 A 
BRANCH  45  46
ATOM     46  S   UNL A   1      47.530  26.150  37.864  1.00  0.00     0.124 S 
ATOM     47  O   UNL A   1      47.003  26.027  39.219  1.00  0.00    -0.237 OA
ATOM     48  O   UNL A   1      47.624  24.907  37.105  1.00  0.00    -0.237 OA
ATOM     49  O   UNL A   1      48.660  27.061  37.712  1.00  0.00    -0.744 OA
ENDBRANCH  45  46
ENDBRANCH  24  38
BRANCH  25  50
ATOM     50  C   UNL A   1      36.649  33.026  30.937  1.00  0.00     0.058 A 
ATOM     51  C   UNL A   1      35.313  32.806  31.303  1.00  0.00     0.135 A 
ATOM     52  C   UNL A   1      36.901  33.937  29.899  1.00  0.00     0.135 A 
ATOM     53  F   UNL A   1      35.022  31.940  32.285  1.00  0.00    -0.206 F 
ATOM     54  C   UNL A   1      34.266  33.455  30.658  1.00  0.00     0.059 A 
ATOM     55  C   UNL A   1      35.874  34.622  29.260  1.00  0.00     0.059 A 
ATOM     56  F   UNL A   1      38.164  34.196  29.523  1.00  0.00    -0.206 F 
ATOM     57  C   UNL A   1      34.558  34.365  29.640  1.00  0.00     0.060 A 
BRANCH  57  58
ATOM     58  S   UNL A   1      33.193  35.240  28.844  1.00  0.00     0.124 S 
ATOM     59  O   UNL A   1      32.413  35.675  29.996  1.00  0.00    -0.237 OA
ATOM     60  O   UNL A   1      33.892  36.292  28.111  1.00  0.00    -0.237 OA
ATOM     61  O   UNL A   1      32.575  34.212  28.013  1.00  0.00    -0.744 OA
ENDBRANCH  57  58
ENDBRANCH  25  50
BRANCH  37  62
ATOM     62  C   UNL A   1      39.706  33.892  37.148  1.00  0.00     0.058 A 
ATOM     63  C   UNL A   1      38.927  33.569  38.269  1.00  0.00     0.135 A 
ATOM     64  C   UNL A   1      40.312  35.157  37.113  1.00  0.00     0.135 A 
ATOM     65  F   UNL A   1      38.317  32.375  38.349  1.00  0.00    -0.206 F 
ATOM     66  C   UNL A   1      38.737  34.476  39.307  1.00  0.00     0.059 A 
ATOM     67  C   UNL A   1      40.160  36.070  38.153  1.00  0.00     0.059 A 
ATOM     68  F   UNL A   1      41.075  35.515  36.067  1.00  0.00    -0.206 F 
ATOM     69  C   UNL A   1      39.360  35.724  39.241  1.00  0.00     0.060 A 
BRANCH  69  70
ATOM     70  S   UNL A   1      39.130  36.879  40.609  1.00  0.00     0.124 S 
ATOM     71  O   UNL A   1      38.439  36.045  41.586  1.00  0.00    -0.237 OA
ATOM     72  O   UNL A   1      40.504  37.242  40.944  1.00  0.00    -0.237 OA
ATOM     73  O   UNL A   1      38.332  37.949  40.020  1.00  0.00    -0.744 OA
ENDBRANCH  69  70
ENDBRANCH  37  62
ENDBRANCH  11  12
ENDBRANCH   4   6
ENDBRANCH   1   2
BRANCH   1  74
ATOM     74  C   UNL A   1      39.174  22.431  26.397  1.00  0.00     0.042 C 
BRANCH  74  75
ATOM     75  C   UNL A   1      37.988  23.341  26.106  1.00  0.00     0.118 C 
BRANCH  75  76
ATOM     76  N   UNL A   1      37.646  23.407  24.697  1.00  0.00    -0.352 N 
ATOM     77  C   UNL A   1      36.480  23.189  24.014  1.00  0.00     0.251 C 
ATOM     78  H   UNL A   1      38.403  23.658  24.117  1.00  0.00     0.163 HD
ATOM     79  O   UNL A   1      36.514  23.222  22.784  1.00  0.00    -0.269 OA
BRANCH  77  80
ATOM     80  C   UNL A   1      35.188  22.900  24.682  1.00  0.00     0.041 A 
ATOM     81  C   UNL A   1      34.549  21.701  24.336  1.00  0.00     0.014 A 
ATOM     82  C   UNL A   1      34.512  23.832  25.479  1.00  0.00     0.039 A 
ATOM     83  C   UNL A   1      33.269  21.416  24.806  1.00  0.00     0.003 A 
ATOM     84  C   UNL A   1      33.222  23.552  25.956  1.00  0.00     0.039 A 
ATOM     85  C   UNL A   1      32.610  22.341  25.609  1.00  0.00     0.026 A 
BRANCH  84  86
ATOM     86  N   UNL A   1      32.430  24.567  26.553  1.00  0.00    -0.355 N 
ATOM     87  H   UNL A   1      32.307  24.587  27.529  1.00  0.00     0.167 HD
BRANCH  86  88
ATOM     88  C   UNL A   1      31.817  25.558  25.735  1.00  0.00     0.050 A 
ATOM     89  C   UNL A   1      30.753  25.170  24.914  1.00  0.00     0.047 A 
ATOM     90  C   UNL A   1      32.258  26.900  25.712  1.00  0.00     0.025 A 
ATOM     91  C   UNL A   1      30.103  26.133  24.180  1.00  0.00     0.114 A 
ATOM     92  C   UNL A   1      31.545  27.789  24.873  1.00  0.00     0.072 A 
ATOM     93  C   UNL A   1      33.338  27.399  26.479  1.00  0.00     0.033 A 
ATOM     94  N   UNL A   1      30.481  27.423  24.143  1.00  0.00    -0.256 NA
ATOM     95  C   UNL A   1      31.957  29.110  24.785  1.00  0.00     0.030 A 
ATOM     96  C   UNL A   1      33.725  28.734  26.371  1.00  0.00     0.041 A 
ATOM     97  C   UNL A   1      33.048  29.589  25.511  1.00  0.00     0.023 A 
ATOM     98  Cl  UNL A   1      35.044  29.335  27.297  1.00  0.00    -0.084 Cl
ENDBRANCH  86  88
ENDBRANCH  84  86
ENDBRANCH  77  80
ENDBRANCH  75  76
ENDBRANCH  74  75
ENDBRANCH   1  74
TORSDOF 15
ENDMDL
MODEL 3
REMARK VINA RESULT:     -12.6      3.946      6.512
REMARK SMILES O=C(NCCCNC(=O)c1cccc(Nc2ccnc3ccc(Cl)cc23)c1)c1ccc(-c2c3nc(c(-c4c(F)cc(S(=O)(=O)[O-])cc4F)c4ccc([nH]4)c(-c4c(F)cc(S(=O)(=O)[O-])cc4F)c4nc(c(-c5c(F)cc(S(=O)(=O)[O-])cc5F)c5ccc2[nH]5)C=C4)C=C3)cc1
REMARK SMILES IDX 4 1 3 2 1 3 2 4 28 6 29 7 93 8 30 9 92 10 31 11 32 12 33 13
REMARK SMILES IDX 86 14 34 15 91 16 85 17 87 18 35 19 90 20 84 21 83 22 36 24
REMARK SMILES IDX 70 25 49 26 69 27 50 28 53 29 68 30 88 31 51 32 52 33 67 35
REMARK SMILES IDX 89 36 54 37 37 38 38 39 47 40 39 41 40 42 46 43 48 44 41 45
REMARK SMILES IDX 42 46 43 47 44 48 45 49 71 50 72 51 81 52 73 53 74 54 80 55
REMARK SMILES IDX 82 56 75 57 76 58 77 59 78 60 79 61 55 62 56 63 65 64 57 65
REMARK SMILES IDX 58 66 64 67 66 68 59 69 60 70 61 71 62 72 63 73 5 74 6 75
REMARK SMILES IDX 7 76 8 77 9 79 10 80 11 81 27 82 12 83 14 84 13 85 15 86
REMARK SMILES IDX 16 88 17 89 26 90 18 91 20 92 25 93 19 94 21 95 23 96 22 97
REMARK SMILES IDX 24 98
REMARK H PARENT 3 5 87 23 53 34 7 78 15 87
REMARK Flexibility Score: inf
ROOT
ATOM      1  C   UNL A   1      35.439  31.845  28.345  1.00  0.00     0.118 C 
ENDROOT
BRANCH   1   2
ATOM      2  N   UNL A   1      35.371  31.554  29.773  1.00  0.00    -0.352 N 
ATOM      3  O   UNL A   1      35.884  30.629  31.752  1.00  0.00    -0.269 OA
ATOM      4  C   UNL A   1      36.250  30.911  30.610  1.00  0.00     0.251 C 
ATOM      5  H   UNL A   1      34.552  31.875  30.213  1.00  0.00     0.163 HD
BRANCH   4   6
ATOM      6  C   UNL A   1      37.609  30.534  30.162  1.00  0.00     0.039 A 
ATOM      7  C   UNL A   1      37.926  30.450  28.807  1.00  0.00     0.014 A 
ATOM      8  C   UNL A   1      38.607  30.314  31.120  1.00  0.00     0.014 A 
ATOM      9  C   UNL A   1      39.180  29.993  28.412  1.00  0.00     0.010 A 
ATOM     10  C   UNL A   1      39.898  29.949  30.718  1.00  0.00     0.010 A 
ATOM     11  C   UNL A   1      40.187  29.752  29.359  1.00  0.00    -0.014 A 
BRANCH  11  12
ATOM     12  C   UNL A   1      41.547  29.366  28.898  1.00  0.00     0.031 A 
ATOM     13  C   UNL A   1      42.681  30.356  28.890  1.00  0.00     0.074 A 
ATOM     14  C   UNL A   1      41.762  28.092  28.511  1.00  0.00     0.049 A 
ATOM     15  N   UNL A   1      43.929  30.176  28.536  1.00  0.00    -0.248 NA
ATOM     16  C   UNL A   1      42.377  31.726  29.328  1.00  0.00     0.031 C 
ATOM     17  C   UNL A   1      40.739  27.043  28.468  1.00  0.00     0.029 A 
ATOM     18  N   UNL A   1      42.905  27.454  28.101  1.00  0.00    -0.354 N 
ATOM     19  C   UNL A   1      44.556  31.406  28.700  1.00  0.00     0.074 A 
ATOM     20  C   UNL A   1      43.543  32.335  29.153  1.00  0.00     0.031 C 
ATOM     21  C   UNL A   1      41.309  25.886  28.103  1.00  0.00     0.029 A 
ATOM     22  C   UNL A   1      42.720  26.121  27.820  1.00  0.00     0.049 A 
ATOM     23  H   UNL A   1      43.775  27.907  28.016  1.00  0.00     0.167 HD
ATOM     24  C   UNL A   1      45.859  31.725  28.500  1.00  0.00     0.037 A 
ATOM     25  C   UNL A   1      43.581  25.191  27.366  1.00  0.00     0.037 A 
ATOM     26  C   UNL A   1      46.861  30.790  28.053  1.00  0.00     0.049 A 
ATOM     27  C   UNL A   1      45.009  25.582  27.112  1.00  0.00     0.074 A 
ATOM     28  C   UNL A   1      48.212  31.012  27.842  1.00  0.00     0.029 A 
ATOM     29  N   UNL A   1      46.626  29.458  27.742  1.00  0.00    -0.354 N 
ATOM     30  N   UNL A   1      45.588  26.745  27.297  1.00  0.00    -0.248 NA
ATOM     31  C   UNL A   1      45.899  24.540  26.586  1.00  0.00     0.031 C 
ATOM     32  C   UNL A   1      48.782  29.831  27.356  1.00  0.00     0.029 A 
ATOM     33  C   UNL A   1      47.800  28.853  27.319  1.00  0.00     0.049 A 
ATOM     34  H   UNL A   1      45.753  29.008  27.812  1.00  0.00     0.167 HD
ATOM     35  C   UNL A   1      46.917  26.568  26.929  1.00  0.00     0.074 A 
ATOM     36  C   UNL A   1      47.057  25.183  26.528  1.00  0.00     0.031 C 
ATOM     37  C   UNL A   1      47.927  27.472  26.924  1.00  0.00     0.037 A 
BRANCH  24  38
ATOM     38  C   UNL A   1      46.280  33.150  28.750  1.00  0.00     0.058 A 
ATOM     39  C   UNL A   1      46.229  34.124  27.740  1.00  0.00     0.135 A 
ATOM     40  C   UNL A   1      46.690  33.560  30.030  1.00  0.00     0.135 A 
ATOM     41  F   UNL A   1      45.858  33.788  26.494  1.00  0.00    -0.206 F 
ATOM     42  C   UNL A   1      46.593  35.446  27.984  1.00  0.00     0.059 A 
ATOM     43  C   UNL A   1      47.032  34.882  30.303  1.00  0.00     0.059 A 
ATOM     44  F   UNL A   1      46.755  32.672  31.035  1.00  0.00    -0.206 F 
ATOM     45  C   UNL A   1      46.993  35.815  29.268  1.00  0.00     0.060 A 
BRANCH  45  46
ATOM     46  S   UNL A   1      47.459  37.534  29.565  1.00  0.00     0.124 S 
ATOM     47  O   UNL A   1      46.789  38.211  28.459  1.00  0.00    -0.237 OA
ATOM     48  O   UNL A   1      46.903  37.784  30.890  1.00  0.00    -0.237 OA
ATOM     49  O   UNL A   1      48.917  37.510  29.494  1.00  0.00    -0.744 OA
ENDBRANCH  45  46
ENDBRANCH  24  38
BRANCH  25  50
ATOM     50  C   UNL A   1      43.107  23.803  27.120  1.00  0.00     0.058 A 
ATOM     51  C   UNL A   1      42.832  23.352  25.821  1.00  0.00     0.135 A 
ATOM     52  C   UNL A   1      42.944  22.893  28.176  1.00  0.00     0.135 A 
ATOM     53  F   UNL A   1      42.968  24.186  24.779  1.00  0.00    -0.206 F 
ATOM     54  C   UNL A   1      42.402  22.051  25.578  1.00  0.00     0.059 A 
ATOM     55  C   UNL A   1      42.544  21.580  27.957  1.00  0.00     0.059 A 
ATOM     56  F   UNL A   1      43.211  23.270  29.437  1.00  0.00    -0.206 F 
ATOM     57  C   UNL A   1      42.265  21.172  26.653  1.00  0.00     0.060 A 
BRANCH  57  58
ATOM     58  S   UNL A   1      41.753  19.472  26.322  1.00  0.00     0.124 S 
ATOM     59  O   UNL A   1      40.311  19.625  26.170  1.00  0.00    -0.237 OA
ATOM     60  O   UNL A   1      42.495  19.162  25.103  1.00  0.00    -0.237 OA
ATOM     61  O   UNL A   1      42.190  18.752  27.513  1.00  0.00    -0.744 OA
ENDBRANCH  57  58
ENDBRANCH  25  50
BRANCH  37  62
ATOM     62  C   UNL A   1      49.285  26.983  26.502  1.00  0.00     0.058 A 
ATOM     63  C   UNL A   1      50.219  26.498  27.431  1.00  0.00     0.135 A 
ATOM     64  C   UNL A   1      49.641  26.962  25.144  1.00  0.00     0.135 A 
ATOM     65  F   UNL A   1      49.933  26.504  28.743  1.00  0.00    -0.206 F 
ATOM     66  C   UNL A   1      51.466  26.031  27.031  1.00  0.00     0.059 A 
ATOM     67  C   UNL A   1      50.872  26.473  24.718  1.00  0.00     0.059 A 
ATOM     68  F   UNL A   1      48.782  27.407  24.212  1.00  0.00    -0.206 F 
ATOM     69  C   UNL A   1      51.783  26.021  25.671  1.00  0.00     0.060 A 
BRANCH  69  70
ATOM     70  S   UNL A   1      53.394  25.383  25.163  1.00  0.00     0.124 S 
ATOM     71  O   UNL A   1      53.221  23.949  25.369  1.00  0.00    -0.237 OA
ATOM     72  O   UNL A   1      53.477  25.818  23.772  1.00  0.00    -0.237 OA
ATOM     73  O   UNL A   1      54.323  26.041  26.076  1.00  0.00    -0.744 OA
ENDBRANCH  69  70
ENDBRANCH  37  62
ENDBRANCH  11  12
ENDBRANCH   4   6
ENDBRANCH   1   2
BRANCH   1  74
ATOM     74  C   UNL A   1      35.078  33.288  28.007  1.00  0.00     0.042 C 
BRANCH  74  75
ATOM     75  C   UNL A   1      33.652  33.682  28.368  1.00  0.00     0.118 C 
BRANCH  75  76
ATOM     76  N   UNL A   1      33.395  35.104  28.225  1.00  0.00    -0.352 N 
ATOM     77  C   UNL A   1      33.280  36.121  29.133  1.00  0.00     0.251 C 
ATOM     78  H   UNL A   1      33.283  35.394  27.289  1.00  0.00     0.163 HD
ATOM     79  O   UNL A   1      32.954  37.234  28.718  1.00  0.00    -0.269 OA
BRANCH  77  80
ATOM     80  C   UNL A   1      33.511  35.945  30.587  1.00  0.00     0.041 A 
ATOM     81  C   UNL A   1      33.423  37.093  31.387  1.00  0.00     0.014 A 
ATOM     82  C   UNL A   1      33.980  34.751  31.148  1.00  0.00     0.039 A 
ATOM     83  C   UNL A   1      33.763  37.045  32.737  1.00  0.00     0.003 A 
ATOM     84  C   UNL A   1      34.325  34.696  32.508  1.00  0.00     0.039 A 
ATOM     85  C   UNL A   1      34.215  35.852  33.291  1.00  0.00     0.026 A 
BRANCH  84  86
ATOM     86  N   UNL A   1      35.025  33.581  33.037  1.00  0.00    -0.355 N 
ATOM     87  H   UNL A   1      34.626  32.682  32.993  1.00  0.00     0.167 HD
BRANCH  86  88
ATOM     88  C   UNL A   1      36.306  33.766  33.629  1.00  0.00     0.050 A 
ATOM     89  C   UNL A   1      36.389  33.803  35.024  1.00  0.00     0.047 A 
ATOM     90  C   UNL A   1      37.479  33.930  32.859  1.00  0.00     0.025 A 
ATOM     91  C   UNL A   1      37.630  33.902  35.608  1.00  0.00     0.114 A 
ATOM     92  C   UNL A   1      38.692  34.080  33.573  1.00  0.00     0.072 A 
ATOM     93  C   UNL A   1      37.512  33.934  31.444  1.00  0.00     0.033 A 
ATOM     94  N   UNL A   1      38.771  34.045  34.911  1.00  0.00    -0.256 NA
ATOM     95  C   UNL A   1      39.869  34.281  32.868  1.00  0.00     0.030 A 
ATOM     96  C   UNL A   1      38.713  34.134  30.765  1.00  0.00     0.041 A 
ATOM     97  C   UNL A   1      39.892  34.326  31.474  1.00  0.00     0.023 A 
ATOM     98  Cl  UNL A   1      38.747  34.149  29.046  1.00  0.00    -0.084 Cl
ENDBRANCH  86  88
ENDBRANCH  84  86
ENDBRANCH  77  80
ENDBRANCH  75  76
ENDBRANCH  74  75
ENDBRANCH   1  74
TORSDOF 15
ENDMDL
