MODEL 1
REMARK VINA RESULT:     -11.9      0.000      0.000
REMARK SMILES CNC(=O)[C@H](C)Nc1ccc(C(F)(F)F)cc1C(=O)NCCCNC(=O)c1ccc(-c2c3nc(c(-c4c(F)cc(S(=O)(=O)[O-])cc4F)c4ccc([nH]4)c(-c4c(F)cc(S(=O)(=O)[O-])cc4F)c4nc(c(-c5c(F)cc(S(=O)(=O)[O-])cc5F)c5ccc2[nH]5)C=C4)C=C3)cc1
REMARK SMILES IDX 22 1 21 2 20 3 18 4 19 5 17 7 8 8 9 9 10 10 16 11 11 12 7 13
REMARK SMILES IDX 5 15 6 16 3 17 1 18 2 19 4 21 12 22 13 23 14 24 15 25 23 26
REMARK SMILES IDX 24 27 25 28 26 30 27 31 28 32 92 33 29 34 91 35 30 36 31 37
REMARK SMILES IDX 32 38 85 39 33 40 90 41 84 42 86 43 34 44 89 45 83 46 82 47
REMARK SMILES IDX 35 49 69 50 48 51 68 52 49 53 52 54 67 55 87 56 50 57 51 58
REMARK SMILES IDX 66 60 88 61 53 62 36 63 37 64 46 65 38 66 39 67 45 68 47 69
REMARK SMILES IDX 40 70 41 71 42 72 43 73 44 74 70 75 71 76 80 77 72 78 73 79
REMARK SMILES IDX 79 80 81 81 74 82 75 83 76 84 77 85 78 86 54 87 55 88 64 89
REMARK SMILES IDX 56 90 57 91 63 92 65 93 58 94 59 95 60 96 61 97 62 98
REMARK H PARENT 20 6 7 14 2 20 24 29 86 48 52 59
REMARK Flexibility Score: inf
ROOT
ATOM      1  C   UNL A   1      32.539  27.474  26.394  1.00  0.00     0.042 C 
ENDROOT
BRANCH   1   2
ATOM      2  C   UNL A   1      32.579  25.961  26.379  1.00  0.00     0.118 C 
BRANCH   2   3
ATOM      3  N   UNL A   1      31.401  25.245  26.769  1.00  0.00    -0.352 N 
ATOM      4  C   UNL A   1      31.097  23.940  26.448  1.00  0.00     0.253 C 
ATOM      5  O   UNL A   1      30.340  23.348  27.224  1.00  0.00    -0.269 OA
ATOM      6  H   UNL A   1      30.746  25.732  27.319  1.00  0.00     0.163 HD
BRANCH   4   7
ATOM      7  C   UNL A   1      31.472  23.246  25.161  1.00  0.00     0.063 A 
ATOM      8  C   UNL A   1      31.303  23.616  23.806  1.00  0.00     0.048 A 
ATOM      9  C   UNL A   1      31.758  22.704  22.816  1.00  0.00     0.027 A 
ATOM     10  C   UNL A   1      32.334  21.469  23.118  1.00  0.00     0.015 A 
ATOM     11  C   UNL A   1      32.063  21.977  25.439  1.00  0.00     0.029 A 
ATOM     12  C   UNL A   1      32.488  21.085  24.443  1.00  0.00     0.056 A 
BRANCH   8  13
ATOM     13  N   UNL A   1      30.766  24.784  23.273  1.00  0.00    -0.373 N 
ATOM     14  H   UNL A   1      29.786  24.840  23.197  1.00  0.00     0.161 HD
BRANCH  13  15
ATOM     15  C   UNL A   1      31.546  25.939  22.816  1.00  0.00     0.165 C 
ATOM     16  C   UNL A   1      31.820  25.844  21.321  1.00  0.00     0.041 C 
BRANCH  15  17
ATOM     17  C   UNL A   1      30.839  27.296  23.041  1.00  0.00     0.241 C 
ATOM     18  C   UNL A   1      32.877  28.852  22.972  1.00  0.00     0.142 C 
ATOM     19  N   UNL A   1      31.484  28.495  23.117  1.00  0.00    -0.357 N 
ATOM     20  H   UNL A   1      30.893  29.259  23.306  1.00  0.00     0.163 HD
ATOM     21  O   UNL A   1      29.611  27.304  23.181  1.00  0.00    -0.273 OA
ENDBRANCH  15  17
ENDBRANCH  13  15
ENDBRANCH   8  13
BRANCH  12  22
ATOM     22  C   UNL A   1      33.097  19.749  24.780  1.00  0.00     0.416 C 
ATOM     23  F   UNL A   1      34.421  19.843  25.088  1.00  0.00    -0.166 F 
ATOM     24  F   UNL A   1      32.508  19.169  25.863  1.00  0.00    -0.166 F 
ATOM     25  F   UNL A   1      33.014  18.832  23.777  1.00  0.00    -0.166 F 
ENDBRANCH  12  22
ENDBRANCH   4   7
ENDBRANCH   2   3
ENDBRANCH   1   2
BRANCH   1  26
ATOM     26  C   UNL A   1      33.803  28.181  26.882  1.00  0.00     0.118 C 
BRANCH  26  27
ATOM     27  N   UNL A   1      33.633  29.498  27.505  1.00  0.00    -0.352 N 
ATOM     28  C   UNL A   1      34.490  30.413  28.069  1.00  0.00     0.251 C 
ATOM     29  H   UNL A   1      32.693  29.792  27.524  1.00  0.00     0.163 HD
ATOM     30  O   UNL A   1      34.058  31.513  28.420  1.00  0.00    -0.269 OA
BRANCH  28  31
ATOM     31  C   UNL A   1      35.899  30.105  28.370  1.00  0.00     0.039 A 
ATOM     32  C   UNL A   1      36.228  29.652  29.658  1.00  0.00     0.014 A 
ATOM     33  C   UNL A   1      36.902  30.269  27.427  1.00  0.00     0.014 A 
ATOM     34  C   UNL A   1      37.542  29.286  29.963  1.00  0.00     0.010 A 
ATOM     35  C   UNL A   1      38.170  29.776  27.681  1.00  0.00     0.010 A 
ATOM     36  C   UNL A   1      38.514  29.304  28.957  1.00  0.00    -0.014 A 
BRANCH  36  37
ATOM     37  C   UNL A   1      39.930  28.928  29.183  1.00  0.00     0.031 A 
ATOM     38  C   UNL A   1      40.886  30.003  29.629  1.00  0.00     0.074 A 
ATOM     39  C   UNL A   1      40.375  27.704  28.846  1.00  0.00     0.049 A 
ATOM     40  N   UNL A   1      42.190  30.032  29.569  1.00  0.00    -0.248 NA
ATOM     41  C   UNL A   1      40.280  31.246  30.140  1.00  0.00     0.031 C 
ATOM     42  C   UNL A   1      39.546  26.591  28.377  1.00  0.00     0.029 A 
ATOM     43  N   UNL A   1      41.652  27.203  28.808  1.00  0.00    -0.354 N 
ATOM     44  C   UNL A   1      42.552  31.315  29.965  1.00  0.00     0.074 A 
ATOM     45  C   UNL A   1      41.331  32.049  30.209  1.00  0.00     0.031 C 
ATOM     46  C   UNL A   1      40.335  25.539  28.105  1.00  0.00     0.029 A 
ATOM     47  C   UNL A   1      41.726  25.919  28.322  1.00  0.00     0.049 A 
ATOM     48  H   UNL A   1      42.441  27.715  29.102  1.00  0.00     0.167 HD
ATOM     49  C   UNL A   1      43.794  31.826  30.130  1.00  0.00     0.037 A 
ATOM     50  C   UNL A   1      42.800  25.151  28.058  1.00  0.00     0.037 A 
ATOM     51  C   UNL A   1      44.993  31.050  29.960  1.00  0.00     0.049 A 
ATOM     52  C   UNL A   1      44.173  25.718  28.303  1.00  0.00     0.074 A 
ATOM     53  C   UNL A   1      46.304  31.430  30.178  1.00  0.00     0.029 A 
ATOM     54  N   UNL A   1      45.019  29.723  29.554  1.00  0.00    -0.354 N 
ATOM     55  N   UNL A   1      44.505  26.926  28.696  1.00  0.00    -0.248 NA
ATOM     56  C   UNL A   1      45.313  24.824  28.073  1.00  0.00     0.031 C 
ATOM     57  C   UNL A   1      47.126  30.339  29.876  1.00  0.00     0.029 A 
ATOM     58  C   UNL A   1      46.324  29.268  29.514  1.00  0.00     0.049 A 
ATOM     59  H   UNL A   1      44.226  29.186  29.326  1.00  0.00     0.167 HD
ATOM     60  C   UNL A   1      45.892  26.924  28.796  1.00  0.00     0.074 A 
ATOM     61  C   UNL A   1      46.334  25.595  28.425  1.00  0.00     0.031 C 
ATOM     62  C   UNL A   1      46.727  27.928  29.164  1.00  0.00     0.037 A 
BRANCH  49  63
ATOM     63  C   UNL A   1      43.912  33.274  30.525  1.00  0.00     0.058 A 
ATOM     64  C   UNL A   1      44.013  34.298  29.570  1.00  0.00     0.135 A 
ATOM     65  C   UNL A   1      43.913  33.644  31.881  1.00  0.00     0.135 A 
ATOM     66  F   UNL A   1      44.034  34.002  28.261  1.00  0.00    -0.206 F 
ATOM     67  C   UNL A   1      44.151  35.631  29.942  1.00  0.00     0.059 A 
ATOM     68  C   UNL A   1      44.016  34.976  32.276  1.00  0.00     0.059 A 
ATOM     69  F   UNL A   1      43.822  32.709  32.839  1.00  0.00    -0.206 F 
ATOM     70  C   UNL A   1      44.152  35.960  31.298  1.00  0.00     0.060 A 
BRANCH  70  71
ATOM     71  S   UNL A   1      44.327  37.695  31.762  1.00  0.00     0.124 S 
ATOM     72  O   UNL A   1      43.517  37.755  32.975  1.00  0.00    -0.237 OA
ATOM     73  O   UNL A   1      45.769  37.822  31.958  1.00  0.00    -0.237 OA
ATOM     74  O   UNL A   1      43.789  38.411  30.610  1.00  0.00    -0.744 OA
ENDBRANCH  70  71
ENDBRANCH  49  63
BRANCH  50  75
ATOM     75  C   UNL A   1      42.617  23.760  27.563  1.00  0.00     0.058 A 
ATOM     76  C   UNL A   1      42.553  22.686  28.463  1.00  0.00     0.135 A 
ATOM     77  C   UNL A   1      42.474  23.476  26.196  1.00  0.00     0.135 A 
ATOM     78  F   UNL A   1      42.687  22.906  29.779  1.00  0.00    -0.206 F 
ATOM     79  C   UNL A   1      42.368  21.378  28.027  1.00  0.00     0.059 A 
ATOM     80  C   UNL A   1      42.263  22.178  25.737  1.00  0.00     0.059 A 
ATOM     81  F   UNL A   1      42.505  24.469  25.294  1.00  0.00    -0.206 F 
ATOM     82  C   UNL A   1      42.220  21.135  26.661  1.00  0.00     0.060 A 
BRANCH  82  83
ATOM     83  S   UNL A   1      41.923  19.440  26.113  1.00  0.00     0.124 S 
ATOM     84  O   UNL A   1      42.346  18.674  27.279  1.00  0.00    -0.237 OA
ATOM     85  O   UNL A   1      40.488  19.452  25.842  1.00  0.00    -0.237 OA
ATOM     86  O   UNL A   1      42.773  19.316  24.932  1.00  0.00    -0.744 OA
ENDBRANCH  82  83
ENDBRANCH  50  75
BRANCH  62  87
ATOM     87  C   UNL A   1      48.193  27.613  29.241  1.00  0.00     0.058 A 
ATOM     88  C   UNL A   1      49.064  27.881  28.175  1.00  0.00     0.135 A 
ATOM     89  C   UNL A   1      48.742  27.108  30.432  1.00  0.00     0.135 A 
ATOM     90  F   UNL A   1      48.586  28.358  27.015  1.00  0.00    -0.206 F 
ATOM     91  C   UNL A   1      50.429  27.642  28.280  1.00  0.00     0.059 A 
ATOM     92  C   UNL A   1      50.107  26.889  30.569  1.00  0.00     0.059 A 
ATOM     93  F   UNL A   1      47.950  26.848  31.484  1.00  0.00    -0.206 F 
ATOM     94  C   UNL A   1      50.942  27.151  29.482  1.00  0.00     0.060 A 
BRANCH  94  95
ATOM     95  S   UNL A   1      52.723  26.893  29.622  1.00  0.00     0.124 S 
ATOM     96  O   UNL A   1      52.804  26.047  30.807  1.00  0.00    -0.237 OA
ATOM     97  O   UNL A   1      53.044  26.244  28.355  1.00  0.00    -0.237 OA
ATOM     98  O   UNL A   1      53.251  28.245  29.778  1.00  0.00    -0.744 OA
ENDBRANCH  94  95
ENDBRANCH  62  87
ENDBRANCH  36  37
ENDBRANCH  28  31
ENDBRANCH  26  27
ENDBRANCH   1  26
TORSDOF 17
ENDMDL
MODEL 2
REMARK VINA RESULT:     -11.9      1.504      2.522
REMARK SMILES CNC(=O)[C@H](C)Nc1ccc(C(F)(F)F)cc1C(=O)NCCCNC(=O)c1ccc(-c2c3nc(c(-c4c(F)cc(S(=O)(=O)[O-])cc4F)c4ccc([nH]4)c(-c4c(F)cc(S(=O)(=O)[O-])cc4F)c4nc(c(-c5c(F)cc(S(=O)(=O)[O-])cc5F)c5ccc2[nH]5)C=C4)C=C3)cc1
REMARK SMILES IDX 22 1 21 2 20 3 18 4 19 5 17 7 8 8 9 9 10 10 16 11 11 12 7 13
REMARK SMILES IDX 5 15 6 16 3 17 1 18 2 19 4 21 12 22 13 23 14 24 15 25 23 26
REMARK SMILES IDX 24 27 25 28 26 30 27 31 28 32 92 33 29 34 91 35 30 36 31 37
REMARK SMILES IDX 32 38 85 39 33 40 90 41 84 42 86 43 34 44 89 45 83 46 82 47
REMARK SMILES IDX 35 49 69 50 48 51 68 52 49 53 52 54 67 55 87 56 50 57 51 58
REMARK SMILES IDX 66 60 88 61 53 62 36 63 37 64 46 65 38 66 39 67 45 68 47 69
REMARK SMILES IDX 40 70 41 71 42 72 43 73 44 74 70 75 71 76 80 77 72 78 73 79
REMARK SMILES IDX 79 80 81 81 74 82 75 83 76 84 77 85 78 86 54 87 55 88 64 89
REMARK SMILES IDX 56 90 57 91 63 92 65 93 58 94 59 95 60 96 61 97 62 98
REMARK H PARENT 20 6 7 14 2 20 24 29 86 48 52 59
REMARK Flexibility Score: inf
ROOT
ATOM      1  C   UNL A   1      34.110  28.169  25.801  1.00  0.00     0.042 C 
ENDROOT
BRANCH   1   2
ATOM      2  C   UNL A   1      33.213  27.937  24.603  1.00  0.00     0.118 C 
BRANCH   2   3
ATOM      3  N   UNL A   1      33.723  27.165  23.511  1.00  0.00    -0.352 N 
ATOM      4  C   UNL A   1      33.796  25.791  23.449  1.00  0.00     0.253 C 
ATOM      5  O   UNL A   1      33.792  25.293  22.318  1.00  0.00    -0.269 OA
ATOM      6  H   UNL A   1      34.053  27.664  22.728  1.00  0.00     0.163 HD
BRANCH   4   7
ATOM      7  C   UNL A   1      34.047  24.875  24.622  1.00  0.00     0.063 A 
ATOM      8  C   UNL A   1      33.292  24.607  25.788  1.00  0.00     0.048 A 
ATOM      9  C   UNL A   1      33.838  23.688  26.725  1.00  0.00     0.027 A 
ATOM     10  C   UNL A   1      35.076  23.068  26.558  1.00  0.00     0.015 A 
ATOM     11  C   UNL A   1      35.311  24.227  24.480  1.00  0.00     0.029 A 
ATOM     12  C   UNL A   1      35.837  23.337  25.429  1.00  0.00     0.056 A 
BRANCH   8  13
ATOM     13  N   UNL A   1      32.044  25.098  26.161  1.00  0.00    -0.373 N 
ATOM     14  H   UNL A   1      32.022  25.826  26.824  1.00  0.00     0.161 HD
BRANCH  13  15
ATOM     15  C   UNL A   1      30.759  24.617  25.644  1.00  0.00     0.165 C 
ATOM     16  C   UNL A   1      30.508  25.157  24.242  1.00  0.00     0.041 C 
BRANCH  15  17
ATOM     17  C   UNL A   1      30.667  23.077  25.538  1.00  0.00     0.241 C 
ATOM     18  C   UNL A   1      29.117  22.606  27.525  1.00  0.00     0.142 C 
ATOM     19  N   UNL A   1      29.960  22.288  26.396  1.00  0.00    -0.357 N 
ATOM     20  H   UNL A   1      30.039  21.324  26.214  1.00  0.00     0.163 HD
ATOM     21  O   UNL A   1      31.286  22.512  24.628  1.00  0.00    -0.273 OA
ENDBRANCH  15  17
ENDBRANCH  13  15
ENDBRANCH   8  13
BRANCH  12  22
ATOM     22  C   UNL A   1      37.181  22.682  25.246  1.00  0.00     0.416 C 
ATOM     23  F   UNL A   1      37.317  21.554  25.998  1.00  0.00    -0.166 F 
ATOM     24  F   UNL A   1      37.397  22.294  23.958  1.00  0.00    -0.166 F 
ATOM     25  F   UNL A   1      38.235  23.477  25.576  1.00  0.00    -0.166 F 
ENDBRANCH  12  22
ENDBRANCH   4   7
ENDBRANCH   2   3
ENDBRANCH   1   2
BRANCH   1  26
ATOM     26  C   UNL A   1      33.410  28.361  27.146  1.00  0.00     0.118 C 
BRANCH  26  27
ATOM     27  N   UNL A   1      33.439  29.707  27.727  1.00  0.00    -0.352 N 
ATOM     28  C   UNL A   1      34.435  30.529  28.200  1.00  0.00     0.251 C 
ATOM     29  H   UNL A   1      32.544  30.113  27.794  1.00  0.00     0.163 HD
ATOM     30  O   UNL A   1      34.161  31.684  28.534  1.00  0.00    -0.269 OA
BRANCH  28  31
ATOM     31  C   UNL A   1      35.815  30.063  28.423  1.00  0.00     0.039 A 
ATOM     32  C   UNL A   1      36.725  30.124  27.355  1.00  0.00     0.014 A 
ATOM     33  C   UNL A   1      36.227  29.553  29.644  1.00  0.00     0.014 A 
ATOM     34  C   UNL A   1      38.059  29.753  27.545  1.00  0.00     0.010 A 
ATOM     35  C   UNL A   1      37.572  29.322  29.872  1.00  0.00     0.010 A 
ATOM     36  C   UNL A   1      38.500  29.392  28.822  1.00  0.00    -0.014 A 
BRANCH  36  37
ATOM     37  C   UNL A   1      39.896  28.991  29.122  1.00  0.00     0.031 A 
ATOM     38  C   UNL A   1      40.845  30.048  29.625  1.00  0.00     0.074 A 
ATOM     39  C   UNL A   1      40.339  27.762  28.801  1.00  0.00     0.049 A 
ATOM     40  N   UNL A   1      42.149  30.056  29.635  1.00  0.00    -0.248 NA
ATOM     41  C   UNL A   1      40.232  31.299  30.109  1.00  0.00     0.031 C 
ATOM     42  C   UNL A   1      39.518  26.665  28.283  1.00  0.00     0.029 A 
ATOM     43  N   UNL A   1      41.608  27.240  28.830  1.00  0.00    -0.354 N 
ATOM     44  C   UNL A   1      42.511  31.331  30.057  1.00  0.00     0.074 A 
ATOM     45  C   UNL A   1      41.291  32.083  30.239  1.00  0.00     0.031 C 
ATOM     46  C   UNL A   1      40.303  25.601  28.047  1.00  0.00     0.029 A 
ATOM     47  C   UNL A   1      41.687  25.957  28.342  1.00  0.00     0.049 A 
ATOM     48  H   UNL A   1      42.387  27.737  29.168  1.00  0.00     0.167 HD
ATOM     49  C   UNL A   1      43.750  31.820  30.291  1.00  0.00     0.037 A 
ATOM     50  C   UNL A   1      42.761  25.172  28.131  1.00  0.00     0.037 A 
ATOM     51  C   UNL A   1      44.944  31.025  30.182  1.00  0.00     0.049 A 
ATOM     52  C   UNL A   1      44.127  25.716  28.453  1.00  0.00     0.074 A 
ATOM     53  C   UNL A   1      46.247  31.382  30.472  1.00  0.00     0.029 A 
ATOM     54  N   UNL A   1      44.970  29.700  29.770  1.00  0.00    -0.354 N 
ATOM     55  N   UNL A   1      44.458  26.916  28.870  1.00  0.00    -0.248 NA
ATOM     56  C   UNL A   1      45.264  24.803  28.279  1.00  0.00     0.031 C 
ATOM     57  C   UNL A   1      47.067  30.280  30.209  1.00  0.00     0.029 A 
ATOM     58  C   UNL A   1      46.268  29.223  29.798  1.00  0.00     0.049 A 
ATOM     59  H   UNL A   1      44.182  29.177  29.497  1.00  0.00     0.167 HD
ATOM     60  C   UNL A   1      45.837  26.890  29.045  1.00  0.00     0.074 A 
ATOM     61  C   UNL A   1      46.276  25.556  28.690  1.00  0.00     0.031 C 
ATOM     62  C   UNL A   1      46.667  27.879  29.463  1.00  0.00     0.037 A 
BRANCH  49  63
ATOM     63  C   UNL A   1      43.870  33.264  30.701  1.00  0.00     0.058 A 
ATOM     64  C   UNL A   1      44.107  34.283  29.765  1.00  0.00     0.135 A 
ATOM     65  C   UNL A   1      43.735  33.636  32.049  1.00  0.00     0.135 A 
ATOM     66  F   UNL A   1      44.262  33.985  28.465  1.00  0.00    -0.206 F 
ATOM     67  C   UNL A   1      44.247  35.611  30.153  1.00  0.00     0.059 A 
ATOM     68  C   UNL A   1      43.836  34.963  32.456  1.00  0.00     0.059 A 
ATOM     69  F   UNL A   1      43.510  32.705  32.989  1.00  0.00    -0.206 F 
ATOM     70  C   UNL A   1      44.110  35.942  31.501  1.00  0.00     0.060 A 
BRANCH  70  71
ATOM     71  S   UNL A   1      44.289  37.671  31.986  1.00  0.00     0.124 S 
ATOM     72  O   UNL A   1      45.726  37.759  32.223  1.00  0.00    -0.237 OA
ATOM     73  O   UNL A   1      43.798  38.378  30.807  1.00  0.00    -0.237 OA
ATOM     74  O   UNL A   1      43.448  37.780  33.173  1.00  0.00    -0.744 OA
ENDBRANCH  70  71
ENDBRANCH  49  63
BRANCH  50  75
ATOM     75  C   UNL A   1      42.582  23.787  27.619  1.00  0.00     0.058 A 
ATOM     76  C   UNL A   1      42.517  22.703  28.506  1.00  0.00     0.135 A 
ATOM     77  C   UNL A   1      42.444  23.519  26.248  1.00  0.00     0.135 A 
ATOM     78  F   UNL A   1      42.647  22.907  29.825  1.00  0.00    -0.206 F 
ATOM     79  C   UNL A   1      42.336  21.400  28.053  1.00  0.00     0.059 A 
ATOM     80  C   UNL A   1      42.236  22.226  25.773  1.00  0.00     0.059 A 
ATOM     81  F   UNL A   1      42.475  24.523  25.358  1.00  0.00    -0.206 F 
ATOM     82  C   UNL A   1      42.193  21.172  26.684  1.00  0.00     0.060 A 
BRANCH  82  83
ATOM     83  S   UNL A   1      41.901  19.483  26.115  1.00  0.00     0.124 S 
ATOM     84  O   UNL A   1      40.460  19.493  25.889  1.00  0.00    -0.237 OA
ATOM     85  O   UNL A   1      42.735  19.414  24.920  1.00  0.00    -0.237 OA
ATOM     86  O   UNL A   1      42.360  18.668  27.237  1.00  0.00    -0.744 OA
ENDBRANCH  82  83
ENDBRANCH  50  75
BRANCH  62  87
ATOM     87  C   UNL A   1      48.121  27.539  29.617  1.00  0.00     0.058 A 
ATOM     88  C   UNL A   1      49.054  27.800  28.602  1.00  0.00     0.135 A 
ATOM     89  C   UNL A   1      48.596  27.017  30.831  1.00  0.00     0.135 A 
ATOM     90  F   UNL A   1      48.647  28.294  27.421  1.00  0.00    -0.206 F 
ATOM     91  C   UNL A   1      50.407  27.538  28.779  1.00  0.00     0.059 A 
ATOM     92  C   UNL A   1      49.949  26.774  31.040  1.00  0.00     0.059 A 
ATOM     93  F   UNL A   1      47.744  26.762  31.836  1.00  0.00    -0.206 F 
ATOM     94  C   UNL A   1      50.845  27.030  30.003  1.00  0.00     0.060 A 
BRANCH  94  95
ATOM     95  S   UNL A   1      52.612  26.742  30.237  1.00  0.00     0.124 S 
ATOM     96  O   UNL A   1      52.605  25.674  31.232  1.00  0.00    -0.237 OA
ATOM     97  O   UNL A   1      53.046  26.359  28.897  1.00  0.00    -0.237 OA
ATOM     98  O   UNL A   1      53.108  28.033  30.705  1.00  0.00    -0.744 OA
ENDBRANCH  94  95
ENDBRANCH  62  87
ENDBRANCH  36  37
ENDBRANCH  28  31
ENDBRANCH  26  27
ENDBRANCH   1  26
TORSDOF 17
ENDMDL
MODEL 3
REMARK VINA RESULT:     -11.7      2.481      3.757
REMARK SMILES CNC(=O)[C@H](C)Nc1ccc(C(F)(F)F)cc1C(=O)NCCCNC(=O)c1ccc(-c2c3nc(c(-c4c(F)cc(S(=O)(=O)[O-])cc4F)c4ccc([nH]4)c(-c4c(F)cc(S(=O)(=O)[O-])cc4F)c4nc(c(-c5c(F)cc(S(=O)(=O)[O-])cc5F)c5ccc2[nH]5)C=C4)C=C3)cc1
REMARK SMILES IDX 22 1 21 2 20 3 18 4 19 5 17 7 8 8 9 9 10 10 16 11 11 12 7 13
REMARK SMILES IDX 5 15 6 16 3 17 1 18 2 19 4 21 12 22 13 23 14 24 15 25 23 26
REMARK SMILES IDX 24 27 25 28 26 30 27 31 28 32 92 33 29 34 91 35 30 36 31 37
REMARK SMILES IDX 32 38 85 39 33 40 90 41 84 42 86 43 34 44 89 45 83 46 82 47
REMARK SMILES IDX 35 49 69 50 48 51 68 52 49 53 52 54 67 55 87 56 50 57 51 58
REMARK SMILES IDX 66 60 88 61 53 62 36 63 37 64 46 65 38 66 39 67 45 68 47 69
REMARK SMILES IDX 40 70 41 71 42 72 43 73 44 74 70 75 71 76 80 77 72 78 73 79
REMARK SMILES IDX 79 80 81 81 74 82 75 83 76 84 77 85 78 86 54 87 55 88 64 89
REMARK SMILES IDX 56 90 57 91 63 92 65 93 58 94 59 95 60 96 61 97 62 98
REMARK H PARENT 20 6 7 14 2 20 24 29 86 48 52 59
REMARK Flexibility Score: inf
ROOT
ATOM      1  C   UNL A   1      34.057  27.858  26.005  1.00  0.00     0.042 C 
ENDROOT
BRANCH   1   2
ATOM      2  C   UNL A   1      33.393  28.213  24.692  1.00  0.00     0.118 C 
BRANCH   2   3
ATOM      3  N   UNL A   1      33.407  27.243  23.638  1.00  0.00    -0.352 N 
ATOM      4  C   UNL A   1      32.373  26.969  22.771  1.00  0.00     0.253 C 
ATOM      5  O   UNL A   1      32.691  26.497  21.674  1.00  0.00    -0.269 OA
ATOM      6  H   UNL A   1      34.235  26.724  23.523  1.00  0.00     0.163 HD
BRANCH   4   7
ATOM      7  C   UNL A   1      30.904  27.039  23.111  1.00  0.00     0.063 A 
ATOM      8  C   UNL A   1      30.029  26.102  23.708  1.00  0.00     0.048 A 
ATOM      9  C   UNL A   1      28.670  26.484  23.868  1.00  0.00     0.027 A 
ATOM     10  C   UNL A   1      28.165  27.715  23.447  1.00  0.00     0.015 A 
ATOM     11  C   UNL A   1      30.359  28.289  22.689  1.00  0.00     0.029 A 
ATOM     12  C   UNL A   1      29.008  28.636  22.841  1.00  0.00     0.056 A 
BRANCH   8  13
ATOM     13  N   UNL A   1      30.306  24.831  24.204  1.00  0.00    -0.373 N 
ATOM     14  H   UNL A   1      29.649  24.120  24.022  1.00  0.00     0.161 HD
BRANCH  13  15
ATOM     15  C   UNL A   1      31.498  24.468  24.976  1.00  0.00     0.165 C 
ATOM     16  C   UNL A   1      31.293  24.769  26.455  1.00  0.00     0.041 C 
BRANCH  15  17
ATOM     17  C   UNL A   1      31.866  22.969  24.886  1.00  0.00     0.241 C 
ATOM     18  C   UNL A   1      33.719  23.091  23.119  1.00  0.00     0.142 C 
ATOM     19  N   UNL A   1      32.814  22.458  24.049  1.00  0.00    -0.357 N 
ATOM     20  H   UNL A   1      32.896  21.478  24.085  1.00  0.00     0.163 HD
ATOM     21  O   UNL A   1      31.253  22.169  25.603  1.00  0.00    -0.273 OA
ENDBRANCH  15  17
ENDBRANCH  13  15
ENDBRANCH   8  13
BRANCH  12  22
ATOM     22  C   UNL A   1      28.471  29.963  22.371  1.00  0.00     0.416 C 
ATOM     23  F   UNL A   1      27.969  29.902  21.106  1.00  0.00    -0.166 F 
ATOM     24  F   UNL A   1      27.447  30.413  23.151  1.00  0.00    -0.166 F 
ATOM     25  F   UNL A   1      29.394  30.962  22.357  1.00  0.00    -0.166 F 
ENDBRANCH  12  22
ENDBRANCH   4   7
ENDBRANCH   2   3
ENDBRANCH   1   2
BRANCH   1  26
ATOM     26  C   UNL A   1      33.309  28.264  27.275  1.00  0.00     0.118 C 
BRANCH  26  27
ATOM     27  N   UNL A   1      33.391  29.672  27.676  1.00  0.00    -0.352 N 
ATOM     28  C   UNL A   1      34.420  30.517  28.019  1.00  0.00     0.251 C 
ATOM     29  H   UNL A   1      32.509  30.111  27.708  1.00  0.00     0.163 HD
ATOM     30  O   UNL A   1      34.187  31.713  28.206  1.00  0.00    -0.269 OA
BRANCH  28  31
ATOM     31  C   UNL A   1      35.791  30.040  28.272  1.00  0.00     0.039 A 
ATOM     32  C   UNL A   1      36.737  30.130  27.238  1.00  0.00     0.014 A 
ATOM     33  C   UNL A   1      36.162  29.493  29.491  1.00  0.00     0.014 A 
ATOM     34  C   UNL A   1      38.063  29.750  27.460  1.00  0.00     0.010 A 
ATOM     35  C   UNL A   1      37.499  29.251  29.756  1.00  0.00     0.010 A 
ATOM     36  C   UNL A   1      38.461  29.350  28.739  1.00  0.00    -0.014 A 
BRANCH  36  37
ATOM     37  C   UNL A   1      39.845  28.936  29.072  1.00  0.00     0.031 A 
ATOM     38  C   UNL A   1      40.792  29.985  29.597  1.00  0.00     0.074 A 
ATOM     39  C   UNL A   1      40.284  27.703  28.764  1.00  0.00     0.049 A 
ATOM     40  N   UNL A   1      42.096  29.981  29.638  1.00  0.00    -0.248 NA
ATOM     41  C   UNL A   1      40.179  31.242  30.064  1.00  0.00     0.031 C 
ATOM     42  C   UNL A   1      39.466  26.613  28.227  1.00  0.00     0.029 A 
ATOM     43  N   UNL A   1      41.547  27.169  28.823  1.00  0.00    -0.354 N 
ATOM     44  C   UNL A   1      42.459  31.253  30.067  1.00  0.00     0.074 A 
ATOM     45  C   UNL A   1      41.242  32.017  30.219  1.00  0.00     0.031 C 
ATOM     46  C   UNL A   1      40.246  25.541  28.012  1.00  0.00     0.029 A 
ATOM     47  C   UNL A   1      41.626  25.885  28.338  1.00  0.00     0.049 A 
ATOM     48  H   UNL A   1      42.323  27.659  29.179  1.00  0.00     0.167 HD
ATOM     49  C   UNL A   1      43.697  31.731  30.330  1.00  0.00     0.037 A 
ATOM     50  C   UNL A   1      42.697  25.090  28.154  1.00  0.00     0.037 A 
ATOM     51  C   UNL A   1      44.886  30.925  30.250  1.00  0.00     0.049 A 
ATOM     52  C   UNL A   1      44.061  25.621  28.507  1.00  0.00     0.074 A 
ATOM     53  C   UNL A   1      46.185  31.270  30.571  1.00  0.00     0.029 A 
ATOM     54  N   UNL A   1      44.909  29.599  29.840  1.00  0.00    -0.354 N 
ATOM     55  N   UNL A   1      44.392  26.818  28.931  1.00  0.00    -0.248 NA
ATOM     56  C   UNL A   1      45.192  24.698  28.362  1.00  0.00     0.031 C 
ATOM     57  C   UNL A   1      47.000  30.160  30.328  1.00  0.00     0.029 A 
ATOM     58  C   UNL A   1      46.201  29.110  29.900  1.00  0.00     0.049 A 
ATOM     59  H   UNL A   1      44.123  29.083  29.549  1.00  0.00     0.167 HD
ATOM     60  C   UNL A   1      45.767  26.780  29.139  1.00  0.00     0.074 A 
ATOM     61  C   UNL A   1      46.202  25.441  28.796  1.00  0.00     0.031 C 
ATOM     62  C   UNL A   1      46.596  27.762  29.575  1.00  0.00     0.037 A 
BRANCH  49  63
ATOM     63  C   UNL A   1      43.821  33.174  30.741  1.00  0.00     0.058 A 
ATOM     64  C   UNL A   1      43.868  33.560  32.090  1.00  0.00     0.135 A 
ATOM     65  C   UNL A   1      43.903  34.187  29.770  1.00  0.00     0.135 A 
ATOM     66  F   UNL A   1      43.775  32.637  33.061  1.00  0.00    -0.206 F 
ATOM     67  C   UNL A   1      43.952  34.896  32.464  1.00  0.00     0.059 A 
ATOM     68  C   UNL A   1      44.023  35.529  30.121  1.00  0.00     0.059 A 
ATOM     69  F   UNL A   1      43.860  33.879  28.465  1.00  0.00    -0.206 F 
ATOM     70  C   UNL A   1      44.029  35.874  31.472  1.00  0.00     0.060 A 
BRANCH  70  71
ATOM     71  S   UNL A   1      44.143  37.604  31.976  1.00  0.00     0.124 S 
ATOM     72  O   UNL A   1      43.224  37.638  33.109  1.00  0.00    -0.237 OA
ATOM     73  O   UNL A   1      45.559  37.740  32.306  1.00  0.00    -0.237 OA
ATOM     74  O   UNL A   1      43.707  38.333  30.790  1.00  0.00    -0.744 OA
ENDBRANCH  70  71
ENDBRANCH  49  63
BRANCH  50  75
ATOM     75  C   UNL A   1      42.518  23.706  27.639  1.00  0.00     0.058 A 
ATOM     76  C   UNL A   1      42.511  23.454  26.259  1.00  0.00     0.135 A 
ATOM     77  C   UNL A   1      42.382  22.609  28.503  1.00  0.00     0.135 A 
ATOM     78  F   UNL A   1      42.634  24.470  25.392  1.00  0.00    -0.206 F 
ATOM     79  C   UNL A   1      42.359  22.167  25.753  1.00  0.00     0.059 A 
ATOM     80  C   UNL A   1      42.254  21.309  28.021  1.00  0.00     0.059 A 
ATOM     81  F   UNL A   1      42.406  22.792  29.833  1.00  0.00    -0.206 F 
ATOM     82  C   UNL A   1      42.236  21.099  26.643  1.00  0.00     0.060 A 
BRANCH  82  83
ATOM     83  S   UNL A   1      42.098  19.428  25.973  1.00  0.00     0.124 S 
ATOM     84  O   UNL A   1      40.661  19.315  25.755  1.00  0.00    -0.237 OA
ATOM     85  O   UNL A   1      42.923  19.511  24.771  1.00  0.00    -0.237 OA
ATOM     86  O   UNL A   1      42.644  18.594  27.041  1.00  0.00    -0.744 OA
ENDBRANCH  82  83
ENDBRANCH  50  75
BRANCH  62  87
ATOM     87  C   UNL A   1      48.043  27.409  29.764  1.00  0.00     0.058 A 
ATOM     88  C   UNL A   1      49.017  27.748  28.814  1.00  0.00     0.135 A 
ATOM     89  C   UNL A   1      48.466  26.791  30.953  1.00  0.00     0.135 A 
ATOM     90  F   UNL A   1      48.661  28.334  27.660  1.00  0.00    -0.206 F 
ATOM     91  C   UNL A   1      50.362  27.471  29.027  1.00  0.00     0.059 A 
ATOM     92  C   UNL A   1      49.809  26.530  31.200  1.00  0.00     0.059 A 
ATOM     93  F   UNL A   1      47.572  26.458  31.897  1.00  0.00    -0.206 F 
ATOM     94  C   UNL A   1      50.749  26.866  30.225  1.00  0.00     0.060 A 
BRANCH  94  95
ATOM     95  S   UNL A   1      52.504  26.557  30.511  1.00  0.00     0.124 S 
ATOM     96  O   UNL A   1      52.456  25.527  31.544  1.00  0.00    -0.237 OA
ATOM     97  O   UNL A   1      52.962  26.119  29.197  1.00  0.00    -0.237 OA
ATOM     98  O   UNL A   1      53.011  27.857  30.943  1.00  0.00    -0.744 OA
ENDBRANCH  94  95
ENDBRANCH  62  87
ENDBRANCH  36  37
ENDBRANCH  28  31
ENDBRANCH  26  27
ENDBRANCH   1  26
TORSDOF 17
ENDMDL
