MODEL 1
REMARK VINA RESULT:     -10.4      0.000      0.000
REMARK SMILES O=C(NCCCNC(=O)c1ccc(C2SCCCS2)cc1)c1ccc(-c2c3nc(c(-c4c(F)cc(S(=O)(=O)[O-])cc4F)c4ccc([nH]4)c(-c4c(F)cc(S(=O)(=O)[O-])cc4F)c4nc(c(-c5c(F)cc(S(=O)(=O)[O-])cc5F)c5ccc2[nH]5)C=C4)C=C3)cc1
REMARK SMILES IDX 4 1 3 2 1 3 2 4 22 6 23 7 87 8 24 9 86 10 25 11 26 12 27 13
REMARK SMILES IDX 80 14 28 15 85 16 79 17 81 18 29 19 84 20 78 21 77 22 30 24
REMARK SMILES IDX 64 25 43 26 63 27 44 28 47 29 62 30 82 31 45 32 46 33 61 35
REMARK SMILES IDX 83 36 48 37 31 38 32 39 41 40 33 41 34 42 40 43 42 44 35 45
REMARK SMILES IDX 36 46 37 47 38 48 39 49 65 50 66 51 75 52 67 53 68 54 74 55
REMARK SMILES IDX 76 56 69 57 70 58 71 59 72 60 73 61 49 62 50 63 59 64 51 65
REMARK SMILES IDX 52 66 58 67 60 68 53 69 54 70 55 71 56 72 57 73 5 74 6 75
REMARK SMILES IDX 7 76 8 77 9 79 10 80 11 81 21 82 12 83 20 84 13 85 14 86
REMARK SMILES IDX 15 87 19 88 16 89 18 90 17 91
REMARK H PARENT 3 5 81 23 47 34 7 78
REMARK Flexibility Score: inf
ROOT
ATOM      1  C   UNL A   1      34.667  32.499  28.510  1.00  0.00     0.118 C 
ENDROOT
BRANCH   1   2
ATOM      2  N   UNL A   1      34.028  31.226  28.194  1.00  0.00    -0.352 N 
ATOM      3  O   UNL A   1      33.888  29.064  27.577  1.00  0.00    -0.269 OA
ATOM      4  C   UNL A   1      34.581  29.978  28.014  1.00  0.00     0.251 C 
ATOM      5  H   UNL A   1      33.050  31.264  28.095  1.00  0.00     0.163 HD
BRANCH   4   6
ATOM      6  C   UNL A   1      36.011  29.753  28.320  1.00  0.00     0.039 A 
ATOM      7  C   UNL A   1      36.980  29.954  27.340  1.00  0.00     0.014 A 
ATOM      8  C   UNL A   1      36.389  29.331  29.599  1.00  0.00     0.014 A 
ATOM      9  C   UNL A   1      38.283  29.539  27.564  1.00  0.00     0.010 A 
ATOM     10  C   UNL A   1      37.732  29.041  29.865  1.00  0.00     0.010 A 
ATOM     11  C   UNL A   1      38.685  29.105  28.838  1.00  0.00    -0.014 A 
BRANCH  11  12
ATOM     12  C   UNL A   1      40.124  28.806  29.060  1.00  0.00     0.031 A 
ATOM     13  C   UNL A   1      40.721  27.480  28.676  1.00  0.00     0.074 A 
ATOM     14  C   UNL A   1      40.905  29.785  29.559  1.00  0.00     0.049 A 
ATOM     15  N   UNL A   1      41.967  27.088  28.761  1.00  0.00    -0.248 NA
ATOM     16  C   UNL A   1      39.811  26.460  28.132  1.00  0.00     0.031 C 
ATOM     17  C   UNL A   1      40.427  31.106  29.986  1.00  0.00     0.029 A 
ATOM     18  N   UNL A   1      42.258  29.846  29.763  1.00  0.00    -0.354 N 
ATOM     19  C   UNL A   1      41.993  25.779  28.293  1.00  0.00     0.074 A 
ATOM     20  C   UNL A   1      40.629  25.429  27.958  1.00  0.00     0.031 C 
ATOM     21  C   UNL A   1      41.475  31.862  30.339  1.00  0.00     0.029 A 
ATOM     22  C   UNL A   1      42.687  31.061  30.241  1.00  0.00     0.049 A 
ATOM     23  H   UNL A   1      42.865  29.091  29.585  1.00  0.00     0.167 HD
ATOM     24  C   UNL A   1      43.057  24.954  28.146  1.00  0.00     0.037 A 
ATOM     25  C   UNL A   1      43.916  31.484  30.587  1.00  0.00     0.037 A 
ATOM     26  C   UNL A   1      44.413  25.317  28.479  1.00  0.00     0.049 A 
ATOM     27  C   UNL A   1      45.074  30.541  30.430  1.00  0.00     0.074 A 
ATOM     28  C   UNL A   1      45.562  24.552  28.369  1.00  0.00     0.029 A 
ATOM     29  N   UNL A   1      44.804  26.549  28.985  1.00  0.00    -0.354 N 
ATOM     30  N   UNL A   1      45.075  29.310  29.977  1.00  0.00    -0.248 NA
ATOM     31  C   UNL A   1      46.394  31.041  30.830  1.00  0.00     0.031 C 
ATOM     32  C   UNL A   1      46.641  25.308  28.841  1.00  0.00     0.029 A 
ATOM     33  C   UNL A   1      46.174  26.561  29.200  1.00  0.00     0.049 A 
ATOM     34  H   UNL A   1      44.198  27.304  29.163  1.00  0.00     0.167 HD
ATOM     35  C   UNL A   1      46.398  28.891  30.028  1.00  0.00     0.074 A 
ATOM     36  C   UNL A   1      47.171  30.011  30.528  1.00  0.00     0.031 C 
ATOM     37  C   UNL A   1      46.925  27.686  29.700  1.00  0.00     0.037 A 
BRANCH  24  38
ATOM     38  C   UNL A   1      42.806  23.572  27.602  1.00  0.00     0.058 A 
ATOM     39  C   UNL A   1      42.952  23.282  26.236  1.00  0.00     0.135 A 
ATOM     40  C   UNL A   1      42.475  22.512  28.462  1.00  0.00     0.135 A 
ATOM     41  F   UNL A   1      43.253  24.258  25.366  1.00  0.00    -0.206 F 
ATOM     42  C   UNL A   1      42.759  21.996  25.740  1.00  0.00     0.059 A 
ATOM     43  C   UNL A   1      42.301  21.213  27.991  1.00  0.00     0.059 A 
ATOM     44  F   UNL A   1      42.323  22.731  29.778  1.00  0.00    -0.206 F 
ATOM     45  C   UNL A   1      42.435  20.967  26.626  1.00  0.00     0.060 A 
BRANCH  45  46
ATOM     46  S   UNL A   1      42.202  19.303  25.965  1.00  0.00     0.124 S 
ATOM     47  O   UNL A   1      43.037  19.345  24.767  1.00  0.00    -0.237 OA
ATOM     48  O   UNL A   1      42.696  18.463  27.051  1.00  0.00    -0.237 OA
ATOM     49  O   UNL A   1      40.765  19.230  25.722  1.00  0.00    -0.744 OA
ENDBRANCH  45  46
ENDBRANCH  24  38
BRANCH  25  50
ATOM     50  C   UNL A   1      44.102  32.850  31.140  1.00  0.00     0.058 A 
ATOM     51  C   UNL A   1      44.347  33.951  30.307  1.00  0.00     0.135 A 
ATOM     52  C   UNL A   1      44.022  33.082  32.524  1.00  0.00     0.135 A 
ATOM     53  F   UNL A   1      44.430  33.781  28.979  1.00  0.00    -0.206 F 
ATOM     54  C   UNL A   1      44.533  35.228  30.825  1.00  0.00     0.059 A 
ATOM     55  C   UNL A   1      44.172  34.354  33.062  1.00  0.00     0.059 A 
ATOM     56  F   UNL A   1      43.765  32.066  33.363  1.00  0.00    -0.206 F 
ATOM     57  C   UNL A   1      44.445  35.419  32.206  1.00  0.00     0.060 A 
BRANCH  57  58
ATOM     58  S   UNL A   1      44.665  37.082  32.871  1.00  0.00     0.124 S 
ATOM     59  O   UNL A   1      45.135  37.806  31.696  1.00  0.00    -0.237 OA
ATOM     60  O   UNL A   1      43.319  37.412  33.329  1.00  0.00    -0.237 OA
ATOM     61  O   UNL A   1      45.649  36.890  33.932  1.00  0.00    -0.744 OA
ENDBRANCH  57  58
ENDBRANCH  25  50
BRANCH  37  62
ATOM     62  C   UNL A   1      48.413  27.533  29.850  1.00  0.00     0.058 A 
ATOM     63  C   UNL A   1      49.296  27.864  28.810  1.00  0.00     0.135 A 
ATOM     64  C   UNL A   1      48.962  27.060  31.052  1.00  0.00     0.135 A 
ATOM     65  F   UNL A   1      48.820  28.312  27.637  1.00  0.00    -0.206 F 
ATOM     66  C   UNL A   1      50.670  27.699  28.945  1.00  0.00     0.059 A 
ATOM     67  C   UNL A   1      50.334  26.913  31.219  1.00  0.00     0.059 A 
ATOM     68  F   UNL A   1      48.161  26.738  32.081  1.00  0.00    -0.206 F 
ATOM     69  C   UNL A   1      51.179  27.219  30.153  1.00  0.00     0.060 A 
BRANCH  69  70
ATOM     70  S   UNL A   1      52.965  27.018  30.319  1.00  0.00     0.124 S 
ATOM     71  O   UNL A   1      53.382  28.375  30.659  1.00  0.00    -0.237 OA
ATOM     72  O   UNL A   1      53.072  26.035  31.392  1.00  0.00    -0.237 OA
ATOM     73  O   UNL A   1      53.377  26.546  29.000  1.00  0.00    -0.744 OA
ENDBRANCH  69  70
ENDBRANCH  37  62
ENDBRANCH  11  12
ENDBRANCH   4   6
ENDBRANCH   1   2
BRANCH   1  74
ATOM     74  C   UNL A   1      33.705  33.671  28.454  1.00  0.00     0.042 C 
BRANCH  74  75
ATOM     75  C   UNL A   1      34.190  34.882  29.231  1.00  0.00     0.118 C 
BRANCH  75  76
ATOM     76  N   UNL A   1      33.361  35.160  30.400  1.00  0.00    -0.352 N 
ATOM     77  C   UNL A   1      33.512  34.740  31.700  1.00  0.00     0.251 C 
ATOM     78  H   UNL A   1      32.578  35.732  30.233  1.00  0.00     0.163 HD
ATOM     79  O   UNL A   1      32.610  34.899  32.517  1.00  0.00    -0.269 OA
BRANCH  77  80
ATOM     80  C   UNL A   1      34.776  34.101  32.111  1.00  0.00     0.039 A 
ATOM     81  C   UNL A   1      34.887  32.713  32.139  1.00  0.00     0.014 A 
ATOM     82  C   UNL A   1      35.865  34.894  32.455  1.00  0.00     0.014 A 
ATOM     83  C   UNL A   1      36.127  32.127  32.419  1.00  0.00     0.006 A 
ATOM     84  C   UNL A   1      37.103  34.308  32.684  1.00  0.00     0.006 A 
ATOM     85  C   UNL A   1      37.269  32.916  32.673  1.00  0.00    -0.025 A 
BRANCH  85  86
ATOM     86  C   UNL A   1      38.618  32.243  32.878  1.00  0.00     0.133 C 
ATOM     87  S   UNL A   1      39.856  33.285  33.692  1.00  0.00    -0.143 SA
ATOM     88  S   UNL A   1      38.578  30.548  33.527  1.00  0.00    -0.143 SA
ATOM     89  C   UNL A   1      39.291  33.214  35.408  1.00  0.00     0.072 C 
ATOM     90  C   UNL A   1      38.325  30.809  35.304  1.00  0.00     0.072 C 
ATOM     91  C   UNL A   1      39.253  31.807  35.983  1.00  0.00     0.022 C 
ENDBRANCH  85  86
ENDBRANCH  77  80
ENDBRANCH  75  76
ENDBRANCH  74  75
ENDBRANCH   1  74
TORSDOF 14
ENDMDL
MODEL 2
REMARK VINA RESULT:     -10.4      5.244     11.729
REMARK SMILES O=C(NCCCNC(=O)c1ccc(C2SCCCS2)cc1)c1ccc(-c2c3nc(c(-c4c(F)cc(S(=O)(=O)[O-])cc4F)c4ccc([nH]4)c(-c4c(F)cc(S(=O)(=O)[O-])cc4F)c4nc(c(-c5c(F)cc(S(=O)(=O)[O-])cc5F)c5ccc2[nH]5)C=C4)C=C3)cc1
REMARK SMILES IDX 4 1 3 2 1 3 2 4 22 6 23 7 87 8 24 9 86 10 25 11 26 12 27 13
REMARK SMILES IDX 80 14 28 15 85 16 79 17 81 18 29 19 84 20 78 21 77 22 30 24
REMARK SMILES IDX 64 25 43 26 63 27 44 28 47 29 62 30 82 31 45 32 46 33 61 35
REMARK SMILES IDX 83 36 48 37 31 38 32 39 41 40 33 41 34 42 40 43 42 44 35 45
REMARK SMILES IDX 36 46 37 47 38 48 39 49 65 50 66 51 75 52 67 53 68 54 74 55
REMARK SMILES IDX 76 56 69 57 70 58 71 59 72 60 73 61 49 62 50 63 59 64 51 65
REMARK SMILES IDX 52 66 58 67 60 68 53 69 54 70 55 71 56 72 57 73 5 74 6 75
REMARK SMILES IDX 7 76 8 77 9 79 10 80 11 81 21 82 12 83 20 84 13 85 14 86
REMARK SMILES IDX 15 87 19 88 16 89 18 90 17 91
REMARK H PARENT 3 5 81 23 47 34 7 78
REMARK Flexibility Score: inf
ROOT
ATOM      1  C   UNL A   1      41.662  23.195  27.589  1.00  0.00     0.118 C 
ENDROOT
BRANCH   1   2
ATOM      2  N   UNL A   1      41.796  23.981  26.367  1.00  0.00    -0.352 N 
ATOM      3  O   UNL A   1      41.561  25.751  24.994  1.00  0.00    -0.269 OA
ATOM      4  C   UNL A   1      41.558  25.318  26.143  1.00  0.00     0.251 C 
ATOM      5  H   UNL A   1      42.105  23.477  25.580  1.00  0.00     0.163 HD
BRANCH   4   6
ATOM      6  C   UNL A   1      41.272  26.217  27.282  1.00  0.00     0.039 A 
ATOM      7  C   UNL A   1      42.026  27.373  27.471  1.00  0.00     0.014 A 
ATOM      8  C   UNL A   1      40.243  25.902  28.175  1.00  0.00     0.014 A 
ATOM      9  C   UNL A   1      41.899  28.093  28.649  1.00  0.00     0.010 A 
ATOM     10  C   UNL A   1      40.025  26.710  29.297  1.00  0.00     0.010 A 
ATOM     11  C   UNL A   1      40.878  27.791  29.564  1.00  0.00    -0.014 A 
BRANCH  11  12
ATOM     12  C   UNL A   1      40.698  28.681  30.740  1.00  0.00     0.031 A 
ATOM     13  C   UNL A   1      41.591  28.583  31.947  1.00  0.00     0.074 A 
ATOM     14  C   UNL A   1      39.747  29.635  30.673  1.00  0.00     0.049 A 
ATOM     15  N   UNL A   1      41.590  29.321  33.028  1.00  0.00    -0.248 NA
ATOM     16  C   UNL A   1      42.610  27.522  31.949  1.00  0.00     0.031 C 
ATOM     17  C   UNL A   1      38.808  29.809  29.559  1.00  0.00     0.029 A 
ATOM     18  N   UNL A   1      39.427  30.653  31.532  1.00  0.00    -0.354 N 
ATOM     19  C   UNL A   1      42.596  28.813  33.842  1.00  0.00     0.074 A 
ATOM     20  C   UNL A   1      43.165  27.679  33.145  1.00  0.00     0.031 C 
ATOM     21  C   UNL A   1      38.066  30.903  29.772  1.00  0.00     0.029 A 
ATOM     22  C   UNL A   1      38.416  31.463  31.071  1.00  0.00     0.049 A 
ATOM     23  H   UNL A   1      39.877  30.791  32.396  1.00  0.00     0.167 HD
ATOM     24  C   UNL A   1      43.014  29.262  35.050  1.00  0.00     0.037 A 
ATOM     25  C   UNL A   1      37.817  32.526  31.634  1.00  0.00     0.037 A 
ATOM     26  C   UNL A   1      42.442  30.397  35.732  1.00  0.00     0.049 A 
ATOM     27  C   UNL A   1      38.288  32.989  32.982  1.00  0.00     0.074 A 
ATOM     28  C   UNL A   1      42.791  30.930  36.962  1.00  0.00     0.029 A 
ATOM     29  N   UNL A   1      41.402  31.176  35.244  1.00  0.00    -0.354 N 
ATOM     30  N   UNL A   1      39.248  32.499  33.730  1.00  0.00    -0.248 NA
ATOM     31  C   UNL A   1      37.597  34.145  33.565  1.00  0.00     0.031 C 
ATOM     32  C   UNL A   1      41.941  32.008  37.232  1.00  0.00     0.029 A 
ATOM     33  C   UNL A   1      41.093  32.178  36.151  1.00  0.00     0.049 A 
ATOM     34  H   UNL A   1      40.952  31.038  34.380  1.00  0.00     0.167 HD
ATOM     35  C   UNL A   1      39.284  33.294  34.867  1.00  0.00     0.074 A 
ATOM     36  C   UNL A   1      38.268  34.314  34.695  1.00  0.00     0.031 C 
ATOM     37  C   UNL A   1      40.077  33.185  35.961  1.00  0.00     0.037 A 
BRANCH  24  38
ATOM     38  C   UNL A   1      44.144  28.526  35.722  1.00  0.00     0.058 A 
ATOM     39  C   UNL A   1      45.484  28.886  35.510  1.00  0.00     0.135 A 
ATOM     40  C   UNL A   1      43.883  27.489  36.633  1.00  0.00     0.135 A 
ATOM     41  F   UNL A   1      45.793  29.859  34.639  1.00  0.00    -0.206 F 
ATOM     42  C   UNL A   1      46.526  28.232  36.162  1.00  0.00     0.059 A 
ATOM     43  C   UNL A   1      44.908  26.838  37.315  1.00  0.00     0.059 A 
ATOM     44  F   UNL A   1      42.620  27.104  36.875  1.00  0.00    -0.206 F 
ATOM     45  C   UNL A   1      46.228  27.210  37.064  1.00  0.00     0.060 A 
BRANCH  45  46
ATOM     46  S   UNL A   1      47.592  26.383  37.910  1.00  0.00     0.124 S 
ATOM     47  O   UNL A   1      48.465  27.510  38.225  1.00  0.00    -0.237 OA
ATOM     48  O   UNL A   1      46.923  25.762  39.049  1.00  0.00    -0.237 OA
ATOM     49  O   UNL A   1      48.105  25.456  36.905  1.00  0.00    -0.744 OA
ENDBRANCH  45  46
ENDBRANCH  24  38
BRANCH  25  50
ATOM     50  C   UNL A   1      36.691  33.199  30.936  1.00  0.00     0.058 A 
ATOM     51  C   UNL A   1      35.366  33.050  31.371  1.00  0.00     0.135 A 
ATOM     52  C   UNL A   1      36.925  34.022  29.822  1.00  0.00     0.135 A 
ATOM     53  F   UNL A   1      35.092  32.276  32.432  1.00  0.00    -0.206 F 
ATOM     54  C   UNL A   1      34.311  33.669  30.711  1.00  0.00     0.059 A 
ATOM     55  C   UNL A   1      35.890  34.677  29.166  1.00  0.00     0.059 A 
ATOM     56  F   UNL A   1      38.177  34.218  29.381  1.00  0.00    -0.206 F 
ATOM     57  C   UNL A   1      34.583  34.480  29.607  1.00  0.00     0.060 A 
BRANCH  57  58
ATOM     58  S   UNL A   1      33.211  35.300  28.769  1.00  0.00     0.124 S 
ATOM     59  O   UNL A   1      33.914  36.280  27.950  1.00  0.00    -0.237 OA
ATOM     60  O   UNL A   1      32.585  34.196  28.049  1.00  0.00    -0.237 OA
ATOM     61  O   UNL A   1      32.424  35.844  29.872  1.00  0.00    -0.744 OA
ENDBRANCH  57  58
ENDBRANCH  25  50
BRANCH  37  62
ATOM     62  C   UNL A   1      39.891  34.214  37.040  1.00  0.00     0.058 A 
ATOM     63  C   UNL A   1      39.058  33.980  38.146  1.00  0.00     0.135 A 
ATOM     64  C   UNL A   1      40.563  35.445  36.973  1.00  0.00     0.135 A 
ATOM     65  F   UNL A   1      38.387  32.822  38.252  1.00  0.00    -0.206 F 
ATOM     66  C   UNL A   1      38.871  34.945  39.130  1.00  0.00     0.059 A 
ATOM     67  C   UNL A   1      40.412  36.413  37.960  1.00  0.00     0.059 A 
ATOM     68  F   UNL A   1      41.378  35.715  35.941  1.00  0.00    -0.206 F 
ATOM     69  C   UNL A   1      39.550  36.159  39.026  1.00  0.00     0.060 A 
BRANCH  69  70
ATOM     70  S   UNL A   1      39.307  37.399  40.314  1.00  0.00     0.124 S 
ATOM     71  O   UNL A   1      38.468  38.375  39.627  1.00  0.00    -0.237 OA
ATOM     72  O   UNL A   1      38.652  36.632  41.369  1.00  0.00    -0.237 OA
ATOM     73  O   UNL A   1      40.664  37.842  40.620  1.00  0.00    -0.744 OA
ENDBRANCH  69  70
ENDBRANCH  37  62
ENDBRANCH  11  12
ENDBRANCH   4   6
ENDBRANCH   1   2
BRANCH   1  74
ATOM     74  C   UNL A   1      40.500  22.221  27.539  1.00  0.00     0.042 C 
BRANCH  74  75
ATOM     75  C   UNL A   1      39.538  22.494  26.398  1.00  0.00     0.118 C 
BRANCH  75  76
ATOM     76  N   UNL A   1      39.030  21.267  25.792  1.00  0.00    -0.352 N 
ATOM     77  C   UNL A   1      37.801  21.010  25.234  1.00  0.00     0.251 C 
ATOM     78  H   UNL A   1      39.661  20.511  25.782  1.00  0.00     0.163 HD
ATOM     79  O   UNL A   1      37.469  19.861  24.955  1.00  0.00    -0.269 OA
BRANCH  77  80
ATOM     80  C   UNL A   1      36.881  22.129  24.965  1.00  0.00     0.039 A 
ATOM     81  C   UNL A   1      36.655  22.557  23.659  1.00  0.00     0.014 A 
ATOM     82  C   UNL A   1      36.225  22.747  26.024  1.00  0.00     0.014 A 
ATOM     83  C   UNL A   1      35.691  23.543  23.414  1.00  0.00     0.006 A 
ATOM     84  C   UNL A   1      35.236  23.690  25.770  1.00  0.00     0.006 A 
ATOM     85  C   UNL A   1      34.942  24.113  24.467  1.00  0.00    -0.025 A 
BRANCH  85  86
ATOM     86  C   UNL A   1      33.838  25.110  24.150  1.00  0.00     0.133 C 
ATOM     87  S   UNL A   1      32.972  24.796  22.592  1.00  0.00    -0.143 SA
ATOM     88  S   UNL A   1      32.716  25.524  25.517  1.00  0.00    -0.143 SA
ATOM     89  C   UNL A   1      31.911  23.409  23.061  1.00  0.00     0.072 C 
ATOM     90  C   UNL A   1      31.575  24.115  25.534  1.00  0.00     0.072 C 
ATOM     91  C   UNL A   1      30.954  23.726  24.200  1.00  0.00     0.022 C 
ENDBRANCH  85  86
ENDBRANCH  77  80
ENDBRANCH  75  76
ENDBRANCH  74  75
ENDBRANCH   1  74
TORSDOF 14
ENDMDL
MODEL 3
REMARK VINA RESULT:     -10.4      5.356     11.380
REMARK SMILES O=C(NCCCNC(=O)c1ccc(C2SCCCS2)cc1)c1ccc(-c2c3nc(c(-c4c(F)cc(S(=O)(=O)[O-])cc4F)c4ccc([nH]4)c(-c4c(F)cc(S(=O)(=O)[O-])cc4F)c4nc(c(-c5c(F)cc(S(=O)(=O)[O-])cc5F)c5ccc2[nH]5)C=C4)C=C3)cc1
REMARK SMILES IDX 4 1 3 2 1 3 2 4 22 6 23 7 87 8 24 9 86 10 25 11 26 12 27 13
REMARK SMILES IDX 80 14 28 15 85 16 79 17 81 18 29 19 84 20 78 21 77 22 30 24
REMARK SMILES IDX 64 25 43 26 63 27 44 28 47 29 62 30 82 31 45 32 46 33 61 35
REMARK SMILES IDX 83 36 48 37 31 38 32 39 41 40 33 41 34 42 40 43 42 44 35 45
REMARK SMILES IDX 36 46 37 47 38 48 39 49 65 50 66 51 75 52 67 53 68 54 74 55
REMARK SMILES IDX 76 56 69 57 70 58 71 59 72 60 73 61 49 62 50 63 59 64 51 65
REMARK SMILES IDX 52 66 58 67 60 68 53 69 54 70 55 71 56 72 57 73 5 74 6 75
REMARK SMILES IDX 7 76 8 77 9 79 10 80 11 81 21 82 12 83 20 84 13 85 14 86
REMARK SMILES IDX 15 87 19 88 16 89 18 90 17 91
REMARK H PARENT 3 5 81 23 47 34 7 78
REMARK Flexibility Score: inf
ROOT
ATOM      1  C   UNL A   1      39.306  23.544  26.889  1.00  0.00     0.118 C 
ENDROOT
BRANCH   1   2
ATOM      2  N   UNL A   1      40.475  23.995  26.141  1.00  0.00    -0.352 N 
ATOM      3  O   UNL A   1      42.054  25.427  25.411  1.00  0.00    -0.269 OA
ATOM      4  C   UNL A   1      41.209  25.154  26.258  1.00  0.00     0.251 C 
ATOM      5  H   UNL A   1      40.789  23.376  25.444  1.00  0.00     0.163 HD
BRANCH   4   6
ATOM      6  C   UNL A   1      40.956  26.076  27.387  1.00  0.00     0.039 A 
ATOM      7  C   UNL A   1      41.671  27.268  27.496  1.00  0.00     0.014 A 
ATOM      8  C   UNL A   1      39.999  25.747  28.353  1.00  0.00     0.014 A 
ATOM      9  C   UNL A   1      41.586  28.018  28.658  1.00  0.00     0.010 A 
ATOM     10  C   UNL A   1      39.817  26.580  29.463  1.00  0.00     0.010 A 
ATOM     11  C   UNL A   1      40.638  27.703  29.644  1.00  0.00    -0.014 A 
BRANCH  11  12
ATOM     12  C   UNL A   1      40.493  28.621  30.804  1.00  0.00     0.031 A 
ATOM     13  C   UNL A   1      41.395  28.522  32.004  1.00  0.00     0.074 A 
ATOM     14  C   UNL A   1      39.568  29.599  30.726  1.00  0.00     0.049 A 
ATOM     15  N   UNL A   1      41.424  29.281  33.071  1.00  0.00    -0.248 NA
ATOM     16  C   UNL A   1      42.385  27.434  32.019  1.00  0.00     0.031 C 
ATOM     17  C   UNL A   1      38.624  29.777  29.616  1.00  0.00     0.029 A 
ATOM     18  N   UNL A   1      39.284  30.643  31.567  1.00  0.00    -0.354 N 
ATOM     19  C   UNL A   1      42.424  28.762  33.885  1.00  0.00     0.074 A 
ATOM     20  C   UNL A   1      42.955  27.600  33.206  1.00  0.00     0.031 C 
ATOM     21  C   UNL A   1      37.914  30.895  29.814  1.00  0.00     0.029 A 
ATOM     22  C   UNL A   1      38.292  31.470  31.098  1.00  0.00     0.049 A 
ATOM     23  H   UNL A   1      39.747  30.786  32.424  1.00  0.00     0.167 HD
ATOM     24  C   UNL A   1      42.865  29.223  35.080  1.00  0.00     0.037 A 
ATOM     25  C   UNL A   1      37.727  32.561  31.645  1.00  0.00     0.037 A 
ATOM     26  C   UNL A   1      42.331  30.387  35.744  1.00  0.00     0.049 A 
ATOM     27  C   UNL A   1      38.224  33.037  32.980  1.00  0.00     0.074 A 
ATOM     28  C   UNL A   1      42.706  30.935  36.960  1.00  0.00     0.029 A 
ATOM     29  N   UNL A   1      41.308  31.185  35.250  1.00  0.00    -0.354 N 
ATOM     30  N   UNL A   1      39.177  32.536  33.728  1.00  0.00    -0.248 NA
ATOM     31  C   UNL A   1      37.570  34.223  33.545  1.00  0.00     0.031 C 
ATOM     32  C   UNL A   1      41.889  32.041  37.215  1.00  0.00     0.029 A 
ATOM     33  C   UNL A   1      41.035  32.213  36.139  1.00  0.00     0.049 A 
ATOM     34  H   UNL A   1      40.846  31.042  34.392  1.00  0.00     0.167 HD
ATOM     35  C   UNL A   1      39.245  33.352  34.849  1.00  0.00     0.074 A 
ATOM     36  C   UNL A   1      38.257  34.397  34.665  1.00  0.00     0.031 C 
ATOM     37  C   UNL A   1      40.046  33.243  35.938  1.00  0.00     0.037 A 
BRANCH  24  38
ATOM     38  C   UNL A   1      43.981  28.470  35.757  1.00  0.00     0.058 A 
ATOM     39  C   UNL A   1      45.328  28.799  35.538  1.00  0.00     0.135 A 
ATOM     40  C   UNL A   1      43.700  27.449  36.679  1.00  0.00     0.135 A 
ATOM     41  F   UNL A   1      45.655  29.757  34.656  1.00  0.00    -0.206 F 
ATOM     42  C   UNL A   1      46.357  28.130  36.193  1.00  0.00     0.059 A 
ATOM     43  C   UNL A   1      44.713  26.782  37.365  1.00  0.00     0.059 A 
ATOM     44  F   UNL A   1      42.430  27.093  36.928  1.00  0.00    -0.206 F 
ATOM     45  C   UNL A   1      46.039  27.124  37.107  1.00  0.00     0.060 A 
BRANCH  45  46
ATOM     46  S   UNL A   1      47.388  26.276  37.958  1.00  0.00     0.124 S 
ATOM     47  O   UNL A   1      48.509  26.536  37.059  1.00  0.00    -0.237 OA
ATOM     48  O   UNL A   1      47.432  26.969  39.241  1.00  0.00    -0.237 OA
ATOM     49  O   UNL A   1      46.939  24.888  38.012  1.00  0.00    -0.744 OA
ENDBRANCH  45  46
ENDBRANCH  24  38
BRANCH  25  50
ATOM     50  C   UNL A   1      36.613  33.251  30.944  1.00  0.00     0.058 A 
ATOM     51  C   UNL A   1      36.844  34.060  29.823  1.00  0.00     0.135 A 
ATOM     52  C   UNL A   1      35.287  33.099  31.380  1.00  0.00     0.135 A 
ATOM     53  F   UNL A   1      38.094  34.234  29.367  1.00  0.00    -0.206 F 
ATOM     54  C   UNL A   1      35.804  34.716  29.174  1.00  0.00     0.059 A 
ATOM     55  C   UNL A   1      34.227  33.718  30.728  1.00  0.00     0.059 A 
ATOM     56  F   UNL A   1      35.010  32.316  32.434  1.00  0.00    -0.206 F 
ATOM     57  C   UNL A   1      34.497  34.539  29.636  1.00  0.00     0.060 A 
BRANCH  57  58
ATOM     58  S   UNL A   1      33.149  35.375  28.775  1.00  0.00     0.124 S 
ATOM     59  O   UNL A   1      32.545  34.271  28.039  1.00  0.00    -0.237 OA
ATOM     60  O   UNL A   1      32.363  35.912  29.880  1.00  0.00    -0.237 OA
ATOM     61  O   UNL A   1      33.839  36.374  27.964  1.00  0.00    -0.744 OA
ENDBRANCH  57  58
ENDBRANCH  25  50
BRANCH  37  62
ATOM     62  C   UNL A   1      39.898  34.299  36.997  1.00  0.00     0.058 A 
ATOM     63  C   UNL A   1      38.990  34.156  38.058  1.00  0.00     0.135 A 
ATOM     64  C   UNL A   1      40.683  35.462  36.957  1.00  0.00     0.135 A 
ATOM     65  F   UNL A   1      38.210  33.066  38.137  1.00  0.00    -0.206 F 
ATOM     66  C   UNL A   1      38.840  35.145  39.024  1.00  0.00     0.059 A 
ATOM     67  C   UNL A   1      40.570  36.452  37.927  1.00  0.00     0.059 A 
ATOM     68  F   UNL A   1      41.573  35.644  35.968  1.00  0.00    -0.206 F 
ATOM     69  C   UNL A   1      39.632  36.292  38.947  1.00  0.00     0.060 A 
BRANCH  69  70
ATOM     70  S   UNL A   1      39.436  37.565  40.211  1.00  0.00     0.124 S 
ATOM     71  O   UNL A   1      40.795  38.083  40.319  1.00  0.00    -0.237 OA
ATOM     72  O   UNL A   1      38.461  38.464  39.602  1.00  0.00    -0.237 OA
ATOM     73  O   UNL A   1      38.954  36.819  41.371  1.00  0.00    -0.744 OA
ENDBRANCH  69  70
ENDBRANCH  37  62
ENDBRANCH  11  12
ENDBRANCH   4   6
ENDBRANCH   1   2
BRANCH   1  74
ATOM     74  C   UNL A   1      38.000  23.851  26.182  1.00  0.00     0.042 C 
BRANCH  74  75
ATOM     75  C   UNL A   1      37.412  22.652  25.462  1.00  0.00     0.118 C 
BRANCH  75  76
ATOM     76  N   UNL A   1      36.214  22.139  26.122  1.00  0.00    -0.352 N 
ATOM     77  C   UNL A   1      34.942  22.655  26.149  1.00  0.00     0.251 C 
ATOM     78  H   UNL A   1      36.337  21.300  26.621  1.00  0.00     0.163 HD
ATOM     79  O   UNL A   1      34.101  22.205  26.922  1.00  0.00    -0.269 OA
BRANCH  77  80
ATOM     80  C   UNL A   1      34.588  23.755  25.234  1.00  0.00     0.039 A 
ATOM     81  C   UNL A   1      34.308  23.496  23.894  1.00  0.00     0.014 A 
ATOM     82  C   UNL A   1      34.518  25.056  25.721  1.00  0.00     0.014 A 
ATOM     83  C   UNL A   1      33.861  24.535  23.070  1.00  0.00     0.006 A 
ATOM     84  C   UNL A   1      34.029  26.073  24.910  1.00  0.00     0.006 A 
ATOM     85  C   UNL A   1      33.688  25.844  23.570  1.00  0.00    -0.025 A 
BRANCH  85  86
ATOM     86  C   UNL A   1      33.110  26.924  22.668  1.00  0.00     0.133 C 
ATOM     87  S   UNL A   1      31.314  26.836  22.455  1.00  0.00    -0.143 SA
ATOM     88  S   UNL A   1      33.710  28.614  22.955  1.00  0.00    -0.143 SA
ATOM     89  C   UNL A   1      30.746  27.514  24.031  1.00  0.00     0.072 C 
ATOM     90  C   UNL A   1      32.731  29.145  24.386  1.00  0.00     0.072 C 
ATOM     91  C   UNL A   1      31.227  28.932  24.298  1.00  0.00     0.022 C 
ENDBRANCH  85  86
ENDBRANCH  77  80
ENDBRANCH  75  76
ENDBRANCH  74  75
ENDBRANCH   1  74
TORSDOF 14
ENDMDL
