MODEL 1
REMARK VINA RESULT:     -12.1      0.000      0.000
REMARK SMILES COc1ccc(-n2nc(C(=O)NCCCNC(=O)c3ccc(-c4c5nc(c(-c6c(F)cc(S(=O)(=O)[O-])cc6F)c6ccc([nH]6)c(-c6c(F)cc(S(=O)(=O)[O-])cc6F)c6nc(c(-c7c(F)cc(S(=O)(=O)[O-])cc7F)c7ccc4[nH]7)C=C6)C=C5)cc3)c(=O)cc2C)cc1
REMARK SMILES IDX 14 1 13 2 12 3 10 4 11 5 9 7 7 8 8 9 88 10 87 11 89 12 85 13
REMARK SMILES IDX 86 14 6 15 3 16 4 17 91 18 5 19 90 20 2 21 1 22 15 23 16 24
REMARK SMILES IDX 17 25 18 27 19 28 20 29 84 30 21 31 83 32 22 33 23 34 24 35
REMARK SMILES IDX 77 36 25 37 82 38 76 39 78 40 26 41 81 42 75 43 74 44 27 46
REMARK SMILES IDX 61 47 40 48 60 49 41 50 44 51 59 52 79 53 42 54 43 55 58 57
REMARK SMILES IDX 80 58 45 59 28 60 29 61 38 62 30 63 31 64 37 65 39 66 32 67
REMARK SMILES IDX 33 68 34 69 35 70 36 71 62 72 63 73 72 74 64 75 65 76 71 77
REMARK SMILES IDX 73 78 66 79 67 80 68 81 69 82 70 83 46 84 47 85 56 86 48 87
REMARK SMILES IDX 49 88 55 89 57 90 50 91 51 92 52 93 53 94 54 95
REMARK H PARENT 12 6 16 26 78 45 44 56
REMARK Flexibility Score: inf
ROOT
ATOM      1  C   UNL A   1      37.411  23.825  25.713  1.00  0.00     0.042 C 
ENDROOT
BRANCH   1   2
ATOM      2  C   UNL A   1      36.782  22.450  25.470  1.00  0.00     0.118 C 
BRANCH   2   3
ATOM      3  N   UNL A   1      35.837  22.109  26.517  1.00  0.00    -0.350 N 
ATOM      4  C   UNL A   1      34.577  22.581  26.799  1.00  0.00     0.275 C 
ATOM      5  O   UNL A   1      34.066  22.235  27.865  1.00  0.00    -0.267 OA
ATOM      6  H   UNL A   1      36.155  21.413  27.136  1.00  0.00     0.163 HD
BRANCH   4   7
ATOM      7  C   UNL A   1      33.752  23.448  25.851  1.00  0.00     0.196 A 
ATOM      8  N   UNL A   1      32.752  25.519  25.549  1.00  0.00    -0.237 N 
ATOM      9  N   UNL A   1      33.433  24.621  26.333  1.00  0.00    -0.158 NA
ATOM     10  C   UNL A   1      32.240  25.203  24.286  1.00  0.00     0.044 A 
ATOM     11  C   UNL A   1      32.478  24.013  23.717  1.00  0.00     0.078 A 
ATOM     12  C   UNL A   1      31.484  26.224  23.471  1.00  0.00     0.067 C 
ATOM     13  C   UNL A   1      33.366  23.095  24.436  1.00  0.00     0.213 A 
ATOM     14  O   UNL A   1      33.783  22.099  23.872  1.00  0.00    -0.287 OA
BRANCH   8  15
ATOM     15  C   UNL A   1      32.788  26.844  26.077  1.00  0.00     0.065 A 
ATOM     16  C   UNL A   1      32.886  29.494  27.046  1.00  0.00     0.119 A 
ATOM     17  C   UNL A   1      33.906  29.006  26.231  1.00  0.00     0.048 A 
ATOM     18  C   UNL A   1      31.814  28.664  27.376  1.00  0.00     0.048 A 
ATOM     19  C   UNL A   1      33.869  27.688  25.770  1.00  0.00     0.032 A 
ATOM     20  C   UNL A   1      31.771  27.347  26.899  1.00  0.00     0.032 A 
BRANCH  16  21
ATOM     21  O   UNL A   1      33.009  30.803  27.424  1.00  0.00    -0.497 OA
ATOM     22  C   UNL A   1      34.286  31.160  27.938  1.00  0.00     0.278 C 
ENDBRANCH  16  21
ENDBRANCH   8  15
ENDBRANCH   4   7
ENDBRANCH   2   3
ENDBRANCH   1   2
BRANCH   1  23
ATOM     23  C   UNL A   1      38.424  23.868  26.852  1.00  0.00     0.118 C 
BRANCH  23  24
ATOM     24  N   UNL A   1      39.797  23.821  26.375  1.00  0.00    -0.352 N 
ATOM     25  C   UNL A   1      40.838  24.691  26.601  1.00  0.00     0.251 C 
ATOM     26  H   UNL A   1      40.015  23.050  25.803  1.00  0.00     0.163 HD
ATOM     27  O   UNL A   1      41.863  24.582  25.932  1.00  0.00    -0.269 OA
BRANCH  25  28
ATOM     28  C   UNL A   1      40.735  25.759  27.625  1.00  0.00     0.039 A 
ATOM     29  C   UNL A   1      39.735  25.665  28.598  1.00  0.00     0.014 A 
ATOM     30  C   UNL A   1      41.579  26.873  27.604  1.00  0.00     0.014 A 
ATOM     31  C   UNL A   1      39.616  26.655  29.580  1.00  0.00     0.010 A 
ATOM     32  C   UNL A   1      41.500  27.828  28.619  1.00  0.00     0.010 A 
ATOM     33  C   UNL A   1      40.515  27.731  29.614  1.00  0.00    -0.014 A 
BRANCH  33  34
ATOM     34  C   UNL A   1      40.444  28.775  30.671  1.00  0.00     0.031 A 
ATOM     35  C   UNL A   1      41.318  28.670  31.892  1.00  0.00     0.074 A 
ATOM     36  C   UNL A   1      39.537  29.767  30.574  1.00  0.00     0.049 A 
ATOM     37  N   UNL A   1      41.311  29.396  32.980  1.00  0.00    -0.248 NA
ATOM     38  C   UNL A   1      42.316  27.588  31.898  1.00  0.00     0.031 C 
ATOM     39  C   UNL A   1      38.609  29.959  29.457  1.00  0.00     0.029 A 
ATOM     40  N   UNL A   1      39.230  30.789  31.437  1.00  0.00    -0.354 N 
ATOM     41  C   UNL A   1      42.279  28.844  33.811  1.00  0.00     0.074 A 
ATOM     42  C   UNL A   1      42.832  27.702  33.114  1.00  0.00     0.031 C 
ATOM     43  C   UNL A   1      37.842  31.033  29.702  1.00  0.00     0.029 A 
ATOM     44  C   UNL A   1      38.194  31.584  31.007  1.00  0.00     0.049 A 
ATOM     45  H   UNL A   1      39.707  30.939  32.285  1.00  0.00     0.167 HD
ATOM     46  C   UNL A   1      42.680  29.259  35.037  1.00  0.00     0.037 A 
ATOM     47  C   UNL A   1      37.583  32.627  31.603  1.00  0.00     0.037 A 
ATOM     48  C   UNL A   1      42.151  30.417  35.709  1.00  0.00     0.049 A 
ATOM     49  C   UNL A   1      38.053  33.078  32.959  1.00  0.00     0.074 A 
ATOM     50  C   UNL A   1      42.533  30.955  36.926  1.00  0.00     0.029 A 
ATOM     51  N   UNL A   1      41.130  31.218  35.221  1.00  0.00    -0.354 N 
ATOM     52  N   UNL A   1      39.001  32.572  33.711  1.00  0.00    -0.248 NA
ATOM     53  C   UNL A   1      37.375  34.241  33.548  1.00  0.00     0.031 C 
ATOM     54  C   UNL A   1      41.720  32.063  37.188  1.00  0.00     0.029 A 
ATOM     55  C   UNL A   1      40.859  32.239  36.116  1.00  0.00     0.049 A 
ATOM     56  H   UNL A   1      40.666  31.082  34.363  1.00  0.00     0.167 HD
ATOM     57  C   UNL A   1      39.051  33.369  34.848  1.00  0.00     0.074 A 
ATOM     58  C   UNL A   1      38.042  34.395  34.684  1.00  0.00     0.031 C 
ATOM     59  C   UNL A   1      39.861  33.262  35.930  1.00  0.00     0.037 A 
BRANCH  46  60
ATOM     60  C   UNL A   1      43.747  28.456  35.730  1.00  0.00     0.058 A 
ATOM     61  C   UNL A   1      45.112  28.710  35.523  1.00  0.00     0.135 A 
ATOM     62  C   UNL A   1      43.400  27.442  36.638  1.00  0.00     0.135 A 
ATOM     63  F   UNL A   1      45.499  29.660  34.656  1.00  0.00    -0.206 F 
ATOM     64  C   UNL A   1      46.096  27.966  36.166  1.00  0.00     0.059 A 
ATOM     65  C   UNL A   1      44.367  26.702  37.312  1.00  0.00     0.059 A 
ATOM     66  F   UNL A   1      42.109  27.159  36.875  1.00  0.00    -0.206 F 
ATOM     67  C   UNL A   1      45.714  26.961  37.056  1.00  0.00     0.060 A 
BRANCH  67  68
ATOM     68  S   UNL A   1      47.001  26.001  37.881  1.00  0.00     0.124 S 
ATOM     69  O   UNL A   1      46.298  24.752  38.157  1.00  0.00    -0.237 OA
ATOM     70  O   UNL A   1      48.041  25.927  36.859  1.00  0.00    -0.237 OA
ATOM     71  O   UNL A   1      47.332  26.809  39.050  1.00  0.00    -0.744 OA
ENDBRANCH  67  68
ENDBRANCH  46  60
BRANCH  47  72
ATOM     72  C   UNL A   1      36.468  33.326  30.910  1.00  0.00     0.058 A 
ATOM     73  C   UNL A   1      35.145  33.186  31.354  1.00  0.00     0.135 A 
ATOM     74  C   UNL A   1      36.704  34.164  29.809  1.00  0.00     0.135 A 
ATOM     75  F   UNL A   1      34.869  32.390  32.399  1.00  0.00    -0.206 F 
ATOM     76  C   UNL A   1      34.092  33.842  30.725  1.00  0.00     0.059 A 
ATOM     77  C   UNL A   1      35.670  34.847  29.177  1.00  0.00     0.059 A 
ATOM     78  F   UNL A   1      37.954  34.343  29.356  1.00  0.00    -0.206 F 
ATOM     79  C   UNL A   1      34.366  34.673  29.638  1.00  0.00     0.060 A 
BRANCH  79  80
ATOM     80  S   UNL A   1      32.999  35.566  28.863  1.00  0.00     0.124 S 
ATOM     81  O   UNL A   1      33.710  36.579  28.093  1.00  0.00    -0.237 OA
ATOM     82  O   UNL A   1      32.345  34.516  28.088  1.00  0.00    -0.237 OA
ATOM     83  O   UNL A   1      32.233  36.059  30.004  1.00  0.00    -0.744 OA
ENDBRANCH  79  80
ENDBRANCH  47  72
BRANCH  59  84
ATOM     84  C   UNL A   1      39.723  34.300  37.008  1.00  0.00     0.058 A 
ATOM     85  C   UNL A   1      38.940  34.075  38.149  1.00  0.00     0.135 A 
ATOM     86  C   UNL A   1      40.444  35.501  36.930  1.00  0.00     0.135 A 
ATOM     87  F   UNL A   1      38.225  32.944  38.266  1.00  0.00    -0.206 F 
ATOM     88  C   UNL A   1      38.870  35.010  39.176  1.00  0.00     0.059 A 
ATOM     89  C   UNL A   1      40.407  36.442  37.954  1.00  0.00     0.059 A 
ATOM     90  F   UNL A   1      41.214  35.761  35.861  1.00  0.00    -0.206 F 
ATOM     91  C   UNL A   1      39.610  36.190  39.071  1.00  0.00     0.060 A 
BRANCH  91  92
ATOM     92  S   UNL A   1      39.558  37.371  40.436  1.00  0.00     0.124 S 
ATOM     93  O   UNL A   1      40.974  37.671  40.620  1.00  0.00    -0.237 OA
ATOM     94  O   UNL A   1      38.746  38.451  39.887  1.00  0.00    -0.237 OA
ATOM     95  O   UNL A   1      38.932  36.613  41.516  1.00  0.00    -0.744 OA
ENDBRANCH  91  92
ENDBRANCH  59  84
ENDBRANCH  33  34
ENDBRANCH  25  28
ENDBRANCH  23  24
ENDBRANCH   1  23
TORSDOF 15
ENDMDL
MODEL 2
REMARK VINA RESULT:     -12.0      6.787     12.206
REMARK SMILES COc1ccc(-n2nc(C(=O)NCCCNC(=O)c3ccc(-c4c5nc(c(-c6c(F)cc(S(=O)(=O)[O-])cc6F)c6ccc([nH]6)c(-c6c(F)cc(S(=O)(=O)[O-])cc6F)c6nc(c(-c7c(F)cc(S(=O)(=O)[O-])cc7F)c7ccc4[nH]7)C=C6)C=C5)cc3)c(=O)cc2C)cc1
REMARK SMILES IDX 14 1 13 2 12 3 10 4 11 5 9 7 7 8 8 9 88 10 87 11 89 12 85 13
REMARK SMILES IDX 86 14 6 15 3 16 4 17 91 18 5 19 90 20 2 21 1 22 15 23 16 24
REMARK SMILES IDX 17 25 18 27 19 28 20 29 84 30 21 31 83 32 22 33 23 34 24 35
REMARK SMILES IDX 77 36 25 37 82 38 76 39 78 40 26 41 81 42 75 43 74 44 27 46
REMARK SMILES IDX 61 47 40 48 60 49 41 50 44 51 59 52 79 53 42 54 43 55 58 57
REMARK SMILES IDX 80 58 45 59 28 60 29 61 38 62 30 63 31 64 37 65 39 66 32 67
REMARK SMILES IDX 33 68 34 69 35 70 36 71 62 72 63 73 72 74 64 75 65 76 71 77
REMARK SMILES IDX 73 78 66 79 67 80 68 81 69 82 70 83 46 84 47 85 56 86 48 87
REMARK SMILES IDX 49 88 55 89 57 90 50 91 51 92 52 93 53 94 54 95
REMARK H PARENT 12 6 16 26 78 45 44 56
REMARK Flexibility Score: inf
ROOT
ATOM      1  C   UNL A   1      33.716  28.544  26.826  1.00  0.00     0.042 C 
ENDROOT
BRANCH   1   2
ATOM      2  C   UNL A   1      32.948  29.600  26.024  1.00  0.00     0.118 C 
BRANCH   2   3
ATOM      3  N   UNL A   1      33.377  29.627  24.638  1.00  0.00    -0.350 N 
ATOM      4  C   UNL A   1      33.550  28.622  23.717  1.00  0.00     0.275 C 
ATOM      5  O   UNL A   1      34.097  28.914  22.653  1.00  0.00    -0.267 OA
ATOM      6  H   UNL A   1      33.580  30.527  24.297  1.00  0.00     0.163 HD
BRANCH   4   7
ATOM      7  C   UNL A   1      33.049  27.192  23.901  1.00  0.00     0.196 A 
ATOM      8  N   UNL A   1      33.673  24.967  24.111  1.00  0.00    -0.237 N 
ATOM      9  N   UNL A   1      33.991  26.284  23.885  1.00  0.00    -0.158 NA
ATOM     10  C   UNL A   1      32.359  24.501  24.219  1.00  0.00     0.044 A 
ATOM     11  C   UNL A   1      31.319  25.345  24.209  1.00  0.00     0.078 A 
ATOM     12  C   UNL A   1      32.066  23.039  24.452  1.00  0.00     0.067 C 
ATOM     13  C   UNL A   1      31.622  26.778  24.167  1.00  0.00     0.213 A 
ATOM     14  O   UNL A   1      30.733  27.586  24.370  1.00  0.00    -0.287 OA
BRANCH   8  15
ATOM     15  C   UNL A   1      34.821  24.172  24.407  1.00  0.00     0.065 A 
ATOM     16  C   UNL A   1      37.050  22.569  25.062  1.00  0.00     0.119 A 
ATOM     17  C   UNL A   1      36.391  23.294  26.053  1.00  0.00     0.048 A 
ATOM     18  C   UNL A   1      36.598  22.639  23.744  1.00  0.00     0.048 A 
ATOM     19  C   UNL A   1      35.301  24.104  25.726  1.00  0.00     0.032 A 
ATOM     20  C   UNL A   1      35.494  23.441  23.420  1.00  0.00     0.032 A 
BRANCH  16  21
ATOM     21  O   UNL A   1      38.090  21.792  25.494  1.00  0.00    -0.497 OA
ATOM     22  C   UNL A   1      39.116  22.493  26.186  1.00  0.00     0.278 C 
ENDBRANCH  16  21
ENDBRANCH   8  15
ENDBRANCH   4   7
ENDBRANCH   2   3
ENDBRANCH   1   2
BRANCH   1  23
ATOM     23  C   UNL A   1      35.096  28.987  27.301  1.00  0.00     0.118 C 
BRANCH  23  24
ATOM     24  N   UNL A   1      35.030  29.843  28.474  1.00  0.00    -0.352 N 
ATOM     25  C   UNL A   1      36.007  30.161  29.388  1.00  0.00     0.251 C 
ATOM     26  H   UNL A   1      34.152  30.257  28.641  1.00  0.00     0.163 HD
ATOM     27  O   UNL A   1      35.688  30.735  30.427  1.00  0.00    -0.269 OA
BRANCH  25  28
ATOM     28  C   UNL A   1      37.427  29.814  29.143  1.00  0.00     0.039 A 
ATOM     29  C   UNL A   1      38.220  29.418  30.225  1.00  0.00     0.014 A 
ATOM     30  C   UNL A   1      37.997  29.925  27.871  1.00  0.00     0.014 A 
ATOM     31  C   UNL A   1      39.564  29.081  30.025  1.00  0.00     0.010 A 
ATOM     32  C   UNL A   1      39.318  29.530  27.661  1.00  0.00     0.010 A 
ATOM     33  C   UNL A   1      40.116  29.109  28.736  1.00  0.00    -0.014 A 
BRANCH  33  34
ATOM     34  C   UNL A   1      41.527  28.711  28.482  1.00  0.00     0.031 A 
ATOM     35  C   UNL A   1      42.613  29.753  28.477  1.00  0.00     0.074 A 
ATOM     36  C   UNL A   1      41.818  27.431  28.175  1.00  0.00     0.049 A 
ATOM     37  N   UNL A   1      43.873  29.634  28.147  1.00  0.00    -0.248 NA
ATOM     38  C   UNL A   1      42.222  31.116  28.872  1.00  0.00     0.031 C 
ATOM     39  C   UNL A   1      40.849  26.334  28.114  1.00  0.00     0.029 A 
ATOM     40  N   UNL A   1      43.009  26.839  27.834  1.00  0.00    -0.354 N 
ATOM     41  C   UNL A   1      44.419  30.906  28.265  1.00  0.00     0.074 A 
ATOM     42  C   UNL A   1      43.345  31.790  28.667  1.00  0.00     0.031 C 
ATOM     43  C   UNL A   1      41.485  25.205  27.763  1.00  0.00     0.029 A 
ATOM     44  C   UNL A   1      42.896  25.502  27.535  1.00  0.00     0.049 A 
ATOM     45  H   UNL A   1      43.864  27.327  27.807  1.00  0.00     0.167 HD
ATOM     46  C   UNL A   1      45.701  31.300  28.071  1.00  0.00     0.037 A 
ATOM     47  C   UNL A   1      43.819  24.618  27.108  1.00  0.00     0.037 A 
ATOM     48  C   UNL A   1      46.772  30.409  27.706  1.00  0.00     0.049 A 
ATOM     49  C   UNL A   1      45.239  25.075  26.910  1.00  0.00     0.074 A 
ATOM     50  C   UNL A   1      48.115  30.700  27.543  1.00  0.00     0.029 A 
ATOM     51  N   UNL A   1      46.622  29.055  27.452  1.00  0.00    -0.354 N 
ATOM     52  N   UNL A   1      45.747  26.274  27.071  1.00  0.00    -0.248 NA
ATOM     53  C   UNL A   1      46.212  24.063  26.476  1.00  0.00     0.031 C 
ATOM     54  C   UNL A   1      48.773  29.527  27.159  1.00  0.00     0.029 A 
ATOM     55  C   UNL A   1      47.845  28.497  27.120  1.00  0.00     0.049 A 
ATOM     56  H   UNL A   1      45.771  28.561  27.500  1.00  0.00     0.167 HD
ATOM     57  C   UNL A   1      47.101  26.154  26.783  1.00  0.00     0.074 A 
ATOM     58  C   UNL A   1      47.336  24.766  26.445  1.00  0.00     0.031 C 
ATOM     59  C   UNL A   1      48.064  27.108  26.801  1.00  0.00     0.037 A 
BRANCH  46  60
ATOM     60  C   UNL A   1      46.017  32.760  28.251  1.00  0.00     0.058 A 
ATOM     61  C   UNL A   1      46.427  33.277  29.490  1.00  0.00     0.135 A 
ATOM     62  C   UNL A   1      45.941  33.646  27.164  1.00  0.00     0.135 A 
ATOM     63  F   UNL A   1      46.504  32.476  30.565  1.00  0.00    -0.206 F 
ATOM     64  C   UNL A   1      46.718  34.627  29.654  1.00  0.00     0.059 A 
ATOM     65  C   UNL A   1      46.253  34.996  27.299  1.00  0.00     0.059 A 
ATOM     66  F   UNL A   1      45.556  33.205  25.957  1.00  0.00    -0.206 F 
ATOM     67  C   UNL A   1      46.625  35.480  28.554  1.00  0.00     0.060 A 
BRANCH  67  68
ATOM     68  S   UNL A   1      47.003  37.231  28.781  1.00  0.00     0.124 S 
ATOM     69  O   UNL A   1      46.686  37.415  30.193  1.00  0.00    -0.237 OA
ATOM     70  O   UNL A   1      48.421  37.292  28.439  1.00  0.00    -0.237 OA
ATOM     71  O   UNL A   1      46.106  37.898  27.843  1.00  0.00    -0.744 OA
ENDBRANCH  67  68
ENDBRANCH  46  60
BRANCH  47  72
ATOM     72  C   UNL A   1      43.429  23.206  26.853  1.00  0.00     0.058 A 
ATOM     73  C   UNL A   1      43.358  22.704  25.546  1.00  0.00     0.135 A 
ATOM     74  C   UNL A   1      43.143  22.326  27.909  1.00  0.00     0.135 A 
ATOM     75  F   UNL A   1      43.615  23.509  24.504  1.00  0.00    -0.206 F 
ATOM     76  C   UNL A   1      43.007  21.382  25.291  1.00  0.00     0.059 A 
ATOM     77  C   UNL A   1      42.811  20.994  27.680  1.00  0.00     0.059 A 
ATOM     78  F   UNL A   1      43.213  22.754  29.178  1.00  0.00    -0.206 F 
ATOM     79  C   UNL A   1      42.737  20.534  26.366  1.00  0.00     0.060 A 
BRANCH  79  80
ATOM     80  S   UNL A   1      42.338  18.805  26.027  1.00  0.00     0.124 S 
ATOM     81  O   UNL A   1      43.257  18.500  24.937  1.00  0.00    -0.237 OA
ATOM     82  O   UNL A   1      42.629  18.165  27.306  1.00  0.00    -0.237 OA
ATOM     83  O   UNL A   1      40.923  18.853  25.668  1.00  0.00    -0.744 OA
ENDBRANCH  79  80
ENDBRANCH  47  72
BRANCH  59  84
ATOM     84  C   UNL A   1      49.470  26.683  26.483  1.00  0.00     0.058 A 
ATOM     85  C   UNL A   1      50.265  26.010  27.421  1.00  0.00     0.135 A 
ATOM     86  C   UNL A   1      49.997  26.886  25.198  1.00  0.00     0.135 A 
ATOM     87  F   UNL A   1      49.809  25.799  28.667  1.00  0.00    -0.206 F 
ATOM     88  C   UNL A   1      51.541  25.559  27.100  1.00  0.00     0.059 A 
ATOM     89  C   UNL A   1      51.261  26.424  24.846  1.00  0.00     0.059 A 
ATOM     90  F   UNL A   1      49.272  27.519  24.261  1.00  0.00    -0.206 F 
ATOM     91  C   UNL A   1      52.028  25.767  25.808  1.00  0.00     0.060 A 
BRANCH  91  92
ATOM     92  S   UNL A   1      53.662  25.125  25.384  1.00  0.00     0.124 S 
ATOM     93  O   UNL A   1      53.507  23.706  25.686  1.00  0.00    -0.237 OA
ATOM     94  O   UNL A   1      53.777  25.464  23.970  1.00  0.00    -0.237 OA
ATOM     95  O   UNL A   1      54.557  25.861  26.273  1.00  0.00    -0.744 OA
ENDBRANCH  91  92
ENDBRANCH  59  84
ENDBRANCH  33  34
ENDBRANCH  25  28
ENDBRANCH  23  24
ENDBRANCH   1  23
TORSDOF 15
ENDMDL
MODEL 3
REMARK VINA RESULT:     -11.9      4.915     10.565
REMARK SMILES COc1ccc(-n2nc(C(=O)NCCCNC(=O)c3ccc(-c4c5nc(c(-c6c(F)cc(S(=O)(=O)[O-])cc6F)c6ccc([nH]6)c(-c6c(F)cc(S(=O)(=O)[O-])cc6F)c6nc(c(-c7c(F)cc(S(=O)(=O)[O-])cc7F)c7ccc4[nH]7)C=C6)C=C5)cc3)c(=O)cc2C)cc1
REMARK SMILES IDX 14 1 13 2 12 3 10 4 11 5 9 7 7 8 8 9 88 10 87 11 89 12 85 13
REMARK SMILES IDX 86 14 6 15 3 16 4 17 91 18 5 19 90 20 2 21 1 22 15 23 16 24
REMARK SMILES IDX 17 25 18 27 19 28 20 29 84 30 21 31 83 32 22 33 23 34 24 35
REMARK SMILES IDX 77 36 25 37 82 38 76 39 78 40 26 41 81 42 75 43 74 44 27 46
REMARK SMILES IDX 61 47 40 48 60 49 41 50 44 51 59 52 79 53 42 54 43 55 58 57
REMARK SMILES IDX 80 58 45 59 28 60 29 61 38 62 30 63 31 64 37 65 39 66 32 67
REMARK SMILES IDX 33 68 34 69 35 70 36 71 62 72 63 73 72 74 64 75 65 76 71 77
REMARK SMILES IDX 73 78 66 79 67 80 68 81 69 82 70 83 46 84 47 85 56 86 48 87
REMARK SMILES IDX 49 88 55 89 57 90 50 91 51 92 52 93 53 94 54 95
REMARK H PARENT 12 6 16 26 78 45 44 56
REMARK Flexibility Score: inf
ROOT
ATOM      1  C   UNL A   1      33.952  28.361  24.803  1.00  0.00     0.042 C 
ENDROOT
BRANCH   1   2
ATOM      2  C   UNL A   1      32.610  28.840  24.240  1.00  0.00     0.118 C 
BRANCH   2   3
ATOM      3  N   UNL A   1      32.211  28.055  23.087  1.00  0.00    -0.350 N 
ATOM      4  C   UNL A   1      32.036  26.702  22.919  1.00  0.00     0.275 C 
ATOM      5  O   UNL A   1      31.861  26.290  21.771  1.00  0.00    -0.267 OA
ATOM      6  H   UNL A   1      32.034  28.589  22.278  1.00  0.00     0.163 HD
BRANCH   4   7
ATOM      7  C   UNL A   1      31.978  25.695  24.064  1.00  0.00     0.196 A 
ATOM      8  N   UNL A   1      33.060  23.923  25.099  1.00  0.00    -0.237 N 
ATOM      9  N   UNL A   1      32.964  24.835  24.077  1.00  0.00    -0.158 NA
ATOM     10  C   UNL A   1      32.073  23.754  26.075  1.00  0.00     0.044 A 
ATOM     11  C   UNL A   1      31.003  24.559  26.128  1.00  0.00     0.078 A 
ATOM     12  C   UNL A   1      32.223  22.724  27.168  1.00  0.00     0.067 C 
ATOM     13  C   UNL A   1      30.956  25.672  25.175  1.00  0.00     0.213 A 
ATOM     14  O   UNL A   1      30.124  26.549  25.318  1.00  0.00    -0.287 OA
BRANCH   8  15
ATOM     15  C   UNL A   1      34.346  23.307  25.161  1.00  0.00     0.065 A 
ATOM     16  C   UNL A   1      36.893  22.108  25.367  1.00  0.00     0.119 A 
ATOM     17  C   UNL A   1      36.643  23.335  25.978  1.00  0.00     0.048 A 
ATOM     18  C   UNL A   1      35.874  21.474  24.655  1.00  0.00     0.048 A 
ATOM     19  C   UNL A   1      35.390  23.939  25.858  1.00  0.00     0.032 A 
ATOM     20  C   UNL A   1      34.612  22.075  24.549  1.00  0.00     0.032 A 
BRANCH  16  21
ATOM     21  O   UNL A   1      38.146  21.596  25.566  1.00  0.00    -0.497 OA
ATOM     22  C   UNL A   1      39.052  22.468  26.231  1.00  0.00     0.278 C 
ENDBRANCH  16  21
ENDBRANCH   8  15
ENDBRANCH   4   7
ENDBRANCH   2   3
ENDBRANCH   1   2
BRANCH   1  23
ATOM     23  C   UNL A   1      34.030  28.338  26.327  1.00  0.00     0.118 C 
BRANCH  23  24
ATOM     24  N   UNL A   1      33.788  29.646  26.914  1.00  0.00    -0.352 N 
ATOM     25  C   UNL A   1      34.554  30.370  27.796  1.00  0.00     0.251 C 
ATOM     26  H   UNL A   1      32.947  30.079  26.638  1.00  0.00     0.163 HD
ATOM     27  O   UNL A   1      34.067  31.363  28.333  1.00  0.00    -0.269 OA
BRANCH  25  28
ATOM     28  C   UNL A   1      35.944  29.966  28.115  1.00  0.00     0.039 A 
ATOM     29  C   UNL A   1      36.925  30.092  27.126  1.00  0.00     0.014 A 
ATOM     30  C   UNL A   1      36.279  29.418  29.356  1.00  0.00     0.014 A 
ATOM     31  C   UNL A   1      38.248  29.722  27.397  1.00  0.00     0.010 A 
ATOM     32  C   UNL A   1      37.607  29.107  29.647  1.00  0.00     0.010 A 
ATOM     33  C   UNL A   1      38.604  29.251  28.670  1.00  0.00    -0.014 A 
BRANCH  33  34
ATOM     34  C   UNL A   1      40.009  28.894  29.004  1.00  0.00     0.031 A 
ATOM     35  C   UNL A   1      40.928  29.928  29.596  1.00  0.00     0.074 A 
ATOM     36  C   UNL A   1      40.479  27.668  28.700  1.00  0.00     0.049 A 
ATOM     37  N   UNL A   1      42.213  29.857  29.830  1.00  0.00    -0.248 NA
ATOM     38  C   UNL A   1      40.325  31.225  29.945  1.00  0.00     0.031 C 
ATOM     39  C   UNL A   1      39.697  26.588  28.094  1.00  0.00     0.029 A 
ATOM     40  N   UNL A   1      41.734  27.129  28.837  1.00  0.00    -0.354 N 
ATOM     41  C   UNL A   1      42.579  31.102  30.326  1.00  0.00     0.074 A 
ATOM     42  C   UNL A   1      41.385  31.922  30.329  1.00  0.00     0.031 C 
ATOM     43  C   UNL A   1      40.488  25.518  27.917  1.00  0.00     0.029 A 
ATOM     44  C   UNL A   1      41.840  25.845  28.359  1.00  0.00     0.049 A 
ATOM     45  H   UNL A   1      42.488  27.618  29.242  1.00  0.00     0.167 HD
ATOM     46  C   UNL A   1      43.794  31.521  30.755  1.00  0.00     0.037 A 
ATOM     47  C   UNL A   1      42.909  25.028  28.268  1.00  0.00     0.037 A 
ATOM     48  C   UNL A   1      44.969  30.690  30.782  1.00  0.00     0.049 A 
ATOM     49  C   UNL A   1      44.246  25.510  28.760  1.00  0.00     0.074 A 
ATOM     50  C   UNL A   1      46.233  31.001  31.253  1.00  0.00     0.029 A 
ATOM     51  N   UNL A   1      45.024  29.381  30.326  1.00  0.00    -0.354 N 
ATOM     52  N   UNL A   1      44.564  26.677  29.270  1.00  0.00    -0.248 NA
ATOM     53  C   UNL A   1      45.370  24.567  28.670  1.00  0.00     0.031 C 
ATOM     54  C   UNL A   1      47.061  29.892  31.051  1.00  0.00     0.029 A 
ATOM     55  C   UNL A   1      46.302  28.875  30.491  1.00  0.00     0.049 A 
ATOM     56  H   UNL A   1      44.266  28.884  29.941  1.00  0.00     0.167 HD
ATOM     57  C   UNL A   1      45.916  26.598  29.583  1.00  0.00     0.074 A 
ATOM     58  C   UNL A   1      46.355  25.269  29.213  1.00  0.00     0.031 C 
ATOM     59  C   UNL A   1      46.719  27.543  30.131  1.00  0.00     0.037 A 
BRANCH  46  60
ATOM     60  C   UNL A   1      43.915  32.943  31.230  1.00  0.00     0.058 A 
ATOM     61  C   UNL A   1      44.138  34.002  30.335  1.00  0.00     0.135 A 
ATOM     62  C   UNL A   1      43.771  33.255  32.592  1.00  0.00     0.135 A 
ATOM     63  F   UNL A   1      44.296  33.758  29.024  1.00  0.00    -0.206 F 
ATOM     64  C   UNL A   1      44.249  35.316  30.778  1.00  0.00     0.059 A 
ATOM     65  C   UNL A   1      43.853  34.566  33.053  1.00  0.00     0.059 A 
ATOM     66  F   UNL A   1      43.554  32.282  33.490  1.00  0.00    -0.206 F 
ATOM     67  C   UNL A   1      44.109  35.588  32.139  1.00  0.00     0.060 A 
BRANCH  67  68
ATOM     68  S   UNL A   1      44.258  37.298  32.700  1.00  0.00     0.124 S 
ATOM     69  O   UNL A   1      44.165  38.026  31.438  1.00  0.00    -0.237 OA
ATOM     70  O   UNL A   1      43.111  37.435  33.594  1.00  0.00    -0.237 OA
ATOM     71  O   UNL A   1      45.564  37.331  33.350  1.00  0.00    -0.744 OA
ENDBRANCH  67  68
ENDBRANCH  46  60
BRANCH  47  72
ATOM     72  C   UNL A   1      42.750  23.663  27.701  1.00  0.00     0.058 A 
ATOM     73  C   UNL A   1      42.466  22.568  28.530  1.00  0.00     0.135 A 
ATOM     74  C   UNL A   1      42.857  23.429  26.321  1.00  0.00     0.135 A 
ATOM     75  F   UNL A   1      42.362  22.741  29.857  1.00  0.00    -0.206 F 
ATOM     76  C   UNL A   1      42.303  21.287  28.014  1.00  0.00     0.059 A 
ATOM     77  C   UNL A   1      42.677  22.160  25.780  1.00  0.00     0.059 A 
ATOM     78  F   UNL A   1      43.112  24.446  25.485  1.00  0.00    -0.206 F 
ATOM     79  C   UNL A   1      42.408  21.093  26.636  1.00  0.00     0.060 A 
BRANCH  79  80
ATOM     80  S   UNL A   1      42.138  19.435  25.970  1.00  0.00     0.124 S 
ATOM     81  O   UNL A   1      42.624  18.599  27.061  1.00  0.00    -0.237 OA
ATOM     82  O   UNL A   1      40.696  19.423  25.750  1.00  0.00    -0.237 OA
ATOM     83  O   UNL A   1      42.950  19.427  24.756  1.00  0.00    -0.744 OA
ENDBRANCH  79  80
ENDBRANCH  47  72
BRANCH  59  84
ATOM     84  C   UNL A   1      48.149  27.168  30.402  1.00  0.00     0.058 A 
ATOM     85  C   UNL A   1      49.167  27.431  29.475  1.00  0.00     0.135 A 
ATOM     86  C   UNL A   1      48.511  26.607  31.637  1.00  0.00     0.135 A 
ATOM     87  F   UNL A   1      48.870  27.959  28.276  1.00  0.00    -0.206 F 
ATOM     88  C   UNL A   1      50.498  27.144  29.758  1.00  0.00     0.059 A 
ATOM     89  C   UNL A   1      49.838  26.332  31.951  1.00  0.00     0.059 A 
ATOM     90  F   UNL A   1      47.574  26.343  32.561  1.00  0.00    -0.206 F 
ATOM     91  C   UNL A   1      50.824  26.598  31.002  1.00  0.00     0.060 A 
BRANCH  91  92
ATOM     92  S   UNL A   1      52.562  26.284  31.382  1.00  0.00     0.124 S 
ATOM     93  O   UNL A   1      53.156  26.272  30.049  1.00  0.00    -0.237 OA
ATOM     94  O   UNL A   1      52.911  27.423  32.223  1.00  0.00    -0.237 OA
ATOM     95  O   UNL A   1      52.531  24.994  32.067  1.00  0.00    -0.744 OA
ENDBRANCH  91  92
ENDBRANCH  59  84
ENDBRANCH  33  34
ENDBRANCH  25  28
ENDBRANCH  23  24
ENDBRANCH   1  23
TORSDOF 15
ENDMDL
