MODEL 1
REMARK VINA RESULT:     -14.5      0.000      0.000
REMARK SMILES O=C(NCCCNC(=O)[C@H]1Cc2[nH]cnc2CN1C(=O)C[C@]12C[C@H]3C[C@H](C[C@H](C3)C1)C2)c1ccc(-c2c3nc(c(-c4c(F)cc(S(=O)(=O)[O-])cc4F)c4ccc([nH]4)c(-c4c(F)cc(S(=O)(=O)[O-])cc4F)c4nc(c(-c5c(F)cc(S(=O)(=O)[O-])cc5F)c5ccc2[nH]5)C=C4)C=C3)cc1
REMARK SMILES IDX 5 1 4 2 3 3 1 4 2 5 32 7 33 8 97 9 34 10 96 11 35 12 36 13
REMARK SMILES IDX 37 14 90 15 38 16 95 17 89 18 91 19 39 20 94 21 88 22 87 23
REMARK SMILES IDX 40 25 74 26 53 27 73 28 54 29 57 30 72 31 92 32 55 33 56 34
REMARK SMILES IDX 71 36 93 37 58 38 41 39 42 40 51 41 43 42 44 43 50 44 52 45
REMARK SMILES IDX 45 46 46 47 47 48 48 49 49 50 75 51 76 52 85 53 77 54 78 55
REMARK SMILES IDX 84 56 86 57 79 58 80 59 81 60 82 61 83 62 59 63 60 64 69 65
REMARK SMILES IDX 61 66 62 67 68 68 70 69 63 70 64 71 65 72 66 73 67 74 6 75
REMARK SMILES IDX 7 76 8 77 9 79 10 80 11 81 18 82 12 83 17 84 13 85 16 86
REMARK SMILES IDX 14 87 15 89 19 90 20 91 21 92 22 93 23 94 30 95 31 96 24 97
REMARK SMILES IDX 28 98 26 99 25 100 29 101 27 102
REMARK H PARENT 3 6 91 24 57 35 7 78 13 88
REMARK Flexibility Score: inf
ROOT
ATOM      1  C   UNL A   1      40.647  20.431  26.160  1.00  0.00     0.042 C 
ENDROOT
BRANCH   1   2
ATOM      2  C   UNL A   1      42.152  20.522  26.531  1.00  0.00     0.118 C 
BRANCH   2   3
ATOM      3  N   UNL A   1      43.039  20.892  25.435  1.00  0.00    -0.352 N 
ATOM      4  O   UNL A   1      44.110  22.224  23.969  1.00  0.00    -0.269 OA
ATOM      5  C   UNL A   1      43.507  22.115  25.031  1.00  0.00     0.251 C 
ATOM      6  H   UNL A   1      43.355  20.134  24.891  1.00  0.00     0.163 HD
BRANCH   5   7
ATOM      7  C   UNL A   1      43.235  23.297  25.863  1.00  0.00     0.039 A 
ATOM      8  C   UNL A   1      43.868  23.436  27.094  1.00  0.00     0.014 A 
ATOM      9  C   UNL A   1      42.347  24.272  25.412  1.00  0.00     0.014 A 
ATOM     10  C   UNL A   1      43.476  24.438  27.956  1.00  0.00     0.010 A 
ATOM     11  C   UNL A   1      42.052  25.358  26.234  1.00  0.00     0.010 A 
ATOM     12  C   UNL A   1      42.588  25.430  27.526  1.00  0.00    -0.014 A 
BRANCH  12  13
ATOM     13  C   UNL A   1      42.476  26.609  28.401  1.00  0.00     0.031 A 
ATOM     14  C   UNL A   1      43.576  27.630  28.253  1.00  0.00     0.074 A 
ATOM     15  C   UNL A   1      41.405  26.936  29.149  1.00  0.00     0.049 A 
ATOM     16  N   UNL A   1      44.314  28.192  29.163  1.00  0.00    -0.248 NA
ATOM     17  C   UNL A   1      43.942  27.997  26.872  1.00  0.00     0.031 C 
ATOM     18  C   UNL A   1      40.099  26.278  29.205  1.00  0.00     0.029 A 
ATOM     19  N   UNL A   1      41.233  28.039  29.935  1.00  0.00    -0.354 N 
ATOM     20  C   UNL A   1      45.121  29.105  28.484  1.00  0.00     0.074 A 
ATOM     21  C   UNL A   1      44.939  28.854  27.077  1.00  0.00     0.031 C 
ATOM     22  C   UNL A   1      39.205  27.136  29.740  1.00  0.00     0.029 A 
ATOM     23  C   UNL A   1      39.906  28.335  30.171  1.00  0.00     0.049 A 
ATOM     24  H   UNL A   1      41.979  28.568  30.296  1.00  0.00     0.167 HD
ATOM     25  C   UNL A   1      45.793  30.132  29.074  1.00  0.00     0.037 A 
ATOM     26  C   UNL A   1      39.413  29.529  30.566  1.00  0.00     0.037 A 
ATOM     27  C   UNL A   1      45.951  29.981  30.489  1.00  0.00     0.049 A 
ATOM     28  C   UNL A   1      40.502  30.319  31.192  1.00  0.00     0.074 A 
ATOM     29  C   UNL A   1      46.585  29.081  31.322  1.00  0.00     0.029 A 
ATOM     30  N   UNL A   1      45.208  30.781  31.321  1.00  0.00    -0.354 N 
ATOM     31  N   UNL A   1      41.096  30.012  32.314  1.00  0.00    -0.248 NA
ATOM     32  C   UNL A   1      41.168  31.343  30.401  1.00  0.00     0.031 C 
ATOM     33  C   UNL A   1      45.847  29.099  32.542  1.00  0.00     0.029 A 
ATOM     34  C   UNL A   1      44.782  29.980  32.350  1.00  0.00     0.049 A 
ATOM     35  H   UNL A   1      45.020  31.740  31.204  1.00  0.00     0.167 HD
ATOM     36  C   UNL A   1      42.375  30.532  32.207  1.00  0.00     0.074 A 
ATOM     37  C   UNL A   1      42.315  31.443  31.075  1.00  0.00     0.031 C 
ATOM     38  C   UNL A   1      43.432  29.976  32.870  1.00  0.00     0.037 A 
BRANCH  25  39
ATOM     39  C   UNL A   1      46.097  31.422  28.358  1.00  0.00     0.058 A 
ATOM     40  C   UNL A   1      45.072  32.318  28.016  1.00  0.00     0.135 A 
ATOM     41  C   UNL A   1      47.359  31.692  27.783  1.00  0.00     0.135 A 
ATOM     42  F   UNL A   1      43.824  32.133  28.476  1.00  0.00    -0.206 F 
ATOM     43  C   UNL A   1      45.281  33.386  27.144  1.00  0.00     0.059 A 
ATOM     44  C   UNL A   1      47.607  32.783  26.962  1.00  0.00     0.059 A 
ATOM     45  F   UNL A   1      48.386  30.845  27.931  1.00  0.00    -0.206 F 
ATOM     46  C   UNL A   1      46.548  33.601  26.608  1.00  0.00     0.060 A 
BRANCH  46  47
ATOM     47  S   UNL A   1      46.798  34.890  25.378  1.00  0.00     0.124 S 
ATOM     48  O   UNL A   1      45.774  34.546  24.398  1.00  0.00    -0.237 OA
ATOM     49  O   UNL A   1      46.562  36.108  26.148  1.00  0.00    -0.237 OA
ATOM     50  O   UNL A   1      48.180  34.682  24.957  1.00  0.00    -0.744 OA
ENDBRANCH  46  47
ENDBRANCH  25  39
BRANCH  26  51
ATOM     51  C   UNL A   1      38.150  30.120  30.066  1.00  0.00     0.058 A 
ATOM     52  C   UNL A   1      37.207  30.684  30.934  1.00  0.00     0.135 A 
ATOM     53  C   UNL A   1      37.939  30.326  28.686  1.00  0.00     0.135 A 
ATOM     54  F   UNL A   1      37.366  30.583  32.261  1.00  0.00    -0.206 F 
ATOM     55  C   UNL A   1      36.108  31.403  30.458  1.00  0.00     0.059 A 
ATOM     56  C   UNL A   1      36.843  31.018  28.187  1.00  0.00     0.059 A 
ATOM     57  F   UNL A   1      38.840  29.925  27.775  1.00  0.00    -0.206 F 
ATOM     58  C   UNL A   1      35.936  31.564  29.082  1.00  0.00     0.060 A 
BRANCH  58  59
ATOM     59  S   UNL A   1      34.564  32.563  28.471  1.00  0.00     0.124 S 
ATOM     60  O   UNL A   1      35.249  33.499  27.586  1.00  0.00    -0.237 OA
ATOM     61  O   UNL A   1      33.726  31.563  27.820  1.00  0.00    -0.237 OA
ATOM     62  O   UNL A   1      34.004  33.150  29.685  1.00  0.00    -0.744 OA
ENDBRANCH  58  59
ENDBRANCH  26  51
BRANCH  38  63
ATOM     63  C   UNL A   1      43.138  28.995  33.971  1.00  0.00     0.058 A 
ATOM     64  C   UNL A   1      42.930  29.392  35.301  1.00  0.00     0.135 A 
ATOM     65  C   UNL A   1      42.877  27.655  33.653  1.00  0.00     0.135 A 
ATOM     66  F   UNL A   1      43.054  30.678  35.656  1.00  0.00    -0.206 F 
ATOM     67  C   UNL A   1      42.510  28.493  36.280  1.00  0.00     0.059 A 
ATOM     68  C   UNL A   1      42.432  26.744  34.610  1.00  0.00     0.059 A 
ATOM     69  F   UNL A   1      42.991  27.231  32.382  1.00  0.00    -0.206 F 
ATOM     70  C   UNL A   1      42.255  27.170  35.925  1.00  0.00     0.060 A 
BRANCH  70  71
ATOM     71  S   UNL A   1      41.574  26.046  37.164  1.00  0.00     0.124 S 
ATOM     72  O   UNL A   1      40.366  26.749  37.584  1.00  0.00    -0.237 OA
ATOM     73  O   UNL A   1      41.358  24.818  36.404  1.00  0.00    -0.237 OA
ATOM     74  O   UNL A   1      42.634  25.965  38.165  1.00  0.00    -0.744 OA
ENDBRANCH  70  71
ENDBRANCH  38  63
ENDBRANCH  12  13
ENDBRANCH   5   7
ENDBRANCH   2   3
ENDBRANCH   1   2
BRANCH   1  75
ATOM     75  C   UNL A   1      39.805  21.942  26.511  1.00  0.00     0.117 C 
BRANCH  75  76
ATOM     76  N   UNL A   1      37.765  22.305  26.402  1.00  0.00    -0.354 N 
ATOM     77  C   UNL A   1      36.561  22.909  25.599  1.00  0.00     0.243 C 
ATOM     78  H   UNL A   1      37.380  21.929  27.227  1.00  0.00     0.163 HD
ATOM     79  O   UNL A   1      36.521  24.164  25.633  1.00  0.00    -0.273 OA
BRANCH  77  80
ATOM     80  C   UNL A   1      35.334  22.259  24.889  1.00  0.00     0.180 C 
ATOM     81  C   UNL A   1      35.591  20.715  24.642  1.00  0.00     0.091 C 
ATOM     82  N   UNL A   1      33.880  22.702  25.061  1.00  0.00    -0.324 N 
ATOM     83  C   UNL A   1      34.333  19.957  24.800  1.00  0.00     0.042 A 
ATOM     84  C   UNL A   1      32.904  21.935  24.244  1.00  0.00     0.178 C 
ATOM     85  N   UNL A   1      34.120  18.715  25.321  1.00  0.00    -0.348 N 
ATOM     86  C   UNL A   1      33.087  20.503  24.608  1.00  0.00     0.081 A 
ATOM     87  C   UNL A   1      32.759  18.562  25.412  1.00  0.00     0.197 A 
ATOM     88  H   UNL A   1      34.806  18.059  25.581  1.00  0.00     0.167 HD
ATOM     89  N   UNL A   1      32.110  19.618  24.961  1.00  0.00    -0.240 NA
BRANCH  82  90
ATOM     90  C   UNL A   1      33.308  23.540  26.009  1.00  0.00     0.224 C 
ATOM     91  O   UNL A   1      33.604  23.434  27.208  1.00  0.00    -0.275 OA
BRANCH  90  92
ATOM     92  C   UNL A   1      32.188  24.515  25.694  1.00  0.00     0.107 C 
BRANCH  92  93
ATOM     93  C   UNL A   1      32.449  25.735  24.825  1.00  0.00    -0.020 C 
ATOM     94  C   UNL A   1      32.340  25.269  23.016  1.00  0.00     0.011 C 
ATOM     95  C   UNL A   1      33.843  26.347  24.835  1.00  0.00     0.011 C 
ATOM     96  C   UNL A   1      31.442  27.091  25.663  1.00  0.00     0.011 C 
ATOM     97  C   UNL A   1      31.672  26.626  21.853  1.00  0.00    -0.010 C 
ATOM     98  C   UNL A   1      33.785  27.569  23.901  1.00  0.00    -0.010 C 
ATOM     99  C   UNL A   1      30.940  28.527  24.505  1.00  0.00    -0.010 C 
ATOM    100  C   UNL A   1      30.153  27.902  22.628  1.00  0.00     0.007 C 
ATOM    101  C   UNL A   1      33.460  27.061  22.192  1.00  0.00     0.007 C 
ATOM    102  C   UNL A   1      32.744  28.810  24.669  1.00  0.00     0.007 C 
ENDBRANCH  92  93
ENDBRANCH  90  92
ENDBRANCH  82  90
ENDBRANCH  77  80
ENDBRANCH  75  76
ENDBRANCH   1  75
TORSDOF 16
ENDMDL
MODEL 2
REMARK VINA RESULT:     -14.4      2.894      9.337
REMARK SMILES O=C(NCCCNC(=O)[C@H]1Cc2[nH]cnc2CN1C(=O)C[C@]12C[C@H]3C[C@H](C[C@H](C3)C1)C2)c1ccc(-c2c3nc(c(-c4c(F)cc(S(=O)(=O)[O-])cc4F)c4ccc([nH]4)c(-c4c(F)cc(S(=O)(=O)[O-])cc4F)c4nc(c(-c5c(F)cc(S(=O)(=O)[O-])cc5F)c5ccc2[nH]5)C=C4)C=C3)cc1
REMARK SMILES IDX 5 1 4 2 3 3 1 4 2 5 32 7 33 8 97 9 34 10 96 11 35 12 36 13
REMARK SMILES IDX 37 14 90 15 38 16 95 17 89 18 91 19 39 20 94 21 88 22 87 23
REMARK SMILES IDX 40 25 74 26 53 27 73 28 54 29 57 30 72 31 92 32 55 33 56 34
REMARK SMILES IDX 71 36 93 37 58 38 41 39 42 40 51 41 43 42 44 43 50 44 52 45
REMARK SMILES IDX 45 46 46 47 47 48 48 49 49 50 75 51 76 52 85 53 77 54 78 55
REMARK SMILES IDX 84 56 86 57 79 58 80 59 81 60 82 61 83 62 59 63 60 64 69 65
REMARK SMILES IDX 61 66 62 67 68 68 70 69 63 70 64 71 65 72 66 73 67 74 6 75
REMARK SMILES IDX 7 76 8 77 9 79 10 80 11 81 18 82 12 83 17 84 13 85 16 86
REMARK SMILES IDX 14 87 15 89 19 90 20 91 21 92 22 93 23 94 30 95 31 96 24 97
REMARK SMILES IDX 28 98 26 99 25 100 29 101 27 102
REMARK H PARENT 3 6 91 24 57 35 7 78 13 88
REMARK Flexibility Score: inf
ROOT
ATOM      1  C   UNL A   1      33.615  33.424  28.153  1.00  0.00     0.042 C 
ENDROOT
BRANCH   1   2
ATOM      2  C   UNL A   1      34.293  34.380  29.172  1.00  0.00     0.118 C 
BRANCH   2   3
ATOM      3  N   UNL A   1      33.889  34.193  30.560  1.00  0.00    -0.352 N 
ATOM      4  O   UNL A   1      33.795  33.251  32.603  1.00  0.00    -0.269 OA
ATOM      5  C   UNL A   1      34.398  33.385  31.543  1.00  0.00     0.251 C 
ATOM      6  H   UNL A   1      33.119  34.740  30.839  1.00  0.00     0.163 HD
BRANCH   5   7
ATOM      7  C   UNL A   1      35.646  32.648  31.293  1.00  0.00     0.039 A 
ATOM      8  C   UNL A   1      36.852  33.337  31.215  1.00  0.00     0.014 A 
ATOM      9  C   UNL A   1      35.613  31.263  31.136  1.00  0.00     0.014 A 
ATOM     10  C   UNL A   1      37.989  32.682  30.794  1.00  0.00     0.010 A 
ATOM     11  C   UNL A   1      36.792  30.583  30.840  1.00  0.00     0.010 A 
ATOM     12  C   UNL A   1      37.982  31.292  30.632  1.00  0.00    -0.014 A 
BRANCH  12  13
ATOM     13  C   UNL A   1      39.304  30.661  30.485  1.00  0.00     0.031 A 
ATOM     14  C   UNL A   1      40.088  30.499  31.763  1.00  0.00     0.074 A 
ATOM     15  C   UNL A   1      39.768  30.054  29.376  1.00  0.00     0.049 A 
ATOM     16  N   UNL A   1      41.317  30.828  32.030  1.00  0.00    -0.248 NA
ATOM     17  C   UNL A   1      39.345  29.967  32.921  1.00  0.00     0.031 C 
ATOM     18  C   UNL A   1      39.066  29.796  28.119  1.00  0.00     0.029 A 
ATOM     19  N   UNL A   1      40.961  29.412  29.206  1.00  0.00    -0.354 N 
ATOM     20  C   UNL A   1      41.550  30.393  33.335  1.00  0.00     0.074 A 
ATOM     21  C   UNL A   1      40.275  29.987  33.871  1.00  0.00     0.031 C 
ATOM     22  C   UNL A   1      39.724  28.827  27.447  1.00  0.00     0.029 A 
ATOM     23  C   UNL A   1      40.944  28.502  28.168  1.00  0.00     0.049 A 
ATOM     24  H   UNL A   1      41.752  29.581  29.765  1.00  0.00     0.167 HD
ATOM     25  C   UNL A   1      42.784  30.232  33.887  1.00  0.00     0.037 A 
ATOM     26  C   UNL A   1      41.800  27.471  27.997  1.00  0.00     0.037 A 
ATOM     27  C   UNL A   1      43.825  30.922  33.187  1.00  0.00     0.049 A 
ATOM     28  C   UNL A   1      43.041  27.740  28.765  1.00  0.00     0.074 A 
ATOM     29  C   UNL A   1      44.119  32.241  32.903  1.00  0.00     0.029 A 
ATOM     30  N   UNL A   1      44.719  30.187  32.449  1.00  0.00    -0.354 N 
ATOM     31  N   UNL A   1      43.888  28.698  28.501  1.00  0.00    -0.248 NA
ATOM     32  C   UNL A   1      43.213  27.102  30.062  1.00  0.00     0.031 C 
ATOM     33  C   UNL A   1      44.858  32.218  31.685  1.00  0.00     0.029 A 
ATOM     34  C   UNL A   1      44.924  30.883  31.284  1.00  0.00     0.049 A 
ATOM     35  H   UNL A   1      45.132  29.331  32.705  1.00  0.00     0.167 HD
ATOM     36  C   UNL A   1      44.464  29.025  29.718  1.00  0.00     0.074 A 
ATOM     37  C   UNL A   1      44.107  27.929  30.607  1.00  0.00     0.031 C 
ATOM     38  C   UNL A   1      44.944  30.278  29.970  1.00  0.00     0.037 A 
BRANCH  25  39
ATOM     39  C   UNL A   1      43.067  29.213  34.960  1.00  0.00     0.058 A 
ATOM     40  C   UNL A   1      43.600  29.599  36.200  1.00  0.00     0.135 A 
ATOM     41  C   UNL A   1      43.047  27.823  34.710  1.00  0.00     0.135 A 
ATOM     42  F   UNL A   1      43.702  30.897  36.524  1.00  0.00    -0.206 F 
ATOM     43  C   UNL A   1      44.103  28.669  37.112  1.00  0.00     0.059 A 
ATOM     44  C   UNL A   1      43.485  26.876  35.626  1.00  0.00     0.059 A 
ATOM     45  F   UNL A   1      42.679  27.335  33.518  1.00  0.00    -0.206 F 
ATOM     46  C   UNL A   1      44.057  27.311  36.808  1.00  0.00     0.060 A 
BRANCH  46  47
ATOM     47  S   UNL A   1      44.825  26.117  37.913  1.00  0.00     0.124 S 
ATOM     48  O   UNL A   1      44.209  26.473  39.186  1.00  0.00    -0.237 OA
ATOM     49  O   UNL A   1      44.408  24.842  37.336  1.00  0.00    -0.237 OA
ATOM     50  O   UNL A   1      46.248  26.418  37.787  1.00  0.00    -0.744 OA
ENDBRANCH  46  47
ENDBRANCH  25  39
BRANCH  26  51
ATOM     51  C   UNL A   1      41.407  26.128  27.511  1.00  0.00     0.058 A 
ATOM     52  C   UNL A   1      42.166  25.440  26.556  1.00  0.00     0.135 A 
ATOM     53  C   UNL A   1      40.373  25.401  28.138  1.00  0.00     0.135 A 
ATOM     54  F   UNL A   1      43.204  26.041  25.957  1.00  0.00    -0.206 F 
ATOM     55  C   UNL A   1      41.906  24.105  26.234  1.00  0.00     0.059 A 
ATOM     56  C   UNL A   1      40.080  24.082  27.818  1.00  0.00     0.059 A 
ATOM     57  F   UNL A   1      39.660  25.930  29.144  1.00  0.00    -0.206 F 
ATOM     58  C   UNL A   1      40.859  23.436  26.871  1.00  0.00     0.060 A 
BRANCH  58  59
ATOM     59  S   UNL A   1      40.576  21.691  26.515  1.00  0.00     0.124 S 
ATOM     60  O   UNL A   1      39.266  21.726  25.876  1.00  0.00    -0.237 OA
ATOM     61  O   UNL A   1      41.704  21.371  25.647  1.00  0.00    -0.237 OA
ATOM     62  O   UNL A   1      40.609  21.065  27.834  1.00  0.00    -0.744 OA
ENDBRANCH  58  59
ENDBRANCH  26  51
BRANCH  38  63
ATOM     63  C   UNL A   1      45.137  31.207  28.805  1.00  0.00     0.058 A 
ATOM     64  C   UNL A   1      44.115  32.040  28.324  1.00  0.00     0.135 A 
ATOM     65  C   UNL A   1      46.423  31.401  28.281  1.00  0.00     0.135 A 
ATOM     66  F   UNL A   1      42.886  31.987  28.854  1.00  0.00    -0.206 F 
ATOM     67  C   UNL A   1      44.351  33.003  27.345  1.00  0.00     0.059 A 
ATOM     68  C   UNL A   1      46.687  32.375  27.319  1.00  0.00     0.059 A 
ATOM     69  F   UNL A   1      47.456  30.682  28.751  1.00  0.00    -0.206 F 
ATOM     70  C   UNL A   1      45.642  33.171  26.850  1.00  0.00     0.060 A 
BRANCH  70  71
ATOM     71  S   UNL A   1      45.970  34.515  25.689  1.00  0.00     0.124 S 
ATOM     72  O   UNL A   1      45.598  35.691  26.469  1.00  0.00    -0.237 OA
ATOM     73  O   UNL A   1      47.397  34.365  25.413  1.00  0.00    -0.237 OA
ATOM     74  O   UNL A   1      45.095  34.207  24.562  1.00  0.00    -0.744 OA
ENDBRANCH  70  71
ENDBRANCH  38  63
ENDBRANCH  12  13
ENDBRANCH   5   7
ENDBRANCH   2   3
ENDBRANCH   1   2
BRANCH   1  75
ATOM     75  C   UNL A   1      34.660  32.058  27.756  1.00  0.00     0.117 C 
BRANCH  75  76
ATOM     76  N   UNL A   1      34.213  30.437  26.542  1.00  0.00    -0.354 N 
ATOM     77  C   UNL A   1      33.594  29.002  26.411  1.00  0.00     0.243 C 
ATOM     78  H   UNL A   1      34.534  30.677  25.642  1.00  0.00     0.163 HD
ATOM     79  O   UNL A   1      34.318  28.102  26.905  1.00  0.00    -0.273 OA
BRANCH  77  80
ATOM     80  C   UNL A   1      32.334  28.459  25.669  1.00  0.00     0.180 C 
ATOM     81  C   UNL A   1      31.327  29.642  25.351  1.00  0.00     0.091 C 
ATOM     82  N   UNL A   1      32.319  27.260  24.720  1.00  0.00    -0.324 N 
ATOM     83  C   UNL A   1      30.664  29.411  24.052  1.00  0.00     0.042 A 
ATOM     84  C   UNL A   1      30.978  26.931  24.169  1.00  0.00     0.178 C 
ATOM     85  N   UNL A   1      30.292  30.302  23.090  1.00  0.00    -0.348 N 
ATOM     86  C   UNL A   1      30.485  28.165  23.500  1.00  0.00     0.081 A 
ATOM     87  C   UNL A   1      29.896  29.559  22.006  1.00  0.00     0.197 A 
ATOM     88  H   UNL A   1      30.305  31.284  23.159  1.00  0.00     0.167 HD
ATOM     89  N   UNL A   1      29.977  28.264  22.236  1.00  0.00    -0.240 NA
BRANCH  82  90
ATOM     90  C   UNL A   1      33.371  26.580  24.123  1.00  0.00     0.224 C 
ATOM     91  O   UNL A   1      33.601  26.706  22.911  1.00  0.00    -0.275 OA
BRANCH  90  92
ATOM     92  C   UNL A   1      34.204  25.534  24.842  1.00  0.00     0.107 C 
BRANCH  92  93
ATOM     93  C   UNL A   1      33.548  24.295  25.429  1.00  0.00    -0.020 C 
ATOM     94  C   UNL A   1      32.470  23.470  24.141  1.00  0.00     0.011 C 
ATOM     95  C   UNL A   1      32.514  24.475  26.532  1.00  0.00     0.011 C 
ATOM     96  C   UNL A   1      34.953  23.460  26.370  1.00  0.00     0.011 C 
ATOM     97  C   UNL A   1      32.362  21.569  24.250  1.00  0.00    -0.010 C 
ATOM     98  C   UNL A   1      32.064  23.060  26.939  1.00  0.00    -0.010 C 
ATOM     99  C   UNL A   1      34.724  21.578  26.616  1.00  0.00    -0.010 C 
ATOM    100  C   UNL A   1      34.120  20.534  24.862  1.00  0.00     0.007 C 
ATOM    101  C   UNL A   1      31.214  22.234  25.569  1.00  0.00     0.007 C 
ATOM    102  C   UNL A   1      33.444  22.247  27.745  1.00  0.00     0.007 C 
ENDBRANCH  92  93
ENDBRANCH  90  92
ENDBRANCH  82  90
ENDBRANCH  77  80
ENDBRANCH  75  76
ENDBRANCH   1  75
TORSDOF 16
ENDMDL
MODEL 3
REMARK VINA RESULT:     -14.3      0.770      1.904
REMARK SMILES O=C(NCCCNC(=O)[C@H]1Cc2[nH]cnc2CN1C(=O)C[C@]12C[C@H]3C[C@H](C[C@H](C3)C1)C2)c1ccc(-c2c3nc(c(-c4c(F)cc(S(=O)(=O)[O-])cc4F)c4ccc([nH]4)c(-c4c(F)cc(S(=O)(=O)[O-])cc4F)c4nc(c(-c5c(F)cc(S(=O)(=O)[O-])cc5F)c5ccc2[nH]5)C=C4)C=C3)cc1
REMARK SMILES IDX 5 1 4 2 3 3 1 4 2 5 32 7 33 8 97 9 34 10 96 11 35 12 36 13
REMARK SMILES IDX 37 14 90 15 38 16 95 17 89 18 91 19 39 20 94 21 88 22 87 23
REMARK SMILES IDX 40 25 74 26 53 27 73 28 54 29 57 30 72 31 92 32 55 33 56 34
REMARK SMILES IDX 71 36 93 37 58 38 41 39 42 40 51 41 43 42 44 43 50 44 52 45
REMARK SMILES IDX 45 46 46 47 47 48 48 49 49 50 75 51 76 52 85 53 77 54 78 55
REMARK SMILES IDX 84 56 86 57 79 58 80 59 81 60 82 61 83 62 59 63 60 64 69 65
REMARK SMILES IDX 61 66 62 67 68 68 70 69 63 70 64 71 65 72 66 73 67 74 6 75
REMARK SMILES IDX 7 76 8 77 9 79 10 80 11 81 18 82 12 83 17 84 13 85 16 86
REMARK SMILES IDX 14 87 15 89 19 90 20 91 21 92 22 93 23 94 30 95 31 96 24 97
REMARK SMILES IDX 28 98 26 99 25 100 29 101 27 102
REMARK H PARENT 3 6 91 24 57 35 7 78 13 88
REMARK Flexibility Score: inf
ROOT
ATOM      1  C   UNL A   1      40.559  20.680  26.227  1.00  0.00     0.042 C 
ENDROOT
BRANCH   1   2
ATOM      2  C   UNL A   1      42.070  20.861  26.537  1.00  0.00     0.118 C 
BRANCH   2   3
ATOM      3  N   UNL A   1      42.890  21.276  25.406  1.00  0.00    -0.352 N 
ATOM      4  O   UNL A   1      43.833  22.662  23.902  1.00  0.00    -0.269 OA
ATOM      5  C   UNL A   1      43.282  22.522  24.989  1.00  0.00     0.251 C 
ATOM      6  H   UNL A   1      43.217  20.536  24.844  1.00  0.00     0.163 HD
BRANCH   5   7
ATOM      7  C   UNL A   1      42.993  23.687  25.838  1.00  0.00     0.039 A 
ATOM      8  C   UNL A   1      43.590  23.795  27.090  1.00  0.00     0.014 A 
ATOM      9  C   UNL A   1      42.123  24.677  25.383  1.00  0.00     0.014 A 
ATOM     10  C   UNL A   1      43.179  24.780  27.963  1.00  0.00     0.010 A 
ATOM     11  C   UNL A   1      41.810  25.746  26.220  1.00  0.00     0.010 A 
ATOM     12  C   UNL A   1      42.308  25.786  27.529  1.00  0.00    -0.014 A 
BRANCH  12  13
ATOM     13  C   UNL A   1      42.178  26.946  28.426  1.00  0.00     0.031 A 
ATOM     14  C   UNL A   1      43.285  27.965  28.331  1.00  0.00     0.074 A 
ATOM     15  C   UNL A   1      41.087  27.262  29.151  1.00  0.00     0.049 A 
ATOM     16  N   UNL A   1      44.000  28.503  29.273  1.00  0.00    -0.248 NA
ATOM     17  C   UNL A   1      43.692  28.360  26.970  1.00  0.00     0.031 C 
ATOM     18  C   UNL A   1      39.777  26.610  29.156  1.00  0.00     0.029 A 
ATOM     19  N   UNL A   1      40.898  28.349  29.955  1.00  0.00    -0.354 N 
ATOM     20  C   UNL A   1      44.830  29.427  28.637  1.00  0.00     0.074 A 
ATOM     21  C   UNL A   1      44.686  29.207  27.220  1.00  0.00     0.031 C 
ATOM     22  C   UNL A   1      38.872  27.461  29.684  1.00  0.00     0.029 A 
ATOM     23  C   UNL A   1      39.566  28.647  30.161  1.00  0.00     0.049 A 
ATOM     24  H   UNL A   1      41.636  28.867  30.348  1.00  0.00     0.167 HD
ATOM     25  C   UNL A   1      45.490  30.437  29.268  1.00  0.00     0.037 A 
ATOM     26  C   UNL A   1      39.068  29.834  30.567  1.00  0.00     0.037 A 
ATOM     27  C   UNL A   1      45.607  30.255  30.684  1.00  0.00     0.049 A 
ATOM     28  C   UNL A   1      40.143  30.605  31.241  1.00  0.00     0.074 A 
ATOM     29  C   UNL A   1      46.213  29.333  31.514  1.00  0.00     0.029 A 
ATOM     30  N   UNL A   1      44.845  31.040  31.512  1.00  0.00    -0.354 N 
ATOM     31  N   UNL A   1      40.703  30.270  32.372  1.00  0.00    -0.248 NA
ATOM     32  C   UNL A   1      40.835  31.643  30.491  1.00  0.00     0.031 C 
ATOM     33  C   UNL A   1      45.442  29.328  32.713  1.00  0.00     0.029 A 
ATOM     34  C   UNL A   1      44.386  30.219  32.511  1.00  0.00     0.049 A 
ATOM     35  H   UNL A   1      44.664  32.002  31.411  1.00  0.00     0.167 HD
ATOM     36  C   UNL A   1      41.987  30.786  32.313  1.00  0.00     0.074 A 
ATOM     37  C   UNL A   1      41.963  31.722  31.199  1.00  0.00     0.031 C 
ATOM     38  C   UNL A   1      43.022  30.210  32.992  1.00  0.00     0.037 A 
BRANCH  25  39
ATOM     39  C   UNL A   1      45.820  31.740  28.589  1.00  0.00     0.058 A 
ATOM     40  C   UNL A   1      47.148  32.175  28.467  1.00  0.00     0.135 A 
ATOM     41  C   UNL A   1      44.832  32.696  28.262  1.00  0.00     0.135 A 
ATOM     42  F   UNL A   1      48.165  31.360  28.789  1.00  0.00    -0.206 F 
ATOM     43  C   UNL A   1      47.470  33.476  28.075  1.00  0.00     0.059 A 
ATOM     44  C   UNL A   1      45.128  33.976  27.811  1.00  0.00     0.059 A 
ATOM     45  F   UNL A   1      43.530  32.446  28.455  1.00  0.00    -0.206 F 
ATOM     46  C   UNL A   1      46.451  34.374  27.766  1.00  0.00     0.060 A 
BRANCH  46  47
ATOM     47  S   UNL A   1      46.849  36.089  27.393  1.00  0.00     0.124 S 
ATOM     48  O   UNL A   1      46.594  36.724  28.681  1.00  0.00    -0.237 OA
ATOM     49  O   UNL A   1      48.249  36.005  26.988  1.00  0.00    -0.237 OA
ATOM     50  O   UNL A   1      45.913  36.420  26.323  1.00  0.00    -0.744 OA
ENDBRANCH  46  47
ENDBRANCH  25  39
BRANCH  26  51
ATOM     51  C   UNL A   1      37.822  30.442  30.046  1.00  0.00     0.058 A 
ATOM     52  C   UNL A   1      36.879  31.033  30.896  1.00  0.00     0.135 A 
ATOM     53  C   UNL A   1      37.632  30.637  28.660  1.00  0.00     0.135 A 
ATOM     54  F   UNL A   1      37.020  30.945  32.226  1.00  0.00    -0.206 F 
ATOM     55  C   UNL A   1      35.800  31.767  30.398  1.00  0.00     0.059 A 
ATOM     56  C   UNL A   1      36.554  31.343  28.141  1.00  0.00     0.059 A 
ATOM     57  F   UNL A   1      38.536  30.209  27.766  1.00  0.00    -0.206 F 
ATOM     58  C   UNL A   1      35.647  31.916  29.018  1.00  0.00     0.060 A 
BRANCH  58  59
ATOM     59  S   UNL A   1      34.302  32.932  28.379  1.00  0.00     0.124 S 
ATOM     60  O   UNL A   1      33.471  31.939  27.707  1.00  0.00    -0.237 OA
ATOM     61  O   UNL A   1      33.750  33.508  29.600  1.00  0.00    -0.237 OA
ATOM     62  O   UNL A   1      34.979  33.878  27.497  1.00  0.00    -0.744 OA
ENDBRANCH  58  59
ENDBRANCH  26  51
BRANCH  38  63
ATOM     63  C   UNL A   1      42.693  29.207  34.063  1.00  0.00     0.058 A 
ATOM     64  C   UNL A   1      42.399  27.865  33.776  1.00  0.00     0.135 A 
ATOM     65  C   UNL A   1      42.857  29.555  35.410  1.00  0.00     0.135 A 
ATOM     66  F   UNL A   1      42.334  27.436  32.509  1.00  0.00    -0.206 F 
ATOM     67  C   UNL A   1      42.245  26.915  34.784  1.00  0.00     0.059 A 
ATOM     68  C   UNL A   1      42.733  28.616  36.434  1.00  0.00     0.059 A 
ATOM     69  F   UNL A   1      43.207  30.809  35.743  1.00  0.00    -0.206 F 
ATOM     70  C   UNL A   1      42.421  27.296  36.113  1.00  0.00     0.060 A 
BRANCH  70  71
ATOM     71  S   UNL A   1      42.364  26.033  37.403  1.00  0.00     0.124 S 
ATOM     72  O   UNL A   1      42.880  24.859  36.706  1.00  0.00    -0.237 OA
ATOM     73  O   UNL A   1      43.234  26.587  38.437  1.00  0.00    -0.237 OA
ATOM     74  O   UNL A   1      40.949  25.980  37.759  1.00  0.00    -0.744 OA
ENDBRANCH  70  71
ENDBRANCH  38  63
ENDBRANCH  12  13
ENDBRANCH   5   7
ENDBRANCH   2   3
ENDBRANCH   1   2
BRANCH   1  75
ATOM     75  C   UNL A   1      39.653  22.160  26.551  1.00  0.00     0.117 C 
BRANCH  75  76
ATOM     76  N   UNL A   1      37.602  22.441  26.412  1.00  0.00    -0.354 N 
ATOM     77  C   UNL A   1      36.385  22.978  25.582  1.00  0.00     0.243 C 
ATOM     78  H   UNL A   1      37.223  22.069  27.240  1.00  0.00     0.163 HD
ATOM     79  O   UNL A   1      36.296  24.232  25.586  1.00  0.00    -0.273 OA
BRANCH  77  80
ATOM     80  C   UNL A   1      35.193  22.265  24.873  1.00  0.00     0.180 C 
ATOM     81  C   UNL A   1      35.526  20.734  24.636  1.00  0.00     0.091 C 
ATOM     82  N   UNL A   1      33.718  22.637  25.042  1.00  0.00    -0.324 N 
ATOM     83  C   UNL A   1      34.306  19.916  24.796  1.00  0.00     0.042 A 
ATOM     84  C   UNL A   1      32.783  21.818  24.228  1.00  0.00     0.178 C 
ATOM     85  N   UNL A   1      34.154  18.668  25.324  1.00  0.00    -0.348 N 
ATOM     86  C   UNL A   1      33.035  20.399  24.600  1.00  0.00     0.081 A 
ATOM     87  C   UNL A   1      32.802  18.448  25.414  1.00  0.00     0.197 A 
ATOM     88  H   UNL A   1      34.872  18.048  25.588  1.00  0.00     0.167 HD
ATOM     89  N   UNL A   1      32.103  19.468  24.957  1.00  0.00    -0.240 NA
BRANCH  82  90
ATOM     90  C   UNL A   1      33.104  23.450  25.985  1.00  0.00     0.224 C 
ATOM     91  O   UNL A   1      32.341  22.969  26.835  1.00  0.00    -0.275 OA
BRANCH  90  92
ATOM     92  C   UNL A   1      33.184  24.965  25.958  1.00  0.00     0.107 C 
BRANCH  92  93
ATOM     93  C   UNL A   1      32.469  25.757  24.874  1.00  0.00    -0.020 C 
ATOM     94  C   UNL A   1      31.664  27.275  25.614  1.00  0.00     0.011 C 
ATOM     95  C   UNL A   1      31.249  25.135  24.207  1.00  0.00     0.011 C 
ATOM     96  C   UNL A   1      33.706  25.764  23.451  1.00  0.00     0.011 C 
ATOM     97  C   UNL A   1      31.593  28.807  24.480  1.00  0.00    -0.010 C 
ATOM     98  C   UNL A   1      30.775  26.143  23.146  1.00  0.00    -0.010 C 
ATOM     99  C   UNL A   1      33.492  27.221  22.230  1.00  0.00    -0.010 C 
ATOM    100  C   UNL A   1      33.242  29.116  23.168  1.00  0.00     0.007 C 
ATOM    101  C   UNL A   1      30.209  27.680  23.922  1.00  0.00     0.007 C 
ATOM    102  C   UNL A   1      32.010  26.210  21.848  1.00  0.00     0.007 C 
ENDBRANCH  92  93
ENDBRANCH  90  92
ENDBRANCH  82  90
ENDBRANCH  77  80
ENDBRANCH  75  76
ENDBRANCH   1  75
TORSDOF 16
ENDMDL
