MODEL 1
REMARK VINA RESULT:     -10.8      0.000      0.000
REMARK SMILES O=C(C[C@@H]1C(=O)NC(=S)N1c1ccccc1)NCCCNC(=O)c1ccc(-c2c3nc(c(-c4c(F)cc(S(=O)(=O)[O-])cc4F)c4ccc([nH]4)c(-c4c(F)cc(S(=O)(=O)[O-])cc4F)c4nc(c(-c5c(F)cc(S(=O)(=O)[O-])cc5F)c5ccc2[nH]5)C=C4)C=C3)cc1
REMARK SMILES IDX 19 1 18 2 17 3 1 4 2 5 3 7 4 8 5 9 10 10 6 11 7 12 8 13 9 15
REMARK SMILES IDX 11 16 12 17 16 18 13 19 15 20 14 21 20 22 21 23 22 24 23 26
REMARK SMILES IDX 24 27 25 28 89 29 26 30 88 31 27 32 28 33 29 34 82 35 30 36
REMARK SMILES IDX 87 37 81 38 83 39 31 40 86 41 80 42 79 43 32 45 66 46 45 47
REMARK SMILES IDX 65 48 46 49 49 50 64 51 84 52 47 53 48 54 63 56 85 57 50 58
REMARK SMILES IDX 33 59 34 60 43 61 35 62 36 63 42 64 44 65 37 66 38 67 39 68
REMARK SMILES IDX 40 69 41 70 67 71 68 72 77 73 69 74 70 75 76 76 78 77 71 78
REMARK SMILES IDX 72 79 73 80 74 81 75 82 51 83 52 84 61 85 53 86 54 87 60 88
REMARK SMILES IDX 62 89 55 90 56 91 57 92 58 93 59 94
REMARK H PARENT 17 6 7 14 21 25 83 44 49 55
REMARK Flexibility Score: inf
ROOT
ATOM      1  C   UNL A   1      33.695  27.855  25.596  1.00  0.00     0.042 C 
ENDROOT
BRANCH   1   2
ATOM      2  C   UNL A   1      32.827  26.691  25.140  1.00  0.00     0.117 C 
BRANCH   2   3
ATOM      3  N   UNL A   1      33.607  25.591  24.598  1.00  0.00    -0.356 N 
ATOM      4  O   UNL A   1      32.234  25.231  22.797  1.00  0.00    -0.275 OA
ATOM      5  C   UNL A   1      33.265  24.984  23.416  1.00  0.00     0.222 C 
ATOM      6  H   UNL A   1      34.399  25.275  25.091  1.00  0.00     0.163 HD
BRANCH   5   7
ATOM      7  C   UNL A   1      34.209  23.909  22.931  1.00  0.00     0.135 C 
BRANCH   7   8
ATOM      8  C   UNL A   1      34.135  22.547  23.610  1.00  0.00     0.188 C 
ATOM      9  C   UNL A   1      32.708  22.024  23.807  1.00  0.00     0.249 C 
ATOM     10  N   UNL A   1      34.607  22.518  25.004  1.00  0.00    -0.306 N 
ATOM     11  O   UNL A   1      31.916  21.727  22.928  1.00  0.00    -0.272 OA
ATOM     12  N   UNL A   1      32.457  21.900  25.134  1.00  0.00    -0.301 N 
ATOM     13  C   UNL A   1      33.566  22.158  25.876  1.00  0.00     0.180 C 
ATOM     14  H   UNL A   1      31.583  21.654  25.512  1.00  0.00     0.172 HD
ATOM     15  S   UNL A   1      33.525  22.073  27.535  1.00  0.00    -0.040 S 
BRANCH  10  16
ATOM     16  C   UNL A   1      35.981  22.627  25.343  1.00  0.00     0.044 A 
ATOM     17  C   UNL A   1      36.839  21.529  25.193  1.00  0.00     0.026 A 
ATOM     18  C   UNL A   1      36.510  23.815  25.859  1.00  0.00     0.026 A 
ATOM     19  C   UNL A   1      38.179  21.606  25.582  1.00  0.00     0.002 A 
ATOM     20  C   UNL A   1      37.845  23.887  26.268  1.00  0.00     0.002 A 
ATOM     21  C   UNL A   1      38.679  22.782  26.133  1.00  0.00     0.000 A 
ENDBRANCH  10  16
ENDBRANCH   7   8
ENDBRANCH   5   7
ENDBRANCH   2   3
ENDBRANCH   1   2
BRANCH   1  22
ATOM     22  C   UNL A   1      33.692  28.096  27.101  1.00  0.00     0.118 C 
BRANCH  22  23
ATOM     23  N   UNL A   1      33.502  29.494  27.458  1.00  0.00    -0.352 N 
ATOM     24  C   UNL A   1      34.370  30.389  28.033  1.00  0.00     0.251 C 
ATOM     25  H   UNL A   1      32.609  29.855  27.253  1.00  0.00     0.163 HD
ATOM     26  O   UNL A   1      33.946  31.487  28.386  1.00  0.00    -0.269 OA
BRANCH  24  27
ATOM     27  C   UNL A   1      35.795  30.047  28.251  1.00  0.00     0.039 A 
ATOM     28  C   UNL A   1      36.199  29.644  29.528  1.00  0.00     0.014 A 
ATOM     29  C   UNL A   1      36.745  30.163  27.233  1.00  0.00     0.014 A 
ATOM     30  C   UNL A   1      37.537  29.323  29.770  1.00  0.00     0.010 A 
ATOM     31  C   UNL A   1      38.062  29.759  27.453  1.00  0.00     0.010 A 
ATOM     32  C   UNL A   1      38.480  29.356  28.729  1.00  0.00    -0.014 A 
BRANCH  32  33
ATOM     33  C   UNL A   1      39.906  29.013  28.976  1.00  0.00     0.031 A 
ATOM     34  C   UNL A   1      40.839  30.037  29.571  1.00  0.00     0.074 A 
ATOM     35  C   UNL A   1      40.373  27.793  28.640  1.00  0.00     0.049 A 
ATOM     36  N   UNL A   1      42.117  29.934  29.842  1.00  0.00    -0.248 NA
ATOM     37  C   UNL A   1      40.271  31.359  29.876  1.00  0.00     0.031 C 
ATOM     38  C   UNL A   1      39.584  26.729  28.014  1.00  0.00     0.029 A 
ATOM     39  N   UNL A   1      41.623  27.241  28.776  1.00  0.00    -0.354 N 
ATOM     40  C   UNL A   1      42.502  31.175  30.338  1.00  0.00     0.074 A 
ATOM     41  C   UNL A   1      41.341  32.034  30.270  1.00  0.00     0.031 C 
ATOM     42  C   UNL A   1      40.360  25.646  27.849  1.00  0.00     0.029 A 
ATOM     43  C   UNL A   1      41.708  25.946  28.323  1.00  0.00     0.049 A 
ATOM     44  H   UNL A   1      42.386  27.729  29.163  1.00  0.00     0.167 HD
ATOM     45  C   UNL A   1      43.703  31.557  30.833  1.00  0.00     0.037 A 
ATOM     46  C   UNL A   1      42.753  25.095  28.293  1.00  0.00     0.037 A 
ATOM     47  C   UNL A   1      44.851  30.689  30.922  1.00  0.00     0.049 A 
ATOM     48  C   UNL A   1      44.078  25.540  28.852  1.00  0.00     0.074 A 
ATOM     49  C   UNL A   1      46.099  30.966  31.451  1.00  0.00     0.029 A 
ATOM     50  N   UNL A   1      44.890  29.378  30.471  1.00  0.00    -0.354 N 
ATOM     51  N   UNL A   1      44.408  26.699  29.373  1.00  0.00    -0.248 NA
ATOM     52  C   UNL A   1      45.171  24.558  28.834  1.00  0.00     0.031 C 
ATOM     53  C   UNL A   1      46.908  29.838  31.277  1.00  0.00     0.029 A 
ATOM     54  C   UNL A   1      46.146  28.839  30.695  1.00  0.00     0.049 A 
ATOM     55  H   UNL A   1      44.137  28.901  30.053  1.00  0.00     0.167 HD
ATOM     56  C   UNL A   1      45.732  26.571  29.779  1.00  0.00     0.074 A 
ATOM     57  C   UNL A   1      46.140  25.220  29.450  1.00  0.00     0.031 C 
ATOM     58  C   UNL A   1      46.536  27.487  30.375  1.00  0.00     0.037 A 
BRANCH  45  59
ATOM     59  C   UNL A   1      43.840  32.975  31.322  1.00  0.00     0.058 A 
ATOM     60  C   UNL A   1      43.573  33.326  32.656  1.00  0.00     0.135 A 
ATOM     61  C   UNL A   1      44.272  33.992  30.454  1.00  0.00     0.135 A 
ATOM     62  F   UNL A   1      43.142  32.400  33.526  1.00  0.00    -0.206 F 
ATOM     63  C   UNL A   1      43.697  34.637  33.103  1.00  0.00     0.059 A 
ATOM     64  C   UNL A   1      44.434  35.305  30.888  1.00  0.00     0.059 A 
ATOM     65  F   UNL A   1      44.542  33.715  29.168  1.00  0.00    -0.206 F 
ATOM     66  C   UNL A   1      44.128  35.621  32.210  1.00  0.00     0.060 A 
BRANCH  66  67
ATOM     67  S   UNL A   1      44.284  37.316  32.808  1.00  0.00     0.124 S 
ATOM     68  O   UNL A   1      44.221  38.072  31.560  1.00  0.00    -0.237 OA
ATOM     69  O   UNL A   1      43.125  37.446  33.686  1.00  0.00    -0.237 OA
ATOM     70  O   UNL A   1      45.580  37.323  33.480  1.00  0.00    -0.744 OA
ENDBRANCH  66  67
ENDBRANCH  45  59
BRANCH  46  71
ATOM     71  C   UNL A   1      42.581  23.723  27.743  1.00  0.00     0.058 A 
ATOM     72  C   UNL A   1      42.579  23.492  26.358  1.00  0.00     0.135 A 
ATOM     73  C   UNL A   1      42.419  22.613  28.589  1.00  0.00     0.135 A 
ATOM     74  F   UNL A   1      42.724  24.520  25.508  1.00  0.00    -0.206 F 
ATOM     75  C   UNL A   1      42.401  22.217  25.830  1.00  0.00     0.059 A 
ATOM     76  C   UNL A   1      42.269  21.325  28.085  1.00  0.00     0.059 A 
ATOM     77  F   UNL A   1      42.431  22.776  29.920  1.00  0.00    -0.206 F 
ATOM     78  C   UNL A   1      42.249  21.139  26.704  1.00  0.00     0.060 A 
BRANCH  78  79
ATOM     79  S   UNL A   1      42.061  19.482  26.008  1.00  0.00     0.124 S 
ATOM     80  O   UNL A   1      42.563  18.649  27.095  1.00  0.00    -0.237 OA
ATOM     81  O   UNL A   1      40.624  19.416  25.762  1.00  0.00    -0.237 OA
ATOM     82  O   UNL A   1      42.893  19.525  24.810  1.00  0.00    -0.744 OA
ENDBRANCH  78  79
ENDBRANCH  46  71
BRANCH  58  83
ATOM     83  C   UNL A   1      47.921  27.046  30.764  1.00  0.00     0.058 A 
ATOM     84  C   UNL A   1      49.045  27.329  29.971  1.00  0.00     0.135 A 
ATOM     85  C   UNL A   1      48.130  26.362  31.974  1.00  0.00     0.135 A 
ATOM     86  F   UNL A   1      48.903  27.978  28.804  1.00  0.00    -0.206 F 
ATOM     87  C   UNL A   1      50.321  26.918  30.345  1.00  0.00     0.059 A 
ATOM     88  C   UNL A   1      49.401  25.971  32.383  1.00  0.00     0.059 A 
ATOM     89  F   UNL A   1      47.093  26.078  32.778  1.00  0.00    -0.206 F 
ATOM     90  C   UNL A   1      50.488  26.239  31.554  1.00  0.00     0.060 A 
BRANCH  90  91
ATOM     91  S   UNL A   1      52.150  25.725  32.036  1.00  0.00     0.124 S 
ATOM     92  O   UNL A   1      52.876  25.860  30.778  1.00  0.00    -0.237 OA
ATOM     93  O   UNL A   1      52.490  26.697  33.071  1.00  0.00    -0.237 OA
ATOM     94  O   UNL A   1      51.960  24.356  32.509  1.00  0.00    -0.744 OA
ENDBRANCH  90  91
ENDBRANCH  58  83
ENDBRANCH  32  33
ENDBRANCH  24  27
ENDBRANCH  22  23
ENDBRANCH   1  22
TORSDOF 15
ENDMDL
MODEL 2
REMARK VINA RESULT:     -10.8      3.148      4.205
REMARK SMILES O=C(C[C@@H]1C(=O)NC(=S)N1c1ccccc1)NCCCNC(=O)c1ccc(-c2c3nc(c(-c4c(F)cc(S(=O)(=O)[O-])cc4F)c4ccc([nH]4)c(-c4c(F)cc(S(=O)(=O)[O-])cc4F)c4nc(c(-c5c(F)cc(S(=O)(=O)[O-])cc5F)c5ccc2[nH]5)C=C4)C=C3)cc1
REMARK SMILES IDX 19 1 18 2 17 3 1 4 2 5 3 7 4 8 5 9 10 10 6 11 7 12 8 13 9 15
REMARK SMILES IDX 11 16 12 17 16 18 13 19 15 20 14 21 20 22 21 23 22 24 23 26
REMARK SMILES IDX 24 27 25 28 89 29 26 30 88 31 27 32 28 33 29 34 82 35 30 36
REMARK SMILES IDX 87 37 81 38 83 39 31 40 86 41 80 42 79 43 32 45 66 46 45 47
REMARK SMILES IDX 65 48 46 49 49 50 64 51 84 52 47 53 48 54 63 56 85 57 50 58
REMARK SMILES IDX 33 59 34 60 43 61 35 62 36 63 42 64 44 65 37 66 38 67 39 68
REMARK SMILES IDX 40 69 41 70 67 71 68 72 77 73 69 74 70 75 76 76 78 77 71 78
REMARK SMILES IDX 72 79 73 80 74 81 75 82 51 83 52 84 61 85 53 86 54 87 60 88
REMARK SMILES IDX 62 89 55 90 56 91 57 92 58 93 59 94
REMARK H PARENT 17 6 7 14 21 25 83 44 49 55
REMARK Flexibility Score: inf
ROOT
ATOM      1  C   UNL A   1      34.867  29.669  27.609  1.00  0.00     0.042 C 
ENDROOT
BRANCH   1   2
ATOM      2  C   UNL A   1      33.665  30.011  26.740  1.00  0.00     0.117 C 
BRANCH   2   3
ATOM      3  N   UNL A   1      33.744  29.416  25.418  1.00  0.00    -0.356 N 
ATOM      4  O   UNL A   1      31.533  29.748  24.908  1.00  0.00    -0.275 OA
ATOM      5  C   UNL A   1      32.659  29.389  24.578  1.00  0.00     0.222 C 
ATOM      6  H   UNL A   1      34.595  29.021  25.118  1.00  0.00     0.163 HD
BRANCH   5   7
ATOM      7  C   UNL A   1      32.905  28.812  23.203  1.00  0.00     0.135 C 
BRANCH   7   8
ATOM      8  C   UNL A   1      32.069  27.608  22.786  1.00  0.00     0.188 C 
ATOM      9  C   UNL A   1      30.570  27.901  22.659  1.00  0.00     0.249 C 
ATOM     10  N   UNL A   1      32.027  26.508  23.763  1.00  0.00    -0.306 N 
ATOM     11  O   UNL A   1      30.043  28.656  21.858  1.00  0.00    -0.272 OA
ATOM     12  N   UNL A   1      29.891  27.154  23.565  1.00  0.00    -0.301 N 
ATOM     13  C   UNL A   1      30.716  26.295  24.221  1.00  0.00     0.180 C 
ATOM     14  H   UNL A   1      28.923  27.224  23.727  1.00  0.00     0.172 HD
ATOM     15  S   UNL A   1      30.129  25.265  25.385  1.00  0.00    -0.040 S 
BRANCH  10  16
ATOM     16  C   UNL A   1      33.144  25.665  24.006  1.00  0.00     0.044 A 
ATOM     17  C   UNL A   1      33.528  24.706  23.060  1.00  0.00     0.026 A 
ATOM     18  C   UNL A   1      33.869  25.747  25.200  1.00  0.00     0.026 A 
ATOM     19  C   UNL A   1      34.587  23.829  23.315  1.00  0.00     0.002 A 
ATOM     20  C   UNL A   1      34.915  24.857  25.465  1.00  0.00     0.002 A 
ATOM     21  C   UNL A   1      35.271  23.896  24.525  1.00  0.00     0.000 A 
ENDBRANCH  10  16
ENDBRANCH   7   8
ENDBRANCH   5   7
ENDBRANCH   2   3
ENDBRANCH   1   2
BRANCH   1  22
ATOM     22  C   UNL A   1      35.504  30.863  28.310  1.00  0.00     0.118 C 
BRANCH  22  23
ATOM     23  N   UNL A   1      35.512  30.740  29.759  1.00  0.00    -0.352 N 
ATOM     24  C   UNL A   1      36.475  30.245  30.603  1.00  0.00     0.251 C 
ATOM     25  H   UNL A   1      34.697  31.065  30.206  1.00  0.00     0.163 HD
ATOM     26  O   UNL A   1      36.207  30.098  31.793  1.00  0.00    -0.269 OA
BRANCH  24  27
ATOM     27  C   UNL A   1      37.819  29.872  30.101  1.00  0.00     0.039 A 
ATOM     28  C   UNL A   1      38.756  29.370  31.009  1.00  0.00     0.014 A 
ATOM     29  C   UNL A   1      38.183  30.052  28.764  1.00  0.00     0.014 A 
ATOM     30  C   UNL A   1      40.035  29.016  30.572  1.00  0.00     0.010 A 
ATOM     31  C   UNL A   1      39.429  29.617  28.312  1.00  0.00     0.010 A 
ATOM     32  C   UNL A   1      40.379  29.115  29.214  1.00  0.00    -0.014 A 
BRANCH  32  33
ATOM     33  C   UNL A   1      41.736  28.739  28.737  1.00  0.00     0.031 A 
ATOM     34  C   UNL A   1      42.828  29.775  28.664  1.00  0.00     0.074 A 
ATOM     35  C   UNL A   1      41.984  27.473  28.341  1.00  0.00     0.049 A 
ATOM     36  N   UNL A   1      44.067  29.645  28.259  1.00  0.00    -0.248 NA
ATOM     37  C   UNL A   1      42.477  31.144  29.075  1.00  0.00     0.031 C 
ATOM     38  C   UNL A   1      41.001  26.387  28.317  1.00  0.00     0.029 A 
ATOM     39  N   UNL A   1      43.136  26.885  27.882  1.00  0.00    -0.354 N 
ATOM     40  C   UNL A   1      44.635  30.912  28.357  1.00  0.00     0.074 A 
ATOM     41  C   UNL A   1      43.590  31.808  28.798  1.00  0.00     0.031 C 
ATOM     42  C   UNL A   1      41.599  25.262  27.896  1.00  0.00     0.029 A 
ATOM     43  C   UNL A   1      42.996  25.549  27.587  1.00  0.00     0.049 A 
ATOM     44  H   UNL A   1      43.983  27.375  27.774  1.00  0.00     0.167 HD
ATOM     45  C   UNL A   1      45.916  31.289  28.131  1.00  0.00     0.037 A 
ATOM     46  C   UNL A   1      43.892  24.657  27.121  1.00  0.00     0.037 A 
ATOM     47  C   UNL A   1      46.960  30.387  27.716  1.00  0.00     0.049 A 
ATOM     48  C   UNL A   1      45.311  25.098  26.879  1.00  0.00     0.074 A 
ATOM     49  C   UNL A   1      48.300  30.661  27.506  1.00  0.00     0.029 A 
ATOM     50  N   UNL A   1      46.783  29.038  27.448  1.00  0.00    -0.354 N 
ATOM     51  N   UNL A   1      45.844  26.287  27.036  1.00  0.00    -0.248 NA
ATOM     52  C   UNL A   1      46.255  24.074  26.413  1.00  0.00     0.031 C 
ATOM     53  C   UNL A   1      48.923  29.489  27.066  1.00  0.00     0.029 A 
ATOM     54  C   UNL A   1      47.984  28.470  27.060  1.00  0.00     0.049 A 
ATOM     55  H   UNL A   1      45.928  28.555  27.524  1.00  0.00     0.167 HD
ATOM     56  C   UNL A   1      47.193  26.144  26.724  1.00  0.00     0.074 A 
ATOM     57  C   UNL A   1      47.394  24.751  26.378  1.00  0.00     0.031 C 
ATOM     58  C   UNL A   1      48.176  27.079  26.730  1.00  0.00     0.037 A 
BRANCH  45  59
ATOM     59  C   UNL A   1      46.263  32.741  28.331  1.00  0.00     0.058 A 
ATOM     60  C   UNL A   1      46.714  33.230  29.568  1.00  0.00     0.135 A 
ATOM     61  C   UNL A   1      46.172  33.651  27.264  1.00  0.00     0.135 A 
ATOM     62  F   UNL A   1      46.805  32.410  30.627  1.00  0.00    -0.206 F 
ATOM     63  C   UNL A   1      47.031  34.572  29.750  1.00  0.00     0.059 A 
ATOM     64  C   UNL A   1      46.515  34.992  27.415  1.00  0.00     0.059 A 
ATOM     65  F   UNL A   1      45.748  33.241  26.058  1.00  0.00    -0.206 F 
ATOM     66  C   UNL A   1      46.927  35.447  28.666  1.00  0.00     0.060 A 
BRANCH  66  67
ATOM     67  S   UNL A   1      47.343  37.184  28.920  1.00  0.00     0.124 S 
ATOM     68  O   UNL A   1      46.370  37.571  29.938  1.00  0.00    -0.237 OA
ATOM     69  O   UNL A   1      48.731  37.112  29.366  1.00  0.00    -0.237 OA
ATOM     70  O   UNL A   1      47.141  37.779  27.602  1.00  0.00    -0.744 OA
ENDBRANCH  66  67
ENDBRANCH  45  59
BRANCH  46  71
ATOM     71  C   UNL A   1      43.482  23.246  26.882  1.00  0.00     0.058 A 
ATOM     72  C   UNL A   1      43.228  22.374  27.951  1.00  0.00     0.135 A 
ATOM     73  C   UNL A   1      43.331  22.742  25.579  1.00  0.00     0.135 A 
ATOM     74  F   UNL A   1      43.363  22.805  29.214  1.00  0.00    -0.206 F 
ATOM     75  C   UNL A   1      42.861  21.048  27.742  1.00  0.00     0.059 A 
ATOM     76  C   UNL A   1      42.937  21.428  25.345  1.00  0.00     0.059 A 
ATOM     77  F   UNL A   1      43.545  23.538  24.521  1.00  0.00    -0.206 F 
ATOM     78  C   UNL A   1      42.717  20.585  26.433  1.00  0.00     0.060 A 
BRANCH  78  79
ATOM     79  S   UNL A   1      42.200  18.874  26.173  1.00  0.00     0.124 S 
ATOM     80  O   UNL A   1      42.424  18.296  27.493  1.00  0.00    -0.237 OA
ATOM     81  O   UNL A   1      40.807  19.032  25.771  1.00  0.00    -0.237 OA
ATOM     82  O   UNL A   1      43.099  18.409  25.121  1.00  0.00    -0.744 OA
ENDBRANCH  78  79
ENDBRANCH  46  71
BRANCH  58  83
ATOM     83  C   UNL A   1      49.572  26.620  26.406  1.00  0.00     0.058 A 
ATOM     84  C   UNL A   1      50.395  26.003  27.360  1.00  0.00     0.135 A 
ATOM     85  C   UNL A   1      50.078  26.768  25.103  1.00  0.00     0.135 A 
ATOM     86  F   UNL A   1      49.963  25.839  28.621  1.00  0.00    -0.206 F 
ATOM     87  C   UNL A   1      51.684  25.581  27.045  1.00  0.00     0.059 A 
ATOM     88  C   UNL A   1      51.350  26.324  24.758  1.00  0.00     0.059 A 
ATOM     89  F   UNL A   1      49.328  27.339  24.147  1.00  0.00    -0.206 F 
ATOM     90  C   UNL A   1      52.151  25.747  25.740  1.00  0.00     0.060 A 
BRANCH  90  91
ATOM     91  S   UNL A   1      53.819  25.180  25.339  1.00  0.00     0.124 S 
ATOM     92  O   UNL A   1      53.981  25.685  23.979  1.00  0.00    -0.237 OA
ATOM     93  O   UNL A   1      54.627  25.841  26.360  1.00  0.00    -0.237 OA
ATOM     94  O   UNL A   1      53.724  23.729  25.464  1.00  0.00    -0.744 OA
ENDBRANCH  90  91
ENDBRANCH  58  83
ENDBRANCH  32  33
ENDBRANCH  24  27
ENDBRANCH  22  23
ENDBRANCH   1  22
TORSDOF 15
ENDMDL
MODEL 3
REMARK VINA RESULT:     -10.7      4.870     10.480
REMARK SMILES O=C(C[C@@H]1C(=O)NC(=S)N1c1ccccc1)NCCCNC(=O)c1ccc(-c2c3nc(c(-c4c(F)cc(S(=O)(=O)[O-])cc4F)c4ccc([nH]4)c(-c4c(F)cc(S(=O)(=O)[O-])cc4F)c4nc(c(-c5c(F)cc(S(=O)(=O)[O-])cc5F)c5ccc2[nH]5)C=C4)C=C3)cc1
REMARK SMILES IDX 19 1 18 2 17 3 1 4 2 5 3 7 4 8 5 9 10 10 6 11 7 12 8 13 9 15
REMARK SMILES IDX 11 16 12 17 16 18 13 19 15 20 14 21 20 22 21 23 22 24 23 26
REMARK SMILES IDX 24 27 25 28 89 29 26 30 88 31 27 32 28 33 29 34 82 35 30 36
REMARK SMILES IDX 87 37 81 38 83 39 31 40 86 41 80 42 79 43 32 45 66 46 45 47
REMARK SMILES IDX 65 48 46 49 49 50 64 51 84 52 47 53 48 54 63 56 85 57 50 58
REMARK SMILES IDX 33 59 34 60 43 61 35 62 36 63 42 64 44 65 37 66 38 67 39 68
REMARK SMILES IDX 40 69 41 70 67 71 68 72 77 73 69 74 70 75 76 76 78 77 71 78
REMARK SMILES IDX 72 79 73 80 74 81 75 82 51 83 52 84 61 85 53 86 54 87 60 88
REMARK SMILES IDX 62 89 55 90 56 91 57 92 58 93 59 94
REMARK H PARENT 17 6 7 14 21 25 83 44 49 55
REMARK Flexibility Score: inf
ROOT
ATOM      1  C   UNL A   1      40.377  21.811  27.064  1.00  0.00     0.042 C 
ENDROOT
BRANCH   1   2
ATOM      2  C   UNL A   1      39.367  21.832  25.925  1.00  0.00     0.117 C 
BRANCH   2   3
ATOM      3  N   UNL A   1      38.029  22.180  26.372  1.00  0.00    -0.356 N 
ATOM      4  O   UNL A   1      37.006  21.654  24.388  1.00  0.00    -0.275 OA
ATOM      5  C   UNL A   1      36.935  22.000  25.564  1.00  0.00     0.222 C 
ATOM      6  H   UNL A   1      37.906  22.553  27.275  1.00  0.00     0.163 HD
BRANCH   5   7
ATOM      7  C   UNL A   1      35.597  22.330  26.185  1.00  0.00     0.135 C 
BRANCH   7   8
ATOM      8  C   UNL A   1      34.501  22.848  25.262  1.00  0.00     0.188 C 
ATOM      9  C   UNL A   1      34.083  24.296  25.539  1.00  0.00     0.249 C 
ATOM     10  N   UNL A   1      33.197  22.179  25.403  1.00  0.00    -0.306 N 
ATOM     11  O   UNL A   1      34.780  25.289  25.414  1.00  0.00    -0.272 OA
ATOM     12  N   UNL A   1      32.781  24.319  25.918  1.00  0.00    -0.301 N 
ATOM     13  C   UNL A   1      32.212  23.088  25.825  1.00  0.00     0.180 C 
ATOM     14  H   UNL A   1      32.307  25.127  26.222  1.00  0.00     0.172 HD
ATOM     15  S   UNL A   1      30.619  22.847  26.232  1.00  0.00    -0.040 S 
BRANCH  10  16
ATOM     16  C   UNL A   1      32.970  20.853  24.950  1.00  0.00     0.044 A 
ATOM     17  C   UNL A   1      32.621  20.609  23.615  1.00  0.00     0.026 A 
ATOM     18  C   UNL A   1      33.060  19.762  25.822  1.00  0.00     0.026 A 
ATOM     19  C   UNL A   1      32.334  19.314  23.172  1.00  0.00     0.002 A 
ATOM     20  C   UNL A   1      32.754  18.469  25.385  1.00  0.00     0.002 A 
ATOM     21  C   UNL A   1      32.387  18.245  24.062  1.00  0.00     0.000 A 
ENDBRANCH  10  16
ENDBRANCH   7   8
ENDBRANCH   5   7
ENDBRANCH   2   3
ENDBRANCH   1   2
BRANCH   1  22
ATOM     22  C   UNL A   1      40.935  23.178  27.442  1.00  0.00     0.118 C 
BRANCH  22  23
ATOM     23  N   UNL A   1      41.354  23.964  26.291  1.00  0.00    -0.352 N 
ATOM     24  C   UNL A   1      41.450  25.325  26.134  1.00  0.00     0.251 C 
ATOM     25  H   UNL A   1      41.609  23.436  25.500  1.00  0.00     0.163 HD
ATOM     26  O   UNL A   1      41.686  25.780  25.017  1.00  0.00    -0.269 OA
BRANCH  24  27
ATOM     27  C   UNL A   1      41.260  26.247  27.278  1.00  0.00     0.039 A 
ATOM     28  C   UNL A   1      40.180  26.029  28.140  1.00  0.00     0.014 A 
ATOM     29  C   UNL A   1      42.096  27.346  27.486  1.00  0.00     0.014 A 
ATOM     30  C   UNL A   1      39.965  26.884  29.224  1.00  0.00     0.010 A 
ATOM     31  C   UNL A   1      41.933  28.146  28.617  1.00  0.00     0.010 A 
ATOM     32  C   UNL A   1      40.853  27.940  29.487  1.00  0.00    -0.014 A 
BRANCH  32  33
ATOM     33  C   UNL A   1      40.635  28.854  30.639  1.00  0.00     0.031 A 
ATOM     34  C   UNL A   1      41.471  28.713  31.887  1.00  0.00     0.074 A 
ATOM     35  C   UNL A   1      39.670  29.794  30.581  1.00  0.00     0.049 A 
ATOM     36  N   UNL A   1      41.418  29.401  33.000  1.00  0.00    -0.248 NA
ATOM     37  C   UNL A   1      42.479  27.642  31.896  1.00  0.00     0.031 C 
ATOM     38  C   UNL A   1      38.761  30.003  29.450  1.00  0.00     0.029 A 
ATOM     39  N   UNL A   1      39.289  30.749  31.491  1.00  0.00    -0.354 N 
ATOM     40  C   UNL A   1      42.376  28.840  33.840  1.00  0.00     0.074 A 
ATOM     41  C   UNL A   1      42.948  27.717  33.133  1.00  0.00     0.031 C 
ATOM     42  C   UNL A   1      37.952  31.039  29.723  1.00  0.00     0.029 A 
ATOM     43  C   UNL A   1      38.256  31.546  31.057  1.00  0.00     0.049 A 
ATOM     44  H   UNL A   1      39.717  30.852  32.372  1.00  0.00     0.167 HD
ATOM     45  C   UNL A   1      42.764  29.242  35.073  1.00  0.00     0.037 A 
ATOM     46  C   UNL A   1      37.626  32.571  31.665  1.00  0.00     0.037 A 
ATOM     47  C   UNL A   1      42.208  30.378  35.764  1.00  0.00     0.049 A 
ATOM     48  C   UNL A   1      38.077  33.002  33.035  1.00  0.00     0.074 A 
ATOM     49  C   UNL A   1      42.567  30.896  36.996  1.00  0.00     0.029 A 
ATOM     50  N   UNL A   1      41.179  31.172  35.282  1.00  0.00    -0.354 N 
ATOM     51  N   UNL A   1      39.025  32.497  33.789  1.00  0.00    -0.248 NA
ATOM     52  C   UNL A   1      37.384  34.151  33.632  1.00  0.00     0.031 C 
ATOM     53  C   UNL A   1      41.722  31.973  37.281  1.00  0.00     0.029 A 
ATOM     54  C   UNL A   1      40.878  32.165  36.199  1.00  0.00     0.049 A 
ATOM     55  H   UNL A   1      40.727  31.049  34.415  1.00  0.00     0.167 HD
ATOM     56  C   UNL A   1      39.068  33.291  34.931  1.00  0.00     0.074 A 
ATOM     57  C   UNL A   1      38.055  34.314  34.764  1.00  0.00     0.031 C 
ATOM     58  C   UNL A   1      39.875  33.187  36.016  1.00  0.00     0.037 A 
BRANCH  45  59
ATOM     59  C   UNL A   1      43.847  28.449  35.758  1.00  0.00     0.058 A 
ATOM     60  C   UNL A   1      43.548  27.390  36.632  1.00  0.00     0.135 A 
ATOM     61  C   UNL A   1      45.201  28.731  35.515  1.00  0.00     0.135 A 
ATOM     62  F   UNL A   1      42.272  27.086  36.913  1.00  0.00    -0.206 F 
ATOM     63  C   UNL A   1      44.550  26.662  37.264  1.00  0.00     0.059 A 
ATOM     64  C   UNL A   1      46.221  27.994  36.113  1.00  0.00     0.059 A 
ATOM     65  F   UNL A   1      45.547  29.731  34.689  1.00  0.00    -0.206 F 
ATOM     66  C   UNL A   1      45.885  26.973  36.998  1.00  0.00     0.060 A 
BRANCH  66  67
ATOM     67  S   UNL A   1      47.172  26.017  37.827  1.00  0.00     0.124 S 
ATOM     68  O   UNL A   1      48.275  26.974  37.850  1.00  0.00    -0.237 OA
ATOM     69  O   UNL A   1      46.561  25.725  39.120  1.00  0.00    -0.237 OA
ATOM     70  O   UNL A   1      47.359  24.865  36.951  1.00  0.00    -0.744 OA
ENDBRANCH  66  67
ENDBRANCH  45  59
BRANCH  46  71
ATOM     71  C   UNL A   1      36.519  33.283  30.968  1.00  0.00     0.058 A 
ATOM     72  C   UNL A   1      35.187  33.131  31.381  1.00  0.00     0.135 A 
ATOM     73  C   UNL A   1      36.772  34.135  29.880  1.00  0.00     0.135 A 
ATOM     74  F   UNL A   1      34.893  32.324  32.411  1.00  0.00    -0.206 F 
ATOM     75  C   UNL A   1      34.142  33.776  30.728  1.00  0.00     0.059 A 
ATOM     76  C   UNL A   1      35.747  34.814  29.230  1.00  0.00     0.059 A 
ATOM     77  F   UNL A   1      38.030  34.329  29.457  1.00  0.00    -0.206 F 
ATOM     78  C   UNL A   1      34.433  34.619  29.653  1.00  0.00     0.060 A 
BRANCH  78  79
ATOM     79  S   UNL A   1      33.073  35.484  28.839  1.00  0.00     0.124 S 
ATOM     80  O   UNL A   1      32.462  34.409  28.066  1.00  0.00    -0.237 OA
ATOM     81  O   UNL A   1      32.299  35.975  29.974  1.00  0.00    -0.237 OA
ATOM     82  O   UNL A   1      33.751  36.516  28.059  1.00  0.00    -0.744 OA
ENDBRANCH  78  79
ENDBRANCH  46  71
BRANCH  58  83
ATOM     83  C   UNL A   1      39.740  34.236  37.086  1.00  0.00     0.058 A 
ATOM     84  C   UNL A   1      38.931  34.048  38.217  1.00  0.00     0.135 A 
ATOM     85  C   UNL A   1      40.466  35.436  36.993  1.00  0.00     0.135 A 
ATOM     86  F   UNL A   1      38.214  32.921  38.356  1.00  0.00    -0.206 F 
ATOM     87  C   UNL A   1      38.818  35.026  39.201  1.00  0.00     0.059 A 
ATOM     88  C   UNL A   1      40.392  36.414  37.980  1.00  0.00     0.059 A 
ATOM     89  F   UNL A   1      41.265  35.663  35.938  1.00  0.00    -0.206 F 
ATOM     90  C   UNL A   1      39.554  36.206  39.072  1.00  0.00     0.060 A 
BRANCH  90  91
ATOM     91  S   UNL A   1      39.411  37.461  40.363  1.00  0.00     0.124 S 
ATOM     92  O   UNL A   1      40.759  38.019  40.380  1.00  0.00    -0.237 OA
ATOM     93  O   UNL A   1      38.370  38.337  39.833  1.00  0.00    -0.237 OA
ATOM     94  O   UNL A   1      39.033  36.692  41.545  1.00  0.00    -0.744 OA
ENDBRANCH  90  91
ENDBRANCH  58  83
ENDBRANCH  32  33
ENDBRANCH  24  27
ENDBRANCH  22  23
ENDBRANCH   1  22
TORSDOF 15
ENDMDL
