MODEL 1
REMARK VINA RESULT:     -10.8      0.000      0.000
REMARK SMILES Nc1ccc(C(=O)NC[C@@H]2CC[C@@H](C(=O)NCCCNC(=O)c3ccc(-c4c5nc(c(-c6c(F)cc(S(=O)(=O)[O-])cc6F)c6ccc([nH]6)c(-c6c(F)cc(S(=O)(=O)[O-])cc6F)c6nc(c(-c7c(F)cc(S(=O)(=O)[O-])cc7F)c7ccc4[nH]7)C=C6)C=C5)cc3)O2)cc1Cl
REMARK SMILES IDX 17 1 16 2 14 3 15 4 13 6 10 7 11 8 89 9 12 10 9 11 8 12 6 13
REMARK SMILES IDX 7 14 5 16 2 17 3 18 91 19 4 20 90 21 92 22 1 23 18 26 19 27
REMARK SMILES IDX 20 28 21 29 22 31 23 32 24 33 88 34 25 35 87 36 26 37 27 38
REMARK SMILES IDX 28 39 81 40 29 41 86 42 80 43 82 44 30 45 85 46 79 47 78 48
REMARK SMILES IDX 31 50 65 51 44 52 64 53 45 54 48 55 63 56 83 57 46 58 47 59
REMARK SMILES IDX 62 61 84 62 49 63 32 64 33 65 42 66 34 67 35 68 41 69 43 70
REMARK SMILES IDX 36 71 37 72 38 73 39 74 40 75 66 76 67 77 76 78 68 79 69 80
REMARK SMILES IDX 75 81 77 82 70 83 71 84 72 85 73 86 74 87 50 88 51 89 60 90
REMARK SMILES IDX 52 91 53 92 59 93 61 94 54 95 55 96 56 97 57 98 58 99
REMARK H PARENT 16 5 8 15 1 24 1 25 20 30 82 49 48 60
REMARK Flexibility Score: inf
ROOT
ATOM      1  C   UNL A   1      33.129  34.730  28.821  1.00  0.00     0.117 C 
ENDROOT
BRANCH   1   2
ATOM      2  N   UNL A   1      32.981  36.050  29.406  1.00  0.00    -0.354 N 
ATOM      3  C   UNL A   1      33.182  36.462  30.692  1.00  0.00     0.249 C 
ATOM      4  O   UNL A   1      33.014  37.658  30.939  1.00  0.00    -0.272 OA
ATOM      5  H   UNL A   1      32.693  36.754  28.782  1.00  0.00     0.163 HD
BRANCH   3   6
ATOM      6  C   UNL A   1      33.533  35.435  31.788  1.00  0.00     0.207 C 
ATOM      7  C   UNL A   1      35.642  34.838  32.609  1.00  0.00     0.138 C 
ATOM      8  C   UNL A   1      34.781  35.229  33.798  1.00  0.00     0.037 C 
ATOM      9  O   UNL A   1      34.722  34.673  31.522  1.00  0.00    -0.363 OA
ATOM     10  C   UNL A   1      33.753  36.114  33.139  1.00  0.00     0.045 C 
BRANCH   7  11
ATOM     11  C   UNL A   1      36.535  33.593  32.763  1.00  0.00     0.148 C 
BRANCH  11  12
ATOM     12  N   UNL A   1      36.722  33.144  34.132  1.00  0.00    -0.349 N 
ATOM     13  C   UNL A   1      37.498  32.223  34.775  1.00  0.00     0.251 C 
ATOM     14  O   UNL A   1      37.288  32.126  35.988  1.00  0.00    -0.269 OA
ATOM     15  H   UNL A   1      36.136  33.629  34.759  1.00  0.00     0.163 HD
BRANCH  13  16
ATOM     16  C   UNL A   1      38.553  31.361  34.162  1.00  0.00     0.041 A 
ATOM     17  C   UNL A   1      40.374  29.498  33.003  1.00  0.00     0.050 A 
ATOM     18  C   UNL A   1      40.804  30.744  33.465  1.00  0.00     0.028 A 
ATOM     19  C   UNL A   1      39.003  29.218  33.074  1.00  0.00     0.064 A 
ATOM     20  C   UNL A   1      39.909  31.665  34.041  1.00  0.00     0.016 A 
ATOM     21  C   UNL A   1      38.113  30.125  33.656  1.00  0.00     0.036 A 
ATOM     22  Cl  UNL A   1      38.367  27.729  32.465  1.00  0.00    -0.082 Cl
BRANCH  17  23
ATOM     23  N   UNL A   1      41.273  28.646  32.376  1.00  0.00    -0.398 N 
ATOM     24  H   UNL A   1      40.959  27.801  31.982  1.00  0.00     0.156 HD
ATOM     25  H   UNL A   1      42.227  28.890  32.325  1.00  0.00     0.156 HD
ENDBRANCH  17  23
ENDBRANCH  13  16
ENDBRANCH  11  12
ENDBRANCH   7  11
ENDBRANCH   3   6
ENDBRANCH   1   2
BRANCH   1  26
ATOM     26  C   UNL A   1      34.446  34.562  28.075  1.00  0.00     0.042 C 
BRANCH  26  27
ATOM     27  C   UNL A   1      35.089  33.187  28.221  1.00  0.00     0.118 C 
BRANCH  27  28
ATOM     28  N   UNL A   1      34.139  32.093  28.073  1.00  0.00    -0.352 N 
ATOM     29  C   UNL A   1      34.345  30.733  28.018  1.00  0.00     0.251 C 
ATOM     30  H   UNL A   1      33.198  32.370  28.003  1.00  0.00     0.163 HD
ATOM     31  O   UNL A   1      33.410  29.994  27.731  1.00  0.00    -0.269 OA
BRANCH  29  32
ATOM     32  C   UNL A   1      35.690  30.165  28.262  1.00  0.00     0.039 A 
ATOM     33  C   UNL A   1      36.576  30.048  27.187  1.00  0.00     0.014 A 
ATOM     34  C   UNL A   1      36.084  29.751  29.537  1.00  0.00     0.014 A 
ATOM     35  C   UNL A   1      37.886  29.617  27.409  1.00  0.00     0.010 A 
ATOM     36  C   UNL A   1      37.410  29.396  29.771  1.00  0.00     0.010 A 
ATOM     37  C   UNL A   1      38.330  29.344  28.714  1.00  0.00    -0.014 A 
BRANCH  37  38
ATOM     38  C   UNL A   1      39.762  29.064  29.002  1.00  0.00     0.031 A 
ATOM     39  C   UNL A   1      40.667  30.150  29.515  1.00  0.00     0.074 A 
ATOM     40  C   UNL A   1      40.266  27.847  28.711  1.00  0.00     0.049 A 
ATOM     41  N   UNL A   1      41.960  30.120  29.713  1.00  0.00    -0.248 NA
ATOM     42  C   UNL A   1      40.041  31.446  29.822  1.00  0.00     0.031 C 
ATOM     43  C   UNL A   1      39.500  26.723  28.167  1.00  0.00     0.029 A 
ATOM     44  N   UNL A   1      41.545  27.357  28.809  1.00  0.00    -0.354 N 
ATOM     45  C   UNL A   1      42.306  31.391  30.157  1.00  0.00     0.074 A 
ATOM     46  C   UNL A   1      41.092  32.180  30.156  1.00  0.00     0.031 C 
ATOM     47  C   UNL A   1      40.320  25.675  27.992  1.00  0.00     0.029 A 
ATOM     48  C   UNL A   1      41.677  26.063  28.361  1.00  0.00     0.049 A 
ATOM     49  H   UNL A   1      42.297  27.883  29.166  1.00  0.00     0.167 HD
ATOM     50  C   UNL A   1      43.520  31.851  30.544  1.00  0.00     0.037 A 
ATOM     51  C   UNL A   1      42.768  25.283  28.239  1.00  0.00     0.037 A 
ATOM     52  C   UNL A   1      44.719  31.054  30.557  1.00  0.00     0.049 A 
ATOM     53  C   UNL A   1      44.109  25.825  28.648  1.00  0.00     0.074 A 
ATOM     54  C   UNL A   1      45.983  31.411  30.996  1.00  0.00     0.029 A 
ATOM     55  N   UNL A   1      44.812  29.746  30.102  1.00  0.00    -0.354 N 
ATOM     56  N   UNL A   1      44.406  27.008  29.131  1.00  0.00    -0.248 NA
ATOM     57  C   UNL A   1      45.265  24.931  28.494  1.00  0.00     0.031 C 
ATOM     58  C   UNL A   1      46.849  30.338  30.758  1.00  0.00     0.029 A 
ATOM     59  C   UNL A   1      46.116  29.294  30.218  1.00  0.00     0.049 A 
ATOM     60  H   UNL A   1      44.060  29.218  29.748  1.00  0.00     0.167 HD
ATOM     61  C   UNL A   1      45.778  26.994  29.352  1.00  0.00     0.074 A 
ATOM     62  C   UNL A   1      46.250  25.680  28.970  1.00  0.00     0.031 C 
ATOM     63  C   UNL A   1      46.575  27.984  29.827  1.00  0.00     0.037 A 
BRANCH  50  64
ATOM     64  C   UNL A   1      43.615  33.285  30.988  1.00  0.00     0.058 A 
ATOM     65  C   UNL A   1      43.517  33.646  32.341  1.00  0.00     0.135 A 
ATOM     66  C   UNL A   1      43.857  34.306  30.054  1.00  0.00     0.135 A 
ATOM     67  F   UNL A   1      43.274  32.712  33.275  1.00  0.00    -0.206 F 
ATOM     68  C   UNL A   1      43.628  34.971  32.750  1.00  0.00     0.059 A 
ATOM     69  C   UNL A   1      43.999  35.635  30.445  1.00  0.00     0.059 A 
ATOM     70  F   UNL A   1      43.960  34.018  28.748  1.00  0.00    -0.206 F 
ATOM     71  C   UNL A   1      43.869  35.959  31.794  1.00  0.00     0.060 A 
BRANCH  71  72
ATOM     72  S   UNL A   1      44.018  37.672  32.345  1.00  0.00     0.124 S 
ATOM     73  O   UNL A   1      45.431  37.739  32.705  1.00  0.00    -0.237 OA
ATOM     74  O   UNL A   1      43.633  38.418  31.151  1.00  0.00    -0.237 OA
ATOM     75  O   UNL A   1      43.082  37.754  33.460  1.00  0.00    -0.744 OA
ENDBRANCH  71  72
ENDBRANCH  50  64
BRANCH  51  76
ATOM     76  C   UNL A   1      42.636  23.903  27.699  1.00  0.00     0.058 A 
ATOM     77  C   UNL A   1      42.546  22.798  28.559  1.00  0.00     0.135 A 
ATOM     78  C   UNL A   1      42.581  23.665  26.317  1.00  0.00     0.135 A 
ATOM     79  F   UNL A   1      42.603  22.976  29.887  1.00  0.00    -0.206 F 
ATOM     80  C   UNL A   1      42.415  21.503  28.068  1.00  0.00     0.059 A 
ATOM     81  C   UNL A   1      42.424  22.381  25.803  1.00  0.00     0.059 A 
ATOM     82  F   UNL A   1      42.646  24.690  25.454  1.00  0.00    -0.206 F 
ATOM     83  C   UNL A   1      42.351  21.306  26.687  1.00  0.00     0.060 A 
BRANCH  83  84
ATOM     84  S   UNL A   1      42.113  19.629  26.061  1.00  0.00     0.124 S 
ATOM     85  O   UNL A   1      43.027  19.609  24.925  1.00  0.00    -0.237 OA
ATOM     86  O   UNL A   1      42.499  18.816  27.209  1.00  0.00    -0.237 OA
ATOM     87  O   UNL A   1      40.692  19.596  25.731  1.00  0.00    -0.744 OA
ENDBRANCH  83  84
ENDBRANCH  51  76
BRANCH  63  88
ATOM     88  C   UNL A   1      48.041  27.682  29.970  1.00  0.00     0.058 A 
ATOM     89  C   UNL A   1      48.552  27.046  31.112  1.00  0.00     0.135 A 
ATOM     90  C   UNL A   1      48.938  27.984  28.932  1.00  0.00     0.135 A 
ATOM     91  F   UNL A   1      47.739  26.745  32.138  1.00  0.00    -0.206 F 
ATOM     92  C   UNL A   1      49.902  26.735  31.228  1.00  0.00     0.059 A 
ATOM     93  C   UNL A   1      50.288  27.657  29.014  1.00  0.00     0.059 A 
ATOM     94  F   UNL A   1      48.501  28.586  27.815  1.00  0.00    -0.206 F 
ATOM     95  C   UNL A   1      50.762  27.041  30.172  1.00  0.00     0.060 A 
BRANCH  95  96
ATOM     96  S   UNL A   1      52.505  26.592  30.318  1.00  0.00     0.124 S 
ATOM     97  O   UNL A   1      53.110  27.871  30.670  1.00  0.00    -0.237 OA
ATOM     98  O   UNL A   1      52.481  25.589  31.379  1.00  0.00    -0.237 OA
ATOM     99  O   UNL A   1      52.838  26.082  28.991  1.00  0.00    -0.744 OA
ENDBRANCH  95  96
ENDBRANCH  63  88
ENDBRANCH  37  38
ENDBRANCH  29  32
ENDBRANCH  27  28
ENDBRANCH  26  27
ENDBRANCH   1  26
TORSDOF 17
ENDMDL
MODEL 2
REMARK VINA RESULT:     -10.6      3.679      6.444
REMARK SMILES Nc1ccc(C(=O)NC[C@@H]2CC[C@@H](C(=O)NCCCNC(=O)c3ccc(-c4c5nc(c(-c6c(F)cc(S(=O)(=O)[O-])cc6F)c6ccc([nH]6)c(-c6c(F)cc(S(=O)(=O)[O-])cc6F)c6nc(c(-c7c(F)cc(S(=O)(=O)[O-])cc7F)c7ccc4[nH]7)C=C6)C=C5)cc3)O2)cc1Cl
REMARK SMILES IDX 17 1 16 2 14 3 15 4 13 6 10 7 11 8 89 9 12 10 9 11 8 12 6 13
REMARK SMILES IDX 7 14 5 16 2 17 3 18 91 19 4 20 90 21 92 22 1 23 18 26 19 27
REMARK SMILES IDX 20 28 21 29 22 31 23 32 24 33 88 34 25 35 87 36 26 37 27 38
REMARK SMILES IDX 28 39 81 40 29 41 86 42 80 43 82 44 30 45 85 46 79 47 78 48
REMARK SMILES IDX 31 50 65 51 44 52 64 53 45 54 48 55 63 56 83 57 46 58 47 59
REMARK SMILES IDX 62 61 84 62 49 63 32 64 33 65 42 66 34 67 35 68 41 69 43 70
REMARK SMILES IDX 36 71 37 72 38 73 39 74 40 75 66 76 67 77 76 78 68 79 69 80
REMARK SMILES IDX 75 81 77 82 70 83 71 84 72 85 73 86 74 87 50 88 51 89 60 90
REMARK SMILES IDX 52 91 53 92 59 93 61 94 54 95 55 96 56 97 57 98 58 99
REMARK H PARENT 16 5 8 15 1 24 1 25 20 30 82 49 48 60
REMARK Flexibility Score: inf
ROOT
ATOM      1  C   UNL A   1      34.066  29.343  27.048  1.00  0.00     0.117 C 
ENDROOT
BRANCH   1   2
ATOM      2  N   UNL A   1      32.808  28.976  27.673  1.00  0.00    -0.354 N 
ATOM      3  C   UNL A   1      31.934  27.977  27.355  1.00  0.00     0.249 C 
ATOM      4  O   UNL A   1      30.933  27.848  28.064  1.00  0.00    -0.272 OA
ATOM      5  H   UNL A   1      32.545  29.531  28.443  1.00  0.00     0.163 HD
BRANCH   3   6
ATOM      6  C   UNL A   1      32.178  27.104  26.107  1.00  0.00     0.207 C 
ATOM      7  C   UNL A   1      31.965  24.784  25.882  1.00  0.00     0.138 C 
ATOM      8  C   UNL A   1      31.132  25.429  24.789  1.00  0.00     0.037 C 
ATOM      9  O   UNL A   1      32.797  25.837  26.385  1.00  0.00    -0.363 OA
ATOM     10  C   UNL A   1      30.871  26.791  25.380  1.00  0.00     0.045 C 
BRANCH   7  11
ATOM     11  C   UNL A   1      32.811  23.557  25.494  1.00  0.00     0.148 C 
BRANCH  11  12
ATOM     12  N   UNL A   1      33.429  23.635  24.182  1.00  0.00    -0.349 N 
ATOM     13  C   UNL A   1      34.669  23.410  23.656  1.00  0.00     0.251 C 
ATOM     14  O   UNL A   1      34.774  23.662  22.451  1.00  0.00    -0.269 OA
ATOM     15  H   UNL A   1      32.788  23.925  23.493  1.00  0.00     0.163 HD
BRANCH  13  16
ATOM     16  C   UNL A   1      35.866  22.891  24.383  1.00  0.00     0.041 A 
ATOM     17  C   UNL A   1      38.223  22.178  25.821  1.00  0.00     0.050 A 
ATOM     18  C   UNL A   1      37.519  21.237  25.066  1.00  0.00     0.028 A 
ATOM     19  C   UNL A   1      37.697  23.474  25.896  1.00  0.00     0.064 A 
ATOM     20  C   UNL A   1      36.357  21.585  24.352  1.00  0.00     0.016 A 
ATOM     21  C   UNL A   1      36.550  23.827  25.179  1.00  0.00     0.036 A 
ATOM     22  Cl  UNL A   1      38.462  24.689  26.861  1.00  0.00    -0.082 Cl
BRANCH  17  23
ATOM     23  N   UNL A   1      39.323  21.779  26.569  1.00  0.00    -0.398 N 
ATOM     24  H   UNL A   1      39.590  22.293  27.364  1.00  0.00     0.156 HD
ATOM     25  H   UNL A   1      39.835  20.981  26.303  1.00  0.00     0.156 HD
ENDBRANCH  17  23
ENDBRANCH  13  16
ENDBRANCH  11  12
ENDBRANCH   7  11
ENDBRANCH   3   6
ENDBRANCH   1   2
BRANCH   1  26
ATOM     26  C   UNL A   1      34.388  30.823  27.202  1.00  0.00     0.042 C 
BRANCH  26  27
ATOM     27  C   UNL A   1      35.637  31.120  28.025  1.00  0.00     0.118 C 
BRANCH  27  28
ATOM     28  N   UNL A   1      35.515  30.711  29.418  1.00  0.00    -0.352 N 
ATOM     29  C   UNL A   1      36.440  30.149  30.268  1.00  0.00     0.251 C 
ATOM     30  H   UNL A   1      34.628  30.863  29.816  1.00  0.00     0.163 HD
ATOM     31  O   UNL A   1      36.078  29.736  31.363  1.00  0.00    -0.269 OA
BRANCH  29  32
ATOM     32  C   UNL A   1      37.854  30.005  29.852  1.00  0.00     0.039 A 
ATOM     33  C   UNL A   1      38.859  30.250  30.793  1.00  0.00     0.014 A 
ATOM     34  C   UNL A   1      38.194  29.630  28.551  1.00  0.00     0.014 A 
ATOM     35  C   UNL A   1      40.196  30.018  30.458  1.00  0.00     0.010 A 
ATOM     36  C   UNL A   1      39.518  29.325  28.241  1.00  0.00     0.010 A 
ATOM     37  C   UNL A   1      40.530  29.496  29.197  1.00  0.00    -0.014 A 
BRANCH  37  38
ATOM     38  C   UNL A   1      41.917  29.067  28.880  1.00  0.00     0.031 A 
ATOM     39  C   UNL A   1      43.040  30.066  28.848  1.00  0.00     0.074 A 
ATOM     40  C   UNL A   1      42.145  27.785  28.527  1.00  0.00     0.049 A 
ATOM     41  N   UNL A   1      44.285  29.896  28.482  1.00  0.00    -0.248 NA
ATOM     42  C   UNL A   1      42.717  31.442  29.258  1.00  0.00     0.031 C 
ATOM     43  C   UNL A   1      41.131  26.730  28.476  1.00  0.00     0.029 A 
ATOM     44  N   UNL A   1      43.296  27.155  28.124  1.00  0.00    -0.354 N 
ATOM     45  C   UNL A   1      44.892  31.141  28.607  1.00  0.00     0.074 A 
ATOM     46  C   UNL A   1      43.866  32.066  29.040  1.00  0.00     0.031 C 
ATOM     47  C   UNL A   1      41.706  25.585  28.077  1.00  0.00     0.029 A 
ATOM     48  C   UNL A   1      43.116  25.831  27.796  1.00  0.00     0.049 A 
ATOM     49  H   UNL A   1      44.169  27.607  28.073  1.00  0.00     0.167 HD
ATOM     50  C   UNL A   1      46.187  31.476  28.395  1.00  0.00     0.037 A 
ATOM     51  C   UNL A   1      43.980  24.922  27.303  1.00  0.00     0.037 A 
ATOM     52  C   UNL A   1      47.205  30.546  27.979  1.00  0.00     0.049 A 
ATOM     53  C   UNL A   1      45.405  25.326  27.048  1.00  0.00     0.074 A 
ATOM     54  C   UNL A   1      48.559  30.776  27.803  1.00  0.00     0.029 A 
ATOM     55  N   UNL A   1      46.985  29.213  27.663  1.00  0.00    -0.354 N 
ATOM     56  N   UNL A   1      45.977  26.491  27.238  1.00  0.00    -0.248 NA
ATOM     57  C   UNL A   1      46.304  24.295  26.511  1.00  0.00     0.031 C 
ATOM     58  C   UNL A   1      49.147  29.598  27.332  1.00  0.00     0.029 A 
ATOM     59  C   UNL A   1      48.169  28.617  27.261  1.00  0.00     0.049 A 
ATOM     60  H   UNL A   1      46.113  28.758  27.716  1.00  0.00     0.167 HD
ATOM     61  C   UNL A   1      47.304  26.329  26.858  1.00  0.00     0.074 A 
ATOM     62  C   UNL A   1      47.456  24.948  26.446  1.00  0.00     0.031 C 
ATOM     63  C   UNL A   1      48.306  27.243  26.847  1.00  0.00     0.037 A 
BRANCH  50  64
ATOM     64  C   UNL A   1      46.582  32.911  28.609  1.00  0.00     0.058 A 
ATOM     65  C   UNL A   1      46.535  33.852  27.567  1.00  0.00     0.135 A 
ATOM     66  C   UNL A   1      46.965  33.365  29.882  1.00  0.00     0.135 A 
ATOM     67  F   UNL A   1      46.188  33.471  26.327  1.00  0.00    -0.206 F 
ATOM     68  C   UNL A   1      46.880  35.183  27.773  1.00  0.00     0.059 A 
ATOM     69  C   UNL A   1      47.288  34.698  30.117  1.00  0.00     0.059 A 
ATOM     70  F   UNL A   1      47.027  32.509  30.913  1.00  0.00    -0.206 F 
ATOM     71  C   UNL A   1      47.256  35.597  29.052  1.00  0.00     0.060 A 
BRANCH  71  72
ATOM     72  S   UNL A   1      47.693  37.331  29.302  1.00  0.00     0.124 S 
ATOM     73  O   UNL A   1      48.819  37.481  28.385  1.00  0.00    -0.237 OA
ATOM     74  O   UNL A   1      46.466  38.021  28.917  1.00  0.00    -0.237 OA
ATOM     75  O   UNL A   1      48.027  37.397  30.720  1.00  0.00    -0.744 OA
ENDBRANCH  71  72
ENDBRANCH  50  64
BRANCH  51  76
ATOM     76  C   UNL A   1      43.515  23.539  27.012  1.00  0.00     0.058 A 
ATOM     77  C   UNL A   1      43.277  23.121  25.695  1.00  0.00     0.135 A 
ATOM     78  C   UNL A   1      43.319  22.606  28.042  1.00  0.00     0.135 A 
ATOM     79  F   UNL A   1      43.444  23.979  24.678  1.00  0.00    -0.206 F 
ATOM     80  C   UNL A   1      42.849  21.828  25.408  1.00  0.00     0.059 A 
ATOM     81  C   UNL A   1      42.916  21.301  27.778  1.00  0.00     0.059 A 
ATOM     82  F   UNL A   1      43.550  22.953  29.318  1.00  0.00    -0.206 F 
ATOM     83  C   UNL A   1      42.676  20.924  26.458  1.00  0.00     0.060 A 
BRANCH  83  84
ATOM     84  S   UNL A   1      42.186  19.229  26.071  1.00  0.00     0.124 S 
ATOM     85  O   UNL A   1      42.589  18.525  27.282  1.00  0.00    -0.237 OA
ATOM     86  O   UNL A   1      40.750  19.367  25.858  1.00  0.00    -0.237 OA
ATOM     87  O   UNL A   1      42.962  18.925  24.873  1.00  0.00    -0.744 OA
ENDBRANCH  83  84
ENDBRANCH  51  76
BRANCH  63  88
ATOM     88  C   UNL A   1      49.660  26.780  26.386  1.00  0.00     0.058 A 
ATOM     89  C   UNL A   1      50.571  26.179  27.269  1.00  0.00     0.135 A 
ATOM     90  C   UNL A   1      50.032  26.890  25.036  1.00  0.00     0.135 A 
ATOM     91  F   UNL A   1      50.269  26.059  28.572  1.00  0.00    -0.206 F 
ATOM     92  C   UNL A   1      51.809  25.718  26.834  1.00  0.00     0.059 A 
ATOM     93  C   UNL A   1      51.253  26.410  24.573  1.00  0.00     0.059 A 
ATOM     94  F   UNL A   1      49.196  27.450  24.148  1.00  0.00    -0.206 F 
ATOM     95  C   UNL A   1      52.140  25.835  25.483  1.00  0.00     0.060 A 
BRANCH  95  96
ATOM     96  S   UNL A   1      53.732  25.193  24.925  1.00  0.00     0.124 S 
ATOM     97  O   UNL A   1      53.916  25.912  23.670  1.00  0.00    -0.237 OA
ATOM     98  O   UNL A   1      54.623  25.580  26.014  1.00  0.00    -0.237 OA
ATOM     99  O   UNL A   1      53.495  23.757  24.798  1.00  0.00    -0.744 OA
ENDBRANCH  95  96
ENDBRANCH  63  88
ENDBRANCH  37  38
ENDBRANCH  29  32
ENDBRANCH  27  28
ENDBRANCH  26  27
ENDBRANCH   1  26
TORSDOF 17
ENDMDL
MODEL 3
REMARK VINA RESULT:     -10.6      3.642      6.659
REMARK SMILES Nc1ccc(C(=O)NC[C@@H]2CC[C@@H](C(=O)NCCCNC(=O)c3ccc(-c4c5nc(c(-c6c(F)cc(S(=O)(=O)[O-])cc6F)c6ccc([nH]6)c(-c6c(F)cc(S(=O)(=O)[O-])cc6F)c6nc(c(-c7c(F)cc(S(=O)(=O)[O-])cc7F)c7ccc4[nH]7)C=C6)C=C5)cc3)O2)cc1Cl
REMARK SMILES IDX 17 1 16 2 14 3 15 4 13 6 10 7 11 8 89 9 12 10 9 11 8 12 6 13
REMARK SMILES IDX 7 14 5 16 2 17 3 18 91 19 4 20 90 21 92 22 1 23 18 26 19 27
REMARK SMILES IDX 20 28 21 29 22 31 23 32 24 33 88 34 25 35 87 36 26 37 27 38
REMARK SMILES IDX 28 39 81 40 29 41 86 42 80 43 82 44 30 45 85 46 79 47 78 48
REMARK SMILES IDX 31 50 65 51 44 52 64 53 45 54 48 55 63 56 83 57 46 58 47 59
REMARK SMILES IDX 62 61 84 62 49 63 32 64 33 65 42 66 34 67 35 68 41 69 43 70
REMARK SMILES IDX 36 71 37 72 38 73 39 74 40 75 66 76 67 77 76 78 68 79 69 80
REMARK SMILES IDX 75 81 77 82 70 83 71 84 72 85 73 86 74 87 50 88 51 89 60 90
REMARK SMILES IDX 52 91 53 92 59 93 61 94 54 95 55 96 56 97 57 98 58 99
REMARK H PARENT 16 5 8 15 1 24 1 25 20 30 82 49 48 60
REMARK Flexibility Score: inf
ROOT
ATOM      1  C   UNL A   1      31.459  27.576  26.220  1.00  0.00     0.117 C 
ENDROOT
BRANCH   1   2
ATOM      2  N   UNL A   1      30.642  26.423  26.554  1.00  0.00    -0.354 N 
ATOM      3  C   UNL A   1      30.795  25.113  26.200  1.00  0.00     0.249 C 
ATOM      4  O   UNL A   1      29.973  24.306  26.639  1.00  0.00    -0.272 OA
ATOM      5  H   UNL A   1      29.861  26.614  27.121  1.00  0.00     0.163 HD
BRANCH   3   6
ATOM      6  C   UNL A   1      31.919  24.700  25.229  1.00  0.00     0.207 C 
ATOM      7  C   UNL A   1      31.871  23.078  23.542  1.00  0.00     0.138 C 
ATOM      8  C   UNL A   1      32.338  24.379  22.914  1.00  0.00     0.037 C 
ATOM      9  O   UNL A   1      31.975  23.290  24.956  1.00  0.00    -0.363 OA
ATOM     10  C   UNL A   1      31.770  25.392  23.875  1.00  0.00     0.045 C 
BRANCH   7  11
ATOM     11  C   UNL A   1      32.606  21.789  23.128  1.00  0.00     0.148 C 
BRANCH  11  12
ATOM     12  N   UNL A   1      32.625  20.748  24.141  1.00  0.00    -0.349 N 
ATOM     13  C   UNL A   1      33.562  20.167  24.947  1.00  0.00     0.251 C 
ATOM     14  O   UNL A   1      33.139  19.241  25.647  1.00  0.00    -0.269 OA
ATOM     15  H   UNL A   1      31.731  20.359  24.281  1.00  0.00     0.163 HD
BRANCH  13  16
ATOM     16  C   UNL A   1      35.001  20.549  25.061  1.00  0.00     0.041 A 
ATOM     17  C   UNL A   1      37.658  21.555  25.302  1.00  0.00     0.050 A 
ATOM     18  C   UNL A   1      37.412  20.237  24.907  1.00  0.00     0.028 A 
ATOM     19  C   UNL A   1      36.554  22.349  25.634  1.00  0.00     0.064 A 
ATOM     20  C   UNL A   1      36.102  19.738  24.785  1.00  0.00     0.016 A 
ATOM     21  C   UNL A   1      35.251  21.861  25.502  1.00  0.00     0.036 A 
ATOM     22  Cl  UNL A   1      36.764  23.972  26.198  1.00  0.00    -0.082 Cl
BRANCH  17  23
ATOM     23  N   UNL A   1      38.965  21.988  25.481  1.00  0.00    -0.398 N 
ATOM     24  H   UNL A   1      39.285  22.793  25.015  1.00  0.00     0.156 HD
ATOM     25  H   UNL A   1      39.571  21.489  26.077  1.00  0.00     0.156 HD
ENDBRANCH  17  23
ENDBRANCH  13  16
ENDBRANCH  11  12
ENDBRANCH   7  11
ENDBRANCH   3   6
ENDBRANCH   1   2
BRANCH   1  26
ATOM     26  C   UNL A   1      32.379  27.993  27.358  1.00  0.00     0.042 C 
BRANCH  26  27
ATOM     27  C   UNL A   1      33.583  28.825  26.930  1.00  0.00     0.118 C 
BRANCH  27  28
ATOM     28  N   UNL A   1      33.589  30.163  27.507  1.00  0.00    -0.352 N 
ATOM     29  C   UNL A   1      34.553  30.815  28.243  1.00  0.00     0.251 C 
ATOM     30  H   UNL A   1      32.772  30.686  27.343  1.00  0.00     0.163 HD
ATOM     31  O   UNL A   1      34.286  31.889  28.766  1.00  0.00    -0.269 OA
BRANCH  29  32
ATOM     32  C   UNL A   1      35.890  30.208  28.436  1.00  0.00     0.039 A 
ATOM     33  C   UNL A   1      36.786  30.203  27.363  1.00  0.00     0.014 A 
ATOM     34  C   UNL A   1      36.264  29.649  29.660  1.00  0.00     0.014 A 
ATOM     35  C   UNL A   1      38.090  29.735  27.550  1.00  0.00     0.010 A 
ATOM     36  C   UNL A   1      37.585  29.254  29.866  1.00  0.00     0.010 A 
ATOM     37  C   UNL A   1      38.516  29.311  28.819  1.00  0.00    -0.014 A 
BRANCH  37  38
ATOM     38  C   UNL A   1      39.941  28.984  29.089  1.00  0.00     0.031 A 
ATOM     39  C   UNL A   1      40.885  30.037  29.600  1.00  0.00     0.074 A 
ATOM     40  C   UNL A   1      40.404  27.755  28.782  1.00  0.00     0.049 A 
ATOM     41  N   UNL A   1      42.179  29.965  29.784  1.00  0.00    -0.248 NA
ATOM     42  C   UNL A   1      40.304  31.350  29.925  1.00  0.00     0.031 C 
ATOM     43  C   UNL A   1      39.598  26.660  28.238  1.00  0.00     0.029 A 
ATOM     44  N   UNL A   1      41.668  27.225  28.862  1.00  0.00    -0.354 N 
ATOM     45  C   UNL A   1      42.569  31.221  30.235  1.00  0.00     0.074 A 
ATOM     46  C   UNL A   1      41.381  32.048  30.254  1.00  0.00     0.031 C 
ATOM     47  C   UNL A   1      40.382  25.589  28.045  1.00  0.00     0.029 A 
ATOM     48  C   UNL A   1      41.754  25.931  28.402  1.00  0.00     0.049 A 
ATOM     49  H   UNL A   1      42.440  27.723  29.215  1.00  0.00     0.167 HD
ATOM     50  C   UNL A   1      43.801  31.640  30.612  1.00  0.00     0.037 A 
ATOM     51  C   UNL A   1      42.820  25.118  28.261  1.00  0.00     0.037 A 
ATOM     52  C   UNL A   1      44.975  30.806  30.604  1.00  0.00     0.049 A 
ATOM     53  C   UNL A   1      44.181  25.615  28.659  1.00  0.00     0.074 A 
ATOM     54  C   UNL A   1      46.255  31.119  31.032  1.00  0.00     0.029 A 
ATOM     55  N   UNL A   1      45.022  29.500  30.138  1.00  0.00    -0.354 N 
ATOM     56  N   UNL A   1      44.520  26.784  29.149  1.00  0.00    -0.248 NA
ATOM     57  C   UNL A   1      45.307  24.687  28.485  1.00  0.00     0.031 C 
ATOM     58  C   UNL A   1      47.084  30.022  30.776  1.00  0.00     0.029 A 
ATOM     59  C   UNL A   1      46.312  29.006  30.235  1.00  0.00     0.049 A 
ATOM     60  H   UNL A   1      44.250  28.999  29.788  1.00  0.00     0.167 HD
ATOM     61  C   UNL A   1      45.894  26.726  29.354  1.00  0.00     0.074 A 
ATOM     62  C   UNL A   1      46.320  25.400  28.956  1.00  0.00     0.031 C 
ATOM     63  C   UNL A   1      46.727  27.686  29.828  1.00  0.00     0.037 A 
BRANCH  50  64
ATOM     64  C   UNL A   1      43.946  33.066  31.066  1.00  0.00     0.058 A 
ATOM     65  C   UNL A   1      43.808  33.428  32.415  1.00  0.00     0.135 A 
ATOM     66  C   UNL A   1      44.277  34.077  30.149  1.00  0.00     0.135 A 
ATOM     67  F   UNL A   1      43.480  32.504  33.333  1.00  0.00    -0.206 F 
ATOM     68  C   UNL A   1      43.964  34.744  32.836  1.00  0.00     0.059 A 
ATOM     69  C   UNL A   1      44.466  35.397  30.552  1.00  0.00     0.059 A 
ATOM     70  F   UNL A   1      44.422  33.788  28.847  1.00  0.00    -0.206 F 
ATOM     71  C   UNL A   1      44.293  35.722  31.896  1.00  0.00     0.060 A 
BRANCH  71  72
ATOM     72  S   UNL A   1      44.500  37.425  32.461  1.00  0.00     0.124 S 
ATOM     73  O   UNL A   1      43.364  37.570  33.366  1.00  0.00    -0.237 OA
ATOM     74  O   UNL A   1      45.814  37.386  33.094  1.00  0.00    -0.237 OA
ATOM     75  O   UNL A   1      44.424  38.204  31.230  1.00  0.00    -0.744 OA
ENDBRANCH  71  72
ENDBRANCH  50  64
BRANCH  51  76
ATOM     76  C   UNL A   1      42.639  23.748  27.712  1.00  0.00     0.058 A 
ATOM     77  C   UNL A   1      42.718  23.508  26.332  1.00  0.00     0.135 A 
ATOM     78  C   UNL A   1      42.402  22.651  28.555  1.00  0.00     0.135 A 
ATOM     79  F   UNL A   1      42.934  24.526  25.486  1.00  0.00    -0.206 F 
ATOM     80  C   UNL A   1      42.558  22.231  25.805  1.00  0.00     0.059 A 
ATOM     81  C   UNL A   1      42.264  21.360  28.053  1.00  0.00     0.059 A 
ATOM     82  F   UNL A   1      42.335  22.825  29.884  1.00  0.00    -0.206 F 
ATOM     83  C   UNL A   1      42.335  21.162  26.675  1.00  0.00     0.060 A 
BRANCH  83  84
ATOM     84  S   UNL A   1      42.197  19.498  25.988  1.00  0.00     0.124 S 
ATOM     85  O   UNL A   1      42.770  18.691  27.058  1.00  0.00    -0.237 OA
ATOM     86  O   UNL A   1      40.757  19.368  25.789  1.00  0.00    -0.237 OA
ATOM     87  O   UNL A   1      42.985  19.578  24.762  1.00  0.00    -0.744 OA
ENDBRANCH  83  84
ENDBRANCH  51  76
BRANCH  63  88
ATOM     88  C   UNL A   1      48.184  27.338  29.952  1.00  0.00     0.058 A 
ATOM     89  C   UNL A   1      49.098  27.631  28.929  1.00  0.00     0.135 A 
ATOM     90  C   UNL A   1      48.681  26.752  31.128  1.00  0.00     0.135 A 
ATOM     91  F   UNL A   1      48.673  28.181  27.780  1.00  0.00    -0.206 F 
ATOM     92  C   UNL A   1      50.452  27.341  29.059  1.00  0.00     0.059 A 
ATOM     93  C   UNL A   1      50.036  26.479  31.292  1.00  0.00     0.059 A 
ATOM     94  F   UNL A   1      47.851  26.458  32.140  1.00  0.00    -0.206 F 
ATOM     95  C   UNL A   1      50.913  26.769  30.247  1.00  0.00     0.060 A 
BRANCH  95  96
ATOM     96  S   UNL A   1      52.679  26.439  30.419  1.00  0.00     0.124 S 
ATOM     97  O   UNL A   1      53.049  26.092  29.052  1.00  0.00    -0.237 OA
ATOM     98  O   UNL A   1      53.189  27.716  30.909  1.00  0.00    -0.237 OA
ATOM     99  O   UNL A   1      52.728  25.341  31.381  1.00  0.00    -0.744 OA
ENDBRANCH  95  96
ENDBRANCH  63  88
ENDBRANCH  37  38
ENDBRANCH  29  32
ENDBRANCH  27  28
ENDBRANCH  26  27
ENDBRANCH   1  26
TORSDOF 17
ENDMDL
