MODEL 1
REMARK VINA RESULT:     -10.4      0.000      0.000
REMARK SMILES C=CCN(CC(=O)NCCCNC(=O)c1ccc(-c2c3nc(c(-c4c(F)cc(S(=O)(=O)[O-])cc4F)c4ccc([nH]4)c(-c4c(F)cc(S(=O)(=O)[O-])cc4F)c4nc(c(-c5c(F)cc(S(=O)(=O)[O-])cc5F)c5ccc2[nH]5)C=C4)C=C3)cc1)C(=O)N1CC[N@H+](C)C(C)(C)C1
REMARK SMILES IDX 10 1 9 2 8 3 6 4 7 5 5 7 4 8 3 9 2 10 1 11 81 12 82 13 83 14
REMARK SMILES IDX 84 15 91 16 85 17 88 18 86 19 89 20 90 21 87 22 11 24 12 25
REMARK SMILES IDX 13 26 14 28 15 29 16 30 80 31 17 32 79 33 18 34 19 35 20 36
REMARK SMILES IDX 73 37 21 38 78 39 72 40 74 41 22 42 77 43 71 44 70 45 23 47
REMARK SMILES IDX 57 48 36 49 56 50 37 51 40 52 55 53 75 54 38 55 39 56 54 58
REMARK SMILES IDX 76 59 41 60 24 61 25 62 34 63 26 64 27 65 33 66 35 67 28 68
REMARK SMILES IDX 29 69 30 70 31 71 32 72 58 73 59 74 68 75 60 76 61 77 67 78
REMARK SMILES IDX 69 79 62 80 63 81 64 82 65 83 66 84 42 85 43 86 52 87 44 88
REMARK SMILES IDX 45 89 51 90 53 91 46 92 47 93 48 94 49 95 50 96
REMARK H PARENT 8 6 86 23 12 27 74 46 40 57
REMARK Flexibility Score: inf
ROOT
ATOM      1  C   UNL A   1      32.858  27.110  26.177  1.00  0.00     0.042 C 
ENDROOT
BRANCH   1   2
ATOM      2  C   UNL A   1      32.462  27.481  24.757  1.00  0.00     0.117 C 
BRANCH   2   3
ATOM      3  N   UNL A   1      31.062  27.276  24.472  1.00  0.00    -0.354 N 
ATOM      4  C   UNL A   1      30.458  26.263  23.796  1.00  0.00     0.239 C 
ATOM      5  O   UNL A   1      29.274  26.052  24.083  1.00  0.00    -0.273 OA
ATOM      6  H   UNL A   1      30.456  27.970  24.818  1.00  0.00     0.163 HD
BRANCH   4   7
ATOM      7  C   UNL A   1      31.206  25.332  22.819  1.00  0.00     0.221 C 
BRANCH   7   8
ATOM      8  N   UNL A   1      32.012  24.243  23.383  1.00  0.00    -0.312 N 
BRANCH   8   9
ATOM      9  C   UNL A   1      31.315  23.306  24.267  1.00  0.00     0.149 C 
BRANCH   9  10
ATOM     10  C   UNL A   1      31.486  23.689  25.709  1.00  0.00    -0.013 C 
ATOM     11  C   UNL A   1      30.473  23.668  26.587  1.00  0.00     0.006 C 
ENDBRANCH   9  10
ENDBRANCH   8   9
BRANCH   8  12
ATOM     12  C   UNL A   1      33.302  23.881  23.003  1.00  0.00     0.321 C 
ATOM     13  O   UNL A   1      33.688  24.030  21.841  1.00  0.00    -0.248 OA
BRANCH  12  14
ATOM     14  N   UNL A   1      34.203  23.493  23.976  1.00  0.00    -0.313 N 
ATOM     15  C   UNL A   1      34.890  24.565  24.699  1.00  0.00     0.183 C 
ATOM     16  C   UNL A   1      35.018  22.287  23.895  1.00  0.00     0.189 C 
ATOM     17  C   UNL A   1      35.390  24.099  26.082  1.00  0.00     0.284 C 
ATOM     18  C   UNL A   1      35.462  21.765  25.298  1.00  0.00     0.110 C 
ATOM     19  N   UNL A   1      36.158  22.825  26.100  1.00  0.00    -0.330 N 
ATOM     20  C   UNL A   1      34.246  21.306  26.139  1.00  0.00     0.080 C 
ATOM     21  C   UNL A   1      36.330  20.504  25.080  1.00  0.00     0.080 C 
ATOM     22  C   UNL A   1      37.547  23.065  25.710  1.00  0.00     0.333 C 
ATOM     23  H   UNL A   1      36.193  22.458  27.051  1.00  0.00     0.348 HD
ENDBRANCH  12  14
ENDBRANCH   8  12
ENDBRANCH   7   8
ENDBRANCH   4   7
ENDBRANCH   2   3
ENDBRANCH   1   2
BRANCH   1  24
ATOM     24  C   UNL A   1      34.059  27.884  26.709  1.00  0.00     0.118 C 
BRANCH  24  25
ATOM     25  N   UNL A   1      33.733  29.266  27.046  1.00  0.00    -0.352 N 
ATOM     26  C   UNL A   1      34.432  30.184  27.788  1.00  0.00     0.251 C 
ATOM     27  H   UNL A   1      32.877  29.590  26.686  1.00  0.00     0.163 HD
ATOM     28  O   UNL A   1      33.879  31.219  28.155  1.00  0.00    -0.269 OA
BRANCH  26  29
ATOM     29  C   UNL A   1      35.840  29.925  28.146  1.00  0.00     0.039 A 
ATOM     30  C   UNL A   1      36.157  29.516  29.444  1.00  0.00     0.014 A 
ATOM     31  C   UNL A   1      36.849  30.101  27.198  1.00  0.00     0.014 A 
ATOM     32  C   UNL A   1      37.481  29.209  29.769  1.00  0.00     0.010 A 
ATOM     33  C   UNL A   1      38.149  29.714  27.496  1.00  0.00     0.010 A 
ATOM     34  C   UNL A   1      38.481  29.271  28.786  1.00  0.00    -0.014 A 
BRANCH  34  35
ATOM     35  C   UNL A   1      39.892  28.907  29.064  1.00  0.00     0.031 A 
ATOM     36  C   UNL A   1      40.839  29.964  29.565  1.00  0.00     0.074 A 
ATOM     37  C   UNL A   1      40.344  27.674  28.762  1.00  0.00     0.049 A 
ATOM     38  N   UNL A   1      42.139  29.920  29.687  1.00  0.00    -0.248 NA
ATOM     39  C   UNL A   1      40.243  31.257  29.944  1.00  0.00     0.031 C 
ATOM     40  C   UNL A   1      39.527  26.575  28.243  1.00  0.00     0.029 A 
ATOM     41  N   UNL A   1      41.609  27.146  28.819  1.00  0.00    -0.354 N 
ATOM     42  C   UNL A   1      42.519  31.183  30.126  1.00  0.00     0.074 A 
ATOM     43  C   UNL A   1      41.318  31.986  30.202  1.00  0.00     0.031 C 
ATOM     44  C   UNL A   1      40.309  25.504  28.036  1.00  0.00     0.029 A 
ATOM     45  C   UNL A   1      41.690  25.854  28.355  1.00  0.00     0.049 A 
ATOM     46  H   UNL A   1      42.387  27.645  29.160  1.00  0.00     0.167 HD
ATOM     47  C   UNL A   1      43.756  31.627  30.452  1.00  0.00     0.037 A 
ATOM     48  C   UNL A   1      42.759  25.050  28.183  1.00  0.00     0.037 A 
ATOM     49  C   UNL A   1      44.938  30.808  30.400  1.00  0.00     0.049 A 
ATOM     50  C   UNL A   1      44.127  25.568  28.542  1.00  0.00     0.074 A 
ATOM     51  C   UNL A   1      46.231  31.143  30.758  1.00  0.00     0.029 A 
ATOM     52  N   UNL A   1      44.969  29.490  29.966  1.00  0.00    -0.354 N 
ATOM     53  N   UNL A   1      44.466  26.752  28.996  1.00  0.00    -0.248 NA
ATOM     54  C   UNL A   1      45.258  24.645  28.370  1.00  0.00     0.031 C 
ATOM     55  C   UNL A   1      47.053  30.043  30.496  1.00  0.00     0.029 A 
ATOM     56  C   UNL A   1      46.263  29.003  30.034  1.00  0.00     0.049 A 
ATOM     57  H   UNL A   1      44.188  28.978  29.656  1.00  0.00     0.167 HD
ATOM     58  C   UNL A   1      45.839  26.701  29.206  1.00  0.00     0.074 A 
ATOM     59  C   UNL A   1      46.272  25.372  28.823  1.00  0.00     0.031 C 
ATOM     60  C   UNL A   1      46.667  27.664  29.681  1.00  0.00     0.037 A 
BRANCH  47  61
ATOM     61  C   UNL A   1      43.894  33.060  30.891  1.00  0.00     0.058 A 
ATOM     62  C   UNL A   1      43.819  33.428  32.244  1.00  0.00     0.135 A 
ATOM     63  C   UNL A   1      44.139  34.073  29.951  1.00  0.00     0.135 A 
ATOM     64  F   UNL A   1      43.571  32.502  33.186  1.00  0.00    -0.206 F 
ATOM     65  C   UNL A   1      43.949  34.753  32.646  1.00  0.00     0.059 A 
ATOM     66  C   UNL A   1      44.305  35.401  30.333  1.00  0.00     0.059 A 
ATOM     67  F   UNL A   1      44.220  33.778  28.644  1.00  0.00    -0.206 F 
ATOM     68  C   UNL A   1      44.192  35.733  31.682  1.00  0.00     0.060 A 
BRANCH  68  69
ATOM     69  S   UNL A   1      44.363  37.446  32.222  1.00  0.00     0.124 S 
ATOM     70  O   UNL A   1      45.784  37.507  32.551  1.00  0.00    -0.237 OA
ATOM     71  O   UNL A   1      43.956  38.190  31.034  1.00  0.00    -0.237 OA
ATOM     72  O   UNL A   1      43.451  37.538  33.358  1.00  0.00    -0.744 OA
ENDBRANCH  68  69
ENDBRANCH  47  61
BRANCH  48  73
ATOM     73  C   UNL A   1      42.576  23.669  27.661  1.00  0.00     0.058 A 
ATOM     74  C   UNL A   1      42.561  23.417  26.283  1.00  0.00     0.135 A 
ATOM     75  C   UNL A   1      42.430  22.573  28.526  1.00  0.00     0.135 A 
ATOM     76  F   UNL A   1      42.691  24.433  25.414  1.00  0.00    -0.206 F 
ATOM     77  C   UNL A   1      42.389  22.133  25.776  1.00  0.00     0.059 A 
ATOM     78  C   UNL A   1      42.284  21.275  28.044  1.00  0.00     0.059 A 
ATOM     79  F   UNL A   1      42.456  22.755  29.855  1.00  0.00    -0.206 F 
ATOM     80  C   UNL A   1      42.254  21.067  26.667  1.00  0.00     0.060 A 
BRANCH  80  81
ATOM     81  S   UNL A   1      42.075  19.399  25.996  1.00  0.00     0.124 S 
ATOM     82  O   UNL A   1      42.957  19.452  24.837  1.00  0.00    -0.237 OA
ATOM     83  O   UNL A   1      42.533  18.572  27.109  1.00  0.00    -0.237 OA
ATOM     84  O   UNL A   1      40.648  19.306  25.703  1.00  0.00    -0.744 OA
ENDBRANCH  80  81
ENDBRANCH  48  73
BRANCH  60  85
ATOM     85  C   UNL A   1      48.113  27.312  29.891  1.00  0.00     0.058 A 
ATOM     86  C   UNL A   1      49.100  27.629  28.947  1.00  0.00     0.135 A 
ATOM     87  C   UNL A   1      48.525  26.750  31.111  1.00  0.00     0.135 A 
ATOM     88  F   UNL A   1      48.759  28.160  27.763  1.00  0.00    -0.206 F 
ATOM     89  C   UNL A   1      50.448  27.401  29.206  1.00  0.00     0.059 A 
ATOM     90  C   UNL A   1      49.868  26.539  31.402  1.00  0.00     0.059 A 
ATOM     91  F   UNL A   1      47.618  26.437  32.051  1.00  0.00    -0.206 F 
ATOM     92  C   UNL A   1      50.823  26.868  30.442  1.00  0.00     0.060 A 
BRANCH  92  93
ATOM     93  S   UNL A   1      52.581  26.658  30.797  1.00  0.00     0.124 S 
ATOM     94  O   UNL A   1      52.943  27.984  31.289  1.00  0.00    -0.237 OA
ATOM     95  O   UNL A   1      52.570  25.593  31.796  1.00  0.00    -0.237 OA
ATOM     96  O   UNL A   1      53.149  26.291  29.504  1.00  0.00    -0.744 OA
ENDBRANCH  92  93
ENDBRANCH  60  85
ENDBRANCH  34  35
ENDBRANCH  26  29
ENDBRANCH  24  25
ENDBRANCH   1  24
TORSDOF 18
ENDMDL
MODEL 2
REMARK VINA RESULT:     -10.3      2.694      8.928
REMARK SMILES C=CCN(CC(=O)NCCCNC(=O)c1ccc(-c2c3nc(c(-c4c(F)cc(S(=O)(=O)[O-])cc4F)c4ccc([nH]4)c(-c4c(F)cc(S(=O)(=O)[O-])cc4F)c4nc(c(-c5c(F)cc(S(=O)(=O)[O-])cc5F)c5ccc2[nH]5)C=C4)C=C3)cc1)C(=O)N1CC[N@H+](C)C(C)(C)C1
REMARK SMILES IDX 10 1 9 2 8 3 6 4 7 5 5 7 4 8 3 9 2 10 1 11 81 12 82 13 83 14
REMARK SMILES IDX 84 15 91 16 85 17 88 18 86 19 89 20 90 21 87 22 11 24 12 25
REMARK SMILES IDX 13 26 14 28 15 29 16 30 80 31 17 32 79 33 18 34 19 35 20 36
REMARK SMILES IDX 73 37 21 38 78 39 72 40 74 41 22 42 77 43 71 44 70 45 23 47
REMARK SMILES IDX 57 48 36 49 56 50 37 51 40 52 55 53 75 54 38 55 39 56 54 58
REMARK SMILES IDX 76 59 41 60 24 61 25 62 34 63 26 64 27 65 33 66 35 67 28 68
REMARK SMILES IDX 29 69 30 70 31 71 32 72 58 73 59 74 68 75 60 76 61 77 67 78
REMARK SMILES IDX 69 79 62 80 63 81 64 82 65 83 66 84 42 85 43 86 52 87 44 88
REMARK SMILES IDX 45 89 51 90 53 91 46 92 47 93 48 94 49 95 50 96
REMARK H PARENT 8 6 86 23 12 27 74 46 40 57
REMARK Flexibility Score: inf
ROOT
ATOM      1  C   UNL A   1      34.552  30.962  27.638  1.00  0.00     0.042 C 
ENDROOT
BRANCH   1   2
ATOM      2  C   UNL A   1      34.296  29.472  27.476  1.00  0.00     0.117 C 
BRANCH   2   3
ATOM      3  N   UNL A   1      32.908  29.103  27.620  1.00  0.00    -0.354 N 
ATOM      4  C   UNL A   1      32.273  27.966  27.233  1.00  0.00     0.239 C 
ATOM      5  O   UNL A   1      31.248  27.678  27.862  1.00  0.00    -0.273 OA
ATOM      6  H   UNL A   1      32.338  29.772  28.064  1.00  0.00     0.163 HD
BRANCH   4   7
ATOM      7  C   UNL A   1      32.835  27.003  26.166  1.00  0.00     0.221 C 
BRANCH   7   8
ATOM      8  N   UNL A   1      31.999  25.869  25.750  1.00  0.00    -0.312 N 
BRANCH   8   9
ATOM      9  C   UNL A   1      31.224  26.048  24.520  1.00  0.00     0.149 C 
BRANCH   9  10
ATOM     10  C   UNL A   1      29.780  26.330  24.823  1.00  0.00    -0.013 C 
ATOM     11  C   UNL A   1      28.844  26.408  23.867  1.00  0.00     0.006 C 
ENDBRANCH   9  10
ENDBRANCH   8   9
BRANCH   8  12
ATOM     12  C   UNL A   1      32.030  24.579  26.273  1.00  0.00     0.321 C 
ATOM     13  O   UNL A   1      31.364  24.280  27.267  1.00  0.00    -0.248 OA
BRANCH  12  14
ATOM     14  N   UNL A   1      32.696  23.590  25.576  1.00  0.00    -0.313 N 
ATOM     15  C   UNL A   1      32.303  22.209  25.859  1.00  0.00     0.183 C 
ATOM     16  C   UNL A   1      34.094  23.682  25.172  1.00  0.00     0.189 C 
ATOM     17  C   UNL A   1      32.640  21.262  24.689  1.00  0.00     0.284 C 
ATOM     18  C   UNL A   1      34.424  22.785  23.936  1.00  0.00     0.110 C 
ATOM     19  N   UNL A   1      34.026  21.356  24.156  1.00  0.00    -0.330 N 
ATOM     20  C   UNL A   1      33.666  23.263  22.675  1.00  0.00     0.080 C 
ATOM     21  C   UNL A   1      35.928  22.952  23.619  1.00  0.00     0.080 C 
ATOM     22  C   UNL A   1      34.945  20.593  25.001  1.00  0.00     0.333 C 
ATOM     23  H   UNL A   1      34.069  20.923  23.233  1.00  0.00     0.348 HD
ENDBRANCH  12  14
ENDBRANCH   8  12
ENDBRANCH   7   8
ENDBRANCH   4   7
ENDBRANCH   2   3
ENDBRANCH   1   2
BRANCH   1  24
ATOM     24  C   UNL A   1      35.828  31.292  28.405  1.00  0.00     0.118 C 
BRANCH  24  25
ATOM     25  N   UNL A   1      35.778  30.852  29.796  1.00  0.00    -0.352 N 
ATOM     26  C   UNL A   1      36.622  30.024  30.492  1.00  0.00     0.251 C 
ATOM     27  H   UNL A   1      35.021  31.204  30.315  1.00  0.00     0.163 HD
ATOM     28  O   UNL A   1      36.278  29.587  31.588  1.00  0.00    -0.269 OA
BRANCH  26  29
ATOM     29  C   UNL A   1      37.932  29.657  29.921  1.00  0.00     0.039 A 
ATOM     30  C   UNL A   1      38.116  29.695  28.536  1.00  0.00     0.014 A 
ATOM     31  C   UNL A   1      38.977  29.262  30.758  1.00  0.00     0.014 A 
ATOM     32  C   UNL A   1      39.373  29.408  27.997  1.00  0.00     0.010 A 
ATOM     33  C   UNL A   1      40.245  29.063  30.230  1.00  0.00     0.010 A 
ATOM     34  C   UNL A   1      40.456  29.127  28.844  1.00  0.00    -0.014 A 
BRANCH  34  35
ATOM     35  C   UNL A   1      41.823  28.866  28.327  1.00  0.00     0.031 A 
ATOM     36  C   UNL A   1      42.200  27.468  27.921  1.00  0.00     0.074 A 
ATOM     37  C   UNL A   1      42.745  29.849  28.332  1.00  0.00     0.049 A 
ATOM     38  N   UNL A   1      43.378  26.980  27.630  1.00  0.00    -0.248 NA
ATOM     39  C   UNL A   1      41.111  26.478  27.871  1.00  0.00     0.031 C 
ATOM     40  C   UNL A   1      42.503  31.237  28.732  1.00  0.00     0.029 A 
ATOM     41  N   UNL A   1      44.080  29.823  28.017  1.00  0.00    -0.354 N 
ATOM     42  C   UNL A   1      43.176  25.625  27.395  1.00  0.00     0.074 A 
ATOM     43  C   UNL A   1      41.773  25.358  27.623  1.00  0.00     0.031 C 
ATOM     44  C   UNL A   1      43.649  31.929  28.632  1.00  0.00     0.029 A 
ATOM     45  C   UNL A   1      44.717  31.027  28.214  1.00  0.00     0.049 A 
ATOM     46  H   UNL A   1      44.540  29.020  27.682  1.00  0.00     0.167 HD
ATOM     47  C   UNL A   1      44.077  24.692  27.006  1.00  0.00     0.037 A 
ATOM     48  C   UNL A   1      46.018  31.358  28.095  1.00  0.00     0.037 A 
ATOM     49  C   UNL A   1      45.465  24.979  26.753  1.00  0.00     0.049 A 
ATOM     50  C   UNL A   1      47.006  30.302  27.672  1.00  0.00     0.074 A 
ATOM     51  C   UNL A   1      46.451  24.118  26.306  1.00  0.00     0.029 A 
ATOM     52  N   UNL A   1      46.059  26.221  26.922  1.00  0.00    -0.354 N 
ATOM     53  N   UNL A   1      46.793  29.034  27.412  1.00  0.00    -0.248 NA
ATOM     54  C   UNL A   1      48.408  30.718  27.522  1.00  0.00     0.031 C 
ATOM     55  C   UNL A   1      47.654  24.828  26.249  1.00  0.00     0.029 A 
ATOM     56  C   UNL A   1      47.404  26.146  26.602  1.00  0.00     0.049 A 
ATOM     57  H   UNL A   1      45.595  27.034  27.225  1.00  0.00     0.167 HD
ATOM     58  C   UNL A   1      48.022  28.513  27.025  1.00  0.00     0.074 A 
ATOM     59  C   UNL A   1      48.977  29.600  27.092  1.00  0.00     0.031 C 
ATOM     60  C   UNL A   1      48.331  27.250  26.640  1.00  0.00     0.037 A 
BRANCH  47  61
ATOM     61  C   UNL A   1      43.593  23.278  26.832  1.00  0.00     0.058 A 
ATOM     62  C   UNL A   1      43.246  22.475  27.929  1.00  0.00     0.135 A 
ATOM     63  C   UNL A   1      43.442  22.730  25.548  1.00  0.00     0.135 A 
ATOM     64  F   UNL A   1      43.385  22.941  29.182  1.00  0.00    -0.206 F 
ATOM     65  C   UNL A   1      42.798  21.169  27.764  1.00  0.00     0.059 A 
ATOM     66  C   UNL A   1      42.964  21.437  25.356  1.00  0.00     0.059 A 
ATOM     67  F   UNL A   1      43.759  23.453  24.462  1.00  0.00    -0.206 F 
ATOM     68  C   UNL A   1      42.660  20.658  26.471  1.00  0.00     0.060 A 
BRANCH  68  69
ATOM     69  S   UNL A   1      42.073  18.964  26.274  1.00  0.00     0.124 S 
ATOM     70  O   UNL A   1      42.155  18.467  27.645  1.00  0.00    -0.237 OA
ATOM     71  O   UNL A   1      40.724  19.160  25.752  1.00  0.00    -0.237 OA
ATOM     72  O   UNL A   1      43.026  18.380  25.337  1.00  0.00    -0.744 OA
ENDBRANCH  68  69
ENDBRANCH  47  61
BRANCH  48  73
ATOM     73  C   UNL A   1      46.459  32.754  28.365  1.00  0.00     0.058 A 
ATOM     74  C   UNL A   1      46.925  33.128  29.632  1.00  0.00     0.135 A 
ATOM     75  C   UNL A   1      46.439  33.735  27.361  1.00  0.00     0.135 A 
ATOM     76  F   UNL A   1      46.959  32.228  30.628  1.00  0.00    -0.206 F 
ATOM     77  C   UNL A   1      47.339  34.429  29.904  1.00  0.00     0.059 A 
ATOM     78  C   UNL A   1      46.873  35.036  27.600  1.00  0.00     0.059 A 
ATOM     79  F   UNL A   1      46.019  33.426  26.124  1.00  0.00    -0.206 F 
ATOM     80  C   UNL A   1      47.312  35.375  28.879  1.00  0.00     0.060 A 
BRANCH  80  81
ATOM     81  S   UNL A   1      47.893  37.049  29.233  1.00  0.00     0.124 S 
ATOM     82  O   UNL A   1      47.578  37.175  30.650  1.00  0.00    -0.237 OA
ATOM     83  O   UNL A   1      49.312  36.956  28.900  1.00  0.00    -0.237 OA
ATOM     84  O   UNL A   1      47.099  37.878  28.331  1.00  0.00    -0.744 OA
ENDBRANCH  80  81
ENDBRANCH  48  73
BRANCH  60  85
ATOM     85  C   UNL A   1      49.737  26.973  26.188  1.00  0.00     0.058 A 
ATOM     86  C   UNL A   1      50.734  26.544  27.076  1.00  0.00     0.135 A 
ATOM     87  C   UNL A   1      50.056  27.033  24.821  1.00  0.00     0.135 A 
ATOM     88  F   UNL A   1      50.484  26.478  28.393  1.00  0.00    -0.206 F 
ATOM     89  C   UNL A   1      51.999  26.182  26.624  1.00  0.00     0.059 A 
ATOM     90  C   UNL A   1      51.304  26.650  24.344  1.00  0.00     0.059 A 
ATOM     91  F   UNL A   1      49.133  27.430  23.929  1.00  0.00    -0.206 F 
ATOM     92  C   UNL A   1      52.270  26.225  25.254  1.00  0.00     0.060 A 
BRANCH  92  93
ATOM     93  S   UNL A   1      53.887  25.671  24.673  1.00  0.00     0.124 S 
ATOM     94  O   UNL A   1      54.767  26.174  25.722  1.00  0.00    -0.237 OA
ATOM     95  O   UNL A   1      53.719  24.221  24.627  1.00  0.00    -0.237 OA
ATOM     96  O   UNL A   1      54.024  26.321  23.373  1.00  0.00    -0.744 OA
ENDBRANCH  92  93
ENDBRANCH  60  85
ENDBRANCH  34  35
ENDBRANCH  26  29
ENDBRANCH  24  25
ENDBRANCH   1  24
TORSDOF 18
ENDMDL
MODEL 3
REMARK VINA RESULT:     -10.3      2.438      3.462
REMARK SMILES C=CCN(CC(=O)NCCCNC(=O)c1ccc(-c2c3nc(c(-c4c(F)cc(S(=O)(=O)[O-])cc4F)c4ccc([nH]4)c(-c4c(F)cc(S(=O)(=O)[O-])cc4F)c4nc(c(-c5c(F)cc(S(=O)(=O)[O-])cc5F)c5ccc2[nH]5)C=C4)C=C3)cc1)C(=O)N1CC[N@H+](C)C(C)(C)C1
REMARK SMILES IDX 10 1 9 2 8 3 6 4 7 5 5 7 4 8 3 9 2 10 1 11 81 12 82 13 83 14
REMARK SMILES IDX 84 15 91 16 85 17 88 18 86 19 89 20 90 21 87 22 11 24 12 25
REMARK SMILES IDX 13 26 14 28 15 29 16 30 80 31 17 32 79 33 18 34 19 35 20 36
REMARK SMILES IDX 73 37 21 38 78 39 72 40 74 41 22 42 77 43 71 44 70 45 23 47
REMARK SMILES IDX 57 48 36 49 56 50 37 51 40 52 55 53 75 54 38 55 39 56 54 58
REMARK SMILES IDX 76 59 41 60 24 61 25 62 34 63 26 64 27 65 33 66 35 67 28 68
REMARK SMILES IDX 29 69 30 70 31 71 32 72 58 73 59 74 68 75 60 76 61 77 67 78
REMARK SMILES IDX 69 79 62 80 63 81 64 82 65 83 66 84 42 85 43 86 52 87 44 88
REMARK SMILES IDX 45 89 51 90 53 91 46 92 47 93 48 94 49 95 50 96
REMARK H PARENT 8 6 86 23 12 27 74 46 40 57
REMARK Flexibility Score: inf
ROOT
ATOM      1  C   UNL A   1      34.590  29.500  27.605  1.00  0.00     0.042 C 
ENDROOT
BRANCH   1   2
ATOM      2  C   UNL A   1      33.431  29.706  26.644  1.00  0.00     0.117 C 
BRANCH   2   3
ATOM      3  N   UNL A   1      33.810  29.635  25.252  1.00  0.00    -0.354 N 
ATOM      4  C   UNL A   1      33.324  28.839  24.265  1.00  0.00     0.239 C 
ATOM      5  O   UNL A   1      33.448  29.270  23.112  1.00  0.00    -0.273 OA
ATOM      6  H   UNL A   1      34.525  30.254  24.980  1.00  0.00     0.163 HD
BRANCH   4   7
ATOM      7  C   UNL A   1      32.547  27.534  24.534  1.00  0.00     0.221 C 
BRANCH   7   8
ATOM      8  N   UNL A   1      32.343  26.607  23.413  1.00  0.00    -0.312 N 
BRANCH   8   9
ATOM      9  C   UNL A   1      31.063  26.709  22.707  1.00  0.00     0.149 C 
BRANCH   9  10
ATOM     10  C   UNL A   1      29.948  27.060  23.650  1.00  0.00    -0.013 C 
ATOM     11  C   UNL A   1      29.286  26.136  24.361  1.00  0.00     0.006 C 
ENDBRANCH   9  10
ENDBRANCH   8   9
BRANCH   8  12
ATOM     12  C   UNL A   1      33.307  25.798  22.819  1.00  0.00     0.321 C 
ATOM     13  O   UNL A   1      33.828  26.111  21.746  1.00  0.00    -0.248 OA
BRANCH  12  14
ATOM     14  N   UNL A   1      33.791  24.709  23.519  1.00  0.00    -0.313 N 
ATOM     15  C   UNL A   1      32.834  23.643  23.819  1.00  0.00     0.183 C 
ATOM     16  C   UNL A   1      34.841  24.793  24.527  1.00  0.00     0.189 C 
ATOM     17  C   UNL A   1      33.534  22.289  24.052  1.00  0.00     0.284 C 
ATOM     18  C   UNL A   1      35.607  23.444  24.713  1.00  0.00     0.110 C 
ATOM     19  N   UNL A   1      34.678  22.304  25.004  1.00  0.00    -0.330 N 
ATOM     20  C   UNL A   1      36.386  23.059  23.433  1.00  0.00     0.080 C 
ATOM     21  C   UNL A   1      36.672  23.654  25.814  1.00  0.00     0.080 C 
ATOM     22  C   UNL A   1      34.189  22.257  26.382  1.00  0.00     0.333 C 
ATOM     23  H   UNL A   1      35.241  21.463  24.878  1.00  0.00     0.348 HD
ENDBRANCH  12  14
ENDBRANCH   8  12
ENDBRANCH   7   8
ENDBRANCH   4   7
ENDBRANCH   2   3
ENDBRANCH   1   2
BRANCH   1  24
ATOM     24  C   UNL A   1      35.372  30.771  27.917  1.00  0.00     0.118 C 
BRANCH  24  25
ATOM     25  N   UNL A   1      35.376  31.094  29.340  1.00  0.00    -0.352 N 
ATOM     26  C   UNL A   1      36.295  30.791  30.312  1.00  0.00     0.251 C 
ATOM     27  H   UNL A   1      34.598  31.610  29.650  1.00  0.00     0.163 HD
ATOM     28  O   UNL A   1      36.002  30.949  31.496  1.00  0.00    -0.269 OA
BRANCH  26  29
ATOM     29  C   UNL A   1      37.624  30.274  29.936  1.00  0.00     0.039 A 
ATOM     30  C   UNL A   1      38.032  30.326  28.600  1.00  0.00     0.014 A 
ATOM     31  C   UNL A   1      38.464  29.723  30.906  1.00  0.00     0.014 A 
ATOM     32  C   UNL A   1      39.315  29.894  28.251  1.00  0.00     0.010 A 
ATOM     33  C   UNL A   1      39.766  29.376  30.573  1.00  0.00     0.010 A 
ATOM     34  C   UNL A   1      40.204  29.450  29.242  1.00  0.00    -0.014 A 
BRANCH  34  35
ATOM     35  C   UNL A   1      41.593  29.029  28.933  1.00  0.00     0.031 A 
ATOM     36  C   UNL A   1      42.685  30.063  28.904  1.00  0.00     0.074 A 
ATOM     37  C   UNL A   1      41.847  27.756  28.572  1.00  0.00     0.049 A 
ATOM     38  N   UNL A   1      43.915  29.955  28.475  1.00  0.00    -0.248 NA
ATOM     39  C   UNL A   1      42.333  31.408  29.390  1.00  0.00     0.031 C 
ATOM     40  C   UNL A   1      40.863  26.672  28.534  1.00  0.00     0.029 A 
ATOM     41  N   UNL A   1      43.007  27.164  28.139  1.00  0.00    -0.354 N 
ATOM     42  C   UNL A   1      44.473  31.222  28.609  1.00  0.00     0.074 A 
ATOM     43  C   UNL A   1      43.434  32.093  29.114  1.00  0.00     0.031 C 
ATOM     44  C   UNL A   1      41.462  25.549  28.107  1.00  0.00     0.029 A 
ATOM     45  C   UNL A   1      42.856  25.842  27.791  1.00  0.00     0.049 A 
ATOM     46  H   UNL A   1      43.867  27.641  28.081  1.00  0.00     0.167 HD
ATOM     47  C   UNL A   1      45.741  31.618  28.351  1.00  0.00     0.037 A 
ATOM     48  C   UNL A   1      43.735  24.972  27.255  1.00  0.00     0.037 A 
ATOM     49  C   UNL A   1      46.773  30.733  27.878  1.00  0.00     0.049 A 
ATOM     50  C   UNL A   1      45.139  25.436  26.965  1.00  0.00     0.074 A 
ATOM     51  C   UNL A   1      48.104  31.020  27.634  1.00  0.00     0.029 A 
ATOM     52  N   UNL A   1      46.589  29.391  27.580  1.00  0.00    -0.354 N 
ATOM     53  N   UNL A   1      45.664  26.627  27.137  1.00  0.00    -0.248 NA
ATOM     54  C   UNL A   1      46.072  24.443  26.413  1.00  0.00     0.031 C 
ATOM     55  C   UNL A   1      48.715  29.862  27.144  1.00  0.00     0.029 A 
ATOM     56  C   UNL A   1      47.780  28.838  27.141  1.00  0.00     0.049 A 
ATOM     57  H   UNL A   1      45.739  28.903  27.668  1.00  0.00     0.167 HD
ATOM     58  C   UNL A   1      46.996  26.514  26.758  1.00  0.00     0.074 A 
ATOM     59  C   UNL A   1      47.197  25.142  26.340  1.00  0.00     0.031 C 
ATOM     60  C   UNL A   1      47.968  27.459  26.763  1.00  0.00     0.037 A 
BRANCH  47  61
ATOM     61  C   UNL A   1      46.084  33.066  28.574  1.00  0.00     0.058 A 
ATOM     62  C   UNL A   1      46.558  33.531  29.810  1.00  0.00     0.135 A 
ATOM     63  C   UNL A   1      45.968  33.994  27.527  1.00  0.00     0.135 A 
ATOM     64  F   UNL A   1      46.673  32.691  30.852  1.00  0.00    -0.206 F 
ATOM     65  C   UNL A   1      46.875  34.871  30.011  1.00  0.00     0.059 A 
ATOM     66  C   UNL A   1      46.311  35.333  27.695  1.00  0.00     0.059 A 
ATOM     67  F   UNL A   1      45.520  33.605  26.323  1.00  0.00    -0.206 F 
ATOM     68  C   UNL A   1      46.748  35.765  28.947  1.00  0.00     0.060 A 
BRANCH  68  69
ATOM     69  S   UNL A   1      47.168  37.497  29.224  1.00  0.00     0.124 S 
ATOM     70  O   UNL A   1      48.603  37.411  29.479  1.00  0.00    -0.237 OA
ATOM     71  O   UNL A   1      46.787  38.116  27.958  1.00  0.00    -0.237 OA
ATOM     72  O   UNL A   1      46.347  37.868  30.371  1.00  0.00    -0.744 OA
ENDBRANCH  68  69
ENDBRANCH  47  61
BRANCH  48  73
ATOM     73  C   UNL A   1      43.319  23.571  26.972  1.00  0.00     0.058 A 
ATOM     74  C   UNL A   1      43.203  22.633  28.007  1.00  0.00     0.135 A 
ATOM     75  C   UNL A   1      43.015  23.146  25.669  1.00  0.00     0.135 A 
ATOM     76  F   UNL A   1      43.488  22.989  29.269  1.00  0.00    -0.206 F 
ATOM     77  C   UNL A   1      42.818  21.319  27.761  1.00  0.00     0.059 A 
ATOM     78  C   UNL A   1      42.602  21.845  25.401  1.00  0.00     0.059 A 
ATOM     79  F   UNL A   1      43.093  24.009  24.644  1.00  0.00    -0.206 F 
ATOM     80  C   UNL A   1      42.517  20.935  26.454  1.00  0.00     0.060 A 
BRANCH  80  81
ATOM     81  S   UNL A   1      41.977  19.237  26.155  1.00  0.00     0.124 S 
ATOM     82  O   UNL A   1      40.540  19.412  25.984  1.00  0.00    -0.237 OA
ATOM     83  O   UNL A   1      42.725  18.887  24.950  1.00  0.00    -0.237 OA
ATOM     84  O   UNL A   1      42.390  18.534  27.366  1.00  0.00    -0.744 OA
ENDBRANCH  80  81
ENDBRANCH  48  73
BRANCH  60  85
ATOM     85  C   UNL A   1      49.360  27.043  26.378  1.00  0.00     0.058 A 
ATOM     86  C   UNL A   1      50.265  26.516  27.310  1.00  0.00     0.135 A 
ATOM     87  C   UNL A   1      49.749  27.071  25.027  1.00  0.00     0.135 A 
ATOM     88  F   UNL A   1      49.946  26.476  28.614  1.00  0.00    -0.206 F 
ATOM     89  C   UNL A   1      51.507  26.029  26.918  1.00  0.00     0.059 A 
ATOM     90  C   UNL A   1      50.974  26.565  24.609  1.00  0.00     0.059 A 
ATOM     91  F   UNL A   1      48.914  27.558  24.094  1.00  0.00    -0.206 F 
ATOM     92  C   UNL A   1      51.847  26.045  25.563  1.00  0.00     0.060 A 
BRANCH  92  93
ATOM     93  S   UNL A   1      53.426  25.331  25.058  1.00  0.00     0.124 S 
ATOM     94  O   UNL A   1      53.211  23.914  25.330  1.00  0.00    -0.237 OA
ATOM     95  O   UNL A   1      53.498  25.702  23.647  1.00  0.00    -0.237 OA
ATOM     96  O   UNL A   1      54.395  25.997  25.924  1.00  0.00    -0.744 OA
ENDBRANCH  92  93
ENDBRANCH  60  85
ENDBRANCH  34  35
ENDBRANCH  26  29
ENDBRANCH  24  25
ENDBRANCH   1  24
TORSDOF 18
ENDMDL
