MODEL 1
REMARK VINA RESULT:     -10.8      0.000      0.000
REMARK SMILES O=C(NCCCNC(=O)[C@H]1C[C@H]2CCCC[C@@H]2[N@@H+]1Cc1ccno1)c1ccc(-c2c3nc(c(-c4c(F)cc(S(=O)(=O)[O-])cc4F)c4ccc([nH]4)c(-c4c(F)cc(S(=O)(=O)[O-])cc4F)c4nc(c(-c5c(F)cc(S(=O)(=O)[O-])cc5F)c5ccc2[nH]5)C=C4)C=C3)cc1
REMARK SMILES IDX 4 1 3 2 1 3 2 4 25 6 26 7 90 8 27 9 89 10 28 11 29 12 30 13
REMARK SMILES IDX 83 14 31 15 88 16 82 17 84 18 32 19 87 20 81 21 80 22 33 24
REMARK SMILES IDX 67 25 46 26 66 27 47 28 50 29 65 30 85 31 48 32 49 33 64 35
REMARK SMILES IDX 86 36 51 37 34 38 35 39 44 40 36 41 37 42 43 43 45 44 38 45
REMARK SMILES IDX 39 46 40 47 41 48 42 49 68 50 69 51 78 52 70 53 71 54 77 55
REMARK SMILES IDX 79 56 72 57 73 58 74 59 75 60 76 61 52 62 53 63 62 64 54 65
REMARK SMILES IDX 55 66 61 67 63 68 56 69 57 70 58 71 59 72 60 73 5 74 6 75
REMARK SMILES IDX 7 76 8 77 9 79 10 80 11 81 18 82 12 83 17 84 13 86 16 87
REMARK SMILES IDX 14 88 15 89 19 90 20 91 21 92 24 93 22 94 23 95
REMARK H PARENT 3 5 84 23 50 34 7 78 18 85
REMARK Flexibility Score: inf
ROOT
ATOM      1  C   UNL A   1      34.483  32.593  27.810  1.00  0.00     0.118 C 
ENDROOT
BRANCH   1   2
ATOM      2  N   UNL A   1      33.778  31.319  27.769  1.00  0.00    -0.352 N 
ATOM      3  O   UNL A   1      33.516  29.091  27.607  1.00  0.00    -0.269 OA
ATOM      4  C   UNL A   1      34.271  30.038  27.816  1.00  0.00     0.251 C 
ATOM      5  H   UNL A   1      32.798  31.386  27.698  1.00  0.00     0.163 HD
BRANCH   4   6
ATOM      6  C   UNL A   1      35.703  29.797  28.094  1.00  0.00     0.039 A 
ATOM      7  C   UNL A   1      36.667  29.958  27.095  1.00  0.00     0.014 A 
ATOM      8  C   UNL A   1      36.091  29.434  29.388  1.00  0.00     0.014 A 
ATOM      9  C   UNL A   1      37.995  29.631  27.356  1.00  0.00     0.010 A 
ATOM     10  C   UNL A   1      37.437  29.179  29.667  1.00  0.00     0.010 A 
ATOM     11  C   UNL A   1      38.397  29.248  28.646  1.00  0.00    -0.014 A 
BRANCH  11  12
ATOM     12  C   UNL A   1      39.833  28.982  28.916  1.00  0.00     0.031 A 
ATOM     13  C   UNL A   1      40.700  30.010  29.589  1.00  0.00     0.074 A 
ATOM     14  C   UNL A   1      40.346  27.785  28.572  1.00  0.00     0.049 A 
ATOM     15  N   UNL A   1      41.966  29.935  29.911  1.00  0.00    -0.248 NA
ATOM     16  C   UNL A   1      40.069  31.292  29.941  1.00  0.00     0.031 C 
ATOM     17  C   UNL A   1      39.602  26.712  27.905  1.00  0.00     0.029 A 
ATOM     18  N   UNL A   1      41.601  27.260  28.744  1.00  0.00    -0.354 N 
ATOM     19  C   UNL A   1      42.288  31.155  30.493  1.00  0.00     0.074 A 
ATOM     20  C   UNL A   1      41.090  31.967  30.454  1.00  0.00     0.031 C 
ATOM     21  C   UNL A   1      40.401  25.645  27.764  1.00  0.00     0.029 A 
ATOM     22  C   UNL A   1      41.726  25.973  28.279  1.00  0.00     0.049 A 
ATOM     23  H   UNL A   1      42.340  27.758  29.162  1.00  0.00     0.167 HD
ATOM     24  C   UNL A   1      43.471  31.556  31.020  1.00  0.00     0.037 A 
ATOM     25  C   UNL A   1      42.791  25.151  28.255  1.00  0.00     0.037 A 
ATOM     26  C   UNL A   1      44.658  30.739  31.062  1.00  0.00     0.049 A 
ATOM     27  C   UNL A   1      44.097  25.628  28.821  1.00  0.00     0.074 A 
ATOM     28  C   UNL A   1      45.898  31.048  31.595  1.00  0.00     0.029 A 
ATOM     29  N   UNL A   1      44.753  29.450  30.554  1.00  0.00    -0.354 N 
ATOM     30  N   UNL A   1      44.376  26.780  29.384  1.00  0.00    -0.248 NA
ATOM     31  C   UNL A   1      45.233  24.701  28.746  1.00  0.00     0.031 C 
ATOM     32  C   UNL A   1      46.753  29.962  31.375  1.00  0.00     0.029 A 
ATOM     33  C   UNL A   1      46.035  28.959  30.744  1.00  0.00     0.049 A 
ATOM     34  H   UNL A   1      44.018  28.959  30.122  1.00  0.00     0.167 HD
ATOM     35  C   UNL A   1      45.717  26.711  29.743  1.00  0.00     0.074 A 
ATOM     36  C   UNL A   1      46.187  25.398  29.348  1.00  0.00     0.031 C 
ATOM     37  C   UNL A   1      46.488  27.650  30.343  1.00  0.00     0.037 A 
BRANCH  24  38
ATOM     38  C   UNL A   1      43.549  32.948  31.585  1.00  0.00     0.058 A 
ATOM     39  C   UNL A   1      43.180  33.226  32.910  1.00  0.00     0.135 A 
ATOM     40  C   UNL A   1      44.041  34.009  30.808  1.00  0.00     0.135 A 
ATOM     41  F   UNL A   1      42.689  32.252  33.694  1.00  0.00    -0.206 F 
ATOM     42  C   UNL A   1      43.273  34.510  33.438  1.00  0.00     0.059 A 
ATOM     43  C   UNL A   1      44.166  35.297  31.321  1.00  0.00     0.059 A 
ATOM     44  F   UNL A   1      44.410  33.799  29.534  1.00  0.00    -0.206 F 
ATOM     45  C   UNL A   1      43.765  35.541  32.635  1.00  0.00     0.060 A 
BRANCH  45  46
ATOM     46  S   UNL A   1      43.881  37.202  33.335  1.00  0.00     0.124 S 
ATOM     47  O   UNL A   1      42.693  37.242  34.182  1.00  0.00    -0.237 OA
ATOM     48  O   UNL A   1      45.158  37.158  34.038  1.00  0.00    -0.237 OA
ATOM     49  O   UNL A   1      43.843  38.069  32.161  1.00  0.00    -0.744 OA
ENDBRANCH  45  46
ENDBRANCH  24  38
BRANCH  25  50
ATOM     50  C   UNL A   1      42.656  23.789  27.676  1.00  0.00     0.058 A 
ATOM     51  C   UNL A   1      42.767  23.578  26.294  1.00  0.00     0.135 A 
ATOM     52  C   UNL A   1      42.450  22.669  28.496  1.00  0.00     0.135 A 
ATOM     53  F   UNL A   1      42.959  24.619  25.470  1.00  0.00    -0.206 F 
ATOM     54  C   UNL A   1      42.672  22.305  25.744  1.00  0.00     0.059 A 
ATOM     55  C   UNL A   1      42.376  21.383  27.972  1.00  0.00     0.059 A 
ATOM     56  F   UNL A   1      42.355  22.819  29.827  1.00  0.00    -0.206 F 
ATOM     57  C   UNL A   1      42.480  21.213  26.592  1.00  0.00     0.060 A 
BRANCH  57  58
ATOM     58  S   UNL A   1      42.419  19.556  25.876  1.00  0.00     0.124 S 
ATOM     59  O   UNL A   1      42.766  18.728  27.025  1.00  0.00    -0.237 OA
ATOM     60  O   UNL A   1      41.036  19.468  25.420  1.00  0.00    -0.237 OA
ATOM     61  O   UNL A   1      43.417  19.614  24.813  1.00  0.00    -0.744 OA
ENDBRANCH  57  58
ENDBRANCH  25  50
BRANCH  37  62
ATOM     62  C   UNL A   1      47.917  27.283  30.628  1.00  0.00     0.058 A 
ATOM     63  C   UNL A   1      48.283  26.607  31.801  1.00  0.00     0.135 A 
ATOM     64  C   UNL A   1      48.926  27.579  29.696  1.00  0.00     0.135 A 
ATOM     65  F   UNL A   1      47.356  26.310  32.726  1.00  0.00    -0.206 F 
ATOM     66  C   UNL A   1      49.604  26.255  32.054  1.00  0.00     0.059 A 
ATOM     67  C   UNL A   1      50.249  27.216  29.918  1.00  0.00     0.059 A 
ATOM     68  F   UNL A   1      48.626  28.218  28.555  1.00  0.00    -0.206 F 
ATOM     69  C   UNL A   1      50.582  26.564  31.105  1.00  0.00     0.060 A 
BRANCH  69  70
ATOM     70  S   UNL A   1      52.289  26.076  31.429  1.00  0.00     0.124 S 
ATOM     71  O   UNL A   1      52.871  26.139  30.093  1.00  0.00    -0.237 OA
ATOM     72  O   UNL A   1      52.737  27.102  32.366  1.00  0.00    -0.237 OA
ATOM     73  O   UNL A   1      52.156  24.736  31.995  1.00  0.00    -0.744 OA
ENDBRANCH  69  70
ENDBRANCH  37  62
ENDBRANCH  11  12
ENDBRANCH   4   6
ENDBRANCH   1   2
BRANCH   1  74
ATOM     74  C   UNL A   1      33.608  33.745  28.304  1.00  0.00     0.042 C 
BRANCH  74  75
ATOM     75  C   UNL A   1      34.392  34.927  28.866  1.00  0.00     0.118 C 
BRANCH  75  76
ATOM     76  N   UNL A   1      35.816  34.680  28.839  1.00  0.00    -0.351 N 
ATOM     77  C   UNL A   1      36.709  34.361  29.811  1.00  0.00     0.278 C 
ATOM     78  H   UNL A   1      36.216  34.758  27.943  1.00  0.00     0.163 HD
ATOM     79  O   UNL A   1      37.890  34.341  29.437  1.00  0.00    -0.268 OA
BRANCH  77  80
ATOM     80  C   UNL A   1      36.301  33.875  31.224  1.00  0.00     0.275 C 
ATOM     81  C   UNL A   1      36.921  32.476  31.484  1.00  0.00     0.085 C 
ATOM     82  N   UNL A   1      36.779  34.753  32.341  1.00  0.00    -0.316 N 
ATOM     83  C   UNL A   1      37.564  32.584  32.852  1.00  0.00     0.054 C 
ATOM     84  C   UNL A   1      37.938  34.058  32.924  1.00  0.00     0.188 C 
ATOM     85  H   UNL A   1      37.075  35.669  32.005  1.00  0.00     0.349 HD
ATOM     86  C   UNL A   1      38.771  31.702  33.132  1.00  0.00     0.010 C 
ATOM     87  C   UNL A   1      38.454  34.421  34.321  1.00  0.00     0.065 C 
ATOM     88  C   UNL A   1      39.295  32.011  34.538  1.00  0.00     0.001 C 
ATOM     89  C   UNL A   1      39.614  33.501  34.727  1.00  0.00     0.006 C 
BRANCH  82  90
ATOM     90  C   UNL A   1      35.711  35.156  33.283  1.00  0.00     0.342 C 
BRANCH  90  91
ATOM     91  C   UNL A   1      34.483  35.799  32.733  1.00  0.00     0.190 A 
ATOM     92  C   UNL A   1      33.311  35.341  32.177  1.00  0.00     0.075 A 
ATOM     93  O   UNL A   1      34.426  37.161  32.815  1.00  0.00    -0.355 OA
ATOM     94  C   UNL A   1      32.590  36.510  31.879  1.00  0.00     0.158 A 
ATOM     95  N   UNL A   1      33.240  37.610  32.261  1.00  0.00    -0.088 NA
ENDBRANCH  90  91
ENDBRANCH  82  90
ENDBRANCH  77  80
ENDBRANCH  75  76
ENDBRANCH  74  75
ENDBRANCH   1  74
TORSDOF 15
ENDMDL
MODEL 2
REMARK VINA RESULT:     -10.7      3.090      6.235
REMARK SMILES O=C(NCCCNC(=O)[C@H]1C[C@H]2CCCC[C@@H]2[N@@H+]1Cc1ccno1)c1ccc(-c2c3nc(c(-c4c(F)cc(S(=O)(=O)[O-])cc4F)c4ccc([nH]4)c(-c4c(F)cc(S(=O)(=O)[O-])cc4F)c4nc(c(-c5c(F)cc(S(=O)(=O)[O-])cc5F)c5ccc2[nH]5)C=C4)C=C3)cc1
REMARK SMILES IDX 4 1 3 2 1 3 2 4 25 6 26 7 90 8 27 9 89 10 28 11 29 12 30 13
REMARK SMILES IDX 83 14 31 15 88 16 82 17 84 18 32 19 87 20 81 21 80 22 33 24
REMARK SMILES IDX 67 25 46 26 66 27 47 28 50 29 65 30 85 31 48 32 49 33 64 35
REMARK SMILES IDX 86 36 51 37 34 38 35 39 44 40 36 41 37 42 43 43 45 44 38 45
REMARK SMILES IDX 39 46 40 47 41 48 42 49 68 50 69 51 78 52 70 53 71 54 77 55
REMARK SMILES IDX 79 56 72 57 73 58 74 59 75 60 76 61 52 62 53 63 62 64 54 65
REMARK SMILES IDX 55 66 61 67 63 68 56 69 57 70 58 71 59 72 60 73 5 74 6 75
REMARK SMILES IDX 7 76 8 77 9 79 10 80 11 81 18 82 12 83 17 84 13 86 16 87
REMARK SMILES IDX 14 88 15 89 19 90 20 91 21 92 24 93 22 94 23 95
REMARK H PARENT 3 5 84 23 50 34 7 78 18 85
REMARK Flexibility Score: inf
ROOT
ATOM      1  C   UNL A   1      34.009  28.161  26.337  1.00  0.00     0.118 C 
ENDROOT
BRANCH   1   2
ATOM      2  N   UNL A   1      33.640  29.450  26.906  1.00  0.00    -0.352 N 
ATOM      3  O   UNL A   1      33.793  31.256  28.239  1.00  0.00    -0.269 OA
ATOM      4  C   UNL A   1      34.349  30.279  27.742  1.00  0.00     0.251 C 
ATOM      5  H   UNL A   1      32.748  29.778  26.652  1.00  0.00     0.163 HD
BRANCH   4   6
ATOM      6  C   UNL A   1      35.763  29.989  28.061  1.00  0.00     0.039 A 
ATOM      7  C   UNL A   1      36.771  30.201  27.117  1.00  0.00     0.014 A 
ATOM      8  C   UNL A   1      36.089  29.526  29.340  1.00  0.00     0.014 A 
ATOM      9  C   UNL A   1      38.081  29.829  27.408  1.00  0.00     0.010 A 
ATOM     10  C   UNL A   1      37.417  29.224  29.655  1.00  0.00     0.010 A 
ATOM     11  C   UNL A   1      38.421  29.345  28.682  1.00  0.00    -0.014 A 
BRANCH  11  12
ATOM     12  C   UNL A   1      39.839  29.031  28.992  1.00  0.00     0.031 A 
ATOM     13  C   UNL A   1      40.721  30.028  29.692  1.00  0.00     0.074 A 
ATOM     14  C   UNL A   1      40.321  27.819  28.657  1.00  0.00     0.049 A 
ATOM     15  N   UNL A   1      41.974  29.909  30.049  1.00  0.00    -0.248 NA
ATOM     16  C   UNL A   1      40.123  31.329  30.030  1.00  0.00     0.031 C 
ATOM     17  C   UNL A   1      39.561  26.773  27.967  1.00  0.00     0.029 A 
ATOM     18  N   UNL A   1      41.553  27.251  28.862  1.00  0.00    -0.354 N 
ATOM     19  C   UNL A   1      42.320  31.117  30.643  1.00  0.00     0.074 A 
ATOM     20  C   UNL A   1      41.152  31.968  30.573  1.00  0.00     0.031 C 
ATOM     21  C   UNL A   1      40.328  25.679  27.845  1.00  0.00     0.029 A 
ATOM     22  C   UNL A   1      41.648  25.961  28.397  1.00  0.00     0.049 A 
ATOM     23  H   UNL A   1      42.296  27.723  29.303  1.00  0.00     0.167 HD
ATOM     24  C   UNL A   1      43.501  31.477  31.204  1.00  0.00     0.037 A 
ATOM     25  C   UNL A   1      42.685  25.104  28.400  1.00  0.00     0.037 A 
ATOM     26  C   UNL A   1      44.658  30.620  31.277  1.00  0.00     0.049 A 
ATOM     27  C   UNL A   1      43.989  25.537  29.004  1.00  0.00     0.074 A 
ATOM     28  C   UNL A   1      45.893  30.886  31.844  1.00  0.00     0.029 A 
ATOM     29  N   UNL A   1      44.724  29.330  30.767  1.00  0.00    -0.354 N 
ATOM     30  N   UNL A   1      44.291  26.677  29.578  1.00  0.00    -0.248 NA
ATOM     31  C   UNL A   1      45.096  24.572  28.957  1.00  0.00     0.031 C 
ATOM     32  C   UNL A   1      46.717  29.773  31.645  1.00  0.00     0.029 A 
ATOM     33  C   UNL A   1      45.983  28.796  30.991  1.00  0.00     0.049 A 
ATOM     34  H   UNL A   1      43.986  28.865  30.313  1.00  0.00     0.167 HD
ATOM     35  C   UNL A   1      45.619  26.562  29.974  1.00  0.00     0.074 A 
ATOM     36  C   UNL A   1      46.055  25.235  29.588  1.00  0.00     0.031 C 
ATOM     37  C   UNL A   1      46.403  27.474  30.599  1.00  0.00     0.037 A 
BRANCH  24  38
ATOM     38  C   UNL A   1      43.610  32.864  31.776  1.00  0.00     0.058 A 
ATOM     39  C   UNL A   1      44.002  33.957  30.987  1.00  0.00     0.135 A 
ATOM     40  C   UNL A   1      43.276  33.113  33.116  1.00  0.00     0.135 A 
ATOM     41  F   UNL A   1      44.346  33.774  29.702  1.00  0.00    -0.206 F 
ATOM     42  C   UNL A   1      44.081  35.242  31.512  1.00  0.00     0.059 A 
ATOM     43  C   UNL A   1      43.325  34.395  33.658  1.00  0.00     0.059 A 
ATOM     44  F   UNL A   1      42.893  32.105  33.916  1.00  0.00    -0.206 F 
ATOM     45  C   UNL A   1      43.743  35.453  32.850  1.00  0.00     0.060 A 
BRANCH  45  46
ATOM     46  S   UNL A   1      43.852  37.127  33.516  1.00  0.00     0.124 S 
ATOM     47  O   UNL A   1      45.086  37.051  34.291  1.00  0.00    -0.237 OA
ATOM     48  O   UNL A   1      43.912  37.943  32.308  1.00  0.00    -0.237 OA
ATOM     49  O   UNL A   1      42.627  37.262  34.299  1.00  0.00    -0.744 OA
ENDBRANCH  45  46
ENDBRANCH  24  38
BRANCH  25  50
ATOM     50  C   UNL A   1      42.521  23.749  27.813  1.00  0.00     0.058 A 
ATOM     51  C   UNL A   1      42.551  23.556  26.424  1.00  0.00     0.135 A 
ATOM     52  C   UNL A   1      42.367  22.618  28.630  1.00  0.00     0.135 A 
ATOM     53  F   UNL A   1      42.692  24.608  25.603  1.00  0.00    -0.206 F 
ATOM     54  C   UNL A   1      42.428  22.289  25.865  1.00  0.00     0.059 A 
ATOM     55  C   UNL A   1      42.266  21.339  28.095  1.00  0.00     0.059 A 
ATOM     56  F   UNL A   1      42.348  22.752  29.965  1.00  0.00    -0.206 F 
ATOM     57  C   UNL A   1      42.290  21.186  26.709  1.00  0.00     0.060 A 
BRANCH  57  58
ATOM     58  S   UNL A   1      42.192  19.538  25.977  1.00  0.00     0.124 S 
ATOM     59  O   UNL A   1      42.682  18.704  27.068  1.00  0.00    -0.237 OA
ATOM     60  O   UNL A   1      40.770  19.419  25.672  1.00  0.00    -0.237 OA
ATOM     61  O   UNL A   1      43.068  19.636  24.814  1.00  0.00    -0.744 OA
ENDBRANCH  57  58
ENDBRANCH  25  50
BRANCH  37  62
ATOM     62  C   UNL A   1      47.811  27.058  30.921  1.00  0.00     0.058 A 
ATOM     63  C   UNL A   1      48.112  26.311  32.070  1.00  0.00     0.135 A 
ATOM     64  C   UNL A   1      48.865  27.380  30.051  1.00  0.00     0.135 A 
ATOM     65  F   UNL A   1      47.140  25.985  32.937  1.00  0.00    -0.206 F 
ATOM     66  C   UNL A   1      49.413  25.914  32.357  1.00  0.00     0.059 A 
ATOM     67  C   UNL A   1      50.169  26.975  30.306  1.00  0.00     0.059 A 
ATOM     68  F   UNL A   1      48.628  28.088  28.935  1.00  0.00    -0.206 F 
ATOM     69  C   UNL A   1      50.437  26.252  31.469  1.00  0.00     0.060 A 
BRANCH  69  70
ATOM     70  S   UNL A   1      52.118  25.707  31.836  1.00  0.00     0.124 S 
ATOM     71  O   UNL A   1      52.487  26.606  32.924  1.00  0.00    -0.237 OA
ATOM     72  O   UNL A   1      51.921  24.309  32.207  1.00  0.00    -0.237 OA
ATOM     73  O   UNL A   1      52.825  25.920  30.576  1.00  0.00    -0.744 OA
ENDBRANCH  69  70
ENDBRANCH  37  62
ENDBRANCH  11  12
ENDBRANCH   4   6
ENDBRANCH   1   2
BRANCH   1  74
ATOM     74  C   UNL A   1      33.671  28.045  24.850  1.00  0.00     0.042 C 
BRANCH  74  75
ATOM     75  C   UNL A   1      32.616  26.991  24.532  1.00  0.00     0.118 C 
BRANCH  75  76
ATOM     76  N   UNL A   1      32.900  26.314  23.286  1.00  0.00    -0.351 N 
ATOM     77  C   UNL A   1      33.463  25.111  23.004  1.00  0.00     0.278 C 
ATOM     78  H   UNL A   1      32.635  26.824  22.487  1.00  0.00     0.163 HD
ATOM     79  O   UNL A   1      33.661  24.905  21.800  1.00  0.00    -0.268 OA
BRANCH  77  80
ATOM     80  C   UNL A   1      33.675  23.996  24.059  1.00  0.00     0.275 C 
ATOM     81  C   UNL A   1      34.495  22.840  23.427  1.00  0.00     0.085 C 
ATOM     82  N   UNL A   1      34.441  24.430  25.272  1.00  0.00    -0.316 N 
ATOM     83  C   UNL A   1      35.591  22.546  24.430  1.00  0.00     0.054 C 
ATOM     84  C   UNL A   1      35.803  23.900  25.092  1.00  0.00     0.188 C 
ATOM     85  H   UNL A   1      34.487  25.446  25.349  1.00  0.00     0.349 HD
ATOM     86  C   UNL A   1      36.902  21.991  23.895  1.00  0.00     0.010 C 
ATOM     87  C   UNL A   1      36.765  23.783  26.278  1.00  0.00     0.065 C 
ATOM     88  C   UNL A   1      37.882  21.825  25.061  1.00  0.00     0.001 C 
ATOM     89  C   UNL A   1      38.086  23.130  25.843  1.00  0.00     0.006 C 
BRANCH  82  90
ATOM     90  C   UNL A   1      33.771  24.104  26.551  1.00  0.00     0.342 C 
BRANCH  90  91
ATOM     91  C   UNL A   1      32.375  23.582  26.510  1.00  0.00     0.190 A 
ATOM     92  C   UNL A   1      31.761  22.490  25.940  1.00  0.00     0.075 A 
ATOM     93  O   UNL A   1      31.448  24.281  27.227  1.00  0.00    -0.355 OA
ATOM     94  C   UNL A   1      30.412  22.621  26.309  1.00  0.00     0.158 A 
ATOM     95  N   UNL A   1      30.206  23.685  27.086  1.00  0.00    -0.088 NA
ENDBRANCH  90  91
ENDBRANCH  82  90
ENDBRANCH  77  80
ENDBRANCH  75  76
ENDBRANCH  74  75
ENDBRANCH   1  74
TORSDOF 15
ENDMDL
MODEL 3
REMARK VINA RESULT:     -10.6      3.489      6.709
REMARK SMILES O=C(NCCCNC(=O)[C@H]1C[C@H]2CCCC[C@@H]2[N@@H+]1Cc1ccno1)c1ccc(-c2c3nc(c(-c4c(F)cc(S(=O)(=O)[O-])cc4F)c4ccc([nH]4)c(-c4c(F)cc(S(=O)(=O)[O-])cc4F)c4nc(c(-c5c(F)cc(S(=O)(=O)[O-])cc5F)c5ccc2[nH]5)C=C4)C=C3)cc1
REMARK SMILES IDX 4 1 3 2 1 3 2 4 25 6 26 7 90 8 27 9 89 10 28 11 29 12 30 13
REMARK SMILES IDX 83 14 31 15 88 16 82 17 84 18 32 19 87 20 81 21 80 22 33 24
REMARK SMILES IDX 67 25 46 26 66 27 47 28 50 29 65 30 85 31 48 32 49 33 64 35
REMARK SMILES IDX 86 36 51 37 34 38 35 39 44 40 36 41 37 42 43 43 45 44 38 45
REMARK SMILES IDX 39 46 40 47 41 48 42 49 68 50 69 51 78 52 70 53 71 54 77 55
REMARK SMILES IDX 79 56 72 57 73 58 74 59 75 60 76 61 52 62 53 63 62 64 54 65
REMARK SMILES IDX 55 66 61 67 63 68 56 69 57 70 58 71 59 72 60 73 5 74 6 75
REMARK SMILES IDX 7 76 8 77 9 79 10 80 11 81 18 82 12 83 17 84 13 86 16 87
REMARK SMILES IDX 14 88 15 89 19 90 20 91 21 92 24 93 22 94 23 95
REMARK H PARENT 3 5 84 23 50 34 7 78 18 85
REMARK Flexibility Score: inf
ROOT
ATOM      1  C   UNL A   1      33.784  27.909  26.753  1.00  0.00     0.118 C 
ENDROOT
BRANCH   1   2
ATOM      2  N   UNL A   1      33.463  29.289  27.094  1.00  0.00    -0.352 N 
ATOM      3  O   UNL A   1      33.702  31.298  28.076  1.00  0.00    -0.269 OA
ATOM      4  C   UNL A   1      34.219  30.234  27.743  1.00  0.00     0.251 C 
ATOM      5  H   UNL A   1      32.568  29.589  26.815  1.00  0.00     0.163 HD
BRANCH   4   6
ATOM      6  C   UNL A   1      35.638  29.968  28.061  1.00  0.00     0.039 A 
ATOM      7  C   UNL A   1      36.634  30.123  27.094  1.00  0.00     0.014 A 
ATOM      8  C   UNL A   1      35.982  29.586  29.363  1.00  0.00     0.014 A 
ATOM      9  C   UNL A   1      37.948  29.773  27.390  1.00  0.00     0.010 A 
ATOM     10  C   UNL A   1      37.314  29.307  29.679  1.00  0.00     0.010 A 
ATOM     11  C   UNL A   1      38.306  29.371  28.688  1.00  0.00    -0.014 A 
BRANCH  11  12
ATOM     12  C   UNL A   1      39.728  29.080  28.998  1.00  0.00     0.031 A 
ATOM     13  C   UNL A   1      40.590  30.086  29.710  1.00  0.00     0.074 A 
ATOM     14  C   UNL A   1      40.234  27.880  28.652  1.00  0.00     0.049 A 
ATOM     15  N   UNL A   1      41.844  29.987  30.069  1.00  0.00    -0.248 NA
ATOM     16  C   UNL A   1      39.967  31.373  30.060  1.00  0.00     0.031 C 
ATOM     17  C   UNL A   1      39.496  26.828  27.949  1.00  0.00     0.029 A 
ATOM     18  N   UNL A   1      41.476  27.334  28.855  1.00  0.00    -0.354 N 
ATOM     19  C   UNL A   1      42.166  31.195  30.677  1.00  0.00     0.074 A 
ATOM     20  C   UNL A   1      40.982  32.025  30.612  1.00  0.00     0.031 C 
ATOM     21  C   UNL A   1      40.283  25.750  27.818  1.00  0.00     0.029 A 
ATOM     22  C   UNL A   1      41.596  26.051  28.377  1.00  0.00     0.049 A 
ATOM     23  H   UNL A   1      42.209  27.815  29.302  1.00  0.00     0.167 HD
ATOM     24  C   UNL A   1      43.338  31.571  31.245  1.00  0.00     0.037 A 
ATOM     25  C   UNL A   1      42.649  25.214  28.374  1.00  0.00     0.037 A 
ATOM     26  C   UNL A   1      44.511  30.735  31.312  1.00  0.00     0.049 A 
ATOM     27  C   UNL A   1      43.944  25.664  28.986  1.00  0.00     0.074 A 
ATOM     28  C   UNL A   1      45.739  31.019  31.886  1.00  0.00     0.029 A 
ATOM     29  N   UNL A   1      44.603  29.453  30.790  1.00  0.00    -0.354 N 
ATOM     30  N   UNL A   1      44.223  26.804  29.573  1.00  0.00    -0.248 NA
ATOM     31  C   UNL A   1      45.068  24.721  28.933  1.00  0.00     0.031 C 
ATOM     32  C   UNL A   1      46.584  29.924  31.677  1.00  0.00     0.029 A 
ATOM     33  C   UNL A   1      45.871  28.939  31.012  1.00  0.00     0.049 A 
ATOM     34  H   UNL A   1      43.874  28.978  30.329  1.00  0.00     0.167 HD
ATOM     35  C   UNL A   1      45.551  26.710  29.971  1.00  0.00     0.074 A 
ATOM     36  C   UNL A   1      46.013  25.395  29.573  1.00  0.00     0.031 C 
ATOM     37  C   UNL A   1      46.317  27.630  30.607  1.00  0.00     0.037 A 
BRANCH  24  38
ATOM     38  C   UNL A   1      43.420  32.954  31.831  1.00  0.00     0.058 A 
ATOM     39  C   UNL A   1      43.733  34.071  31.041  1.00  0.00     0.135 A 
ATOM     40  C   UNL A   1      43.138  33.173  33.189  1.00  0.00     0.135 A 
ATOM     41  F   UNL A   1      44.025  33.918  29.739  1.00  0.00    -0.206 F 
ATOM     42  C   UNL A   1      43.786  35.353  31.581  1.00  0.00     0.059 A 
ATOM     43  C   UNL A   1      43.163  34.449  33.746  1.00  0.00     0.059 A 
ATOM     44  F   UNL A   1      42.832  32.141  33.991  1.00  0.00    -0.206 F 
ATOM     45  C   UNL A   1      43.502  35.533  32.935  1.00  0.00     0.060 A 
BRANCH  45  46
ATOM     46  S   UNL A   1      43.576  37.202  33.620  1.00  0.00     0.124 S 
ATOM     47  O   UNL A   1      43.793  37.999  32.417  1.00  0.00    -0.237 OA
ATOM     48  O   UNL A   1      42.265  37.343  34.245  1.00  0.00    -0.237 OA
ATOM     49  O   UNL A   1      44.705  37.141  34.544  1.00  0.00    -0.744 OA
ENDBRANCH  45  46
ENDBRANCH  24  38
BRANCH  25  50
ATOM     50  C   UNL A   1      42.512  23.862  27.772  1.00  0.00     0.058 A 
ATOM     51  C   UNL A   1      42.566  23.681  26.383  1.00  0.00     0.135 A 
ATOM     52  C   UNL A   1      42.360  22.722  28.577  1.00  0.00     0.135 A 
ATOM     53  F   UNL A   1      42.706  24.742  25.574  1.00  0.00    -0.206 F 
ATOM     54  C   UNL A   1      42.469  22.418  25.811  1.00  0.00     0.059 A 
ATOM     55  C   UNL A   1      42.285  21.446  28.030  1.00  0.00     0.059 A 
ATOM     56  F   UNL A   1      42.319  22.843  29.914  1.00  0.00    -0.206 F 
ATOM     57  C   UNL A   1      42.332  21.305  26.643  1.00  0.00     0.060 A 
BRANCH  57  58
ATOM     58  S   UNL A   1      42.268  19.663  25.896  1.00  0.00     0.124 S 
ATOM     59  O   UNL A   1      43.268  19.782  24.842  1.00  0.00    -0.237 OA
ATOM     60  O   UNL A   1      42.622  18.799  27.017  1.00  0.00    -0.237 OA
ATOM     61  O   UNL A   1      40.884  19.554  25.445  1.00  0.00    -0.744 OA
ENDBRANCH  57  58
ENDBRANCH  25  50
BRANCH  37  62
ATOM     62  C   UNL A   1      47.731  27.237  30.929  1.00  0.00     0.058 A 
ATOM     63  C   UNL A   1      48.040  26.459  32.055  1.00  0.00     0.135 A 
ATOM     64  C   UNL A   1      48.785  27.614  30.080  1.00  0.00     0.135 A 
ATOM     65  F   UNL A   1      47.069  26.081  32.902  1.00  0.00    -0.206 F 
ATOM     66  C   UNL A   1      49.348  26.084  32.341  1.00  0.00     0.059 A 
ATOM     67  C   UNL A   1      50.096  27.231  30.335  1.00  0.00     0.059 A 
ATOM     68  F   UNL A   1      48.540  28.353  28.987  1.00  0.00    -0.206 F 
ATOM     69  C   UNL A   1      50.371  26.476  31.475  1.00  0.00     0.060 A 
BRANCH  69  70
ATOM     70  S   UNL A   1      52.062  25.959  31.840  1.00  0.00     0.124 S 
ATOM     71  O   UNL A   1      51.843  24.654  32.455  1.00  0.00    -0.237 OA
ATOM     72  O   UNL A   1      52.677  25.942  30.517  1.00  0.00    -0.237 OA
ATOM     73  O   UNL A   1      52.548  27.005  32.737  1.00  0.00    -0.744 OA
ENDBRANCH  69  70
ENDBRANCH  37  62
ENDBRANCH  11  12
ENDBRANCH   4   6
ENDBRANCH   1   2
BRANCH   1  74
ATOM     74  C   UNL A   1      32.921  27.357  25.618  1.00  0.00     0.042 C 
BRANCH  74  75
ATOM     75  C   UNL A   1      31.490  27.025  26.028  1.00  0.00     0.118 C 
BRANCH  75  76
ATOM     76  N   UNL A   1      31.429  25.809  26.808  1.00  0.00    -0.351 N 
ATOM     77  C   UNL A   1      31.777  24.525  26.531  1.00  0.00     0.278 C 
ATOM     78  H   UNL A   1      31.066  25.935  27.713  1.00  0.00     0.163 HD
ATOM     79  O   UNL A   1      31.470  23.709  27.410  1.00  0.00    -0.268 OA
BRANCH  77  80
ATOM     80  C   UNL A   1      32.650  24.116  25.319  1.00  0.00     0.275 C 
ATOM     81  C   UNL A   1      34.061  23.702  25.819  1.00  0.00     0.085 C 
ATOM     82  N   UNL A   1      32.125  22.943  24.547  1.00  0.00    -0.316 N 
ATOM     83  C   UNL A   1      34.343  22.381  25.134  1.00  0.00     0.054 C 
ATOM     84  C   UNL A   1      32.949  21.795  24.960  1.00  0.00     0.188 C 
ATOM     85  H   UNL A   1      31.149  22.749  24.768  1.00  0.00     0.349 HD
ATOM     86  C   UNL A   1      35.259  21.401  25.851  1.00  0.00     0.010 C 
ATOM     87  C   UNL A   1      32.996  20.516  24.117  1.00  0.00     0.065 C 
ATOM     88  C   UNL A   1      35.361  20.118  25.018  1.00  0.00     0.001 C 
ATOM     89  C   UNL A   1      33.986  19.507  24.719  1.00  0.00     0.006 C 
BRANCH  82  90
ATOM     90  C   UNL A   1      32.017  23.186  23.091  1.00  0.00     0.342 C 
BRANCH  90  91
ATOM     91  C   UNL A   1      32.311  24.553  22.574  1.00  0.00     0.190 A 
ATOM     92  C   UNL A   1      31.605  25.731  22.481  1.00  0.00     0.075 A 
ATOM     93  O   UNL A   1      33.579  24.765  22.115  1.00  0.00    -0.355 OA
ATOM     94  C   UNL A   1      32.507  26.628  21.884  1.00  0.00     0.158 A 
ATOM     95  N   UNL A   1      33.698  26.069  21.664  1.00  0.00    -0.088 NA
ENDBRANCH  90  91
ENDBRANCH  82  90
ENDBRANCH  77  80
ENDBRANCH  75  76
ENDBRANCH  74  75
ENDBRANCH   1  74
TORSDOF 15
ENDMDL
