MODEL 1
REMARK VINA RESULT:      -9.9      0.000      0.000
REMARK SMILES [NH3+][C@@H](C[NH+](CCO)CCO)C(=O)NCCCNC(=O)c1ccc(-c2c3nc(c(-c4c(F)cc(S(=O)(=O)[O-])cc4F)c4ccc([nH]4)c(-c4c(F)cc(S(=O)(=O)[O-])cc4F)c4nc(c(-c5c(F)cc(S(=O)(=O)[O-])cc5F)c5ccc2[nH]5)C=C4)C=C3)cc1
REMARK SMILES IDX 14 1 13 2 11 3 12 4 2 6 1 7 3 11 4 12 5 14 6 15 7 16 8 18
REMARK SMILES IDX 9 19 10 20 15 22 16 23 17 24 18 25 19 27 20 28 21 29 85 30
REMARK SMILES IDX 22 31 84 32 23 33 24 34 25 35 78 36 26 37 83 38 77 39 79 40
REMARK SMILES IDX 27 41 82 42 76 43 75 44 28 46 62 47 41 48 61 49 42 50 45 51
REMARK SMILES IDX 60 52 80 53 43 54 44 55 59 57 81 58 46 59 29 60 30 61 39 62
REMARK SMILES IDX 31 63 32 64 38 65 40 66 33 67 34 68 35 69 36 70 37 71 63 72
REMARK SMILES IDX 64 73 73 74 65 75 66 76 72 77 74 78 67 79 68 80 69 81 70 82
REMARK SMILES IDX 71 83 47 84 48 85 57 86 49 87 50 88 56 89 58 90 51 91 52 92
REMARK SMILES IDX 53 93 54 94 55 95
REMARK H PARENT 13 5 1 8 1 9 1 10 4 13 7 17 10 21 17 26 79 45 45 56
REMARK Flexibility Score: inf
ROOT
ATOM      1  C   UNL A   1      33.876  31.483  27.720  1.00  0.00     0.118 C 
ENDROOT
BRANCH   1   2
ATOM      2  N   UNL A   1      34.937  32.445  27.892  1.00  0.00    -0.351 N 
ATOM      3  C   UNL A   1      35.238  33.243  28.957  1.00  0.00     0.284 C 
ATOM      4  O   UNL A   1      36.333  33.815  28.923  1.00  0.00    -0.268 OA
ATOM      5  H   UNL A   1      35.538  32.541  27.120  1.00  0.00     0.163 HD
BRANCH   3   6
ATOM      6  C   UNL A   1      34.261  33.459  30.147  1.00  0.00     0.326 C 
BRANCH   6   7
ATOM      7  N   UNL A   1      34.467  32.426  31.169  1.00  0.00    -0.343 N 
ATOM      8  H   UNL A   1      35.152  32.754  31.851  1.00  0.00     0.345 HD
ATOM      9  H   UNL A   1      34.810  31.574  30.727  1.00  0.00     0.345 HD
ATOM     10  H   UNL A   1      33.584  32.233  31.641  1.00  0.00     0.345 HD
ENDBRANCH   6   7
BRANCH   6  11
ATOM     11  C   UNL A   1      34.067  34.957  30.561  1.00  0.00     0.338 C 
BRANCH  11  12
ATOM     12  N   UNL A   1      33.709  35.491  31.906  1.00  0.00    -0.326 N 
ATOM     13  H   UNL A   1      33.416  34.623  32.355  1.00  0.00     0.348 HD
BRANCH  12  14
ATOM     14  C   UNL A   1      32.577  36.445  31.849  1.00  0.00     0.291 C 
BRANCH  14  15
ATOM     15  C   UNL A   1      31.343  35.869  32.549  1.00  0.00     0.217 C 
BRANCH  15  16
ATOM     16  O   UNL A   1      30.936  36.707  33.623  1.00  0.00    -0.391 OA
ATOM     17  H   UNL A   1      30.295  37.360  33.299  1.00  0.00     0.210 HD
ENDBRANCH  15  16
ENDBRANCH  14  15
ENDBRANCH  12  14
BRANCH  12  18
ATOM     18  C   UNL A   1      34.746  35.864  32.878  1.00  0.00     0.291 C 
BRANCH  18  19
ATOM     19  C   UNL A   1      35.113  34.694  33.803  1.00  0.00     0.217 C 
BRANCH  19  20
ATOM     20  O   UNL A   1      34.022  33.784  33.911  1.00  0.00    -0.391 OA
ATOM     21  H   UNL A   1      33.676  33.588  33.026  1.00  0.00     0.210 HD
ENDBRANCH  19  20
ENDBRANCH  18  19
ENDBRANCH  12  18
ENDBRANCH  11  12
ENDBRANCH   6  11
ENDBRANCH   3   6
ENDBRANCH   1   2
BRANCH   1  22
ATOM     22  C   UNL A   1      34.357  30.137  27.201  1.00  0.00     0.042 C 
BRANCH  22  23
ATOM     23  C   UNL A   1      35.602  29.645  27.920  1.00  0.00     0.118 C 
BRANCH  23  24
ATOM     24  N   UNL A   1      35.536  29.888  29.359  1.00  0.00    -0.352 N 
ATOM     25  C   UNL A   1      36.496  29.756  30.331  1.00  0.00     0.251 C 
ATOM     26  H   UNL A   1      34.660  30.199  29.685  1.00  0.00     0.163 HD
ATOM     27  O   UNL A   1      36.169  29.816  31.511  1.00  0.00    -0.269 OA
BRANCH  25  28
ATOM     28  C   UNL A   1      37.905  29.523  29.954  1.00  0.00     0.039 A 
ATOM     29  C   UNL A   1      38.793  29.035  30.915  1.00  0.00     0.014 A 
ATOM     30  C   UNL A   1      38.350  29.790  28.658  1.00  0.00     0.014 A 
ATOM     31  C   UNL A   1      40.110  28.750  30.554  1.00  0.00     0.010 A 
ATOM     32  C   UNL A   1      39.628  29.406  28.275  1.00  0.00     0.010 A 
ATOM     33  C   UNL A   1      40.526  28.893  29.220  1.00  0.00    -0.014 A 
BRANCH  33  34
ATOM     34  C   UNL A   1      41.897  28.529  28.790  1.00  0.00     0.031 A 
ATOM     35  C   UNL A   1      42.965  29.588  28.718  1.00  0.00     0.074 A 
ATOM     36  C   UNL A   1      42.156  27.269  28.390  1.00  0.00     0.049 A 
ATOM     37  N   UNL A   1      44.193  29.492  28.279  1.00  0.00    -0.248 NA
ATOM     38  C   UNL A   1      42.594  30.939  29.168  1.00  0.00     0.031 C 
ATOM     39  C   UNL A   1      41.185  26.171  28.365  1.00  0.00     0.029 A 
ATOM     40  N   UNL A   1      43.310  26.698  27.916  1.00  0.00    -0.354 N 
ATOM     41  C   UNL A   1      44.731  30.770  28.382  1.00  0.00     0.074 A 
ATOM     42  C   UNL A   1      43.678  31.636  28.865  1.00  0.00     0.031 C 
ATOM     43  C   UNL A   1      41.789  25.056  27.926  1.00  0.00     0.029 A 
ATOM     44  C   UNL A   1      43.176  25.367  27.594  1.00  0.00     0.049 A 
ATOM     45  H   UNL A   1      44.154  27.194  27.816  1.00  0.00     0.167 HD
ATOM     46  C   UNL A   1      45.996  31.177  28.125  1.00  0.00     0.037 A 
ATOM     47  C   UNL A   1      44.068  24.500  27.077  1.00  0.00     0.037 A 
ATOM     48  C   UNL A   1      47.041  30.299  27.671  1.00  0.00     0.049 A 
ATOM     49  C   UNL A   1      45.466  24.978  26.794  1.00  0.00     0.074 A 
ATOM     50  C   UNL A   1      48.372  30.595  27.439  1.00  0.00     0.029 A 
ATOM     51  N   UNL A   1      46.873  28.953  27.378  1.00  0.00    -0.354 N 
ATOM     52  N   UNL A   1      45.978  26.174  26.963  1.00  0.00    -0.248 NA
ATOM     53  C   UNL A   1      46.410  23.989  26.256  1.00  0.00     0.031 C 
ATOM     54  C   UNL A   1      48.997  29.443  26.954  1.00  0.00     0.029 A 
ATOM     55  C   UNL A   1      48.071  28.411  26.942  1.00  0.00     0.049 A 
ATOM     56  H   UNL A   1      46.028  28.457  27.466  1.00  0.00     0.167 HD
ATOM     57  C   UNL A   1      47.312  26.075  26.580  1.00  0.00     0.074 A 
ATOM     58  C   UNL A   1      47.528  24.699  26.184  1.00  0.00     0.031 C 
ATOM     59  C   UNL A   1      48.270  27.034  26.561  1.00  0.00     0.037 A 
BRANCH  46  60
ATOM     60  C   UNL A   1      46.319  32.632  28.333  1.00  0.00     0.058 A 
ATOM     61  C   UNL A   1      46.167  33.578  27.306  1.00  0.00     0.135 A 
ATOM     62  C   UNL A   1      46.755  33.095  29.585  1.00  0.00     0.135 A 
ATOM     63  F   UNL A   1      45.771  33.191  26.083  1.00  0.00    -0.206 F 
ATOM     64  C   UNL A   1      46.464  34.922  27.503  1.00  0.00     0.059 A 
ATOM     65  C   UNL A   1      47.026  34.442  29.814  1.00  0.00     0.059 A 
ATOM     66  F   UNL A   1      46.921  32.236  30.603  1.00  0.00    -0.206 F 
ATOM     67  C   UNL A   1      46.892  35.345  28.762  1.00  0.00     0.060 A 
BRANCH  67  68
ATOM     68  S   UNL A   1      47.263  37.095  29.001  1.00  0.00     0.124 S 
ATOM     69  O   UNL A   1      47.981  37.411  27.770  1.00  0.00    -0.237 OA
ATOM     70  O   UNL A   1      45.933  37.681  29.126  1.00  0.00    -0.237 OA
ATOM     71  O   UNL A   1      48.069  37.109  30.217  1.00  0.00    -0.744 OA
ENDBRANCH  67  68
ENDBRANCH  46  60
BRANCH  47  72
ATOM     72  C   UNL A   1      43.670  23.090  26.816  1.00  0.00     0.058 A 
ATOM     73  C   UNL A   1      43.395  22.209  27.873  1.00  0.00     0.135 A 
ATOM     74  C   UNL A   1      43.540  22.598  25.507  1.00  0.00     0.135 A 
ATOM     75  F   UNL A   1      43.508  22.630  29.142  1.00  0.00    -0.206 F 
ATOM     76  C   UNL A   1      43.025  20.888  27.644  1.00  0.00     0.059 A 
ATOM     77  C   UNL A   1      43.144  21.290  25.252  1.00  0.00     0.059 A 
ATOM     78  F   UNL A   1      43.772  23.405  24.459  1.00  0.00    -0.206 F 
ATOM     79  C   UNL A   1      42.899  20.439  26.328  1.00  0.00     0.060 A 
BRANCH  79  80
ATOM     80  S   UNL A   1      42.374  18.734  26.044  1.00  0.00     0.124 S 
ATOM     81  O   UNL A   1      43.272  18.324  24.972  1.00  0.00    -0.237 OA
ATOM     82  O   UNL A   1      42.612  18.121  27.348  1.00  0.00    -0.237 OA
ATOM     83  O   UNL A   1      40.969  18.873  25.673  1.00  0.00    -0.744 OA
ENDBRANCH  79  80
ENDBRANCH  47  72
BRANCH  59  84
ATOM     84  C   UNL A   1      49.654  26.626  26.135  1.00  0.00     0.058 A 
ATOM     85  C   UNL A   1      50.102  26.794  24.817  1.00  0.00     0.135 A 
ATOM     86  C   UNL A   1      50.562  26.119  27.079  1.00  0.00     0.135 A 
ATOM     87  F   UNL A   1      49.271  27.267  23.874  1.00  0.00    -0.206 F 
ATOM     88  C   UNL A   1      51.398  26.454  24.442  1.00  0.00     0.059 A 
ATOM     89  C   UNL A   1      51.872  25.803  26.734  1.00  0.00     0.059 A 
ATOM     90  F   UNL A   1      50.188  25.948  28.357  1.00  0.00    -0.206 F 
ATOM     91  C   UNL A   1      52.278  25.964  25.410  1.00  0.00     0.060 A 
BRANCH  91  92
ATOM     92  S   UNL A   1      53.969  25.569  24.919  1.00  0.00     0.124 S 
ATOM     93  O   UNL A   1      54.733  26.101  26.043  1.00  0.00    -0.237 OA
ATOM     94  O   UNL A   1      53.929  24.114  24.811  1.00  0.00    -0.237 OA
ATOM     95  O   UNL A   1      54.132  26.281  23.656  1.00  0.00    -0.744 OA
ENDBRANCH  91  92
ENDBRANCH  59  84
ENDBRANCH  33  34
ENDBRANCH  25  28
ENDBRANCH  23  24
ENDBRANCH  22  23
ENDBRANCH   1  22
TORSDOF 22
ENDMDL
MODEL 2
REMARK VINA RESULT:      -9.8      7.083     13.536
REMARK SMILES [NH3+][C@@H](C[NH+](CCO)CCO)C(=O)NCCCNC(=O)c1ccc(-c2c3nc(c(-c4c(F)cc(S(=O)(=O)[O-])cc4F)c4ccc([nH]4)c(-c4c(F)cc(S(=O)(=O)[O-])cc4F)c4nc(c(-c5c(F)cc(S(=O)(=O)[O-])cc5F)c5ccc2[nH]5)C=C4)C=C3)cc1
REMARK SMILES IDX 14 1 13 2 11 3 12 4 2 6 1 7 3 11 4 12 5 14 6 15 7 16 8 18
REMARK SMILES IDX 9 19 10 20 15 22 16 23 17 24 18 25 19 27 20 28 21 29 85 30
REMARK SMILES IDX 22 31 84 32 23 33 24 34 25 35 78 36 26 37 83 38 77 39 79 40
REMARK SMILES IDX 27 41 82 42 76 43 75 44 28 46 62 47 41 48 61 49 42 50 45 51
REMARK SMILES IDX 60 52 80 53 43 54 44 55 59 57 81 58 46 59 29 60 30 61 39 62
REMARK SMILES IDX 31 63 32 64 38 65 40 66 33 67 34 68 35 69 36 70 37 71 63 72
REMARK SMILES IDX 64 73 73 74 65 75 66 76 72 77 74 78 67 79 68 80 69 81 70 82
REMARK SMILES IDX 71 83 47 84 48 85 57 86 49 87 50 88 56 89 58 90 51 91 52 92
REMARK SMILES IDX 53 93 54 94 55 95
REMARK H PARENT 13 5 1 8 1 9 1 10 4 13 7 17 10 21 17 26 79 45 45 56
REMARK Flexibility Score: inf
ROOT
ATOM      1  C   UNL A   1      37.023  22.172  25.630  1.00  0.00     0.118 C 
ENDROOT
BRANCH   1   2
ATOM      2  N   UNL A   1      35.958  22.134  26.602  1.00  0.00    -0.351 N 
ATOM      3  C   UNL A   1      34.758  21.485  26.570  1.00  0.00     0.284 C 
ATOM      4  O   UNL A   1      34.127  21.445  27.632  1.00  0.00    -0.268 OA
ATOM      5  H   UNL A   1      36.122  22.660  27.417  1.00  0.00     0.163 HD
BRANCH   3   6
ATOM      6  C   UNL A   1      34.183  20.848  25.274  1.00  0.00     0.326 C 
BRANCH   6   7
ATOM      7  N   UNL A   1      33.545  19.562  25.578  1.00  0.00    -0.343 N 
ATOM      8  H   UNL A   1      33.394  19.487  26.585  1.00  0.00     0.345 HD
ATOM      9  H   UNL A   1      34.150  18.801  25.269  1.00  0.00     0.345 HD
ATOM     10  H   UNL A   1      32.649  19.503  25.094  1.00  0.00     0.345 HD
ENDBRANCH   6   7
BRANCH   6  11
ATOM     11  C   UNL A   1      33.492  21.866  24.304  1.00  0.00     0.338 C 
BRANCH  11  12
ATOM     12  N   UNL A   1      32.212  22.599  24.514  1.00  0.00    -0.326 N 
ATOM     13  H   UNL A   1      31.698  22.268  23.698  1.00  0.00     0.348 HD
BRANCH  12  14
ATOM     14  C   UNL A   1      32.388  24.068  24.447  1.00  0.00     0.291 C 
BRANCH  14  15
ATOM     15  C   UNL A   1      33.867  24.447  24.562  1.00  0.00     0.217 C 
BRANCH  15  16
ATOM     16  O   UNL A   1      34.201  24.775  25.905  1.00  0.00    -0.391 OA
ATOM     17  H   UNL A   1      34.570  23.994  26.347  1.00  0.00     0.210 HD
ENDBRANCH  15  16
ENDBRANCH  14  15
ENDBRANCH  12  14
BRANCH  12  18
ATOM     18  C   UNL A   1      31.245  22.168  25.533  1.00  0.00     0.291 C 
BRANCH  18  19
ATOM     19  C   UNL A   1      31.142  23.172  26.689  1.00  0.00     0.217 C 
BRANCH  19  20
ATOM     20  O   UNL A   1      31.620  22.589  27.899  1.00  0.00    -0.391 OA
ATOM     21  H   UNL A   1      32.046  21.740  27.701  1.00  0.00     0.210 HD
ENDBRANCH  19  20
ENDBRANCH  18  19
ENDBRANCH  12  18
ENDBRANCH  11  12
ENDBRANCH   6  11
ENDBRANCH   3   6
ENDBRANCH   1   2
BRANCH   1  22
ATOM     22  C   UNL A   1      37.543  23.574  25.356  1.00  0.00     0.042 C 
BRANCH  22  23
ATOM     23  C   UNL A   1      38.390  24.117  26.496  1.00  0.00     0.118 C 
BRANCH  23  24
ATOM     24  N   UNL A   1      39.820  23.946  26.246  1.00  0.00    -0.352 N 
ATOM     25  C   UNL A   1      40.891  24.705  26.644  1.00  0.00     0.251 C 
ATOM     26  H   UNL A   1      40.052  23.158  25.703  1.00  0.00     0.163 HD
ATOM     27  O   UNL A   1      41.993  24.495  26.149  1.00  0.00    -0.269 OA
BRANCH  25  28
ATOM     28  C   UNL A   1      40.710  25.775  27.646  1.00  0.00     0.039 A 
ATOM     29  C   UNL A   1      39.711  25.640  28.612  1.00  0.00     0.014 A 
ATOM     30  C   UNL A   1      41.521  26.912  27.629  1.00  0.00     0.014 A 
ATOM     31  C   UNL A   1      39.572  26.614  29.601  1.00  0.00     0.010 A 
ATOM     32  C   UNL A   1      41.453  27.823  28.674  1.00  0.00     0.010 A 
ATOM     33  C   UNL A   1      40.471  27.691  29.664  1.00  0.00    -0.014 A 
BRANCH  33  34
ATOM     34  C   UNL A   1      40.397  28.702  30.746  1.00  0.00     0.031 A 
ATOM     35  C   UNL A   1      41.279  28.566  31.959  1.00  0.00     0.074 A 
ATOM     36  C   UNL A   1      39.485  29.691  30.673  1.00  0.00     0.049 A 
ATOM     37  N   UNL A   1      41.299  29.286  33.050  1.00  0.00    -0.248 NA
ATOM     38  C   UNL A   1      42.243  27.453  31.960  1.00  0.00     0.031 C 
ATOM     39  C   UNL A   1      38.539  29.892  29.570  1.00  0.00     0.029 A 
ATOM     40  N   UNL A   1      39.193  30.708  31.546  1.00  0.00    -0.354 N 
ATOM     41  C   UNL A   1      42.259  28.704  33.869  1.00  0.00     0.074 A 
ATOM     42  C   UNL A   1      42.754  27.534  33.178  1.00  0.00     0.031 C 
ATOM     43  C   UNL A   1      37.793  30.978  29.821  1.00  0.00     0.029 A 
ATOM     44  C   UNL A   1      38.170  31.524  31.121  1.00  0.00     0.049 A 
ATOM     45  H   UNL A   1      39.669  30.841  32.397  1.00  0.00     0.167 HD
ATOM     46  C   UNL A   1      42.707  29.123  35.077  1.00  0.00     0.037 A 
ATOM     47  C   UNL A   1      37.595  32.587  31.717  1.00  0.00     0.037 A 
ATOM     48  C   UNL A   1      42.224  30.305  35.741  1.00  0.00     0.049 A 
ATOM     49  C   UNL A   1      38.106  33.030  33.061  1.00  0.00     0.074 A 
ATOM     50  C   UNL A   1      42.652  30.854  36.936  1.00  0.00     0.029 A 
ATOM     51  N   UNL A   1      41.205  31.119  35.269  1.00  0.00    -0.354 N 
ATOM     52  N   UNL A   1      39.063  32.508  33.792  1.00  0.00    -0.248 NA
ATOM     53  C   UNL A   1      37.466  34.208  33.659  1.00  0.00     0.031 C 
ATOM     54  C   UNL A   1      41.856  31.969  37.213  1.00  0.00     0.029 A 
ATOM     55  C   UNL A   1      40.973  32.152  36.161  1.00  0.00     0.049 A 
ATOM     56  H   UNL A   1      40.719  30.983  34.423  1.00  0.00     0.167 HD
ATOM     57  C   UNL A   1      39.159  33.312  34.923  1.00  0.00     0.074 A 
ATOM     58  C   UNL A   1      38.172  34.361  34.772  1.00  0.00     0.031 C 
ATOM     59  C   UNL A   1      39.991  33.194  35.988  1.00  0.00     0.037 A 
BRANCH  46  60
ATOM     60  C   UNL A   1      43.772  28.303  35.752  1.00  0.00     0.058 A 
ATOM     61  C   UNL A   1      43.455  27.288  36.669  1.00  0.00     0.135 A 
ATOM     62  C   UNL A   1      45.129  28.510  35.454  1.00  0.00     0.135 A 
ATOM     63  F   UNL A   1      42.176  27.056  37.006  1.00  0.00    -0.206 F 
ATOM     64  C   UNL A   1      44.443  26.530  37.289  1.00  0.00     0.059 A 
ATOM     65  C   UNL A   1      46.133  27.742  36.037  1.00  0.00     0.059 A 
ATOM     66  F   UNL A   1      45.492  29.468  34.586  1.00  0.00    -0.206 F 
ATOM     67  C   UNL A   1      45.780  26.764  36.965  1.00  0.00     0.060 A 
BRANCH  67  68
ATOM     68  S   UNL A   1      47.047  25.764  37.772  1.00  0.00     0.124 S 
ATOM     69  O   UNL A   1      47.380  24.810  36.718  1.00  0.00    -0.237 OA
ATOM     70  O   UNL A   1      48.076  26.754  38.078  1.00  0.00    -0.237 OA
ATOM     71  O   UNL A   1      46.355  25.204  38.928  1.00  0.00    -0.744 OA
ENDBRANCH  67  68
ENDBRANCH  46  60
BRANCH  47  72
ATOM     72  C   UNL A   1      36.488  33.313  31.038  1.00  0.00     0.058 A 
ATOM     73  C   UNL A   1      36.743  34.173  29.959  1.00  0.00     0.135 A 
ATOM     74  C   UNL A   1      35.153  33.151  31.441  1.00  0.00     0.135 A 
ATOM     75  F   UNL A   1      38.003  34.365  29.539  1.00  0.00    -0.206 F 
ATOM     76  C   UNL A   1      35.720  34.862  29.317  1.00  0.00     0.059 A 
ATOM     77  C   UNL A   1      34.109  33.805  30.796  1.00  0.00     0.059 A 
ATOM     78  F   UNL A   1      34.851  32.323  32.454  1.00  0.00    -0.206 F 
ATOM     79  C   UNL A   1      34.404  34.668  29.742  1.00  0.00     0.060 A 
BRANCH  79  80
ATOM     80  S   UNL A   1      33.079  35.531  28.869  1.00  0.00     0.124 S 
ATOM     81  O   UNL A   1      32.352  36.146  29.974  1.00  0.00    -0.237 OA
ATOM     82  O   UNL A   1      33.826  36.444  28.008  1.00  0.00    -0.237 OA
ATOM     83  O   UNL A   1      32.379  34.456  28.173  1.00  0.00    -0.744 OA
ENDBRANCH  79  80
ENDBRANCH  47  72
BRANCH  59  84
ATOM     84  C   UNL A   1      39.901  34.247  37.059  1.00  0.00     0.058 A 
ATOM     85  C   UNL A   1      40.485  35.513  36.904  1.00  0.00     0.135 A 
ATOM     86  C   UNL A   1      39.163  34.003  38.229  1.00  0.00     0.135 A 
ATOM     87  F   UNL A   1      41.206  35.795  35.807  1.00  0.00    -0.206 F 
ATOM     88  C   UNL A   1      40.358  36.495  37.880  1.00  0.00     0.059 A 
ATOM     89  C   UNL A   1      38.997  34.980  39.204  1.00  0.00     0.059 A 
ATOM     90  F   UNL A   1      38.575  32.811  38.423  1.00  0.00    -0.206 F 
ATOM     91  C   UNL A   1      39.607  36.220  39.026  1.00  0.00     0.060 A 
BRANCH  91  92
ATOM     92  S   UNL A   1      39.415  37.519  40.264  1.00  0.00     0.124 S 
ATOM     93  O   UNL A   1      38.595  38.490  39.548  1.00  0.00    -0.237 OA
ATOM     94  O   UNL A   1      38.754  36.811  41.356  1.00  0.00    -0.237 OA
ATOM     95  O   UNL A   1      40.788  37.936  40.536  1.00  0.00    -0.744 OA
ENDBRANCH  91  92
ENDBRANCH  59  84
ENDBRANCH  33  34
ENDBRANCH  25  28
ENDBRANCH  23  24
ENDBRANCH  22  23
ENDBRANCH   1  22
TORSDOF 22
ENDMDL
MODEL 3
REMARK VINA RESULT:      -9.8      6.362     14.353
REMARK SMILES [NH3+][C@@H](C[NH+](CCO)CCO)C(=O)NCCCNC(=O)c1ccc(-c2c3nc(c(-c4c(F)cc(S(=O)(=O)[O-])cc4F)c4ccc([nH]4)c(-c4c(F)cc(S(=O)(=O)[O-])cc4F)c4nc(c(-c5c(F)cc(S(=O)(=O)[O-])cc5F)c5ccc2[nH]5)C=C4)C=C3)cc1
REMARK SMILES IDX 14 1 13 2 11 3 12 4 2 6 1 7 3 11 4 12 5 14 6 15 7 16 8 18
REMARK SMILES IDX 9 19 10 20 15 22 16 23 17 24 18 25 19 27 20 28 21 29 85 30
REMARK SMILES IDX 22 31 84 32 23 33 24 34 25 35 78 36 26 37 83 38 77 39 79 40
REMARK SMILES IDX 27 41 82 42 76 43 75 44 28 46 62 47 41 48 61 49 42 50 45 51
REMARK SMILES IDX 60 52 80 53 43 54 44 55 59 57 81 58 46 59 29 60 30 61 39 62
REMARK SMILES IDX 31 63 32 64 38 65 40 66 33 67 34 68 35 69 36 70 37 71 63 72
REMARK SMILES IDX 64 73 73 74 65 75 66 76 72 77 74 78 67 79 68 80 69 81 70 82
REMARK SMILES IDX 71 83 47 84 48 85 57 86 49 87 50 88 56 89 58 90 51 91 52 92
REMARK SMILES IDX 53 93 54 94 55 95
REMARK H PARENT 13 5 1 8 1 9 1 10 4 13 7 17 10 21 17 26 79 45 45 56
REMARK Flexibility Score: inf
ROOT
ATOM      1  C   UNL A   1      39.922  22.349  26.892  1.00  0.00     0.118 C 
ENDROOT
BRANCH   1   2
ATOM      2  N   UNL A   1      39.930  21.104  26.164  1.00  0.00    -0.351 N 
ATOM      3  C   UNL A   1      40.769  20.032  26.260  1.00  0.00     0.284 C 
ATOM      4  O   UNL A   1      40.416  19.004  25.671  1.00  0.00    -0.268 OA
ATOM      5  H   UNL A   1      39.218  21.013  25.491  1.00  0.00     0.163 HD
BRANCH   3   6
ATOM      6  C   UNL A   1      42.113  20.086  27.039  1.00  0.00     0.326 C 
BRANCH   6   7
ATOM      7  N   UNL A   1      42.384  18.792  27.677  1.00  0.00    -0.343 N 
ATOM      8  H   UNL A   1      42.806  18.159  26.996  1.00  0.00     0.345 HD
ATOM      9  H   UNL A   1      41.510  18.391  28.016  1.00  0.00     0.345 HD
ATOM     10  H   UNL A   1      43.025  18.926  28.459  1.00  0.00     0.345 HD
ENDBRANCH   6   7
BRANCH   6  11
ATOM     11  C   UNL A   1      43.257  20.862  26.302  1.00  0.00     0.338 C 
BRANCH  11  12
ATOM     12  N   UNL A   1      43.747  20.657  24.909  1.00  0.00    -0.326 N 
ATOM     13  H   UNL A   1      42.915  20.951  24.398  1.00  0.00     0.348 HD
BRANCH  12  14
ATOM     14  C   UNL A   1      44.047  19.235  24.622  1.00  0.00     0.291 C 
BRANCH  14  15
ATOM     15  C   UNL A   1      45.295  18.776  25.383  1.00  0.00     0.217 C 
BRANCH  15  16
ATOM     16  O   UNL A   1      44.981  17.711  26.271  1.00  0.00    -0.391 OA
ATOM     17  H   UNL A   1      45.719  17.573  26.885  1.00  0.00     0.210 HD
ENDBRANCH  15  16
ENDBRANCH  14  15
ENDBRANCH  12  14
BRANCH  12  18
ATOM     18  C   UNL A   1      44.691  21.595  24.288  1.00  0.00     0.291 C 
BRANCH  18  19
ATOM     19  C   UNL A   1      45.109  22.713  25.254  1.00  0.00     0.217 C 
BRANCH  19  20
ATOM     20  O   UNL A   1      46.265  22.325  25.992  1.00  0.00    -0.391 OA
ATOM     21  H   UNL A   1      46.843  21.787  25.429  1.00  0.00     0.210 HD
ENDBRANCH  19  20
ENDBRANCH  18  19
ENDBRANCH  12  18
ENDBRANCH  11  12
ENDBRANCH   6  11
ENDBRANCH   3   6
ENDBRANCH   1   2
BRANCH   1  22
ATOM     22  C   UNL A   1      38.812  23.295  26.463  1.00  0.00     0.042 C 
BRANCH  22  23
ATOM     23  C   UNL A   1      39.312  24.713  26.230  1.00  0.00     0.118 C 
BRANCH  23  24
ATOM     24  N   UNL A   1      40.690  24.736  25.745  1.00  0.00    -0.352 N 
ATOM     25  C   UNL A   1      41.751  25.524  26.112  1.00  0.00     0.251 C 
ATOM     26  H   UNL A   1      40.889  24.077  25.040  1.00  0.00     0.163 HD
ATOM     27  O   UNL A   1      42.770  25.516  25.431  1.00  0.00    -0.269 OA
BRANCH  25  28
ATOM     28  C   UNL A   1      41.654  26.388  27.307  1.00  0.00     0.039 A 
ATOM     29  C   UNL A   1      42.247  27.652  27.280  1.00  0.00     0.014 A 
ATOM     30  C   UNL A   1      40.986  25.950  28.451  1.00  0.00     0.014 A 
ATOM     31  C   UNL A   1      42.107  28.502  28.378  1.00  0.00     0.010 A 
ATOM     32  C   UNL A   1      40.756  26.834  29.497  1.00  0.00     0.010 A 
ATOM     33  C   UNL A   1      41.324  28.114  29.477  1.00  0.00    -0.014 A 
BRANCH  33  34
ATOM     34  C   UNL A   1      41.095  29.022  30.627  1.00  0.00     0.031 A 
ATOM     35  C   UNL A   1      41.929  28.879  31.872  1.00  0.00     0.074 A 
ATOM     36  C   UNL A   1      40.089  29.917  30.578  1.00  0.00     0.049 A 
ATOM     37  N   UNL A   1      41.822  29.508  33.013  1.00  0.00    -0.248 NA
ATOM     38  C   UNL A   1      43.003  27.872  31.842  1.00  0.00     0.031 C 
ATOM     39  C   UNL A   1      39.180  30.109  29.444  1.00  0.00     0.029 A 
ATOM     40  N   UNL A   1      39.651  30.826  31.507  1.00  0.00    -0.354 N 
ATOM     41  C   UNL A   1      42.799  28.961  33.838  1.00  0.00     0.074 A 
ATOM     42  C   UNL A   1      43.445  27.907  33.089  1.00  0.00     0.031 C 
ATOM     43  C   UNL A   1      38.312  31.091  29.734  1.00  0.00     0.029 A 
ATOM     44  C   UNL A   1      38.570  31.567  31.090  1.00  0.00     0.049 A 
ATOM     45  H   UNL A   1      40.071  30.937  32.391  1.00  0.00     0.167 HD
ATOM     46  C   UNL A   1      43.143  29.325  35.096  1.00  0.00     0.037 A 
ATOM     47  C   UNL A   1      37.859  32.514  31.732  1.00  0.00     0.037 A 
ATOM     48  C   UNL A   1      42.509  30.395  35.820  1.00  0.00     0.049 A 
ATOM     49  C   UNL A   1      38.258  32.897  33.131  1.00  0.00     0.074 A 
ATOM     50  C   UNL A   1      42.821  30.886  37.074  1.00  0.00     0.029 A 
ATOM     51  N   UNL A   1      41.433  31.137  35.355  1.00  0.00    -0.354 N 
ATOM     52  N   UNL A   1      39.229  32.418  33.872  1.00  0.00    -0.248 NA
ATOM     53  C   UNL A   1      37.470  33.953  33.780  1.00  0.00     0.031 C 
ATOM     54  C   UNL A   1      41.901  31.890  37.391  1.00  0.00     0.029 A 
ATOM     55  C   UNL A   1      41.053  32.067  36.309  1.00  0.00     0.049 A 
ATOM     56  H   UNL A   1      41.004  31.021  34.476  1.00  0.00     0.167 HD
ATOM     57  C   UNL A   1      39.188  33.134  35.064  1.00  0.00     0.074 A 
ATOM     58  C   UNL A   1      38.104  34.087  34.938  1.00  0.00     0.031 C 
ATOM     59  C   UNL A   1      39.976  33.015  36.161  1.00  0.00     0.037 A 
BRANCH  46  60
ATOM     60  C   UNL A   1      44.256  28.565  35.765  1.00  0.00     0.058 A 
ATOM     61  C   UNL A   1      44.006  27.437  36.563  1.00  0.00     0.135 A 
ATOM     62  C   UNL A   1      45.595  28.947  35.580  1.00  0.00     0.135 A 
ATOM     63  F   UNL A   1      42.746  27.034  36.790  1.00  0.00    -0.206 F 
ATOM     64  C   UNL A   1      45.038  26.735  37.177  1.00  0.00     0.059 A 
ATOM     65  C   UNL A   1      46.646  28.240  36.158  1.00  0.00     0.059 A 
ATOM     66  F   UNL A   1      45.894  30.020  34.829  1.00  0.00    -0.206 F 
ATOM     67  C   UNL A   1      46.356  27.144  36.967  1.00  0.00     0.060 A 
BRANCH  67  68
ATOM     68  S   UNL A   1      47.682  26.216  37.765  1.00  0.00     0.124 S 
ATOM     69  O   UNL A   1      48.209  25.441  36.645  1.00  0.00    -0.237 OA
ATOM     70  O   UNL A   1      48.549  27.278  38.263  1.00  0.00    -0.237 OA
ATOM     71  O   UNL A   1      46.989  25.443  38.790  1.00  0.00    -0.744 OA
ENDBRANCH  67  68
ENDBRANCH  46  60
BRANCH  47  72
ATOM     72  C   UNL A   1      36.716  33.177  31.049  1.00  0.00     0.058 A 
ATOM     73  C   UNL A   1      36.927  34.076  29.993  1.00  0.00     0.135 A 
ATOM     74  C   UNL A   1      35.389  32.916  31.427  1.00  0.00     0.135 A 
ATOM     75  F   UNL A   1      38.176  34.362  29.597  1.00  0.00    -0.206 F 
ATOM     76  C   UNL A   1      35.868  34.706  29.348  1.00  0.00     0.059 A 
ATOM     77  C   UNL A   1      34.312  33.512  30.779  1.00  0.00     0.059 A 
ATOM     78  F   UNL A   1      35.130  32.049  32.420  1.00  0.00    -0.206 F 
ATOM     79  C   UNL A   1      34.563  34.414  29.747  1.00  0.00     0.060 A 
BRANCH  79  80
ATOM     80  S   UNL A   1      33.194  35.204  28.871  1.00  0.00     0.124 S 
ATOM     81  O   UNL A   1      32.668  34.094  28.086  1.00  0.00    -0.237 OA
ATOM     82  O   UNL A   1      32.353  35.663  29.973  1.00  0.00    -0.237 OA
ATOM     83  O   UNL A   1      33.850  36.262  28.110  1.00  0.00    -0.744 OA
ENDBRANCH  79  80
ENDBRANCH  47  72
BRANCH  59  84
ATOM     84  C   UNL A   1      39.727  33.964  37.301  1.00  0.00     0.058 A 
ATOM     85  C   UNL A   1      39.033  33.568  38.455  1.00  0.00     0.135 A 
ATOM     86  C   UNL A   1      40.248  35.268  37.262  1.00  0.00     0.135 A 
ATOM     87  F   UNL A   1      38.509  32.335  38.540  1.00  0.00    -0.206 F 
ATOM     88  C   UNL A   1      38.846  34.439  39.523  1.00  0.00     0.059 A 
ATOM     89  C   UNL A   1      40.100  36.145  38.332  1.00  0.00     0.059 A 
ATOM     90  F   UNL A   1      40.928  35.694  36.186  1.00  0.00    -0.206 F 
ATOM     91  C   UNL A   1      39.388  35.725  39.454  1.00  0.00     0.060 A 
BRANCH  91  92
ATOM     92  S   UNL A   1      39.175  36.829  40.865  1.00  0.00     0.124 S 
ATOM     93  O   UNL A   1      40.534  36.899  41.392  1.00  0.00    -0.237 OA
ATOM     94  O   UNL A   1      38.675  38.046  40.235  1.00  0.00    -0.237 OA
ATOM     95  O   UNL A   1      38.212  36.124  41.706  1.00  0.00    -0.744 OA
ENDBRANCH  91  92
ENDBRANCH  59  84
ENDBRANCH  33  34
ENDBRANCH  25  28
ENDBRANCH  23  24
ENDBRANCH  22  23
ENDBRANCH   1  22
TORSDOF 22
ENDMDL
