MODEL 1
REMARK VINA RESULT:     -11.2      0.000      0.000
REMARK SMILES CC[C@@H](C)N(C)C(=O)N1[C@@H](C(=O)NCCCNC(=O)c2ccc(-c3c4nc(c(-c5c(F)cc(S(=O)(=O)[O-])cc5F)c5ccc([nH]5)c(-c5c(F)cc(S(=O)(=O)[O-])cc5F)c5nc(c(-c6c(F)cc(S(=O)(=O)[O-])cc6F)c6ccc3[nH]6)C=C5)C=C4)cc2)CC[C@H]2CCCC[C@H]21
REMARK SMILES IDX 14 1 13 2 11 3 12 4 10 6 9 7 93 8 86 9 88 10 92 11 87 12
REMARK SMILES IDX 89 13 91 14 90 15 7 16 8 17 5 18 6 19 3 20 4 21 2 22 1 23
REMARK SMILES IDX 15 24 16 25 17 26 18 27 19 29 20 30 21 31 85 32 22 33 84 34
REMARK SMILES IDX 23 35 24 36 25 37 78 38 26 39 83 40 77 41 79 42 27 43 82 44
REMARK SMILES IDX 76 45 75 46 28 48 62 49 41 50 61 51 42 52 45 53 60 54 80 55
REMARK SMILES IDX 43 56 44 57 59 59 81 60 46 61 29 62 30 63 39 64 31 65 32 66
REMARK SMILES IDX 38 67 40 68 33 69 34 70 35 71 36 72 37 73 63 74 64 75 73 76
REMARK SMILES IDX 65 77 66 78 72 79 74 80 67 81 68 82 69 83 70 84 71 85 47 86
REMARK SMILES IDX 48 87 57 88 49 89 50 90 56 91 58 92 51 93 52 94 53 95 54 96
REMARK SMILES IDX 55 97
REMARK H PARENT 13 5 17 28 79 47 45 58
REMARK Flexibility Score: inf
ROOT
ATOM      1  C   UNL A   1      31.394  27.811  26.720  1.00  0.00     0.117 C 
ENDROOT
BRANCH   1   2
ATOM      2  N   UNL A   1      31.446  26.449  27.222  1.00  0.00    -0.354 N 
ATOM      3  C   UNL A   1      31.331  25.280  26.534  1.00  0.00     0.242 C 
ATOM      4  O   UNL A   1      31.335  24.227  27.182  1.00  0.00    -0.273 OA
ATOM      5  H   UNL A   1      31.583  26.359  28.192  1.00  0.00     0.163 HD
BRANCH   3   6
ATOM      6  C   UNL A   1      31.040  25.260  25.017  1.00  0.00     0.176 C 
ATOM      7  N   UNL A   1      32.212  25.369  24.108  1.00  0.00    -0.309 N 
ATOM      8  C   UNL A   1      31.894  25.627  22.686  1.00  0.00     0.091 C 
ATOM      9  C   UNL A   1      29.996  26.383  24.788  1.00  0.00     0.036 C 
ATOM     10  C   UNL A   1      30.957  26.827  22.488  1.00  0.00     0.012 C 
ATOM     11  C   UNL A   1      33.048  25.731  21.673  1.00  0.00     0.025 C 
ATOM     12  C   UNL A   1      29.688  26.661  23.325  1.00  0.00     0.008 C 
ATOM     13  C   UNL A   1      31.647  28.185  22.702  1.00  0.00     0.006 C 
ATOM     14  C   UNL A   1      33.663  27.127  21.521  1.00  0.00     0.002 C 
ATOM     15  C   UNL A   1      33.163  28.168  22.513  1.00  0.00     0.000 C 
BRANCH   7  16
ATOM     16  C   UNL A   1      33.513  25.055  24.467  1.00  0.00     0.320 C 
ATOM     17  O   UNL A   1      34.208  25.915  25.013  1.00  0.00    -0.248 OA
BRANCH  16  18
ATOM     18  N   UNL A   1      34.020  23.789  24.250  1.00  0.00    -0.325 N 
ATOM     19  C   UNL A   1      35.332  23.499  23.686  1.00  0.00     0.149 C 
BRANCH  18  20
ATOM     20  C   UNL A   1      33.339  22.622  24.876  1.00  0.00     0.083 C 
ATOM     21  C   UNL A   1      34.023  22.152  26.165  1.00  0.00     0.031 C 
BRANCH  20  22
ATOM     22  C   UNL A   1      33.105  21.486  23.854  1.00  0.00     0.021 C 
ATOM     23  C   UNL A   1      32.152  21.846  22.724  1.00  0.00     0.006 C 
ENDBRANCH  20  22
ENDBRANCH  18  20
ENDBRANCH  16  18
ENDBRANCH   7  16
ENDBRANCH   3   6
ENDBRANCH   1   2
BRANCH   1  24
ATOM     24  C   UNL A   1      32.751  28.317  26.279  1.00  0.00     0.042 C 
BRANCH  24  25
ATOM     25  C   UNL A   1      33.680  28.615  27.441  1.00  0.00     0.118 C 
BRANCH  25  26
ATOM     26  N   UNL A   1      33.658  30.014  27.851  1.00  0.00    -0.352 N 
ATOM     27  C   UNL A   1      34.680  30.757  28.401  1.00  0.00     0.251 C 
ATOM     28  H   UNL A   1      32.805  30.488  27.717  1.00  0.00     0.163 HD
ATOM     29  O   UNL A   1      34.487  31.891  28.810  1.00  0.00    -0.269 OA
BRANCH  27  30
ATOM     30  C   UNL A   1      36.008  30.126  28.514  1.00  0.00     0.039 A 
ATOM     31  C   UNL A   1      36.871  30.150  27.415  1.00  0.00     0.014 A 
ATOM     32  C   UNL A   1      36.427  29.614  29.744  1.00  0.00     0.014 A 
ATOM     33  C   UNL A   1      38.194  29.732  27.577  1.00  0.00     0.010 A 
ATOM     34  C   UNL A   1      37.761  29.285  29.922  1.00  0.00     0.010 A 
ATOM     35  C   UNL A   1      38.657  29.339  28.842  1.00  0.00    -0.014 A 
BRANCH  35  36
ATOM     36  C   UNL A   1      40.066  28.943  29.085  1.00  0.00     0.031 A 
ATOM     37  C   UNL A   1      41.036  29.982  29.573  1.00  0.00     0.074 A 
ATOM     38  C   UNL A   1      40.494  27.707  28.758  1.00  0.00     0.049 A 
ATOM     39  N   UNL A   1      42.339  29.936  29.632  1.00  0.00    -0.248 NA
ATOM     40  C   UNL A   1      40.457  31.266  30.006  1.00  0.00     0.031 C 
ATOM     41  C   UNL A   1      39.654  26.622  28.246  1.00  0.00     0.029 A 
ATOM     42  N   UNL A   1      41.754  27.165  28.785  1.00  0.00    -0.354 N 
ATOM     43  C   UNL A   1      42.739  31.195  30.065  1.00  0.00     0.074 A 
ATOM     44  C   UNL A   1      41.543  31.995  30.214  1.00  0.00     0.031 C 
ATOM     45  C   UNL A   1      40.420  25.543  28.018  1.00  0.00     0.029 A 
ATOM     46  C   UNL A   1      41.810  25.872  28.319  1.00  0.00     0.049 A 
ATOM     47  H   UNL A   1      42.544  27.655  29.108  1.00  0.00     0.167 HD
ATOM     48  C   UNL A   1      43.990  31.638  30.330  1.00  0.00     0.037 A 
ATOM     49  C   UNL A   1      42.866  25.055  28.138  1.00  0.00     0.037 A 
ATOM     50  C   UNL A   1      45.165  30.818  30.232  1.00  0.00     0.049 A 
ATOM     51  C   UNL A   1      44.245  25.558  28.471  1.00  0.00     0.074 A 
ATOM     52  C   UNL A   1      46.474  31.150  30.527  1.00  0.00     0.029 A 
ATOM     53  N   UNL A   1      45.169  29.492  29.821  1.00  0.00    -0.354 N 
ATOM     54  N   UNL A   1      44.607  26.744  28.900  1.00  0.00    -0.248 NA
ATOM     55  C   UNL A   1      45.361  24.617  28.295  1.00  0.00     0.031 C 
ATOM     56  C   UNL A   1      47.274  30.031  30.275  1.00  0.00     0.029 A 
ATOM     57  C   UNL A   1      46.457  28.992  29.857  1.00  0.00     0.049 A 
ATOM     58  H   UNL A   1      44.372  28.985  29.545  1.00  0.00     0.167 HD
ATOM     59  C   UNL A   1      45.983  26.680  29.080  1.00  0.00     0.074 A 
ATOM     60  C   UNL A   1      46.393  25.341  28.709  1.00  0.00     0.031 C 
ATOM     61  C   UNL A   1      46.832  27.642  29.515  1.00  0.00     0.037 A 
BRANCH  48  62
ATOM     62  C   UNL A   1      44.141  33.071  30.756  1.00  0.00     0.058 A 
ATOM     63  C   UNL A   1      44.358  34.097  29.822  1.00  0.00     0.135 A 
ATOM     64  C   UNL A   1      44.061  33.425  32.111  1.00  0.00     0.135 A 
ATOM     65  F   UNL A   1      44.462  33.809  28.514  1.00  0.00    -0.206 F 
ATOM     66  C   UNL A   1      44.527  35.418  30.220  1.00  0.00     0.059 A 
ATOM     67  C   UNL A   1      44.200  34.745  32.531  1.00  0.00     0.059 A 
ATOM     68  F   UNL A   1      43.857  32.483  33.046  1.00  0.00    -0.206 F 
ATOM     69  C   UNL A   1      44.451  35.731  31.578  1.00  0.00     0.060 A 
BRANCH  69  70
ATOM     70  S   UNL A   1      44.681  37.449  32.082  1.00  0.00     0.124 S 
ATOM     71  O   UNL A   1      46.119  37.616  31.890  1.00  0.00    -0.237 OA
ATOM     72  O   UNL A   1      43.830  38.170  31.143  1.00  0.00    -0.237 OA
ATOM     73  O   UNL A   1      44.228  37.459  33.469  1.00  0.00    -0.744 OA
ENDBRANCH  69  70
ENDBRANCH  48  62
BRANCH  49  74
ATOM     74  C   UNL A   1      42.659  23.671  27.636  1.00  0.00     0.058 A 
ATOM     75  C   UNL A   1      42.637  23.405  26.259  1.00  0.00     0.135 A 
ATOM     76  C   UNL A   1      42.500  22.588  28.514  1.00  0.00     0.135 A 
ATOM     77  F   UNL A   1      42.780  24.408  25.380  1.00  0.00    -0.206 F 
ATOM     78  C   UNL A   1      42.449  22.117  25.767  1.00  0.00     0.059 A 
ATOM     79  C   UNL A   1      42.331  21.288  28.046  1.00  0.00     0.059 A 
ATOM     80  F   UNL A   1      42.530  22.786  29.841  1.00  0.00    -0.206 F 
ATOM     81  C   UNL A   1      42.298  21.064  26.670  1.00  0.00     0.060 A 
BRANCH  81  82
ATOM     82  S   UNL A   1      42.106  19.388  26.023  1.00  0.00     0.124 S 
ATOM     83  O   UNL A   1      40.670  19.332  25.777  1.00  0.00    -0.237 OA
ATOM     84  O   UNL A   1      42.956  19.415  24.838  1.00  0.00    -0.237 OA
ATOM     85  O   UNL A   1      42.594  18.550  27.115  1.00  0.00    -0.744 OA
ENDBRANCH  81  82
ENDBRANCH  49  74
BRANCH  61  86
ATOM     86  C   UNL A   1      48.279  27.278  29.677  1.00  0.00     0.058 A 
ATOM     87  C   UNL A   1      49.200  27.439  28.632  1.00  0.00     0.135 A 
ATOM     88  C   UNL A   1      48.763  26.865  30.929  1.00  0.00     0.135 A 
ATOM     89  F   UNL A   1      48.783  27.825  27.416  1.00  0.00    -0.206 F 
ATOM     90  C   UNL A   1      50.558  27.205  28.825  1.00  0.00     0.059 A 
ATOM     91  C   UNL A   1      50.118  26.645  31.148  1.00  0.00     0.059 A 
ATOM     92  F   UNL A   1      47.919  26.705  31.961  1.00  0.00    -0.206 F 
ATOM     93  C   UNL A   1      51.009  26.817  30.088  1.00  0.00     0.060 A 
BRANCH  93  94
ATOM     94  S   UNL A   1      52.781  26.596  30.347  1.00  0.00     0.124 S 
ATOM     95  O   UNL A   1      53.234  26.251  29.003  1.00  0.00    -0.237 OA
ATOM     96  O   UNL A   1      53.193  27.908  30.838  1.00  0.00    -0.237 OA
ATOM     97  O   UNL A   1      52.849  25.517  31.329  1.00  0.00    -0.744 OA
ENDBRANCH  93  94
ENDBRANCH  61  86
ENDBRANCH  35  36
ENDBRANCH  27  30
ENDBRANCH  25  26
ENDBRANCH  24  25
ENDBRANCH   1  24
TORSDOF 17
ENDMDL
MODEL 2
REMARK VINA RESULT:     -11.2      4.997     10.333
REMARK SMILES CC[C@@H](C)N(C)C(=O)N1[C@@H](C(=O)NCCCNC(=O)c2ccc(-c3c4nc(c(-c5c(F)cc(S(=O)(=O)[O-])cc5F)c5ccc([nH]5)c(-c5c(F)cc(S(=O)(=O)[O-])cc5F)c5nc(c(-c6c(F)cc(S(=O)(=O)[O-])cc6F)c6ccc3[nH]6)C=C5)C=C4)cc2)CC[C@H]2CCCC[C@H]21
REMARK SMILES IDX 14 1 13 2 11 3 12 4 10 6 9 7 93 8 86 9 88 10 92 11 87 12
REMARK SMILES IDX 89 13 91 14 90 15 7 16 8 17 5 18 6 19 3 20 4 21 2 22 1 23
REMARK SMILES IDX 15 24 16 25 17 26 18 27 19 29 20 30 21 31 85 32 22 33 84 34
REMARK SMILES IDX 23 35 24 36 25 37 78 38 26 39 83 40 77 41 79 42 27 43 82 44
REMARK SMILES IDX 76 45 75 46 28 48 62 49 41 50 61 51 42 52 45 53 60 54 80 55
REMARK SMILES IDX 43 56 44 57 59 59 81 60 46 61 29 62 30 63 39 64 31 65 32 66
REMARK SMILES IDX 38 67 40 68 33 69 34 70 35 71 36 72 37 73 63 74 64 75 73 76
REMARK SMILES IDX 65 77 66 78 72 79 74 80 67 81 68 82 69 83 70 84 71 85 47 86
REMARK SMILES IDX 48 87 57 88 49 89 50 90 56 91 58 92 51 93 52 94 53 95 54 96
REMARK SMILES IDX 55 97
REMARK H PARENT 13 5 17 28 79 47 45 58
REMARK Flexibility Score: inf
ROOT
ATOM      1  C   UNL A   1      35.902  23.949  25.415  1.00  0.00     0.117 C 
ENDROOT
BRANCH   1   2
ATOM      2  N   UNL A   1      35.415  24.188  24.069  1.00  0.00    -0.354 N 
ATOM      3  C   UNL A   1      34.367  24.956  23.663  1.00  0.00     0.242 C 
ATOM      4  O   UNL A   1      34.086  24.959  22.459  1.00  0.00    -0.273 OA
ATOM      5  H   UNL A   1      35.910  23.732  23.350  1.00  0.00     0.163 HD
BRANCH   3   6
ATOM      6  C   UNL A   1      33.451  25.675  24.679  1.00  0.00     0.176 C 
ATOM      7  N   UNL A   1      32.011  25.307  24.661  1.00  0.00    -0.309 N 
ATOM      8  C   UNL A   1      31.116  26.195  25.437  1.00  0.00     0.091 C 
ATOM      9  C   UNL A   1      33.688  27.188  24.440  1.00  0.00     0.036 C 
ATOM     10  C   UNL A   1      31.288  27.679  25.082  1.00  0.00     0.012 C 
ATOM     11  C   UNL A   1      29.612  25.872  25.490  1.00  0.00     0.025 C 
ATOM     12  C   UNL A   1      32.752  28.098  25.221  1.00  0.00     0.008 C 
ATOM     13  C   UNL A   1      30.679  28.059  23.722  1.00  0.00     0.006 C 
ATOM     14  C   UNL A   1      28.776  26.458  24.348  1.00  0.00     0.002 C 
ATOM     15  C   UNL A   1      29.573  27.125  23.234  1.00  0.00     0.000 C 
BRANCH   7  16
ATOM     16  C   UNL A   1      31.512  24.120  24.150  1.00  0.00     0.320 C 
ATOM     17  O   UNL A   1      30.919  24.135  23.069  1.00  0.00    -0.248 OA
BRANCH  16  18
ATOM     18  N   UNL A   1      31.702  22.927  24.820  1.00  0.00    -0.325 N 
ATOM     19  C   UNL A   1      30.820  22.398  25.852  1.00  0.00     0.149 C 
BRANCH  18  20
ATOM     20  C   UNL A   1      32.697  21.953  24.291  1.00  0.00     0.083 C 
ATOM     21  C   UNL A   1      32.155  21.116  23.127  1.00  0.00     0.031 C 
BRANCH  20  22
ATOM     22  C   UNL A   1      33.316  21.102  25.424  1.00  0.00     0.021 C 
ATOM     23  C   UNL A   1      34.236  19.991  24.942  1.00  0.00     0.006 C 
ENDBRANCH  20  22
ENDBRANCH  18  20
ENDBRANCH  16  18
ENDBRANCH   7  16
ENDBRANCH   3   6
ENDBRANCH   1   2
BRANCH   1  24
ATOM     24  C   UNL A   1      37.295  23.355  25.428  1.00  0.00     0.042 C 
BRANCH  24  25
ATOM     25  C   UNL A   1      38.231  24.056  26.395  1.00  0.00     0.118 C 
BRANCH  25  26
ATOM     26  N   UNL A   1      39.639  23.792  26.126  1.00  0.00    -0.352 N 
ATOM     27  C   UNL A   1      40.735  24.525  26.526  1.00  0.00     0.251 C 
ATOM     28  H   UNL A   1      39.832  22.988  25.591  1.00  0.00     0.163 HD
ATOM     29  O   UNL A   1      41.857  24.254  26.126  1.00  0.00    -0.269 OA
BRANCH  27  30
ATOM     30  C   UNL A   1      40.507  25.672  27.426  1.00  0.00     0.039 A 
ATOM     31  C   UNL A   1      39.529  25.576  28.419  1.00  0.00     0.014 A 
ATOM     32  C   UNL A   1      41.342  26.788  27.346  1.00  0.00     0.014 A 
ATOM     33  C   UNL A   1      39.445  26.575  29.391  1.00  0.00     0.010 A 
ATOM     34  C   UNL A   1      41.315  27.729  28.363  1.00  0.00     0.010 A 
ATOM     35  C   UNL A   1      40.366  27.634  29.394  1.00  0.00    -0.014 A 
BRANCH  35  36
ATOM     36  C   UNL A   1      40.361  28.689  30.436  1.00  0.00     0.031 A 
ATOM     37  C   UNL A   1      41.288  28.549  31.611  1.00  0.00     0.074 A 
ATOM     38  C   UNL A   1      39.458  29.689  30.392  1.00  0.00     0.049 A 
ATOM     39  N   UNL A   1      41.300  29.205  32.740  1.00  0.00    -0.248 NA
ATOM     40  C   UNL A   1      42.310  27.492  31.518  1.00  0.00     0.031 C 
ATOM     41  C   UNL A   1      38.486  29.913  29.320  1.00  0.00     0.029 A 
ATOM     42  N   UNL A   1      39.196  30.692  31.290  1.00  0.00    -0.354 N 
ATOM     43  C   UNL A   1      42.296  28.612  33.507  1.00  0.00     0.074 A 
ATOM     44  C   UNL A   1      42.838  27.518  32.731  1.00  0.00     0.031 C 
ATOM     45  C   UNL A   1      37.742  30.990  29.618  1.00  0.00     0.029 A 
ATOM     46  C   UNL A   1      38.148  31.504  30.923  1.00  0.00     0.049 A 
ATOM     47  H   UNL A   1      39.709  30.819  32.121  1.00  0.00     0.167 HD
ATOM     48  C   UNL A   1      42.730  28.959  34.741  1.00  0.00     0.037 A 
ATOM     49  C   UNL A   1      37.572  32.533  31.574  1.00  0.00     0.037 A 
ATOM     50  C   UNL A   1      42.221  30.082  35.480  1.00  0.00     0.049 A 
ATOM     51  C   UNL A   1      38.093  32.924  32.931  1.00  0.00     0.074 A 
ATOM     52  C   UNL A   1      42.625  30.555  36.714  1.00  0.00     0.029 A 
ATOM     53  N   UNL A   1      41.206  30.920  35.040  1.00  0.00    -0.354 N 
ATOM     54  N   UNL A   1      39.049  32.367  33.636  1.00  0.00    -0.248 NA
ATOM     55  C   UNL A   1      37.458  34.077  33.584  1.00  0.00     0.031 C 
ATOM     56  C   UNL A   1      41.840  31.668  37.032  1.00  0.00     0.029 A 
ATOM     57  C   UNL A   1      40.972  31.908  35.978  1.00  0.00     0.049 A 
ATOM     58  H   UNL A   1      40.725  30.824  34.186  1.00  0.00     0.167 HD
ATOM     59  C   UNL A   1      39.155  33.124  34.797  1.00  0.00     0.074 A 
ATOM     60  C   UNL A   1      38.163  34.175  34.704  1.00  0.00     0.031 C 
ATOM     61  C   UNL A   1      40.000  32.965  35.844  1.00  0.00     0.037 A 
BRANCH  48  62
ATOM     62  C   UNL A   1      43.808  28.116  35.358  1.00  0.00     0.058 A 
ATOM     63  C   UNL A   1      43.505  27.022  36.185  1.00  0.00     0.135 A 
ATOM     64  C   UNL A   1      45.161  28.399  35.117  1.00  0.00     0.135 A 
ATOM     65  F   UNL A   1      42.226  26.720  36.464  1.00  0.00    -0.206 F 
ATOM     66  C   UNL A   1      44.505  26.261  36.780  1.00  0.00     0.059 A 
ATOM     67  C   UNL A   1      46.179  27.633  35.678  1.00  0.00     0.059 A 
ATOM     68  F   UNL A   1      45.507  29.435  34.335  1.00  0.00    -0.206 F 
ATOM     69  C   UNL A   1      45.840  26.578  36.524  1.00  0.00     0.060 A 
BRANCH  69  70
ATOM     70  S   UNL A   1      47.128  25.587  37.308  1.00  0.00     0.124 S 
ATOM     71  O   UNL A   1      47.581  24.765  36.190  1.00  0.00    -0.237 OA
ATOM     72  O   UNL A   1      48.070  26.601  37.770  1.00  0.00    -0.237 OA
ATOM     73  O   UNL A   1      46.413  24.875  38.362  1.00  0.00    -0.744 OA
ENDBRANCH  69  70
ENDBRANCH  48  62
BRANCH  49  74
ATOM     74  C   UNL A   1      36.451  33.280  30.943  1.00  0.00     0.058 A 
ATOM     75  C   UNL A   1      36.688  34.157  29.875  1.00  0.00     0.135 A 
ATOM     76  C   UNL A   1      35.126  33.120  31.376  1.00  0.00     0.135 A 
ATOM     77  F   UNL A   1      37.939  34.347  29.428  1.00  0.00    -0.206 F 
ATOM     78  C   UNL A   1      35.655  34.862  29.266  1.00  0.00     0.059 A 
ATOM     79  C   UNL A   1      34.073  33.798  30.770  1.00  0.00     0.059 A 
ATOM     80  F   UNL A   1      34.844  32.279  32.384  1.00  0.00    -0.206 F 
ATOM     81  C   UNL A   1      34.348  34.674  29.721  1.00  0.00     0.060 A 
BRANCH  81  82
ATOM     82  S   UNL A   1      33.007  35.556  28.892  1.00  0.00     0.124 S 
ATOM     83  O   UNL A   1      32.414  34.496  28.086  1.00  0.00    -0.237 OA
ATOM     84  O   UNL A   1      32.205  36.027  30.017  1.00  0.00    -0.237 OA
ATOM     85  O   UNL A   1      33.703  36.602  28.149  1.00  0.00    -0.744 OA
ENDBRANCH  81  82
ENDBRANCH  49  74
BRANCH  61  86
ATOM     86  C   UNL A   1      39.941  33.977  36.951  1.00  0.00     0.058 A 
ATOM     87  C   UNL A   1      40.592  35.215  36.852  1.00  0.00     0.135 A 
ATOM     88  C   UNL A   1      39.133  33.741  38.075  1.00  0.00     0.135 A 
ATOM     89  F   UNL A   1      41.381  35.482  35.800  1.00  0.00    -0.206 F 
ATOM     90  C   UNL A   1      40.441  36.190  37.833  1.00  0.00     0.059 A 
ATOM     91  C   UNL A   1      38.953  34.709  39.057  1.00  0.00     0.059 A 
ATOM     92  F   UNL A   1      38.484  32.573  38.209  1.00  0.00    -0.206 F 
ATOM     93  C   UNL A   1      39.612  35.931  38.927  1.00  0.00     0.060 A 
BRANCH  93  94
ATOM     94  S   UNL A   1      39.359  37.234  40.150  1.00  0.00     0.124 S 
ATOM     95  O   UNL A   1      38.642  36.518  41.200  1.00  0.00    -0.237 OA
ATOM     96  O   UNL A   1      40.726  37.631  40.473  1.00  0.00    -0.237 OA
ATOM     97  O   UNL A   1      38.579  38.233  39.425  1.00  0.00    -0.744 OA
ENDBRANCH  93  94
ENDBRANCH  61  86
ENDBRANCH  35  36
ENDBRANCH  27  30
ENDBRANCH  25  26
ENDBRANCH  24  25
ENDBRANCH   1  24
TORSDOF 17
ENDMDL
MODEL 3
REMARK VINA RESULT:     -11.2      0.832      2.481
REMARK SMILES CC[C@@H](C)N(C)C(=O)N1[C@@H](C(=O)NCCCNC(=O)c2ccc(-c3c4nc(c(-c5c(F)cc(S(=O)(=O)[O-])cc5F)c5ccc([nH]5)c(-c5c(F)cc(S(=O)(=O)[O-])cc5F)c5nc(c(-c6c(F)cc(S(=O)(=O)[O-])cc6F)c6ccc3[nH]6)C=C5)C=C4)cc2)CC[C@H]2CCCC[C@H]21
REMARK SMILES IDX 14 1 13 2 11 3 12 4 10 6 9 7 93 8 86 9 88 10 92 11 87 12
REMARK SMILES IDX 89 13 91 14 90 15 7 16 8 17 5 18 6 19 3 20 4 21 2 22 1 23
REMARK SMILES IDX 15 24 16 25 17 26 18 27 19 29 20 30 21 31 85 32 22 33 84 34
REMARK SMILES IDX 23 35 24 36 25 37 78 38 26 39 83 40 77 41 79 42 27 43 82 44
REMARK SMILES IDX 76 45 75 46 28 48 62 49 41 50 61 51 42 52 45 53 60 54 80 55
REMARK SMILES IDX 43 56 44 57 59 59 81 60 46 61 29 62 30 63 39 64 31 65 32 66
REMARK SMILES IDX 38 67 40 68 33 69 34 70 35 71 36 72 37 73 63 74 64 75 73 76
REMARK SMILES IDX 65 77 66 78 72 79 74 80 67 81 68 82 69 83 70 84 71 85 47 86
REMARK SMILES IDX 48 87 57 88 49 89 50 90 56 91 58 92 51 93 52 94 53 95 54 96
REMARK SMILES IDX 55 97
REMARK H PARENT 13 5 17 28 79 47 45 58
REMARK Flexibility Score: inf
ROOT
ATOM      1  C   UNL A   1      31.493  27.417  26.444  1.00  0.00     0.117 C 
ENDROOT
BRANCH   1   2
ATOM      2  N   UNL A   1      30.651  26.271  26.739  1.00  0.00    -0.354 N 
ATOM      3  C   UNL A   1      30.915  24.947  26.562  1.00  0.00     0.242 C 
ATOM      4  O   UNL A   1      30.016  24.140  26.820  1.00  0.00    -0.273 OA
ATOM      5  H   UNL A   1      29.768  26.481  27.119  1.00  0.00     0.163 HD
BRANCH   3   6
ATOM      6  C   UNL A   1      32.231  24.467  25.909  1.00  0.00     0.176 C 
ATOM      7  N   UNL A   1      32.173  24.117  24.465  1.00  0.00    -0.309 N 
ATOM      8  C   UNL A   1      33.357  23.403  23.935  1.00  0.00     0.091 C 
ATOM      9  C   UNL A   1      32.718  23.291  26.794  1.00  0.00     0.036 C 
ATOM     10  C   UNL A   1      33.736  22.168  24.764  1.00  0.00     0.012 C 
ATOM     11  C   UNL A   1      33.389  23.024  22.443  1.00  0.00     0.025 C 
ATOM     12  C   UNL A   1      33.920  22.546  26.235  1.00  0.00     0.008 C 
ATOM     13  C   UNL A   1      32.781  20.978  24.563  1.00  0.00     0.006 C 
ATOM     14  C   UNL A   1      32.744  21.678  22.096  1.00  0.00     0.002 C 
ATOM     15  C   UNL A   1      32.013  20.992  23.243  1.00  0.00     0.000 C 
BRANCH   7  16
ATOM     16  C   UNL A   1      31.209  24.579  23.585  1.00  0.00     0.320 C 
ATOM     17  O   UNL A   1      30.320  23.809  23.211  1.00  0.00    -0.248 OA
BRANCH  16  18
ATOM     18  N   UNL A   1      31.215  25.891  23.154  1.00  0.00    -0.325 N 
ATOM     19  C   UNL A   1      30.064  26.784  23.176  1.00  0.00     0.149 C 
BRANCH  18  20
ATOM     20  C   UNL A   1      32.520  26.564  22.907  1.00  0.00     0.083 C 
ATOM     21  C   UNL A   1      32.450  28.086  23.075  1.00  0.00     0.031 C 
BRANCH  20  22
ATOM     22  C   UNL A   1      33.141  26.121  21.562  1.00  0.00     0.021 C 
ATOM     23  C   UNL A   1      32.126  25.864  20.458  1.00  0.00     0.006 C 
ENDBRANCH  20  22
ENDBRANCH  18  20
ENDBRANCH  16  18
ENDBRANCH   7  16
ENDBRANCH   3   6
ENDBRANCH   1   2
BRANCH   1  24
ATOM     24  C   UNL A   1      32.236  27.918  27.665  1.00  0.00     0.042 C 
BRANCH  24  25
ATOM     25  C   UNL A   1      33.509  28.667  27.319  1.00  0.00     0.118 C 
BRANCH  25  26
ATOM     26  N   UNL A   1      33.475  30.071  27.712  1.00  0.00    -0.352 N 
ATOM     27  C   UNL A   1      34.480  30.821  28.283  1.00  0.00     0.251 C 
ATOM     28  H   UNL A   1      32.626  30.543  27.549  1.00  0.00     0.163 HD
ATOM     29  O   UNL A   1      34.275  31.959  28.673  1.00  0.00    -0.269 OA
BRANCH  27  30
ATOM     30  C   UNL A   1      35.806  30.191  28.440  1.00  0.00     0.039 A 
ATOM     31  C   UNL A   1      36.694  30.192  27.362  1.00  0.00     0.014 A 
ATOM     32  C   UNL A   1      36.194  29.706  29.691  1.00  0.00     0.014 A 
ATOM     33  C   UNL A   1      38.012  29.777  27.564  1.00  0.00     0.010 A 
ATOM     34  C   UNL A   1      37.524  29.382  29.908  1.00  0.00     0.010 A 
ATOM     35  C   UNL A   1      38.445  29.412  28.848  1.00  0.00    -0.014 A 
BRANCH  35  36
ATOM     36  C   UNL A   1      39.847  29.021  29.132  1.00  0.00     0.031 A 
ATOM     37  C   UNL A   1      40.793  30.058  29.670  1.00  0.00     0.074 A 
ATOM     38  C   UNL A   1      40.295  27.794  28.800  1.00  0.00     0.049 A 
ATOM     39  N   UNL A   1      42.094  30.020  29.774  1.00  0.00    -0.248 NA
ATOM     40  C   UNL A   1      40.191  31.331  30.105  1.00  0.00     0.031 C 
ATOM     41  C   UNL A   1      39.481  26.711  28.242  1.00  0.00     0.029 A 
ATOM     42  N   UNL A   1      41.557  27.259  28.862  1.00  0.00    -0.354 N 
ATOM     43  C   UNL A   1      42.469  31.274  30.241  1.00  0.00     0.074 A 
ATOM     44  C   UNL A   1      41.263  32.063  30.362  1.00  0.00     0.031 C 
ATOM     45  C   UNL A   1      40.263  25.641  28.023  1.00  0.00     0.029 A 
ATOM     46  C   UNL A   1      41.639  25.975  28.377  1.00  0.00     0.049 A 
ATOM     47  H   UNL A   1      42.333  27.749  29.219  1.00  0.00     0.167 HD
ATOM     48  C   UNL A   1      43.707  31.721  30.557  1.00  0.00     0.037 A 
ATOM     49  C   UNL A   1      42.706  25.168  28.218  1.00  0.00     0.037 A 
ATOM     50  C   UNL A   1      44.891  30.910  30.485  1.00  0.00     0.049 A 
ATOM     51  C   UNL A   1      44.070  25.674  28.607  1.00  0.00     0.074 A 
ATOM     52  C   UNL A   1      46.187  31.245  30.831  1.00  0.00     0.029 A 
ATOM     53  N   UNL A   1      44.918  29.591  30.053  1.00  0.00    -0.354 N 
ATOM     54  N   UNL A   1      44.408  26.855  29.068  1.00  0.00    -0.248 NA
ATOM     55  C   UNL A   1      45.197  24.743  28.454  1.00  0.00     0.031 C 
ATOM     56  C   UNL A   1      47.003  30.136  30.588  1.00  0.00     0.029 A 
ATOM     57  C   UNL A   1      46.208  29.099  30.125  1.00  0.00     0.049 A 
ATOM     58  H   UNL A   1      44.135  29.083  29.741  1.00  0.00     0.167 HD
ATOM     59  C   UNL A   1      45.778  26.797  29.294  1.00  0.00     0.074 A 
ATOM     60  C   UNL A   1      46.209  25.467  28.915  1.00  0.00     0.031 C 
ATOM     61  C   UNL A   1      46.604  27.758  29.774  1.00  0.00     0.037 A 
BRANCH  48  62
ATOM     62  C   UNL A   1      43.833  33.147  31.011  1.00  0.00     0.058 A 
ATOM     63  C   UNL A   1      44.042  34.194  30.098  1.00  0.00     0.135 A 
ATOM     64  C   UNL A   1      43.738  33.474  32.372  1.00  0.00     0.135 A 
ATOM     65  F   UNL A   1      44.161  33.933  28.786  1.00  0.00    -0.206 F 
ATOM     66  C   UNL A   1      44.189  35.510  30.523  1.00  0.00     0.059 A 
ATOM     67  C   UNL A   1      43.853  34.787  32.818  1.00  0.00     0.059 A 
ATOM     68  F   UNL A   1      43.541  32.511  33.287  1.00  0.00    -0.206 F 
ATOM     69  C   UNL A   1      44.098  35.795  31.886  1.00  0.00     0.060 A 
BRANCH  69  70
ATOM     70  S   UNL A   1      44.298  37.506  32.424  1.00  0.00     0.124 S 
ATOM     71  O   UNL A   1      44.025  38.232  31.188  1.00  0.00    -0.237 OA
ATOM     72  O   UNL A   1      43.285  37.630  33.467  1.00  0.00    -0.237 OA
ATOM     73  O   UNL A   1      45.680  37.556  32.889  1.00  0.00    -0.744 OA
ENDBRANCH  69  70
ENDBRANCH  48  62
BRANCH  49  74
ATOM     74  C   UNL A   1      42.526  23.791  27.687  1.00  0.00     0.058 A 
ATOM     75  C   UNL A   1      42.432  22.695  28.557  1.00  0.00     0.135 A 
ATOM     76  C   UNL A   1      42.425  23.543  26.309  1.00  0.00     0.135 A 
ATOM     77  F   UNL A   1      42.528  22.881  29.882  1.00  0.00    -0.206 F 
ATOM     78  C   UNL A   1      42.259  21.399  28.082  1.00  0.00     0.059 A 
ATOM     79  C   UNL A   1      42.231  22.258  25.811  1.00  0.00     0.059 A 
ATOM     80  F   UNL A   1      42.492  24.560  25.435  1.00  0.00    -0.206 F 
ATOM     81  C   UNL A   1      42.159  21.191  26.706  1.00  0.00     0.060 A 
BRANCH  81  82
ATOM     82  S   UNL A   1      41.884  19.510  26.101  1.00  0.00     0.124 S 
ATOM     83  O   UNL A   1      42.319  18.713  27.241  1.00  0.00    -0.237 OA
ATOM     84  O   UNL A   1      40.449  19.510  25.832  1.00  0.00    -0.237 OA
ATOM     85  O   UNL A   1      42.734  19.439  24.916  1.00  0.00    -0.744 OA
ENDBRANCH  81  82
ENDBRANCH  49  74
BRANCH  61  86
ATOM     86  C   UNL A   1      48.048  27.400  29.980  1.00  0.00     0.058 A 
ATOM     87  C   UNL A   1      49.020  27.680  29.009  1.00  0.00     0.135 A 
ATOM     88  C   UNL A   1      48.471  26.870  31.209  1.00  0.00     0.135 A 
ATOM     89  F   UNL A   1      48.662  28.180  27.817  1.00  0.00    -0.206 F 
ATOM     90  C   UNL A   1      50.370  27.447  29.253  1.00  0.00     0.059 A 
ATOM     91  C   UNL A   1      49.816  26.648  31.480  1.00  0.00     0.059 A 
ATOM     92  F   UNL A   1      47.576  26.593  32.170  1.00  0.00    -0.206 F 
ATOM     93  C   UNL A   1      50.759  26.940  30.495  1.00  0.00     0.060 A 
BRANCH  93  94
ATOM     94  S   UNL A   1      52.519  26.720  30.829  1.00  0.00     0.124 S 
ATOM     95  O   UNL A   1      53.085  26.786  29.486  1.00  0.00    -0.237 OA
ATOM     96  O   UNL A   1      52.817  27.853  31.700  1.00  0.00    -0.237 OA
ATOM     97  O   UNL A   1      52.581  25.411  31.473  1.00  0.00    -0.744 OA
ENDBRANCH  93  94
ENDBRANCH  61  86
ENDBRANCH  35  36
ENDBRANCH  27  30
ENDBRANCH  25  26
ENDBRANCH  24  25
ENDBRANCH   1  24
TORSDOF 17
ENDMDL
