MODEL 1
REMARK VINA RESULT:     -10.6      0.000      0.000
REMARK SMILES O=C(CSc1ccc(Br)cn1)NCCCNC(=O)c1ccc(-c2c3nc(c(-c4c(F)cc(S(=O)(=O)[O-])cc4F)c4ccc([nH]4)c(-c4c(F)cc(S(=O)(=O)[O-])cc4F)c4nc(c(-c5c(F)cc(S(=O)(=O)[O-])cc5F)c5ccc2[nH]5)C=C4)C=C3)cc1
REMARK SMILES IDX 14 1 13 2 12 3 1 4 2 5 3 7 4 8 5 9 6 10 11 11 7 12 10 13
REMARK SMILES IDX 8 14 9 15 15 16 16 17 17 18 18 20 19 21 20 22 84 23 21 24
REMARK SMILES IDX 83 25 22 26 23 27 24 28 77 29 25 30 82 31 76 32 78 33 26 34
REMARK SMILES IDX 81 35 75 36 74 37 27 39 61 40 40 41 60 42 41 43 44 44 59 45
REMARK SMILES IDX 79 46 42 47 43 48 58 50 80 51 45 52 28 53 29 54 38 55 30 56
REMARK SMILES IDX 31 57 37 58 39 59 32 60 33 61 34 62 35 63 36 64 62 65 63 66
REMARK SMILES IDX 72 67 64 68 65 69 71 70 73 71 66 72 67 73 68 74 69 75 70 76
REMARK SMILES IDX 46 77 47 78 56 79 48 80 49 81 55 82 57 83 50 84 51 85 52 86
REMARK SMILES IDX 53 87 54 88
REMARK H PARENT 12 6 16 19 78 38 44 49
REMARK Flexibility Score: inf
ROOT
ATOM      1  C   UNL A   1      35.200  33.602  28.068  1.00  0.00     0.042 C 
ENDROOT
BRANCH   1   2
ATOM      2  C   UNL A   1      34.405  34.897  27.928  1.00  0.00     0.117 C 
BRANCH   2   3
ATOM      3  N   UNL A   1      34.302  35.634  29.171  1.00  0.00    -0.355 N 
ATOM      4  O   UNL A   1      32.181  36.433  28.817  1.00  0.00    -0.274 OA
ATOM      5  C   UNL A   1      33.160  36.314  29.549  1.00  0.00     0.230 C 
ATOM      6  H   UNL A   1      35.081  35.649  29.774  1.00  0.00     0.163 HD
BRANCH   5   7
ATOM      7  C   UNL A   1      33.242  36.996  30.908  1.00  0.00     0.176 C 
BRANCH   7   8
ATOM      8  S   UNL A   1      32.504  35.975  32.230  1.00  0.00    -0.096 SA
BRANCH   8   9
ATOM      9  C   UNL A   1      33.884  34.903  32.571  1.00  0.00     0.097 A 
ATOM     10  C   UNL A   1      35.129  35.455  32.851  1.00  0.00     0.037 A 
ATOM     11  N   UNL A   1      33.655  33.572  32.571  1.00  0.00    -0.249 NA
ATOM     12  C   UNL A   1      36.198  34.603  33.122  1.00  0.00     0.020 A 
ATOM     13  C   UNL A   1      34.711  32.765  32.837  1.00  0.00     0.128 A 
ATOM     14  C   UNL A   1      35.986  33.230  33.115  1.00  0.00     0.036 A 
ATOM     15  Br  UNL A   1      37.395  32.035  33.483  1.00  0.00    -0.049 Br
ENDBRANCH   8   9
ENDBRANCH   7   8
ENDBRANCH   5   7
ENDBRANCH   2   3
ENDBRANCH   1   2
BRANCH   1  16
ATOM     16  C   UNL A   1      34.651  32.610  29.090  1.00  0.00     0.118 C 
BRANCH  16  17
ATOM     17  N   UNL A   1      34.025  31.444  28.486  1.00  0.00    -0.352 N 
ATOM     18  C   UNL A   1      34.552  30.239  28.095  1.00  0.00     0.251 C 
ATOM     19  H   UNL A   1      33.056  31.536  28.330  1.00  0.00     0.163 HD
ATOM     20  O   UNL A   1      33.825  29.450  27.492  1.00  0.00    -0.269 OA
BRANCH  18  21
ATOM     21  C   UNL A   1      35.968  29.879  28.356  1.00  0.00     0.039 A 
ATOM     22  C   UNL A   1      36.890  30.027  27.314  1.00  0.00     0.014 A 
ATOM     23  C   UNL A   1      36.395  29.353  29.579  1.00  0.00     0.014 A 
ATOM     24  C   UNL A   1      38.236  29.702  27.512  1.00  0.00     0.010 A 
ATOM     25  C   UNL A   1      37.752  29.095  29.798  1.00  0.00     0.010 A 
ATOM     26  C   UNL A   1      38.687  29.262  28.767  1.00  0.00    -0.014 A 
BRANCH  26  27
ATOM     27  C   UNL A   1      40.133  28.994  29.001  1.00  0.00     0.031 A 
ATOM     28  C   UNL A   1      40.741  27.663  28.640  1.00  0.00     0.074 A 
ATOM     29  C   UNL A   1      40.899  29.944  29.571  1.00  0.00     0.049 A 
ATOM     30  N   UNL A   1      41.981  27.260  28.766  1.00  0.00    -0.248 NA
ATOM     31  C   UNL A   1      39.836  26.644  28.087  1.00  0.00     0.031 C 
ATOM     32  C   UNL A   1      40.423  31.254  30.025  1.00  0.00     0.029 A 
ATOM     33  N   UNL A   1      42.239  29.960  29.868  1.00  0.00    -0.354 N 
ATOM     34  C   UNL A   1      42.004  25.944  28.320  1.00  0.00     0.074 A 
ATOM     35  C   UNL A   1      40.643  25.599  27.967  1.00  0.00     0.031 C 
ATOM     36  C   UNL A   1      41.458  31.955  30.512  1.00  0.00     0.029 A 
ATOM     37  C   UNL A   1      42.666  31.140  30.433  1.00  0.00     0.049 A 
ATOM     38  H   UNL A   1      42.839  29.199  29.694  1.00  0.00     0.167 HD
ATOM     39  C   UNL A   1      43.062  25.107  28.191  1.00  0.00     0.037 A 
ATOM     40  C   UNL A   1      43.892  31.526  30.837  1.00  0.00     0.037 A 
ATOM     41  C   UNL A   1      44.421  25.459  28.521  1.00  0.00     0.049 A 
ATOM     42  C   UNL A   1      45.056  30.591  30.658  1.00  0.00     0.074 A 
ATOM     43  C   UNL A   1      45.569  24.700  28.371  1.00  0.00     0.029 A 
ATOM     44  N   UNL A   1      44.816  26.673  29.064  1.00  0.00    -0.354 N 
ATOM     45  N   UNL A   1      45.069  29.373  30.168  1.00  0.00    -0.248 NA
ATOM     46  C   UNL A   1      46.375  31.087  31.072  1.00  0.00     0.031 C 
ATOM     47  C   UNL A   1      46.652  25.439  28.858  1.00  0.00     0.029 A 
ATOM     48  C   UNL A   1      46.188  26.678  29.269  1.00  0.00     0.049 A 
ATOM     49  H   UNL A   1      44.212  27.421  29.274  1.00  0.00     0.167 HD
ATOM     50  C   UNL A   1      46.399  28.968  30.193  1.00  0.00     0.074 A 
ATOM     51  C   UNL A   1      47.162  30.076  30.729  1.00  0.00     0.031 C 
ATOM     52  C   UNL A   1      46.938  27.786  29.805  1.00  0.00     0.037 A 
BRANCH  39  53
ATOM     53  C   UNL A   1      42.796  23.724  27.661  1.00  0.00     0.058 A 
ATOM     54  C   UNL A   1      42.750  23.461  26.282  1.00  0.00     0.135 A 
ATOM     55  C   UNL A   1      42.620  22.640  28.538  1.00  0.00     0.135 A 
ATOM     56  F   UNL A   1      42.899  24.461  25.398  1.00  0.00    -0.206 F 
ATOM     57  C   UNL A   1      42.509  22.182  25.792  1.00  0.00     0.059 A 
ATOM     58  C   UNL A   1      42.404  21.348  28.070  1.00  0.00     0.059 A 
ATOM     59  F   UNL A   1      42.658  22.834  29.866  1.00  0.00    -0.206 F 
ATOM     60  C   UNL A   1      42.334  21.131  26.694  1.00  0.00     0.060 A 
BRANCH  60  61
ATOM     61  S   UNL A   1      42.022  19.476  26.044  1.00  0.00     0.124 S 
ATOM     62  O   UNL A   1      42.337  18.646  27.204  1.00  0.00    -0.237 OA
ATOM     63  O   UNL A   1      40.607  19.544  25.683  1.00  0.00    -0.237 OA
ATOM     64  O   UNL A   1      42.946  19.369  24.924  1.00  0.00    -0.744 OA
ENDBRANCH  60  61
ENDBRANCH  39  53
BRANCH  40  65
ATOM     65  C   UNL A   1      44.088  32.881  31.416  1.00  0.00     0.058 A 
ATOM     66  C   UNL A   1      43.982  33.097  32.798  1.00  0.00     0.135 A 
ATOM     67  C   UNL A   1      44.398  33.983  30.604  1.00  0.00     0.135 A 
ATOM     68  F   UNL A   1      43.680  32.075  33.615  1.00  0.00    -0.206 F 
ATOM     69  C   UNL A   1      44.156  34.359  33.354  1.00  0.00     0.059 A 
ATOM     70  C   UNL A   1      44.603  35.250  31.140  1.00  0.00     0.059 A 
ATOM     71  F   UNL A   1      44.530  33.825  29.278  1.00  0.00    -0.206 F 
ATOM     72  C   UNL A   1      44.469  35.430  32.516  1.00  0.00     0.060 A 
BRANCH  72  73
ATOM     73  S   UNL A   1      44.746  37.056  33.252  1.00  0.00     0.124 S 
ATOM     74  O   UNL A   1      45.726  36.747  34.286  1.00  0.00    -0.237 OA
ATOM     75  O   UNL A   1      45.239  37.829  32.116  1.00  0.00    -0.237 OA
ATOM     76  O   UNL A   1      43.420  37.436  33.730  1.00  0.00    -0.744 OA
ENDBRANCH  72  73
ENDBRANCH  40  65
BRANCH  52  77
ATOM     77  C   UNL A   1      48.431  27.642  29.920  1.00  0.00     0.058 A 
ATOM     78  C   UNL A   1      49.289  27.984  28.865  1.00  0.00     0.135 A 
ATOM     79  C   UNL A   1      49.010  27.166  31.108  1.00  0.00     0.135 A 
ATOM     80  F   UNL A   1      48.788  28.439  27.705  1.00  0.00    -0.206 F 
ATOM     81  C   UNL A   1      50.668  27.824  28.967  1.00  0.00     0.059 A 
ATOM     82  C   UNL A   1      50.387  27.023  31.242  1.00  0.00     0.059 A 
ATOM     83  F   UNL A   1      48.234  26.836  32.153  1.00  0.00    -0.206 F 
ATOM     84  C   UNL A   1      51.207  27.336  30.159  1.00  0.00     0.060 A 
BRANCH  84  85
ATOM     85  S   UNL A   1      52.997  27.131  30.284  1.00  0.00     0.124 S 
ATOM     86  O   UNL A   1      53.367  26.937  28.885  1.00  0.00    -0.237 OA
ATOM     87  O   UNL A   1      53.417  28.394  30.882  1.00  0.00    -0.237 OA
ATOM     88  O   UNL A   1      53.144  25.958  31.141  1.00  0.00    -0.744 OA
ENDBRANCH  84  85
ENDBRANCH  52  77
ENDBRANCH  26  27
ENDBRANCH  18  21
ENDBRANCH  16  17
ENDBRANCH   1  16
TORSDOF 15
ENDMDL
MODEL 2
REMARK VINA RESULT:     -10.5      0.714      8.644
REMARK SMILES O=C(CSc1ccc(Br)cn1)NCCCNC(=O)c1ccc(-c2c3nc(c(-c4c(F)cc(S(=O)(=O)[O-])cc4F)c4ccc([nH]4)c(-c4c(F)cc(S(=O)(=O)[O-])cc4F)c4nc(c(-c5c(F)cc(S(=O)(=O)[O-])cc5F)c5ccc2[nH]5)C=C4)C=C3)cc1
REMARK SMILES IDX 14 1 13 2 12 3 1 4 2 5 3 7 4 8 5 9 6 10 11 11 7 12 10 13
REMARK SMILES IDX 8 14 9 15 15 16 16 17 17 18 18 20 19 21 20 22 84 23 21 24
REMARK SMILES IDX 83 25 22 26 23 27 24 28 77 29 25 30 82 31 76 32 78 33 26 34
REMARK SMILES IDX 81 35 75 36 74 37 27 39 61 40 40 41 60 42 41 43 44 44 59 45
REMARK SMILES IDX 79 46 42 47 43 48 58 50 80 51 45 52 28 53 29 54 38 55 30 56
REMARK SMILES IDX 31 57 37 58 39 59 32 60 33 61 34 62 35 63 36 64 62 65 63 66
REMARK SMILES IDX 72 67 64 68 65 69 71 70 73 71 66 72 67 73 68 74 69 75 70 76
REMARK SMILES IDX 46 77 47 78 56 79 48 80 49 81 55 82 57 83 50 84 51 85 52 86
REMARK SMILES IDX 53 87 54 88
REMARK H PARENT 12 6 16 19 78 38 44 49
REMARK Flexibility Score: inf
ROOT
ATOM      1  C   UNL A   1      33.621  33.636  27.992  1.00  0.00     0.042 C 
ENDROOT
BRANCH   1   2
ATOM      2  C   UNL A   1      34.308  34.987  28.164  1.00  0.00     0.117 C 
BRANCH   2   3
ATOM      3  N   UNL A   1      34.106  35.560  29.480  1.00  0.00    -0.355 N 
ATOM      4  O   UNL A   1      32.980  37.430  28.774  1.00  0.00    -0.274 OA
ATOM      5  C   UNL A   1      33.402  36.730  29.690  1.00  0.00     0.230 C 
ATOM      6  H   UNL A   1      34.488  35.093  30.259  1.00  0.00     0.163 HD
BRANCH   5   7
ATOM      7  C   UNL A   1      33.274  37.145  31.150  1.00  0.00     0.176 C 
BRANCH   7   8
ATOM      8  S   UNL A   1      32.352  35.911  32.132  1.00  0.00    -0.096 SA
BRANCH   8   9
ATOM      9  C   UNL A   1      33.705  34.863  32.622  1.00  0.00     0.097 A 
ATOM     10  C   UNL A   1      34.583  35.292  33.612  1.00  0.00     0.037 A 
ATOM     11  N   UNL A   1      33.813  33.659  32.019  1.00  0.00    -0.249 NA
ATOM     12  C   UNL A   1      35.634  34.458  33.988  1.00  0.00     0.020 A 
ATOM     13  C   UNL A   1      34.843  32.867  32.402  1.00  0.00     0.128 A 
ATOM     14  C   UNL A   1      35.768  33.221  33.371  1.00  0.00     0.036 A 
ATOM     15  Br  UNL A   1      37.167  32.052  33.849  1.00  0.00    -0.049 Br
ENDBRANCH   8   9
ENDBRANCH   7   8
ENDBRANCH   5   7
ENDBRANCH   2   3
ENDBRANCH   1   2
BRANCH   1  16
ATOM     16  C   UNL A   1      34.366  32.447  28.597  1.00  0.00     0.118 C 
BRANCH  16  17
ATOM     17  N   UNL A   1      33.798  31.160  28.227  1.00  0.00    -0.352 N 
ATOM     18  C   UNL A   1      34.394  29.945  27.996  1.00  0.00     0.251 C 
ATOM     19  H   UNL A   1      32.818  31.160  28.126  1.00  0.00     0.163 HD
ATOM     20  O   UNL A   1      33.698  29.022  27.575  1.00  0.00    -0.269 OA
BRANCH  18  21
ATOM     21  C   UNL A   1      35.846  29.728  28.213  1.00  0.00     0.039 A 
ATOM     22  C   UNL A   1      36.268  29.304  29.478  1.00  0.00     0.014 A 
ATOM     23  C   UNL A   1      36.799  29.983  27.222  1.00  0.00     0.014 A 
ATOM     24  C   UNL A   1      37.626  29.084  29.731  1.00  0.00     0.010 A 
ATOM     25  C   UNL A   1      38.148  29.697  27.455  1.00  0.00     0.010 A 
ATOM     26  C   UNL A   1      38.578  29.248  28.712  1.00  0.00    -0.014 A 
BRANCH  26  27
ATOM     27  C   UNL A   1      40.013  28.937  28.959  1.00  0.00     0.031 A 
ATOM     28  C   UNL A   1      40.934  29.963  29.567  1.00  0.00     0.074 A 
ATOM     29  C   UNL A   1      40.499  27.732  28.604  1.00  0.00     0.049 A 
ATOM     30  N   UNL A   1      42.206  29.861  29.859  1.00  0.00    -0.248 NA
ATOM     31  C   UNL A   1      40.357  31.283  29.866  1.00  0.00     0.031 C 
ATOM     32  C   UNL A   1      39.731  26.669  27.950  1.00  0.00     0.029 A 
ATOM     33  N   UNL A   1      41.755  27.193  28.741  1.00  0.00    -0.354 N 
ATOM     34  C   UNL A   1      42.585  31.099  30.364  1.00  0.00     0.074 A 
ATOM     35  C   UNL A   1      41.418  31.954  30.292  1.00  0.00     0.031 C 
ATOM     36  C   UNL A   1      40.520  25.599  27.773  1.00  0.00     0.029 A 
ATOM     37  C   UNL A   1      41.857  25.904  28.272  1.00  0.00     0.049 A 
ATOM     38  H   UNL A   1      42.511  27.683  29.137  1.00  0.00     0.167 HD
ATOM     39  C   UNL A   1      43.784  31.484  30.865  1.00  0.00     0.037 A 
ATOM     40  C   UNL A   1      42.906  25.058  28.251  1.00  0.00     0.037 A 
ATOM     41  C   UNL A   1      44.938  30.626  30.959  1.00  0.00     0.049 A 
ATOM     42  C   UNL A   1      44.219  25.498  28.839  1.00  0.00     0.074 A 
ATOM     43  C   UNL A   1      46.180  30.906  31.504  1.00  0.00     0.029 A 
ATOM     44  N   UNL A   1      44.994  29.318  30.498  1.00  0.00    -0.354 N 
ATOM     45  N   UNL A   1      44.537  26.652  29.377  1.00  0.00    -0.248 NA
ATOM     46  C   UNL A   1      45.311  24.515  28.832  1.00  0.00     0.031 C 
ATOM     47  C   UNL A   1      46.997  29.782  31.339  1.00  0.00     0.029 A 
ATOM     48  C   UNL A   1      46.252  28.784  30.733  1.00  0.00     0.049 A 
ATOM     49  H   UNL A   1      44.250  28.839  30.067  1.00  0.00     0.167 HD
ATOM     50  C   UNL A   1      45.858  26.525  29.793  1.00  0.00     0.074 A 
ATOM     51  C   UNL A   1      46.273  25.177  29.461  1.00  0.00     0.031 C 
ATOM     52  C   UNL A   1      46.654  27.441  30.397  1.00  0.00     0.037 A 
BRANCH  39  53
ATOM     53  C   UNL A   1      43.909  32.899  31.364  1.00  0.00     0.058 A 
ATOM     54  C   UNL A   1      44.321  33.942  30.519  1.00  0.00     0.135 A 
ATOM     55  C   UNL A   1      43.580  33.224  32.691  1.00  0.00     0.135 A 
ATOM     56  F   UNL A   1      44.661  33.687  29.245  1.00  0.00    -0.206 F 
ATOM     57  C   UNL A   1      44.432  35.251  30.979  1.00  0.00     0.059 A 
ATOM     58  C   UNL A   1      43.659  34.530  33.164  1.00  0.00     0.059 A 
ATOM     59  F   UNL A   1      43.178  32.266  33.541  1.00  0.00    -0.206 F 
ATOM     60  C   UNL A   1      44.101  35.535  32.304  1.00  0.00     0.060 A 
BRANCH  60  61
ATOM     61  S   UNL A   1      44.250  37.237  32.888  1.00  0.00     0.124 S 
ATOM     62  O   UNL A   1      44.143  37.981  31.636  1.00  0.00    -0.237 OA
ATOM     63  O   UNL A   1      43.109  37.358  33.793  1.00  0.00    -0.237 OA
ATOM     64  O   UNL A   1      45.558  37.265  33.527  1.00  0.00    -0.744 OA
ENDBRANCH  60  61
ENDBRANCH  39  53
BRANCH  40  65
ATOM     65  C   UNL A   1      42.746  23.693  27.687  1.00  0.00     0.058 A 
ATOM     66  C   UNL A   1      42.520  22.589  28.523  1.00  0.00     0.135 A 
ATOM     67  C   UNL A   1      42.800  23.464  26.304  1.00  0.00     0.135 A 
ATOM     68  F   UNL A   1      42.467  22.756  29.854  1.00  0.00    -0.206 F 
ATOM     69  C   UNL A   1      42.374  21.305  28.012  1.00  0.00     0.059 A 
ATOM     70  C   UNL A   1      42.631  22.193  25.766  1.00  0.00     0.059 A 
ATOM     71  F   UNL A   1      42.995  24.490  25.460  1.00  0.00    -0.206 F 
ATOM     72  C   UNL A   1      42.429  21.117  26.629  1.00  0.00     0.060 A 
BRANCH  72  73
ATOM     73  S   UNL A   1      42.185  19.453  25.969  1.00  0.00     0.124 S 
ATOM     74  O   UNL A   1      43.056  19.471  24.800  1.00  0.00    -0.237 OA
ATOM     75  O   UNL A   1      42.624  18.614  27.080  1.00  0.00    -0.237 OA
ATOM     76  O   UNL A   1      40.753  19.411  25.691  1.00  0.00    -0.744 OA
ENDBRANCH  72  73
ENDBRANCH  40  65
BRANCH  52  77
ATOM     77  C   UNL A   1      48.046  27.005  30.764  1.00  0.00     0.058 A 
ATOM     78  C   UNL A   1      48.315  26.316  31.956  1.00  0.00     0.135 A 
ATOM     79  C   UNL A   1      49.125  27.271  29.903  1.00  0.00     0.135 A 
ATOM     80  F   UNL A   1      47.321  26.041  32.816  1.00  0.00    -0.206 F 
ATOM     81  C   UNL A   1      49.609  25.939  32.303  1.00  0.00     0.059 A 
ATOM     82  C   UNL A   1      50.422  26.880  30.217  1.00  0.00     0.059 A 
ATOM     83  F   UNL A   1      48.921  27.916  28.744  1.00  0.00    -0.206 F 
ATOM     84  C   UNL A   1      50.657  26.231  31.429  1.00  0.00     0.060 A 
BRANCH  84  85
ATOM     85  S   UNL A   1      52.333  25.738  31.886  1.00  0.00     0.124 S 
ATOM     86  O   UNL A   1      52.130  24.350  32.289  1.00  0.00    -0.237 OA
ATOM     87  O   UNL A   1      53.070  25.936  30.643  1.00  0.00    -0.237 OA
ATOM     88  O   UNL A   1      52.675  26.662  32.965  1.00  0.00    -0.744 OA
ENDBRANCH  84  85
ENDBRANCH  52  77
ENDBRANCH  26  27
ENDBRANCH  18  21
ENDBRANCH  16  17
ENDBRANCH   1  16
TORSDOF 15
ENDMDL
MODEL 3
REMARK VINA RESULT:     -10.3      5.046     12.304
REMARK SMILES O=C(CSc1ccc(Br)cn1)NCCCNC(=O)c1ccc(-c2c3nc(c(-c4c(F)cc(S(=O)(=O)[O-])cc4F)c4ccc([nH]4)c(-c4c(F)cc(S(=O)(=O)[O-])cc4F)c4nc(c(-c5c(F)cc(S(=O)(=O)[O-])cc5F)c5ccc2[nH]5)C=C4)C=C3)cc1
REMARK SMILES IDX 14 1 13 2 12 3 1 4 2 5 3 7 4 8 5 9 6 10 11 11 7 12 10 13
REMARK SMILES IDX 8 14 9 15 15 16 16 17 17 18 18 20 19 21 20 22 84 23 21 24
REMARK SMILES IDX 83 25 22 26 23 27 24 28 77 29 25 30 82 31 76 32 78 33 26 34
REMARK SMILES IDX 81 35 75 36 74 37 27 39 61 40 40 41 60 42 41 43 44 44 59 45
REMARK SMILES IDX 79 46 42 47 43 48 58 50 80 51 45 52 28 53 29 54 38 55 30 56
REMARK SMILES IDX 31 57 37 58 39 59 32 60 33 61 34 62 35 63 36 64 62 65 63 66
REMARK SMILES IDX 72 67 64 68 65 69 71 70 73 71 66 72 67 73 68 74 69 75 70 76
REMARK SMILES IDX 46 77 47 78 56 79 48 80 49 81 55 82 57 83 50 84 51 85 52 86
REMARK SMILES IDX 53 87 54 88
REMARK H PARENT 12 6 16 19 78 38 44 49
REMARK Flexibility Score: inf
ROOT
ATOM      1  C   UNL A   1      45.026  23.256  26.874  1.00  0.00     0.042 C 
ENDROOT
BRANCH   1   2
ATOM      2  C   UNL A   1      45.292  22.065  25.959  1.00  0.00     0.117 C 
BRANCH   2   3
ATOM      3  N   UNL A   1      44.258  21.052  26.036  1.00  0.00    -0.355 N 
ATOM      4  O   UNL A   1      44.919  19.873  24.182  1.00  0.00    -0.274 OA
ATOM      5  C   UNL A   1      44.181  19.989  25.157  1.00  0.00     0.230 C 
ATOM      6  H   UNL A   1      43.580  21.126  26.746  1.00  0.00     0.163 HD
BRANCH   5   7
ATOM      7  C   UNL A   1      43.040  19.017  25.428  1.00  0.00     0.176 C 
BRANCH   7   8
ATOM      8  S   UNL A   1      42.205  19.371  27.013  1.00  0.00    -0.096 SA
BRANCH   8   9
ATOM      9  C   UNL A   1      40.698  20.085  26.391  1.00  0.00     0.097 A 
ATOM     10  C   UNL A   1      40.435  21.434  26.609  1.00  0.00     0.037 A 
ATOM     11  N   UNL A   1      39.865  19.279  25.697  1.00  0.00    -0.249 NA
ATOM     12  C   UNL A   1      39.253  21.979  26.110  1.00  0.00     0.020 A 
ATOM     13  C   UNL A   1      38.723  19.834  25.223  1.00  0.00     0.128 A 
ATOM     14  C   UNL A   1      38.379  21.163  25.404  1.00  0.00     0.036 A 
ATOM     15  Br  UNL A   1      36.772  21.853  24.702  1.00  0.00    -0.049 Br
ENDBRANCH   8   9
ENDBRANCH   7   8
ENDBRANCH   5   7
ENDBRANCH   2   3
ENDBRANCH   1   2
BRANCH   1  16
ATOM     16  C   UNL A   1      43.553  23.538  27.163  1.00  0.00     0.118 C 
BRANCH  16  17
ATOM     17  N   UNL A   1      42.864  24.198  26.064  1.00  0.00    -0.352 N 
ATOM     18  C   UNL A   1      42.042  25.296  26.046  1.00  0.00     0.251 C 
ATOM     19  H   UNL A   1      43.014  23.785  25.182  1.00  0.00     0.163 HD
ATOM     20  O   UNL A   1      41.481  25.590  24.991  1.00  0.00    -0.269 OA
BRANCH  18  21
ATOM     21  C   UNL A   1      41.795  26.113  27.260  1.00  0.00     0.039 A 
ATOM     22  C   UNL A   1      42.616  27.224  27.486  1.00  0.00     0.014 A 
ATOM     23  C   UNL A   1      40.816  25.782  28.201  1.00  0.00     0.014 A 
ATOM     24  C   UNL A   1      42.422  28.026  28.616  1.00  0.00     0.010 A 
ATOM     25  C   UNL A   1      40.577  26.623  29.293  1.00  0.00     0.010 A 
ATOM     26  C   UNL A   1      41.379  27.751  29.516  1.00  0.00    -0.014 A 
BRANCH  26  27
ATOM     27  C   UNL A   1      41.122  28.650  30.674  1.00  0.00     0.031 A 
ATOM     28  C   UNL A   1      41.950  28.552  31.929  1.00  0.00     0.074 A 
ATOM     29  C   UNL A   1      40.114  29.542  30.608  1.00  0.00     0.049 A 
ATOM     30  N   UNL A   1      41.870  29.259  33.028  1.00  0.00    -0.248 NA
ATOM     31  C   UNL A   1      42.988  27.510  31.963  1.00  0.00     0.031 C 
ATOM     32  C   UNL A   1      39.197  29.700  29.476  1.00  0.00     0.029 A 
ATOM     33  N   UNL A   1      39.689  30.487  31.510  1.00  0.00    -0.354 N 
ATOM     34  C   UNL A   1      42.835  28.744  33.886  1.00  0.00     0.074 A 
ATOM     35  C   UNL A   1      43.455  27.631  33.198  1.00  0.00     0.031 C 
ATOM     36  C   UNL A   1      38.341  30.700  29.738  1.00  0.00     0.029 A 
ATOM     37  C   UNL A   1      38.626  31.238  31.064  1.00  0.00     0.049 A 
ATOM     38  H   UNL A   1      40.106  30.615  32.393  1.00  0.00     0.167 HD
ATOM     39  C   UNL A   1      43.192  29.173  35.122  1.00  0.00     0.037 A 
ATOM     40  C   UNL A   1      37.958  32.250  31.652  1.00  0.00     0.037 A 
ATOM     41  C   UNL A   1      42.591  30.296  35.797  1.00  0.00     0.049 A 
ATOM     42  C   UNL A   1      38.391  32.726  33.012  1.00  0.00     0.074 A 
ATOM     43  C   UNL A   1      42.923  30.842  37.025  1.00  0.00     0.029 A 
ATOM     44  N   UNL A   1      41.536  31.047  35.301  1.00  0.00    -0.354 N 
ATOM     45  N   UNL A   1      39.353  32.270  33.778  1.00  0.00    -0.248 NA
ATOM     46  C   UNL A   1      37.656  33.864  33.580  1.00  0.00     0.031 C 
ATOM     47  C   UNL A   1      42.045  31.899  37.289  1.00  0.00     0.029 A 
ATOM     48  C   UNL A   1      41.195  32.042  36.204  1.00  0.00     0.049 A 
ATOM     49  H   UNL A   1      41.093  30.897  34.435  1.00  0.00     0.167 HD
ATOM     50  C   UNL A   1      39.356  33.081  34.908  1.00  0.00     0.074 A 
ATOM     51  C   UNL A   1      38.310  34.066  34.716  1.00  0.00     0.031 C 
ATOM     52  C   UNL A   1      40.151  33.017  36.004  1.00  0.00     0.037 A 
BRANCH  39  53
ATOM     53  C   UNL A   1      44.294  28.428  35.826  1.00  0.00     0.058 A 
ATOM     54  C   UNL A   1      45.644  28.771  35.649  1.00  0.00     0.135 A 
ATOM     55  C   UNL A   1      43.998  27.382  36.717  1.00  0.00     0.135 A 
ATOM     56  F   UNL A   1      45.986  29.754  34.800  1.00  0.00    -0.206 F 
ATOM     57  C   UNL A   1      46.662  28.086  36.304  1.00  0.00     0.059 A 
ATOM     58  C   UNL A   1      44.999  26.701  37.403  1.00  0.00     0.059 A 
ATOM     59  F   UNL A   1      42.724  27.014  36.927  1.00  0.00    -0.206 F 
ATOM     60  C   UNL A   1      46.330  27.050  37.177  1.00  0.00     0.060 A 
BRANCH  60  61
ATOM     61  S   UNL A   1      47.662  26.168  38.020  1.00  0.00     0.124 S 
ATOM     62  O   UNL A   1      48.025  27.124  39.064  1.00  0.00    -0.237 OA
ATOM     63  O   UNL A   1      46.991  24.955  38.481  1.00  0.00    -0.237 OA
ATOM     64  O   UNL A   1      48.656  25.971  36.974  1.00  0.00    -0.744 OA
ENDBRANCH  60  61
ENDBRANCH  39  53
BRANCH  40  65
ATOM     65  C   UNL A   1      36.833  32.908  30.939  1.00  0.00     0.058 A 
ATOM     66  C   UNL A   1      37.074  33.868  29.943  1.00  0.00     0.135 A 
ATOM     67  C   UNL A   1      35.499  32.585  31.226  1.00  0.00     0.135 A 
ATOM     68  F   UNL A   1      38.334  34.215  29.638  1.00  0.00    -0.206 F 
ATOM     69  C   UNL A   1      36.033  34.497  29.271  1.00  0.00     0.059 A 
ATOM     70  C   UNL A   1      34.441  33.182  30.549  1.00  0.00     0.059 A 
ATOM     71  F   UNL A   1      35.216  31.660  32.156  1.00  0.00    -0.206 F 
ATOM     72  C   UNL A   1      34.718  34.145  29.579  1.00  0.00     0.060 A 
BRANCH  72  73
ATOM     73  S   UNL A   1      33.372  34.929  28.664  1.00  0.00     0.124 S 
ATOM     74  O   UNL A   1      32.516  35.398  29.747  1.00  0.00    -0.237 OA
ATOM     75  O   UNL A   1      34.074  35.964  27.910  1.00  0.00    -0.237 OA
ATOM     76  O   UNL A   1      32.834  33.836  27.860  1.00  0.00    -0.744 OA
ENDBRANCH  72  73
ENDBRANCH  40  65
BRANCH  52  77
ATOM     77  C   UNL A   1      39.941  34.060  37.067  1.00  0.00     0.058 A 
ATOM     78  C   UNL A   1      39.190  33.796  38.222  1.00  0.00     0.135 A 
ATOM     79  C   UNL A   1      40.510  35.337  36.932  1.00  0.00     0.135 A 
ATOM     80  F   UNL A   1      38.620  32.593  38.398  1.00  0.00    -0.206 F 
ATOM     81  C   UNL A   1      38.976  34.773  39.190  1.00  0.00     0.059 A 
ATOM     82  C   UNL A   1      40.332  36.321  37.900  1.00  0.00     0.059 A 
ATOM     83  F   UNL A   1      41.248  35.639  35.853  1.00  0.00    -0.206 F 
ATOM     84  C   UNL A   1      39.547  36.035  39.017  1.00  0.00     0.060 A 
BRANCH  84  85
ATOM     85  S   UNL A   1      39.265  37.297  40.277  1.00  0.00     0.124 S 
ATOM     86  O   UNL A   1      38.481  38.280  39.536  1.00  0.00    -0.237 OA
ATOM     87  O   UNL A   1      38.544  36.557  41.307  1.00  0.00    -0.237 OA
ATOM     88  O   UNL A   1      40.615  37.717  40.644  1.00  0.00    -0.744 OA
ENDBRANCH  84  85
ENDBRANCH  52  77
ENDBRANCH  26  27
ENDBRANCH  18  21
ENDBRANCH  16  17
ENDBRANCH   1  16
TORSDOF 15
ENDMDL
