MODEL 1
REMARK VINA RESULT:     -12.7      0.000      0.000
REMARK SMILES O=C(NCCCNC(=O)[C@H]1C=C[C@H](NC(=O)c2cc(F)c(Cl)cc2Cl)C1)c1ccc(-c2c3nc(c(-c4c(F)cc(S(=O)(=O)[O-])cc4F)c4ccc([nH]4)c(-c4c(F)cc(S(=O)(=O)[O-])cc4F)c4nc(c(-c5c(F)cc(S(=O)(=O)[O-])cc5F)c5ccc2[nH]5)C=C4)C=C3)cc1
REMARK SMILES IDX 4 1 3 2 1 3 2 4 27 6 28 7 92 8 29 9 91 10 30 11 31 12 32 13
REMARK SMILES IDX 85 14 33 15 90 16 84 17 86 18 34 19 89 20 83 21 82 22 35 24
REMARK SMILES IDX 69 25 48 26 68 27 49 28 52 29 67 30 87 31 50 32 51 33 66 35
REMARK SMILES IDX 88 36 53 37 36 38 37 39 46 40 38 41 39 42 45 43 47 44 40 45
REMARK SMILES IDX 41 46 42 47 43 48 44 49 70 50 71 51 80 52 72 53 73 54 79 55
REMARK SMILES IDX 81 56 74 57 75 58 76 59 77 60 78 61 54 62 55 63 64 64 56 65
REMARK SMILES IDX 57 66 63 67 65 68 58 69 59 70 60 71 61 72 62 73 5 74 6 75
REMARK SMILES IDX 7 76 8 77 9 79 10 80 11 81 26 82 12 83 13 84 14 85 15 86
REMARK SMILES IDX 16 88 17 89 18 90 24 91 19 92 23 93 25 94 20 95 21 96 22 97
REMARK H PARENT 3 5 86 23 52 34 7 78 14 87
REMARK Flexibility Score: inf
ROOT
ATOM      1  C   UNL A   1      39.947  23.375  27.085  1.00  0.00     0.118 C 
ENDROOT
BRANCH   1   2
ATOM      2  N   UNL A   1      40.703  24.129  26.097  1.00  0.00    -0.352 N 
ATOM      3  O   UNL A   1      41.486  25.962  25.058  1.00  0.00    -0.269 OA
ATOM      4  C   UNL A   1      41.045  25.459  26.089  1.00  0.00     0.251 C 
ATOM      5  H   UNL A   1      41.015  23.609  25.321  1.00  0.00     0.163 HD
BRANCH   4   6
ATOM      6  C   UNL A   1      40.875  26.281  27.309  1.00  0.00     0.039 A 
ATOM      7  C   UNL A   1      41.711  27.371  27.551  1.00  0.00     0.014 A 
ATOM      8  C   UNL A   1      39.845  25.983  28.206  1.00  0.00     0.014 A 
ATOM      9  C   UNL A   1      41.620  28.061  28.751  1.00  0.00     0.010 A 
ATOM     10  C   UNL A   1      39.680  26.754  29.363  1.00  0.00     0.010 A 
ATOM     11  C   UNL A   1      40.580  27.788  29.655  1.00  0.00    -0.014 A 
BRANCH  11  12
ATOM     12  C   UNL A   1      40.422  28.679  30.834  1.00  0.00     0.031 A 
ATOM     13  C   UNL A   1      41.314  28.561  32.037  1.00  0.00     0.074 A 
ATOM     14  C   UNL A   1      39.490  29.652  30.768  1.00  0.00     0.049 A 
ATOM     15  N   UNL A   1      41.348  29.313  33.107  1.00  0.00    -0.248 NA
ATOM     16  C   UNL A   1      42.285  27.456  32.051  1.00  0.00     0.031 C 
ATOM     17  C   UNL A   1      38.547  29.837  29.658  1.00  0.00     0.029 A 
ATOM     18  N   UNL A   1      39.197  30.682  31.620  1.00  0.00    -0.354 N 
ATOM     19  C   UNL A   1      42.340  28.780  33.921  1.00  0.00     0.074 A 
ATOM     20  C   UNL A   1      42.856  27.612  33.239  1.00  0.00     0.031 C 
ATOM     21  C   UNL A   1      37.829  30.947  29.867  1.00  0.00     0.029 A 
ATOM     22  C   UNL A   1      38.204  31.513  31.156  1.00  0.00     0.049 A 
ATOM     23  H   UNL A   1      39.654  30.816  32.482  1.00  0.00     0.167 HD
ATOM     24  C   UNL A   1      42.784  29.233  35.118  1.00  0.00     0.037 A 
ATOM     25  C   UNL A   1      37.641  32.602  31.712  1.00  0.00     0.037 A 
ATOM     26  C   UNL A   1      42.256  30.397  35.788  1.00  0.00     0.049 A 
ATOM     27  C   UNL A   1      38.146  33.072  33.045  1.00  0.00     0.074 A 
ATOM     28  C   UNL A   1      42.637  30.939  37.003  1.00  0.00     0.029 A 
ATOM     29  N   UNL A   1      41.234  31.200  35.299  1.00  0.00    -0.354 N 
ATOM     30  N   UNL A   1      39.101  32.564  33.788  1.00  0.00    -0.248 NA
ATOM     31  C   UNL A   1      37.502  34.261  33.614  1.00  0.00     0.031 C 
ATOM     32  C   UNL A   1      41.819  32.042  37.268  1.00  0.00     0.029 A 
ATOM     33  C   UNL A   1      40.964  32.222  36.194  1.00  0.00     0.049 A 
ATOM     34  H   UNL A   1      40.769  31.062  34.442  1.00  0.00     0.167 HD
ATOM     35  C   UNL A   1      39.177  33.376  34.912  1.00  0.00     0.074 A 
ATOM     36  C   UNL A   1      38.196  34.428  34.732  1.00  0.00     0.031 C 
ATOM     37  C   UNL A   1      39.977  33.257  36.001  1.00  0.00     0.037 A 
BRANCH  24  38
ATOM     38  C   UNL A   1      43.897  28.471  35.789  1.00  0.00     0.058 A 
ATOM     39  C   UNL A   1      43.634  27.419  36.681  1.00  0.00     0.135 A 
ATOM     40  C   UNL A   1      45.241  28.755  35.494  1.00  0.00     0.135 A 
ATOM     41  F   UNL A   1      42.369  27.115  37.015  1.00  0.00    -0.206 F 
ATOM     42  C   UNL A   1      44.662  26.686  37.268  1.00  0.00     0.059 A 
ATOM     43  C   UNL A   1      46.284  28.019  36.051  1.00  0.00     0.059 A 
ATOM     44  F   UNL A   1      45.552  29.751  34.650  1.00  0.00    -0.206 F 
ATOM     45  C   UNL A   1      45.985  26.992  36.944  1.00  0.00     0.060 A 
BRANCH  45  46
ATOM     46  S   UNL A   1      47.303  26.021  37.706  1.00  0.00     0.124 S 
ATOM     47  O   UNL A   1      47.339  26.585  39.052  1.00  0.00    -0.237 OA
ATOM     48  O   UNL A   1      46.788  24.661  37.602  1.00  0.00    -0.237 OA
ATOM     49  O   UNL A   1      48.466  26.314  36.873  1.00  0.00    -0.744 OA
ENDBRANCH  45  46
ENDBRANCH  24  38
BRANCH  25  50
ATOM     50  C   UNL A   1      36.524  33.295  31.017  1.00  0.00     0.058 A 
ATOM     51  C   UNL A   1      35.202  33.198  31.476  1.00  0.00     0.135 A 
ATOM     52  C   UNL A   1      36.764  34.082  29.879  1.00  0.00     0.135 A 
ATOM     53  F   UNL A   1      34.920  32.459  32.559  1.00  0.00    -0.206 F 
ATOM     54  C   UNL A   1      34.155  33.836  30.816  1.00  0.00     0.059 A 
ATOM     55  C   UNL A   1      35.741  34.756  29.224  1.00  0.00     0.059 A 
ATOM     56  F   UNL A   1      38.015  34.226  29.411  1.00  0.00    -0.206 F 
ATOM     57  C   UNL A   1      34.435  34.613  29.691  1.00  0.00     0.060 A 
BRANCH  57  58
ATOM     58  S   UNL A   1      33.078  35.461  28.857  1.00  0.00     0.124 S 
ATOM     59  O   UNL A   1      32.290  35.935  29.989  1.00  0.00    -0.237 OA
ATOM     60  O   UNL A   1      33.780  36.487  28.092  1.00  0.00    -0.237 OA
ATOM     61  O   UNL A   1      32.464  34.405  28.057  1.00  0.00    -0.744 OA
ENDBRANCH  57  58
ENDBRANCH  25  50
BRANCH  37  62
ATOM     62  C   UNL A   1      39.830  34.307  37.066  1.00  0.00     0.058 A 
ATOM     63  C   UNL A   1      39.021  34.104  38.195  1.00  0.00     0.135 A 
ATOM     64  C   UNL A   1      40.511  35.530  36.958  1.00  0.00     0.135 A 
ATOM     65  F   UNL A   1      38.342  32.955  38.342  1.00  0.00    -0.206 F 
ATOM     66  C   UNL A   1      38.858  35.093  39.159  1.00  0.00     0.059 A 
ATOM     67  C   UNL A   1      40.389  36.521  37.927  1.00  0.00     0.059 A 
ATOM     68  F   UNL A   1      41.307  35.772  35.904  1.00  0.00    -0.206 F 
ATOM     69  C   UNL A   1      39.544  36.299  39.013  1.00  0.00     0.060 A 
BRANCH  69  70
ATOM     70  S   UNL A   1      39.324  37.575  40.271  1.00  0.00     0.124 S 
ATOM     71  O   UNL A   1      38.314  38.427  39.653  1.00  0.00    -0.237 OA
ATOM     72  O   UNL A   1      38.881  36.802  41.427  1.00  0.00    -0.237 OA
ATOM     73  O   UNL A   1      40.654  38.165  40.393  1.00  0.00    -0.744 OA
ENDBRANCH  69  70
ENDBRANCH  37  62
ENDBRANCH  11  12
ENDBRANCH   4   6
ENDBRANCH   1   2
BRANCH   1  74
ATOM     74  C   UNL A   1      39.563  21.995  26.579  1.00  0.00     0.042 C 
BRANCH  74  75
ATOM     75  C   UNL A   1      38.424  22.019  25.560  1.00  0.00     0.117 C 
BRANCH  75  76
ATOM     76  N   UNL A   1      37.154  21.730  26.196  1.00  0.00    -0.356 N 
ATOM     77  C   UNL A   1      35.880  22.101  25.905  1.00  0.00     0.227 C 
ATOM     78  H   UNL A   1      37.229  21.155  26.992  1.00  0.00     0.163 HD
ATOM     79  O   UNL A   1      35.022  21.742  26.720  1.00  0.00    -0.274 OA
BRANCH  77  80
ATOM     80  C   UNL A   1      35.473  22.789  24.586  1.00  0.00     0.103 C 
ATOM     81  C   UNL A   1      34.329  22.048  23.942  1.00  0.00    -0.016 C 
ATOM     82  C   UNL A   1      34.958  24.232  24.594  1.00  0.00     0.047 C 
ATOM     83  C   UNL A   1      33.338  22.852  23.546  1.00  0.00    -0.006 C 
ATOM     84  C   UNL A   1      33.602  24.268  23.888  1.00  0.00     0.106 C 
BRANCH  84  85
ATOM     85  N   UNL A   1      33.664  25.066  22.685  1.00  0.00    -0.346 N 
ATOM     86  C   UNL A   1      33.491  26.417  22.541  1.00  0.00     0.253 C 
ATOM     87  H   UNL A   1      33.858  24.571  21.856  1.00  0.00     0.164 HD
ATOM     88  O   UNL A   1      33.617  26.957  21.447  1.00  0.00    -0.269 OA
BRANCH  86  89
ATOM     89  C   UNL A   1      33.018  27.209  23.688  1.00  0.00     0.061 A 
ATOM     90  C   UNL A   1      34.014  27.818  24.459  1.00  0.00     0.056 A 
ATOM     91  C   UNL A   1      31.665  27.386  24.004  1.00  0.00     0.055 A 
ATOM     92  C   UNL A   1      33.648  28.655  25.504  1.00  0.00     0.142 A 
ATOM     93  C   UNL A   1      31.308  28.243  25.051  1.00  0.00     0.045 A 
ATOM     94  Cl  UNL A   1      30.402  26.600  23.127  1.00  0.00    -0.083 Cl
ATOM     95  F   UNL A   1      34.617  29.253  26.212  1.00  0.00    -0.205 F 
ATOM     96  C   UNL A   1      32.304  28.885  25.791  1.00  0.00     0.078 A 
ATOM     97  Cl  UNL A   1      31.858  29.975  27.045  1.00  0.00    -0.081 Cl
ENDBRANCH  86  89
ENDBRANCH  84  85
ENDBRANCH  77  80
ENDBRANCH  75  76
ENDBRANCH  74  75
ENDBRANCH   1  74
TORSDOF 15
ENDMDL
MODEL 2
REMARK VINA RESULT:     -12.5      2.723      8.892
REMARK SMILES O=C(NCCCNC(=O)[C@H]1C=C[C@H](NC(=O)c2cc(F)c(Cl)cc2Cl)C1)c1ccc(-c2c3nc(c(-c4c(F)cc(S(=O)(=O)[O-])cc4F)c4ccc([nH]4)c(-c4c(F)cc(S(=O)(=O)[O-])cc4F)c4nc(c(-c5c(F)cc(S(=O)(=O)[O-])cc5F)c5ccc2[nH]5)C=C4)C=C3)cc1
REMARK SMILES IDX 4 1 3 2 1 3 2 4 27 6 28 7 92 8 29 9 91 10 30 11 31 12 32 13
REMARK SMILES IDX 85 14 33 15 90 16 84 17 86 18 34 19 89 20 83 21 82 22 35 24
REMARK SMILES IDX 69 25 48 26 68 27 49 28 52 29 67 30 87 31 50 32 51 33 66 35
REMARK SMILES IDX 88 36 53 37 36 38 37 39 46 40 38 41 39 42 45 43 47 44 40 45
REMARK SMILES IDX 41 46 42 47 43 48 44 49 70 50 71 51 80 52 72 53 73 54 79 55
REMARK SMILES IDX 81 56 74 57 75 58 76 59 77 60 78 61 54 62 55 63 64 64 56 65
REMARK SMILES IDX 57 66 63 67 65 68 58 69 59 70 60 71 61 72 62 73 5 74 6 75
REMARK SMILES IDX 7 76 8 77 9 79 10 80 11 81 26 82 12 83 13 84 14 85 15 86
REMARK SMILES IDX 16 88 17 89 18 90 24 91 19 92 23 93 25 94 20 95 21 96 22 97
REMARK H PARENT 3 5 86 23 52 34 7 78 14 87
REMARK Flexibility Score: inf
ROOT
ATOM      1  C   UNL A   1      32.916  32.581  27.322  1.00  0.00     0.118 C 
ENDROOT
BRANCH   1   2
ATOM      2  N   UNL A   1      32.683  33.967  27.699  1.00  0.00    -0.352 N 
ATOM      3  O   UNL A   1      32.756  35.786  29.016  1.00  0.00    -0.269 OA
ATOM      4  C   UNL A   1      33.249  34.703  28.710  1.00  0.00     0.251 C 
ATOM      5  H   UNL A   1      32.022  34.446  27.148  1.00  0.00     0.163 HD
BRANCH   4   6
ATOM      6  C   UNL A   1      34.439  34.193  29.429  1.00  0.00     0.039 A 
ATOM      7  C   UNL A   1      34.294  33.418  30.580  1.00  0.00     0.014 A 
ATOM      8  C   UNL A   1      35.718  34.460  28.928  1.00  0.00     0.014 A 
ATOM      9  C   UNL A   1      35.413  33.046  31.311  1.00  0.00     0.010 A 
ATOM     10  C   UNL A   1      36.847  33.983  29.604  1.00  0.00     0.010 A 
ATOM     11  C   UNL A   1      36.704  33.288  30.813  1.00  0.00    -0.014 A 
BRANCH  11  12
ATOM     12  C   UNL A   1      37.860  32.707  31.544  1.00  0.00     0.031 A 
ATOM     13  C   UNL A   1      38.287  33.227  32.887  1.00  0.00     0.074 A 
ATOM     14  C   UNL A   1      38.480  31.642  30.995  1.00  0.00     0.049 A 
ATOM     15  N   UNL A   1      39.224  32.774  33.680  1.00  0.00    -0.248 NA
ATOM     16  C   UNL A   1      37.584  34.410  33.407  1.00  0.00     0.031 C 
ATOM     17  C   UNL A   1      38.166  31.074  29.679  1.00  0.00     0.029 A 
ATOM     18  N   UNL A   1      39.472  30.827  31.474  1.00  0.00    -0.354 N 
ATOM     19  C   UNL A   1      39.226  33.609  34.790  1.00  0.00     0.074 A 
ATOM     20  C   UNL A   1      38.223  34.625  34.550  1.00  0.00     0.031 C 
ATOM     21  C   UNL A   1      38.901  29.971  29.485  1.00  0.00     0.029 A 
ATOM     22  C   UNL A   1      39.790  29.793  30.626  1.00  0.00     0.049 A 
ATOM     23  H   UNL A   1      39.913  30.969  32.344  1.00  0.00     0.167 HD
ATOM     24  C   UNL A   1      39.986  33.525  35.909  1.00  0.00     0.037 A 
ATOM     25  C   UNL A   1      40.709  28.817  30.740  1.00  0.00     0.037 A 
ATOM     26  C   UNL A   1      40.987  32.509  36.131  1.00  0.00     0.049 A 
ATOM     27  C   UNL A   1      41.545  28.758  31.985  1.00  0.00     0.074 A 
ATOM     28  C   UNL A   1      41.810  32.336  37.230  1.00  0.00     0.029 A 
ATOM     29  N   UNL A   1      41.298  31.492  35.238  1.00  0.00    -0.354 N 
ATOM     30  N   UNL A   1      41.515  29.546  33.033  1.00  0.00    -0.248 NA
ATOM     31  C   UNL A   1      42.535  27.678  32.066  1.00  0.00     0.031 C 
ATOM     32  C   UNL A   1      42.647  31.242  36.985  1.00  0.00     0.029 A 
ATOM     33  C   UNL A   1      42.310  30.698  35.757  1.00  0.00     0.049 A 
ATOM     34  H   UNL A   1      40.865  31.355  34.366  1.00  0.00     0.167 HD
ATOM     35  C   UNL A   1      42.480  29.055  33.903  1.00  0.00     0.074 A 
ATOM     36  C   UNL A   1      43.048  27.879  33.272  1.00  0.00     0.031 C 
ATOM     37  C   UNL A   1      42.868  29.536  35.110  1.00  0.00     0.037 A 
BRANCH  24  38
ATOM     38  C   UNL A   1      39.773  34.558  36.983  1.00  0.00     0.058 A 
ATOM     39  C   UNL A   1      38.911  34.325  38.067  1.00  0.00     0.135 A 
ATOM     40  C   UNL A   1      40.481  35.772  36.963  1.00  0.00     0.135 A 
ATOM     41  F   UNL A   1      38.195  33.191  38.130  1.00  0.00    -0.206 F 
ATOM     42  C   UNL A   1      38.747  35.263  39.083  1.00  0.00     0.059 A 
ATOM     43  C   UNL A   1      40.351  36.713  37.981  1.00  0.00     0.059 A 
ATOM     44  F   UNL A   1      41.317  36.050  35.950  1.00  0.00    -0.206 F 
ATOM     45  C   UNL A   1      39.474  36.453  39.033  1.00  0.00     0.060 A 
BRANCH  45  46
ATOM     46  S   UNL A   1      39.257  37.650  40.367  1.00  0.00     0.124 S 
ATOM     47  O   UNL A   1      38.130  38.435  39.873  1.00  0.00    -0.237 OA
ATOM     48  O   UNL A   1      38.978  36.793  41.513  1.00  0.00    -0.237 OA
ATOM     49  O   UNL A   1      40.537  38.351  40.408  1.00  0.00    -0.744 OA
ENDBRANCH  45  46
ENDBRANCH  24  38
BRANCH  25  50
ATOM     50  C   UNL A   1      40.897  27.843  29.632  1.00  0.00     0.058 A 
ATOM     51  C   UNL A   1      39.998  26.787  29.422  1.00  0.00     0.135 A 
ATOM     52  C   UNL A   1      41.983  27.962  28.749  1.00  0.00     0.135 A 
ATOM     53  F   UNL A   1      38.945  26.630  30.237  1.00  0.00    -0.206 F 
ATOM     54  C   UNL A   1      40.183  25.869  28.392  1.00  0.00     0.059 A 
ATOM     55  C   UNL A   1      42.169  27.078  27.693  1.00  0.00     0.059 A 
ATOM     56  F   UNL A   1      42.861  28.968  28.892  1.00  0.00    -0.206 F 
ATOM     57  C   UNL A   1      41.273  26.023  27.533  1.00  0.00     0.060 A 
BRANCH  57  58
ATOM     58  S   UNL A   1      41.492  24.846  26.183  1.00  0.00     0.124 S 
ATOM     59  O   UNL A   1      41.455  25.725  25.020  1.00  0.00    -0.237 OA
ATOM     60  O   UNL A   1      42.789  24.255  26.497  1.00  0.00    -0.237 OA
ATOM     61  O   UNL A   1      40.351  23.948  26.333  1.00  0.00    -0.744 OA
ENDBRANCH  57  58
ENDBRANCH  25  50
BRANCH  37  62
ATOM     62  C   UNL A   1      43.948  28.774  35.826  1.00  0.00     0.058 A 
ATOM     63  C   UNL A   1      43.650  27.702  36.682  1.00  0.00     0.135 A 
ATOM     64  C   UNL A   1      45.298  29.117  35.649  1.00  0.00     0.135 A 
ATOM     65  F   UNL A   1      42.374  27.339  36.892  1.00  0.00    -0.206 F 
ATOM     66  C   UNL A   1      44.649  27.024  37.372  1.00  0.00     0.059 A 
ATOM     67  C   UNL A   1      46.316  28.432  36.303  1.00  0.00     0.059 A 
ATOM     68  F   UNL A   1      45.639  30.127  34.833  1.00  0.00    -0.206 F 
ATOM     69  C   UNL A   1      45.979  27.400  37.178  1.00  0.00     0.060 A 
BRANCH  69  70
ATOM     70  S   UNL A   1      47.267  26.512  38.079  1.00  0.00     0.124 S 
ATOM     71  O   UNL A   1      48.439  26.774  37.251  1.00  0.00    -0.237 OA
ATOM     72  O   UNL A   1      47.250  27.172  39.381  1.00  0.00    -0.237 OA
ATOM     73  O   UNL A   1      46.793  25.132  38.077  1.00  0.00    -0.744 OA
ENDBRANCH  69  70
ENDBRANCH  37  62
ENDBRANCH  11  12
ENDBRANCH   4   6
ENDBRANCH   1   2
BRANCH   1  74
ATOM     74  C   UNL A   1      31.719  31.973  26.610  1.00  0.00     0.042 C 
BRANCH  74  75
ATOM     75  C   UNL A   1      31.806  30.455  26.469  1.00  0.00     0.117 C 
BRANCH  75  76
ATOM     76  N   UNL A   1      31.647  30.054  25.084  1.00  0.00    -0.356 N 
ATOM     77  C   UNL A   1      31.420  28.848  24.501  1.00  0.00     0.227 C 
ATOM     78  H   UNL A   1      31.718  30.799  24.444  1.00  0.00     0.163 HD
ATOM     79  O   UNL A   1      31.423  28.846  23.265  1.00  0.00    -0.274 OA
BRANCH  77  80
ATOM     80  C   UNL A   1      31.031  27.580  25.290  1.00  0.00     0.103 C 
ATOM     81  C   UNL A   1      30.249  26.639  24.410  1.00  0.00    -0.016 C 
ATOM     82  C   UNL A   1      32.117  26.661  25.860  1.00  0.00     0.047 C 
ATOM     83  C   UNL A   1      30.684  25.377  24.472  1.00  0.00    -0.006 C 
ATOM     84  C   UNL A   1      31.861  25.239  25.360  1.00  0.00     0.106 C 
BRANCH  84  85
ATOM     85  N   UNL A   1      31.555  24.350  26.457  1.00  0.00    -0.346 N 
ATOM     86  C   UNL A   1      32.296  23.310  26.952  1.00  0.00     0.253 C 
ATOM     87  H   UNL A   1      30.696  24.515  26.910  1.00  0.00     0.164 HD
ATOM     88  O   UNL A   1      31.914  22.669  27.925  1.00  0.00    -0.269 OA
BRANCH  86  89
ATOM     89  C   UNL A   1      33.499  22.873  26.226  1.00  0.00     0.061 A 
ATOM     90  C   UNL A   1      34.685  23.536  26.559  1.00  0.00     0.056 A 
ATOM     91  C   UNL A   1      33.502  21.845  25.273  1.00  0.00     0.055 A 
ATOM     92  C   UNL A   1      35.880  23.123  25.985  1.00  0.00     0.142 A 
ATOM     93  C   UNL A   1      34.714  21.428  24.713  1.00  0.00     0.045 A 
ATOM     94  Cl  UNL A   1      32.054  21.044  24.777  1.00  0.00    -0.083 Cl
ATOM     95  F   UNL A   1      37.009  23.751  26.340  1.00  0.00    -0.205 F 
ATOM     96  C   UNL A   1      35.903  22.062  25.081  1.00  0.00     0.078 A 
ATOM     97  Cl  UNL A   1      37.394  21.512  24.425  1.00  0.00    -0.081 Cl
ENDBRANCH  86  89
ENDBRANCH  84  85
ENDBRANCH  77  80
ENDBRANCH  75  76
ENDBRANCH  74  75
ENDBRANCH   1  74
TORSDOF 15
ENDMDL
MODEL 3
REMARK VINA RESULT:     -12.5      6.772     12.283
REMARK SMILES O=C(NCCCNC(=O)[C@H]1C=C[C@H](NC(=O)c2cc(F)c(Cl)cc2Cl)C1)c1ccc(-c2c3nc(c(-c4c(F)cc(S(=O)(=O)[O-])cc4F)c4ccc([nH]4)c(-c4c(F)cc(S(=O)(=O)[O-])cc4F)c4nc(c(-c5c(F)cc(S(=O)(=O)[O-])cc5F)c5ccc2[nH]5)C=C4)C=C3)cc1
REMARK SMILES IDX 4 1 3 2 1 3 2 4 27 6 28 7 92 8 29 9 91 10 30 11 31 12 32 13
REMARK SMILES IDX 85 14 33 15 90 16 84 17 86 18 34 19 89 20 83 21 82 22 35 24
REMARK SMILES IDX 69 25 48 26 68 27 49 28 52 29 67 30 87 31 50 32 51 33 66 35
REMARK SMILES IDX 88 36 53 37 36 38 37 39 46 40 38 41 39 42 45 43 47 44 40 45
REMARK SMILES IDX 41 46 42 47 43 48 44 49 70 50 71 51 80 52 72 53 73 54 79 55
REMARK SMILES IDX 81 56 74 57 75 58 76 59 77 60 78 61 54 62 55 63 64 64 56 65
REMARK SMILES IDX 57 66 63 67 65 68 58 69 59 70 60 71 61 72 62 73 5 74 6 75
REMARK SMILES IDX 7 76 8 77 9 79 10 80 11 81 26 82 12 83 13 84 14 85 15 86
REMARK SMILES IDX 16 88 17 89 18 90 24 91 19 92 23 93 25 94 20 95 21 96 22 97
REMARK H PARENT 3 5 86 23 52 34 7 78 14 87
REMARK Flexibility Score: inf
ROOT
ATOM      1  C   UNL A   1      35.614  30.782  28.163  1.00  0.00     0.118 C 
ENDROOT
BRANCH   1   2
ATOM      2  N   UNL A   1      35.600  30.602  29.606  1.00  0.00    -0.352 N 
ATOM      3  O   UNL A   1      36.259  29.767  31.587  1.00  0.00    -0.269 OA
ATOM      4  C   UNL A   1      36.549  30.039  30.424  1.00  0.00     0.251 C 
ATOM      5  H   UNL A   1      34.793  30.931  30.064  1.00  0.00     0.163 HD
BRANCH   4   6
ATOM      6  C   UNL A   1      37.908  29.756  29.907  1.00  0.00     0.039 A 
ATOM      7  C   UNL A   1      38.936  29.392  30.777  1.00  0.00     0.014 A 
ATOM      8  C   UNL A   1      38.151  29.819  28.531  1.00  0.00     0.014 A 
ATOM      9  C   UNL A   1      40.229  29.245  30.298  1.00  0.00     0.010 A 
ATOM     10  C   UNL A   1      39.433  29.554  28.035  1.00  0.00     0.010 A 
ATOM     11  C   UNL A   1      40.488  29.285  28.918  1.00  0.00    -0.014 A 
BRANCH  11  12
ATOM     12  C   UNL A   1      41.856  28.938  28.449  1.00  0.00     0.031 A 
ATOM     13  C   UNL A   1      42.965  29.951  28.434  1.00  0.00     0.074 A 
ATOM     14  C   UNL A   1      42.095  27.657  28.098  1.00  0.00     0.049 A 
ATOM     15  N   UNL A   1      44.225  29.779  28.126  1.00  0.00    -0.248 NA
ATOM     16  C   UNL A   1      42.621  31.333  28.799  1.00  0.00     0.031 C 
ATOM     17  C   UNL A   1      41.081  26.598  28.046  1.00  0.00     0.029 A 
ATOM     18  N   UNL A   1      43.255  27.017  27.752  1.00  0.00    -0.354 N 
ATOM     19  C   UNL A   1      44.827  31.025  28.261  1.00  0.00     0.074 A 
ATOM     20  C   UNL A   1      43.783  31.954  28.638  1.00  0.00     0.031 C 
ATOM     21  C   UNL A   1      41.672  25.432  27.754  1.00  0.00     0.029 A 
ATOM     22  C   UNL A   1      43.091  25.670  27.525  1.00  0.00     0.049 A 
ATOM     23  H   UNL A   1      44.123  27.476  27.675  1.00  0.00     0.167 HD
ATOM     24  C   UNL A   1      46.131  31.354  28.097  1.00  0.00     0.037 A 
ATOM     25  C   UNL A   1      43.979  24.729  27.155  1.00  0.00     0.037 A 
ATOM     26  C   UNL A   1      47.160  30.417  27.716  1.00  0.00     0.049 A 
ATOM     27  C   UNL A   1      45.414  25.128  26.969  1.00  0.00     0.074 A 
ATOM     28  C   UNL A   1      48.510  30.650  27.523  1.00  0.00     0.029 A 
ATOM     29  N   UNL A   1      46.952  29.065  27.470  1.00  0.00    -0.354 N 
ATOM     30  N   UNL A   1      45.966  26.309  27.122  1.00  0.00    -0.248 NA
ATOM     31  C   UNL A   1      46.347  24.071  26.562  1.00  0.00     0.031 C 
ATOM     32  C   UNL A   1      49.111  29.452  27.122  1.00  0.00     0.029 A 
ATOM     33  C   UNL A   1      48.147  28.458  27.116  1.00  0.00     0.049 A 
ATOM     34  H   UNL A   1      46.084  28.607  27.538  1.00  0.00     0.167 HD
ATOM     35  C   UNL A   1      47.314  26.136  26.837  1.00  0.00     0.074 A 
ATOM     36  C   UNL A   1      47.498  24.729  26.538  1.00  0.00     0.031 C 
ATOM     37  C   UNL A   1      48.309  27.057  26.814  1.00  0.00     0.037 A 
BRANCH  24  38
ATOM     38  C   UNL A   1      46.528  32.789  28.326  1.00  0.00     0.058 A 
ATOM     39  C   UNL A   1      46.448  33.746  27.301  1.00  0.00     0.135 A 
ATOM     40  C   UNL A   1      46.934  33.227  29.597  1.00  0.00     0.135 A 
ATOM     41  F   UNL A   1      46.083  33.381  26.061  1.00  0.00    -0.206 F 
ATOM     42  C   UNL A   1      46.773  35.081  27.524  1.00  0.00     0.059 A 
ATOM     43  C   UNL A   1      47.241  34.563  29.848  1.00  0.00     0.059 A 
ATOM     44  F   UNL A   1      47.031  32.356  30.614  1.00  0.00    -0.206 F 
ATOM     45  C   UNL A   1      47.166  35.481  28.802  1.00  0.00     0.060 A 
BRANCH  45  46
ATOM     46  S   UNL A   1      47.570  37.220  29.074  1.00  0.00     0.124 S 
ATOM     47  O   UNL A   1      47.540  37.741  27.711  1.00  0.00    -0.237 OA
ATOM     48  O   UNL A   1      46.486  37.660  29.944  1.00  0.00    -0.237 OA
ATOM     49  O   UNL A   1      48.890  37.170  29.697  1.00  0.00    -0.744 OA
ENDBRANCH  45  46
ENDBRANCH  24  38
BRANCH  25  50
ATOM     50  C   UNL A   1      43.523  23.335  26.912  1.00  0.00     0.058 A 
ATOM     51  C   UNL A   1      43.399  22.819  25.614  1.00  0.00     0.135 A 
ATOM     52  C   UNL A   1      43.214  22.484  27.985  1.00  0.00     0.135 A 
ATOM     53  F   UNL A   1      43.683  23.591  24.555  1.00  0.00    -0.206 F 
ATOM     54  C   UNL A   1      42.959  21.518  25.388  1.00  0.00     0.059 A 
ATOM     55  C   UNL A   1      42.806  21.171  27.786  1.00  0.00     0.059 A 
ATOM     56  F   UNL A   1      43.337  22.921  29.249  1.00  0.00    -0.206 F 
ATOM     57  C   UNL A   1      42.665  20.701  26.482  1.00  0.00     0.060 A 
BRANCH  57  58
ATOM     58  S   UNL A   1      42.122  19.006  26.183  1.00  0.00     0.124 S 
ATOM     59  O   UNL A   1      40.725  19.207  25.816  1.00  0.00    -0.237 OA
ATOM     60  O   UNL A   1      43.012  18.584  25.104  1.00  0.00    -0.237 OA
ATOM     61  O   UNL A   1      42.352  18.350  27.466  1.00  0.00    -0.744 OA
ENDBRANCH  57  58
ENDBRANCH  25  50
BRANCH  37  62
ATOM     62  C   UNL A   1      49.684  26.559  26.469  1.00  0.00     0.058 A 
ATOM     63  C   UNL A   1      50.176  26.600  25.156  1.00  0.00     0.135 A 
ATOM     64  C   UNL A   1      50.523  26.038  27.468  1.00  0.00     0.135 A 
ATOM     65  F   UNL A   1      49.412  27.082  24.162  1.00  0.00    -0.206 F 
ATOM     66  C   UNL A   1      51.435  26.103  24.835  1.00  0.00     0.059 A 
ATOM     67  C   UNL A   1      51.798  25.565  27.176  1.00  0.00     0.059 A 
ATOM     68  F   UNL A   1      50.105  25.985  28.743  1.00  0.00    -0.206 F 
ATOM     69  C   UNL A   1      52.237  25.584  25.853  1.00  0.00     0.060 A 
BRANCH  69  70
ATOM     70  S   UNL A   1      53.868  24.942  25.425  1.00  0.00     0.124 S 
ATOM     71  O   UNL A   1      53.562  23.553  25.103  1.00  0.00    -0.237 OA
ATOM     72  O   UNL A   1      54.251  25.786  24.297  1.00  0.00    -0.237 OA
ATOM     73  O   UNL A   1      54.644  25.147  26.644  1.00  0.00    -0.744 OA
ENDBRANCH  69  70
ENDBRANCH  37  62
ENDBRANCH  11  12
ENDBRANCH   4   6
ENDBRANCH   1   2
BRANCH   1  74
ATOM     74  C   UNL A   1      34.733  29.769  27.452  1.00  0.00     0.042 C 
BRANCH  74  75
ATOM     75  C   UNL A   1      33.438  30.369  26.908  1.00  0.00     0.117 C 
BRANCH  75  76
ATOM     76  N   UNL A   1      33.239  29.997  25.520  1.00  0.00    -0.356 N 
ATOM     77  C   UNL A   1      32.800  28.853  24.934  1.00  0.00     0.227 C 
ATOM     78  H   UNL A   1      33.465  30.711  24.881  1.00  0.00     0.163 HD
ATOM     79  O   UNL A   1      32.833  28.842  23.698  1.00  0.00    -0.274 OA
BRANCH  77  80
ATOM     80  C   UNL A   1      32.158  27.687  25.714  1.00  0.00     0.103 C 
ATOM     81  C   UNL A   1      30.949  27.170  24.977  1.00  0.00    -0.016 C 
ATOM     82  C   UNL A   1      32.951  26.402  25.975  1.00  0.00     0.047 C 
ATOM     83  C   UNL A   1      30.930  25.838  24.868  1.00  0.00    -0.006 C 
ATOM     84  C   UNL A   1      32.134  25.215  25.462  1.00  0.00     0.106 C 
BRANCH  84  85
ATOM     85  N   UNL A   1      31.756  24.338  26.547  1.00  0.00    -0.346 N 
ATOM     86  C   UNL A   1      32.413  23.238  27.030  1.00  0.00     0.253 C 
ATOM     87  H   UNL A   1      30.911  24.563  27.000  1.00  0.00     0.164 HD
ATOM     88  O   UNL A   1      31.979  22.616  27.994  1.00  0.00    -0.269 OA
BRANCH  86  89
ATOM     89  C   UNL A   1      33.582  22.720  26.302  1.00  0.00     0.061 A 
ATOM     90  C   UNL A   1      34.805  23.328  26.603  1.00  0.00     0.056 A 
ATOM     91  C   UNL A   1      33.518  21.668  25.378  1.00  0.00     0.055 A 
ATOM     92  C   UNL A   1      35.969  22.838  26.026  1.00  0.00     0.142 A 
ATOM     93  C   UNL A   1      34.699  21.173  24.814  1.00  0.00     0.045 A 
ATOM     94  Cl  UNL A   1      32.025  20.931  24.921  1.00  0.00    -0.083 Cl
ATOM     95  F   UNL A   1      37.135  23.415  26.350  1.00  0.00    -0.205 F 
ATOM     96  C   UNL A   1      35.924  21.754  25.151  1.00  0.00     0.078 A 
ATOM     97  Cl  UNL A   1      37.376  21.109  24.492  1.00  0.00    -0.081 Cl
ENDBRANCH  86  89
ENDBRANCH  84  85
ENDBRANCH  77  80
ENDBRANCH  75  76
ENDBRANCH  74  75
ENDBRANCH   1  74
TORSDOF 15
ENDMDL
