MODEL 1
REMARK VINA RESULT:     -13.1      0.000      0.000
REMARK SMILES CC[C@@H](C)[C@H](C(=O)NCCCNC(=O)c1ccc(-c2c3nc(c(-c4c(F)cc(S(=O)(=O)[O-])cc4F)c4ccc([nH]4)c(-c4c(F)cc(S(=O)(=O)[O-])cc4F)c4nc(c(-c5c(F)cc(S(=O)(=O)[O-])cc5F)c5ccc2[nH]5)C=C4)C=C3)cc1)N1C(=O)/C(=C/c2ccc3c(c2)OCO3)SC1=S
REMARK SMILES IDX 10 1 9 2 8 3 6 4 7 5 5 7 3 8 4 9 2 10 1 11 81 12 82 13 96 14
REMARK SMILES IDX 83 15 84 16 95 17 97 18 85 19 86 20 87 21 91 22 88 23 90 24
REMARK SMILES IDX 89 25 92 26 94 27 93 28 11 29 12 30 13 31 14 33 15 34 16 35
REMARK SMILES IDX 80 36 17 37 79 38 18 39 19 40 20 41 73 42 21 43 78 44 72 45
REMARK SMILES IDX 74 46 22 47 77 48 71 49 70 50 23 52 57 53 36 54 56 55 37 56
REMARK SMILES IDX 40 57 55 58 75 59 38 60 39 61 54 63 76 64 41 65 24 66 25 67
REMARK SMILES IDX 34 68 26 69 27 70 33 71 35 72 28 73 29 74 30 75 31 76 32 77
REMARK SMILES IDX 58 78 59 79 68 80 60 81 61 82 67 83 69 84 62 85 63 86 64 87
REMARK SMILES IDX 65 88 66 89 42 90 43 91 52 92 44 93 45 94 51 95 53 96 46 97
REMARK SMILES IDX 47 98 48 99 49 100 50 101
REMARK H PARENT 8 6 12 32 74 51 40 62
REMARK Flexibility Score: inf
ROOT
ATOM      1  C   UNL A   1      37.507  23.615  25.408  1.00  0.00     0.042 C 
ENDROOT
BRANCH   1   2
ATOM      2  C   UNL A   1      37.039  22.180  25.640  1.00  0.00     0.117 C 
BRANCH   2   3
ATOM      3  N   UNL A   1      35.871  22.156  26.502  1.00  0.00    -0.354 N 
ATOM      4  C   UNL A   1      34.584  22.573  26.349  1.00  0.00     0.243 C 
ATOM      5  O   UNL A   1      33.963  22.777  27.403  1.00  0.00    -0.273 OA
ATOM      6  H   UNL A   1      36.046  21.751  27.383  1.00  0.00     0.163 HD
BRANCH   4   7
ATOM      7  C   UNL A   1      33.806  22.636  25.003  1.00  0.00     0.184 C 
BRANCH   7   8
ATOM      8  C   UNL A   1      33.413  21.279  24.318  1.00  0.00     0.018 C 
ATOM      9  C   UNL A   1      32.491  21.472  23.100  1.00  0.00     0.010 C 
BRANCH   8  10
ATOM     10  C   UNL A   1      33.102  20.166  25.344  1.00  0.00     0.002 C 
ATOM     11  C   UNL A   1      32.620  18.851  24.761  1.00  0.00     0.004 C 
ENDBRANCH   8  10
ENDBRANCH   7   8
BRANCH   7  12
ATOM     12  N   UNL A   1      32.739  23.691  24.884  1.00  0.00    -0.280 N 
ATOM     13  C   UNL A   1      33.100  24.863  24.232  1.00  0.00     0.266 C 
ATOM     14  C   UNL A   1      31.480  23.730  25.469  1.00  0.00     0.149 C 
ATOM     15  O   UNL A   1      34.229  25.200  23.878  1.00  0.00    -0.268 OA
ATOM     16  C   UNL A   1      31.957  25.775  24.079  1.00  0.00     0.081 C 
ATOM     17  S   UNL A   1      30.674  25.256  25.074  1.00  0.00    -0.054 SA
ATOM     18  S   UNL A   1      30.635  22.636  26.399  1.00  0.00    -0.052 S 
ATOM     19  C   UNL A   1      32.046  26.882  23.328  1.00  0.00     0.029 C 
BRANCH  19  20
ATOM     20  C   UNL A   1      31.101  27.979  23.501  1.00  0.00    -0.020 A 
ATOM     21  C   UNL A   1      31.262  28.986  24.472  1.00  0.00     0.012 A 
ATOM     22  C   UNL A   1      30.118  28.087  22.509  1.00  0.00     0.058 A 
ATOM     23  C   UNL A   1      30.473  30.142  24.417  1.00  0.00     0.051 A 
ATOM     24  C   UNL A   1      29.397  29.250  22.454  1.00  0.00     0.166 A 
ATOM     25  C   UNL A   1      29.578  30.257  23.373  1.00  0.00     0.165 A 
ATOM     26  O   UNL A   1      28.510  29.578  21.478  1.00  0.00    -0.454 OA
ATOM     27  O   UNL A   1      28.822  31.350  23.077  1.00  0.00    -0.454 OA
ATOM     28  C   UNL A   1      28.321  30.974  21.775  1.00  0.00     0.468 C 
ENDBRANCH  19  20
ENDBRANCH   7  12
ENDBRANCH   4   7
ENDBRANCH   2   3
ENDBRANCH   1   2
BRANCH   1  29
ATOM     29  C   UNL A   1      38.404  24.129  26.519  1.00  0.00     0.118 C 
BRANCH  29  30
ATOM     30  N   UNL A   1      39.802  24.114  26.116  1.00  0.00    -0.352 N 
ATOM     31  C   UNL A   1      40.830  24.974  26.418  1.00  0.00     0.251 C 
ATOM     32  H   UNL A   1      40.053  23.364  25.531  1.00  0.00     0.163 HD
ATOM     33  O   UNL A   1      41.842  24.944  25.718  1.00  0.00    -0.269 OA
BRANCH  31  34
ATOM     34  C   UNL A   1      40.746  25.924  27.554  1.00  0.00     0.039 A 
ATOM     35  C   UNL A   1      39.736  25.746  28.507  1.00  0.00     0.014 A 
ATOM     36  C   UNL A   1      41.585  27.036  27.650  1.00  0.00     0.014 A 
ATOM     37  C   UNL A   1      39.592  26.659  29.556  1.00  0.00     0.010 A 
ATOM     38  C   UNL A   1      41.514  27.880  28.756  1.00  0.00     0.010 A 
ATOM     39  C   UNL A   1      40.494  27.725  29.702  1.00  0.00    -0.014 A 
BRANCH  39  40
ATOM     40  C   UNL A   1      40.357  28.709  30.808  1.00  0.00     0.031 A 
ATOM     41  C   UNL A   1      41.206  28.584  32.048  1.00  0.00     0.074 A 
ATOM     42  C   UNL A   1      39.426  29.679  30.722  1.00  0.00     0.049 A 
ATOM     43  N   UNL A   1      41.205  29.320  33.130  1.00  0.00    -0.248 NA
ATOM     44  C   UNL A   1      42.155  27.458  32.097  1.00  0.00     0.031 C 
ATOM     45  C   UNL A   1      38.483  29.851  29.614  1.00  0.00     0.029 A 
ATOM     46  N   UNL A   1      39.112  30.696  31.586  1.00  0.00    -0.354 N 
ATOM     47  C   UNL A   1      42.119  28.728  33.996  1.00  0.00     0.074 A 
ATOM     48  C   UNL A   1      42.617  27.542  33.335  1.00  0.00     0.031 C 
ATOM     49  C   UNL A   1      37.714  30.924  29.855  1.00  0.00     0.029 A 
ATOM     50  C   UNL A   1      38.090  31.501  31.142  1.00  0.00     0.049 A 
ATOM     51  H   UNL A   1      39.574  30.837  32.445  1.00  0.00     0.167 HD
ATOM     52  C   UNL A   1      42.526  29.147  35.218  1.00  0.00     0.037 A 
ATOM     53  C   UNL A   1      37.522  32.584  31.705  1.00  0.00     0.037 A 
ATOM     54  C   UNL A   1      42.065  30.358  35.845  1.00  0.00     0.049 A 
ATOM     55  C   UNL A   1      38.053  33.085  33.017  1.00  0.00     0.074 A 
ATOM     56  C   UNL A   1      42.487  30.930  37.032  1.00  0.00     0.029 A 
ATOM     57  N   UNL A   1      41.077  31.186  35.331  1.00  0.00    -0.354 N 
ATOM     58  N   UNL A   1      38.984  32.565  33.781  1.00  0.00    -0.248 NA
ATOM     59  C   UNL A   1      37.472  34.330  33.535  1.00  0.00     0.031 C 
ATOM     60  C   UNL A   1      41.729  32.087  37.253  1.00  0.00     0.029 A 
ATOM     61  C   UNL A   1      40.862  32.255  36.184  1.00  0.00     0.049 A 
ATOM     62  H   UNL A   1      40.599  31.034  34.484  1.00  0.00     0.167 HD
ATOM     63  C   UNL A   1      39.106  33.421  34.869  1.00  0.00     0.074 A 
ATOM     64  C   UNL A   1      38.172  34.508  34.647  1.00  0.00     0.031 C 
ATOM     65  C   UNL A   1      39.914  33.317  35.953  1.00  0.00     0.037 A 
BRANCH  52  66
ATOM     66  C   UNL A   1      43.524  28.288  35.950  1.00  0.00     0.058 A 
ATOM     67  C   UNL A   1      44.909  28.475  35.810  1.00  0.00     0.135 A 
ATOM     68  C   UNL A   1      43.089  27.259  36.803  1.00  0.00     0.135 A 
ATOM     69  F   UNL A   1      45.382  29.434  34.998  1.00  0.00    -0.206 F 
ATOM     70  C   UNL A   1      45.826  27.647  36.450  1.00  0.00     0.059 A 
ATOM     71  C   UNL A   1      43.989  26.437  37.476  1.00  0.00     0.059 A 
ATOM     72  F   UNL A   1      41.777  27.035  36.978  1.00  0.00    -0.206 F 
ATOM     73  C   UNL A   1      45.355  26.625  37.276  1.00  0.00     0.060 A 
BRANCH  73  74
ATOM     74  S   UNL A   1      46.556  25.542  38.082  1.00  0.00     0.124 S 
ATOM     75  O   UNL A   1      47.778  25.875  37.357  1.00  0.00    -0.237 OA
ATOM     76  O   UNL A   1      46.501  25.990  39.470  1.00  0.00    -0.237 OA
ATOM     77  O   UNL A   1      46.024  24.205  37.837  1.00  0.00    -0.744 OA
ENDBRANCH  73  74
ENDBRANCH  52  66
BRANCH  53  78
ATOM     78  C   UNL A   1      36.419  33.282  30.995  1.00  0.00     0.058 A 
ATOM     79  C   UNL A   1      35.094  33.182  31.443  1.00  0.00     0.135 A 
ATOM     80  C   UNL A   1      36.677  34.115  29.895  1.00  0.00     0.135 A 
ATOM     81  F   UNL A   1      34.798  32.395  32.490  1.00  0.00    -0.206 F 
ATOM     82  C   UNL A   1      34.061  33.882  30.827  1.00  0.00     0.059 A 
ATOM     83  C   UNL A   1      35.665  34.841  29.275  1.00  0.00     0.059 A 
ATOM     84  F   UNL A   1      37.932  34.260  29.442  1.00  0.00    -0.206 F 
ATOM     85  C   UNL A   1      34.359  34.715  29.748  1.00  0.00     0.060 A 
BRANCH  85  86
ATOM     86  S   UNL A   1      33.028  35.691  29.013  1.00  0.00     0.124 S 
ATOM     87  O   UNL A   1      32.374  34.705  28.163  1.00  0.00    -0.237 OA
ATOM     88  O   UNL A   1      32.277  36.121  30.188  1.00  0.00    -0.237 OA
ATOM     89  O   UNL A   1      33.742  36.757  28.315  1.00  0.00    -0.744 OA
ENDBRANCH  85  86
ENDBRANCH  53  78
BRANCH  65  90
ATOM     90  C   UNL A   1      39.817  34.412  36.979  1.00  0.00     0.058 A 
ATOM     91  C   UNL A   1      39.041  34.263  38.139  1.00  0.00     0.135 A 
ATOM     92  C   UNL A   1      40.514  35.617  36.804  1.00  0.00     0.135 A 
ATOM     93  F   UNL A   1      38.353  33.130  38.350  1.00  0.00    -0.206 F 
ATOM     94  C   UNL A   1      38.925  35.287  39.071  1.00  0.00     0.059 A 
ATOM     95  C   UNL A   1      40.434  36.647  37.737  1.00  0.00     0.059 A 
ATOM     96  F   UNL A   1      41.281  35.805  35.719  1.00  0.00    -0.206 F 
ATOM     97  C   UNL A   1      39.621  36.478  38.858  1.00  0.00     0.060 A 
BRANCH  97  98
ATOM     98  S   UNL A   1      39.459  37.808  40.069  1.00  0.00     0.124 S 
ATOM     99  O   UNL A   1      40.743  38.487  39.928  1.00  0.00    -0.237 OA
ATOM    100  O   UNL A   1      38.297  38.541  39.580  1.00  0.00    -0.237 OA
ATOM    101  O   UNL A   1      39.259  37.095  41.328  1.00  0.00    -0.744 OA
ENDBRANCH  97  98
ENDBRANCH  65  90
ENDBRANCH  39  40
ENDBRANCH  31  34
ENDBRANCH  29  30
ENDBRANCH   1  29
TORSDOF 17
ENDMDL
MODEL 2
REMARK VINA RESULT:     -12.9      6.521     12.438
REMARK SMILES CC[C@@H](C)[C@H](C(=O)NCCCNC(=O)c1ccc(-c2c3nc(c(-c4c(F)cc(S(=O)(=O)[O-])cc4F)c4ccc([nH]4)c(-c4c(F)cc(S(=O)(=O)[O-])cc4F)c4nc(c(-c5c(F)cc(S(=O)(=O)[O-])cc5F)c5ccc2[nH]5)C=C4)C=C3)cc1)N1C(=O)/C(=C/c2ccc3c(c2)OCO3)SC1=S
REMARK SMILES IDX 10 1 9 2 8 3 6 4 7 5 5 7 3 8 4 9 2 10 1 11 81 12 82 13 96 14
REMARK SMILES IDX 83 15 84 16 95 17 97 18 85 19 86 20 87 21 91 22 88 23 90 24
REMARK SMILES IDX 89 25 92 26 94 27 93 28 11 29 12 30 13 31 14 33 15 34 16 35
REMARK SMILES IDX 80 36 17 37 79 38 18 39 19 40 20 41 73 42 21 43 78 44 72 45
REMARK SMILES IDX 74 46 22 47 77 48 71 49 70 50 23 52 57 53 36 54 56 55 37 56
REMARK SMILES IDX 40 57 55 58 75 59 38 60 39 61 54 63 76 64 41 65 24 66 25 67
REMARK SMILES IDX 34 68 26 69 27 70 33 71 35 72 28 73 29 74 30 75 31 76 32 77
REMARK SMILES IDX 58 78 59 79 68 80 60 81 61 82 67 83 69 84 62 85 63 86 64 87
REMARK SMILES IDX 65 88 66 89 42 90 43 91 52 92 44 93 45 94 51 95 53 96 46 97
REMARK SMILES IDX 47 98 48 99 49 100 50 101
REMARK H PARENT 8 6 12 32 74 51 40 62
REMARK Flexibility Score: inf
ROOT
ATOM      1  C   UNL A   1      34.524  29.392  27.504  1.00  0.00     0.042 C 
ENDROOT
BRANCH   1   2
ATOM      2  C   UNL A   1      33.294  29.634  26.631  1.00  0.00     0.117 C 
BRANCH   2   3
ATOM      3  N   UNL A   1      33.579  29.314  25.244  1.00  0.00    -0.354 N 
ATOM      4  C   UNL A   1      33.318  28.234  24.458  1.00  0.00     0.243 C 
ATOM      5  O   UNL A   1      34.046  28.113  23.462  1.00  0.00    -0.273 OA
ATOM      6  H   UNL A   1      34.063  30.030  24.771  1.00  0.00     0.163 HD
BRANCH   4   7
ATOM      7  C   UNL A   1      32.101  27.275  24.611  1.00  0.00     0.184 C 
BRANCH   7   8
ATOM      8  C   UNL A   1      30.680  27.829  24.240  1.00  0.00     0.018 C 
ATOM      9  C   UNL A   1      29.605  26.726  24.193  1.00  0.00     0.010 C 
BRANCH   8  10
ATOM     10  C   UNL A   1      30.732  28.895  23.124  1.00  0.00     0.002 C 
ATOM     11  C   UNL A   1      29.405  29.217  22.460  1.00  0.00     0.004 C 
ENDBRANCH   8  10
ENDBRANCH   7   8
BRANCH   7  12
ATOM     12  N   UNL A   1      32.308  25.844  24.194  1.00  0.00    -0.280 N 
ATOM     13  C   UNL A   1      32.622  24.945  25.205  1.00  0.00     0.266 C 
ATOM     14  C   UNL A   1      32.382  25.309  22.915  1.00  0.00     0.149 C 
ATOM     15  O   UNL A   1      32.902  25.209  26.374  1.00  0.00    -0.268 OA
ATOM     16  C   UNL A   1      32.695  23.565  24.704  1.00  0.00     0.081 C 
ATOM     17  S   UNL A   1      32.740  23.578  23.000  1.00  0.00    -0.054 SA
ATOM     18  S   UNL A   1      32.174  25.975  21.401  1.00  0.00    -0.052 S 
ATOM     19  C   UNL A   1      32.814  22.526  25.542  1.00  0.00     0.029 C 
BRANCH  19  20
ATOM     20  C   UNL A   1      33.301  21.236  25.067  1.00  0.00    -0.020 A 
ATOM     21  C   UNL A   1      34.669  20.929  24.945  1.00  0.00     0.012 A 
ATOM     22  C   UNL A   1      32.325  20.241  24.924  1.00  0.00     0.058 A 
ATOM     23  C   UNL A   1      35.072  19.604  24.738  1.00  0.00     0.051 A 
ATOM     24  C   UNL A   1      32.753  18.949  24.769  1.00  0.00     0.166 A 
ATOM     25  C   UNL A   1      34.090  18.635  24.693  1.00  0.00     0.165 A 
ATOM     26  O   UNL A   1      31.951  17.853  24.758  1.00  0.00    -0.454 OA
ATOM     27  O   UNL A   1      34.287  17.290  24.628  1.00  0.00    -0.454 OA
ATOM     28  C   UNL A   1      32.944  16.818  24.879  1.00  0.00     0.468 C 
ENDBRANCH  19  20
ENDBRANCH   7  12
ENDBRANCH   4   7
ENDBRANCH   2   3
ENDBRANCH   1   2
BRANCH   1  29
ATOM     29  C   UNL A   1      35.238  30.676  27.884  1.00  0.00     0.118 C 
BRANCH  29  30
ATOM     30  N   UNL A   1      35.328  30.821  29.329  1.00  0.00    -0.352 N 
ATOM     31  C   UNL A   1      36.274  30.370  30.217  1.00  0.00     0.251 C 
ATOM     32  H   UNL A   1      34.589  31.326  29.738  1.00  0.00     0.163 HD
ATOM     33  O   UNL A   1      35.985  30.336  31.412  1.00  0.00    -0.269 OA
BRANCH  31  34
ATOM     34  C   UNL A   1      37.618  29.928  29.769  1.00  0.00     0.039 A 
ATOM     35  C   UNL A   1      38.543  29.505  30.730  1.00  0.00     0.014 A 
ATOM     36  C   UNL A   1      38.012  30.007  28.431  1.00  0.00     0.014 A 
ATOM     37  C   UNL A   1      39.837  29.140  30.345  1.00  0.00     0.010 A 
ATOM     38  C   UNL A   1      39.261  29.537  28.035  1.00  0.00     0.010 A 
ATOM     39  C   UNL A   1      40.202  29.133  28.990  1.00  0.00    -0.014 A 
BRANCH  39  40
ATOM     40  C   UNL A   1      41.574  28.752  28.560  1.00  0.00     0.031 A 
ATOM     41  C   UNL A   1      42.662  29.793  28.476  1.00  0.00     0.074 A 
ATOM     42  C   UNL A   1      41.824  27.482  28.187  1.00  0.00     0.049 A 
ATOM     43  N   UNL A   1      43.905  29.662  28.088  1.00  0.00    -0.248 NA
ATOM     44  C   UNL A   1      42.295  31.173  28.837  1.00  0.00     0.031 C 
ATOM     45  C   UNL A   1      40.834  26.404  28.138  1.00  0.00     0.029 A 
ATOM     46  N   UNL A   1      42.985  26.886  27.766  1.00  0.00    -0.354 N 
ATOM     47  C   UNL A   1      44.453  30.940  28.124  1.00  0.00     0.074 A 
ATOM     48  C   UNL A   1      43.393  31.841  28.520  1.00  0.00     0.031 C 
ATOM     49  C   UNL A   1      41.434  25.273  27.736  1.00  0.00     0.029 A 
ATOM     50  C   UNL A   1      42.844  25.550  27.475  1.00  0.00     0.049 A 
ATOM     51  H   UNL A   1      43.839  27.368  27.680  1.00  0.00     0.167 HD
ATOM     52  C   UNL A   1      45.728  31.326  27.876  1.00  0.00     0.037 A 
ATOM     53  C   UNL A   1      43.748  24.647  27.049  1.00  0.00     0.037 A 
ATOM     54  C   UNL A   1      46.788  30.415  27.535  1.00  0.00     0.049 A 
ATOM     55  C   UNL A   1      45.176  25.077  26.870  1.00  0.00     0.074 A 
ATOM     56  C   UNL A   1      48.135  30.683  27.363  1.00  0.00     0.029 A 
ATOM     57  N   UNL A   1      46.620  29.054  27.315  1.00  0.00    -0.354 N 
ATOM     58  N   UNL A   1      45.698  26.274  26.998  1.00  0.00    -0.248 NA
ATOM     59  C   UNL A   1      46.142  24.032  26.508  1.00  0.00     0.031 C 
ATOM     60  C   UNL A   1      48.776  29.489  27.007  1.00  0.00     0.029 A 
ATOM     61  C   UNL A   1      47.835  28.472  26.994  1.00  0.00     0.049 A 
ATOM     62  H   UNL A   1      45.763  28.575  27.380  1.00  0.00     0.167 HD
ATOM     63  C   UNL A   1      47.055  26.127  26.738  1.00  0.00     0.074 A 
ATOM     64  C   UNL A   1      47.276  24.718  26.475  1.00  0.00     0.031 C 
ATOM     65  C   UNL A   1      48.030  27.070  26.717  1.00  0.00     0.037 A 
BRANCH  52  66
ATOM     66  C   UNL A   1      46.039  32.796  27.970  1.00  0.00     0.058 A 
ATOM     67  C   UNL A   1      46.527  33.378  29.152  1.00  0.00     0.135 A 
ATOM     68  C   UNL A   1      45.845  33.639  26.862  1.00  0.00     0.135 A 
ATOM     69  F   UNL A   1      46.719  32.624  30.246  1.00  0.00    -0.206 F 
ATOM     70  C   UNL A   1      46.767  34.745  29.248  1.00  0.00     0.059 A 
ATOM     71  C   UNL A   1      46.106  35.005  26.927  1.00  0.00     0.059 A 
ATOM     72  F   UNL A   1      45.383  33.139  25.705  1.00  0.00    -0.206 F 
ATOM     73  C   UNL A   1      46.545  35.552  28.132  1.00  0.00     0.060 A 
BRANCH  73  74
ATOM     74  S   UNL A   1      46.838  37.329  28.277  1.00  0.00     0.124 S 
ATOM     75  O   UNL A   1      45.635  37.764  28.980  1.00  0.00    -0.237 OA
ATOM     76  O   UNL A   1      48.076  37.383  29.048  1.00  0.00    -0.237 OA
ATOM     77  O   UNL A   1      46.948  37.769  26.889  1.00  0.00    -0.744 OA
ENDBRANCH  73  74
ENDBRANCH  52  66
BRANCH  53  78
ATOM     78  C   UNL A   1      43.323  23.244  26.812  1.00  0.00     0.058 A 
ATOM     79  C   UNL A   1      43.272  22.713  25.516  1.00  0.00     0.135 A 
ATOM     80  C   UNL A   1      43.023  22.387  27.883  1.00  0.00     0.135 A 
ATOM     81  F   UNL A   1      43.548  23.495  24.460  1.00  0.00    -0.206 F 
ATOM     82  C   UNL A   1      42.938  21.382  25.286  1.00  0.00     0.059 A 
ATOM     83  C   UNL A   1      42.707  21.047  27.680  1.00  0.00     0.059 A 
ATOM     84  F   UNL A   1      43.079  22.842  29.144  1.00  0.00    -0.206 F 
ATOM     85  C   UNL A   1      42.665  20.555  26.376  1.00  0.00     0.060 A 
BRANCH  85  86
ATOM     86  S   UNL A   1      42.324  18.807  26.074  1.00  0.00     0.124 S 
ATOM     87  O   UNL A   1      42.620  18.220  27.375  1.00  0.00    -0.237 OA
ATOM     88  O   UNL A   1      40.916  18.830  25.689  1.00  0.00    -0.237 OA
ATOM     89  O   UNL A   1      43.251  18.466  24.999  1.00  0.00    -0.744 OA
ENDBRANCH  85  86
ENDBRANCH  53  78
BRANCH  65  90
ATOM     90  C   UNL A   1      49.421  26.600  26.396  1.00  0.00     0.058 A 
ATOM     91  C   UNL A   1      49.970  26.756  25.114  1.00  0.00     0.135 A 
ATOM     92  C   UNL A   1      50.217  25.998  27.383  1.00  0.00     0.135 A 
ATOM     93  F   UNL A   1      49.247  27.323  24.135  1.00  0.00    -0.206 F 
ATOM     94  C   UNL A   1      51.244  26.293  24.808  1.00  0.00     0.059 A 
ATOM     95  C   UNL A   1      51.505  25.551  27.108  1.00  0.00     0.059 A 
ATOM     96  F   UNL A   1      49.744  25.838  28.630  1.00  0.00    -0.206 F 
ATOM     97  C   UNL A   1      52.002  25.685  25.811  1.00  0.00     0.060 A 
BRANCH  97  98
ATOM     98  S   UNL A   1      53.653  25.079  25.405  1.00  0.00     0.124 S 
ATOM     99  O   UNL A   1      53.454  23.634  25.459  1.00  0.00    -0.237 OA
ATOM    100  O   UNL A   1      53.878  25.640  24.078  1.00  0.00    -0.237 OA
ATOM    101  O   UNL A   1      54.488  25.638  26.464  1.00  0.00    -0.744 OA
ENDBRANCH  97  98
ENDBRANCH  65  90
ENDBRANCH  39  40
ENDBRANCH  31  34
ENDBRANCH  29  30
ENDBRANCH   1  29
TORSDOF 17
ENDMDL
MODEL 3
REMARK VINA RESULT:     -12.1      5.083      6.419
REMARK SMILES CC[C@@H](C)[C@H](C(=O)NCCCNC(=O)c1ccc(-c2c3nc(c(-c4c(F)cc(S(=O)(=O)[O-])cc4F)c4ccc([nH]4)c(-c4c(F)cc(S(=O)(=O)[O-])cc4F)c4nc(c(-c5c(F)cc(S(=O)(=O)[O-])cc5F)c5ccc2[nH]5)C=C4)C=C3)cc1)N1C(=O)/C(=C/c2ccc3c(c2)OCO3)SC1=S
REMARK SMILES IDX 10 1 9 2 8 3 6 4 7 5 5 7 3 8 4 9 2 10 1 11 81 12 82 13 96 14
REMARK SMILES IDX 83 15 84 16 95 17 97 18 85 19 86 20 87 21 91 22 88 23 90 24
REMARK SMILES IDX 89 25 92 26 94 27 93 28 11 29 12 30 13 31 14 33 15 34 16 35
REMARK SMILES IDX 80 36 17 37 79 38 18 39 19 40 20 41 73 42 21 43 78 44 72 45
REMARK SMILES IDX 74 46 22 47 77 48 71 49 70 50 23 52 57 53 36 54 56 55 37 56
REMARK SMILES IDX 40 57 55 58 75 59 38 60 39 61 54 63 76 64 41 65 24 66 25 67
REMARK SMILES IDX 34 68 26 69 27 70 33 71 35 72 28 73 29 74 30 75 31 76 32 77
REMARK SMILES IDX 58 78 59 79 68 80 60 81 61 82 67 83 69 84 62 85 63 86 64 87
REMARK SMILES IDX 65 88 66 89 42 90 43 91 52 92 44 93 45 94 51 95 53 96 46 97
REMARK SMILES IDX 47 98 48 99 49 100 50 101
REMARK H PARENT 8 6 12 32 74 51 40 62
REMARK Flexibility Score: inf
ROOT
ATOM      1  C   UNL A   1      35.943  23.978  24.600  1.00  0.00     0.042 C 
ENDROOT
BRANCH   1   2
ATOM      2  C   UNL A   1      34.857  23.209  23.850  1.00  0.00     0.117 C 
BRANCH   2   3
ATOM      3  N   UNL A   1      34.341  23.998  22.745  1.00  0.00    -0.354 N 
ATOM      4  C   UNL A   1      33.150  24.611  22.508  1.00  0.00     0.243 C 
ATOM      5  O   UNL A   1      32.900  24.842  21.315  1.00  0.00    -0.273 OA
ATOM      6  H   UNL A   1      34.991  24.114  22.014  1.00  0.00     0.163 HD
BRANCH   4   7
ATOM      7  C   UNL A   1      32.194  25.187  23.593  1.00  0.00     0.184 C 
BRANCH   7   8
ATOM      8  C   UNL A   1      32.505  24.855  25.096  1.00  0.00     0.018 C 
ATOM      9  C   UNL A   1      31.440  23.946  25.737  1.00  0.00     0.010 C 
BRANCH   8  10
ATOM     10  C   UNL A   1      33.036  26.079  25.874  1.00  0.00     0.002 C 
ATOM     11  C   UNL A   1      32.018  26.798  26.742  1.00  0.00     0.004 C 
ENDBRANCH   8  10
ENDBRANCH   7   8
BRANCH   7  12
ATOM     12  N   UNL A   1      31.701  26.594  23.386  1.00  0.00    -0.280 N 
ATOM     13  C   UNL A   1      30.327  26.782  23.449  1.00  0.00     0.266 C 
ATOM     14  C   UNL A   1      32.410  27.718  22.984  1.00  0.00     0.149 C 
ATOM     15  O   UNL A   1      29.458  25.911  23.502  1.00  0.00    -0.268 OA
ATOM     16  C   UNL A   1      29.965  28.203  23.341  1.00  0.00     0.081 C 
ATOM     17  S   UNL A   1      31.314  29.096  22.802  1.00  0.00    -0.054 SA
ATOM     18  S   UNL A   1      34.030  27.983  22.692  1.00  0.00    -0.052 S 
ATOM     19  C   UNL A   1      28.709  28.619  23.551  1.00  0.00     0.029 C 
BRANCH  19  20
ATOM     20  C   UNL A   1      28.257  29.912  23.049  1.00  0.00    -0.020 A 
ATOM     21  C   UNL A   1      28.305  31.093  23.813  1.00  0.00     0.012 A 
ATOM     22  C   UNL A   1      27.953  29.952  21.681  1.00  0.00     0.058 A 
ATOM     23  C   UNL A   1      28.106  32.333  23.195  1.00  0.00     0.051 A 
ATOM     24  C   UNL A   1      27.812  31.183  21.098  1.00  0.00     0.166 A 
ATOM     25  C   UNL A   1      27.899  32.344  21.830  1.00  0.00     0.165 A 
ATOM     26  O   UNL A   1      27.657  31.407  19.767  1.00  0.00    -0.454 OA
ATOM     27  O   UNL A   1      27.814  33.446  21.036  1.00  0.00    -0.454 OA
ATOM     28  C   UNL A   1      27.871  32.831  19.730  1.00  0.00     0.468 C 
ENDBRANCH  19  20
ENDBRANCH   7  12
ENDBRANCH   4   7
ENDBRANCH   2   3
ENDBRANCH   1   2
BRANCH   1  29
ATOM     29  C   UNL A   1      36.124  23.499  26.028  1.00  0.00     0.118 C 
BRANCH  29  30
ATOM     30  N   UNL A   1      37.196  22.520  26.123  1.00  0.00    -0.352 N 
ATOM     31  C   UNL A   1      38.551  22.687  26.277  1.00  0.00     0.251 C 
ATOM     32  H   UNL A   1      36.901  21.582  26.070  1.00  0.00     0.163 HD
ATOM     33  O   UNL A   1      39.290  21.739  26.016  1.00  0.00    -0.269 OA
BRANCH  31  34
ATOM     34  C   UNL A   1      39.131  23.970  26.741  1.00  0.00     0.039 A 
ATOM     35  C   UNL A   1      39.761  24.802  25.808  1.00  0.00     0.014 A 
ATOM     36  C   UNL A   1      39.145  24.328  28.091  1.00  0.00     0.014 A 
ATOM     37  C   UNL A   1      40.371  25.989  26.225  1.00  0.00     0.010 A 
ATOM     38  C   UNL A   1      39.652  25.562  28.489  1.00  0.00     0.010 A 
ATOM     39  C   UNL A   1      40.304  26.391  27.568  1.00  0.00    -0.014 A 
BRANCH  39  40
ATOM     40  C   UNL A   1      40.949  27.648  28.033  1.00  0.00     0.031 A 
ATOM     41  C   UNL A   1      42.446  27.808  27.958  1.00  0.00     0.074 A 
ATOM     42  C   UNL A   1      40.193  28.620  28.579  1.00  0.00     0.049 A 
ATOM     43  N   UNL A   1      43.193  28.810  28.347  1.00  0.00    -0.248 NA
ATOM     44  C   UNL A   1      43.212  26.675  27.410  1.00  0.00     0.031 C 
ATOM     45  C   UNL A   1      38.745  28.547  28.789  1.00  0.00     0.029 A 
ATOM     46  N   UNL A   1      40.538  29.854  29.067  1.00  0.00    -0.354 N 
ATOM     47  C   UNL A   1      44.509  28.416  28.127  1.00  0.00     0.074 A 
ATOM     48  C   UNL A   1      44.462  27.062  27.618  1.00  0.00     0.031 C 
ATOM     49  C   UNL A   1      38.323  29.696  29.340  1.00  0.00     0.029 A 
ATOM     50  C   UNL A   1      39.470  30.575  29.545  1.00  0.00     0.049 A 
ATOM     51  H   UNL A   1      41.463  30.192  29.075  1.00  0.00     0.167 HD
ATOM     52  C   UNL A   1      45.650  29.123  28.305  1.00  0.00     0.037 A 
ATOM     53  C   UNL A   1      39.419  31.808  30.084  1.00  0.00     0.037 A 
ATOM     54  C   UNL A   1      45.683  30.488  28.758  1.00  0.00     0.049 A 
ATOM     55  C   UNL A   1      40.684  32.611  30.186  1.00  0.00     0.074 A 
ATOM     56  C   UNL A   1      46.773  31.333  28.877  1.00  0.00     0.029 A 
ATOM     57  N   UNL A   1      44.571  31.211  29.169  1.00  0.00    -0.354 N 
ATOM     58  N   UNL A   1      41.911  32.256  29.885  1.00  0.00    -0.248 NA
ATOM     59  C   UNL A   1      40.557  33.988  30.681  1.00  0.00     0.031 C 
ATOM     60  C   UNL A   1      46.325  32.556  29.391  1.00  0.00     0.029 A 
ATOM     61  C   UNL A   1      44.950  32.486  29.557  1.00  0.00     0.049 A 
ATOM     62  H   UNL A   1      43.649  30.867  29.182  1.00  0.00     0.167 HD
ATOM     63  C   UNL A   1      42.704  33.367  30.149  1.00  0.00     0.074 A 
ATOM     64  C   UNL A   1      41.810  34.414  30.606  1.00  0.00     0.031 C 
ATOM     65  C   UNL A   1      44.047  33.507  30.027  1.00  0.00     0.037 A 
BRANCH  52  66
ATOM     66  C   UNL A   1      46.952  28.430  28.001  1.00  0.00     0.058 A 
ATOM     67  C   UNL A   1      47.536  28.472  26.724  1.00  0.00     0.135 A 
ATOM     68  C   UNL A   1      47.626  27.709  29.001  1.00  0.00     0.135 A 
ATOM     69  F   UNL A   1      46.929  29.134  25.725  1.00  0.00    -0.206 F 
ATOM     70  C   UNL A   1      48.713  27.789  26.436  1.00  0.00     0.059 A 
ATOM     71  C   UNL A   1      48.821  27.041  28.743  1.00  0.00     0.059 A 
ATOM     72  F   UNL A   1      47.118  27.635  30.241  1.00  0.00    -0.206 F 
ATOM     73  C   UNL A   1      49.345  27.069  27.452  1.00  0.00     0.060 A 
BRANCH  73  74
ATOM     74  S   UNL A   1      50.860  26.168  27.060  1.00  0.00     0.124 S 
ATOM     75  O   UNL A   1      50.531  24.828  27.537  1.00  0.00    -0.237 OA
ATOM     76  O   UNL A   1      50.951  26.319  25.611  1.00  0.00    -0.237 OA
ATOM     77  O   UNL A   1      51.883  26.874  27.825  1.00  0.00    -0.744 OA
ENDBRANCH  73  74
ENDBRANCH  52  66
BRANCH  53  78
ATOM     78  C   UNL A   1      38.110  32.361  30.520  1.00  0.00     0.058 A 
ATOM     79  C   UNL A   1      37.637  32.153  31.823  1.00  0.00     0.135 A 
ATOM     80  C   UNL A   1      37.340  33.162  29.663  1.00  0.00     0.135 A 
ATOM     81  F   UNL A   1      38.338  31.391  32.678  1.00  0.00    -0.206 F 
ATOM     82  C   UNL A   1      36.445  32.719  32.265  1.00  0.00     0.059 A 
ATOM     83  C   UNL A   1      36.155  33.756  30.088  1.00  0.00     0.059 A 
ATOM     84  F   UNL A   1      37.762  33.408  28.413  1.00  0.00    -0.206 F 
ATOM     85  C   UNL A   1      35.714  33.525  31.391  1.00  0.00     0.060 A 
BRANCH  85  86
ATOM     86  S   UNL A   1      34.217  34.331  32.000  1.00  0.00     0.124 S 
ATOM     87  O   UNL A   1      33.495  34.586  30.760  1.00  0.00    -0.237 OA
ATOM     88  O   UNL A   1      33.649  33.306  32.870  1.00  0.00    -0.237 OA
ATOM     89  O   UNL A   1      34.730  35.511  32.691  1.00  0.00    -0.744 OA
ENDBRANCH  85  86
ENDBRANCH  53  78
BRANCH  65  90
ATOM     90  C   UNL A   1      44.625  34.845  30.396  1.00  0.00     0.058 A 
ATOM     91  C   UNL A   1      44.732  35.882  29.455  1.00  0.00     0.135 A 
ATOM     92  C   UNL A   1      45.065  35.096  31.704  1.00  0.00     0.135 A 
ATOM     93  F   UNL A   1      44.328  35.689  28.190  1.00  0.00    -0.206 F 
ATOM     94  C   UNL A   1      45.296  37.108  29.788  1.00  0.00     0.059 A 
ATOM     95  C   UNL A   1      45.608  36.325  32.067  1.00  0.00     0.059 A 
ATOM     96  F   UNL A   1      44.971  34.143  32.645  1.00  0.00    -0.206 F 
ATOM     97  C   UNL A   1      45.737  37.317  31.096  1.00  0.00     0.060 A 
BRANCH  97  98
ATOM     98  S   UNL A   1      46.475  38.910  31.519  1.00  0.00     0.124 S 
ATOM     99  O   UNL A   1      46.598  38.797  32.968  1.00  0.00    -0.237 OA
ATOM    100  O   UNL A   1      47.728  38.886  30.772  1.00  0.00    -0.237 OA
ATOM    101  O   UNL A   1      45.489  39.876  31.044  1.00  0.00    -0.744 OA
ENDBRANCH  97  98
ENDBRANCH  65  90
ENDBRANCH  39  40
ENDBRANCH  31  34
ENDBRANCH  29  30
ENDBRANCH   1  29
TORSDOF 17
ENDMDL
