MODEL 1
REMARK VINA RESULT:     -12.1      0.000      0.000
REMARK SMILES CC[C@](C)([NH3+])C(=O)Nc1ccc(C(F)(F)F)cc1C(=O)NCCCNC(=O)c1ccc(-c2c3nc(c(-c4c(F)cc(S(=O)(=O)[O-])cc4F)c4ccc([nH]4)c(-c4c(F)cc(S(=O)(=O)[O-])cc4F)c4nc(c(-c5c(F)cc(S(=O)(=O)[O-])cc5F)c5ccc2[nH]5)C=C4)C=C3)cc1
REMARK SMILES IDX 23 1 22 2 21 3 19 4 20 5 18 7 9 8 10 9 11 10 17 11 12 12
REMARK SMILES IDX 8 13 6 14 7 15 3 17 4 18 2 19 1 20 5 21 13 25 14 26 15 27
REMARK SMILES IDX 16 28 24 29 25 30 26 31 27 33 28 34 29 35 93 36 30 37 92 38
REMARK SMILES IDX 31 39 32 40 33 41 86 42 34 43 91 44 85 45 87 46 35 47 90 48
REMARK SMILES IDX 84 49 83 50 36 52 70 53 49 54 69 55 50 56 53 57 68 58 88 59
REMARK SMILES IDX 51 60 52 61 67 63 89 64 54 65 37 66 38 67 47 68 39 69 40 70
REMARK SMILES IDX 46 71 48 72 41 73 42 74 43 75 44 76 45 77 71 78 72 79 81 80
REMARK SMILES IDX 73 81 74 82 80 83 82 84 75 85 76 86 77 87 78 88 79 89 55 90
REMARK SMILES IDX 56 91 65 92 57 93 58 94 64 95 66 96 59 97 60 98 61 99 62 100
REMARK SMILES IDX 63 101
REMARK H PARENT 21 6 8 16 5 22 5 23 5 24 25 32 87 51 53 62
REMARK Flexibility Score: inf
ROOT
ATOM      1  C   UNL A   1      37.824  23.201  25.445  1.00  0.00     0.042 C 
ENDROOT
BRANCH   1   2
ATOM      2  C   UNL A   1      36.954  21.969  25.593  1.00  0.00     0.118 C 
BRANCH   2   3
ATOM      3  N   UNL A   1      35.910  22.067  26.589  1.00  0.00    -0.352 N 
ATOM      4  C   UNL A   1      34.556  21.861  26.488  1.00  0.00     0.253 C 
ATOM      5  O   UNL A   1      33.898  21.984  27.526  1.00  0.00    -0.269 OA
ATOM      6  H   UNL A   1      36.222  22.324  27.487  1.00  0.00     0.163 HD
BRANCH   4   7
ATOM      7  C   UNL A   1      33.818  21.626  25.198  1.00  0.00     0.063 A 
ATOM      8  C   UNL A   1      33.278  22.562  24.298  1.00  0.00     0.054 A 
ATOM      9  C   UNL A   1      32.361  22.123  23.324  1.00  0.00     0.027 A 
ATOM     10  C   UNL A   1      32.152  20.767  23.082  1.00  0.00     0.015 A 
ATOM     11  C   UNL A   1      33.622  20.251  24.907  1.00  0.00     0.029 A 
ATOM     12  C   UNL A   1      32.842  19.813  23.825  1.00  0.00     0.056 A 
BRANCH   8  13
ATOM     13  N   UNL A   1      33.521  23.939  24.227  1.00  0.00    -0.320 N 
ATOM     14  C   UNL A   1      32.749  25.050  24.405  1.00  0.00     0.285 C 
ATOM     15  O   UNL A   1      33.285  26.110  24.043  1.00  0.00    -0.267 OA
ATOM     16  H   UNL A   1      34.455  24.153  23.999  1.00  0.00     0.170 HD
BRANCH  14  17
ATOM     17  C   UNL A   1      31.411  25.091  25.198  1.00  0.00     0.171 C 
ATOM     18  C   UNL A   1      31.048  26.561  25.473  1.00  0.00     0.090 C 
BRANCH  17  19
ATOM     19  C   UNL A   1      31.592  24.275  26.498  1.00  0.00     0.075 C 
ATOM     20  C   UNL A   1      30.501  23.246  26.770  1.00  0.00     0.011 C 
ENDBRANCH  17  19
BRANCH  17  21
ATOM     21  N   UNL A   1      30.279  24.514  24.462  1.00  0.00    -0.345 N 
ATOM     22  H   UNL A   1      29.849  25.233  23.880  1.00  0.00     0.345 HD
ATOM     23  H   UNL A   1      29.590  24.156  25.124  1.00  0.00     0.345 HD
ATOM     24  H   UNL A   1      30.610  23.751  23.871  1.00  0.00     0.345 HD
ENDBRANCH  17  21
ENDBRANCH  14  17
ENDBRANCH   8  13
BRANCH  12  25
ATOM     25  C   UNL A   1      32.736  18.351  23.466  1.00  0.00     0.416 C 
ATOM     26  F   UNL A   1      32.075  18.141  22.297  1.00  0.00    -0.166 F 
ATOM     27  F   UNL A   1      33.963  17.775  23.308  1.00  0.00    -0.166 F 
ATOM     28  F   UNL A   1      32.100  17.601  24.406  1.00  0.00    -0.166 F 
ENDBRANCH  12  25
ENDBRANCH   4   7
ENDBRANCH   2   3
ENDBRANCH   1   2
BRANCH   1  29
ATOM     29  C   UNL A   1      38.790  23.404  26.610  1.00  0.00     0.118 C 
BRANCH  29  30
ATOM     30  N   UNL A   1      40.192  23.597  26.227  1.00  0.00    -0.352 N 
ATOM     31  C   UNL A   1      41.104  24.581  26.555  1.00  0.00     0.251 C 
ATOM     32  H   UNL A   1      40.547  22.899  25.631  1.00  0.00     0.163 HD
ATOM     33  O   UNL A   1      42.243  24.542  26.108  1.00  0.00    -0.269 OA
BRANCH  31  34
ATOM     34  C   UNL A   1      40.685  25.727  27.391  1.00  0.00     0.039 A 
ATOM     35  C   UNL A   1      39.813  25.505  28.461  1.00  0.00     0.014 A 
ATOM     36  C   UNL A   1      41.214  26.994  27.177  1.00  0.00     0.014 A 
ATOM     37  C   UNL A   1      39.602  26.518  29.400  1.00  0.00     0.010 A 
ATOM     38  C   UNL A   1      41.117  27.949  28.180  1.00  0.00     0.010 A 
ATOM     39  C   UNL A   1      40.324  27.718  29.314  1.00  0.00    -0.014 A 
BRANCH  39  40
ATOM     40  C   UNL A   1      40.292  28.747  30.389  1.00  0.00     0.031 A 
ATOM     41  C   UNL A   1      41.231  28.626  31.562  1.00  0.00     0.074 A 
ATOM     42  C   UNL A   1      39.349  29.713  30.377  1.00  0.00     0.049 A 
ATOM     43  N   UNL A   1      41.227  29.278  32.696  1.00  0.00    -0.248 NA
ATOM     44  C   UNL A   1      42.277  27.594  31.468  1.00  0.00     0.031 C 
ATOM     45  C   UNL A   1      38.337  29.907  29.334  1.00  0.00     0.029 A 
ATOM     46  N   UNL A   1      39.078  30.712  31.281  1.00  0.00    -0.354 N 
ATOM     47  C   UNL A   1      42.237  28.705  33.462  1.00  0.00     0.074 A 
ATOM     48  C   UNL A   1      42.787  27.614  32.690  1.00  0.00     0.031 C 
ATOM     49  C   UNL A   1      37.586  30.978  29.637  1.00  0.00     0.029 A 
ATOM     50  C   UNL A   1      38.026  31.520  30.918  1.00  0.00     0.049 A 
ATOM     51  H   UNL A   1      39.591  30.837  32.112  1.00  0.00     0.167 HD
ATOM     52  C   UNL A   1      42.689  29.074  34.684  1.00  0.00     0.037 A 
ATOM     53  C   UNL A   1      37.473  32.574  31.549  1.00  0.00     0.037 A 
ATOM     54  C   UNL A   1      42.190  30.207  35.415  1.00  0.00     0.049 A 
ATOM     55  C   UNL A   1      38.029  32.999  32.882  1.00  0.00     0.074 A 
ATOM     56  C   UNL A   1      42.616  30.702  36.633  1.00  0.00     0.029 A 
ATOM     57  N   UNL A   1      41.169  31.038  34.978  1.00  0.00    -0.354 N 
ATOM     58  N   UNL A   1      38.999  32.459  33.579  1.00  0.00    -0.248 NA
ATOM     59  C   UNL A   1      37.414  34.174  33.515  1.00  0.00     0.031 C 
ATOM     60  C   UNL A   1      41.845  31.829  36.940  1.00  0.00     0.029 A 
ATOM     61  C   UNL A   1      40.958  32.050  35.898  1.00  0.00     0.049 A 
ATOM     62  H   UNL A   1      40.669  30.926  34.137  1.00  0.00     0.167 HD
ATOM     63  C   UNL A   1      39.134  33.248  34.716  1.00  0.00     0.074 A 
ATOM     64  C   UNL A   1      38.148  34.305  34.611  1.00  0.00     0.031 C 
ATOM     65  C   UNL A   1      39.991  33.109  35.756  1.00  0.00     0.037 A 
BRANCH  52  66
ATOM     66  C   UNL A   1      43.805  28.263  35.282  1.00  0.00     0.058 A 
ATOM     67  C   UNL A   1      43.542  27.177  36.134  1.00  0.00     0.135 A 
ATOM     68  C   UNL A   1      45.145  28.566  35.001  1.00  0.00     0.135 A 
ATOM     69  F   UNL A   1      42.278  26.856  36.451  1.00  0.00    -0.206 F 
ATOM     70  C   UNL A   1      44.570  26.445  36.716  1.00  0.00     0.059 A 
ATOM     71  C   UNL A   1      46.190  27.828  35.550  1.00  0.00     0.059 A 
ATOM     72  F   UNL A   1      45.452  29.594  34.192  1.00  0.00    -0.206 F 
ATOM     73  C   UNL A   1      45.892  26.781  36.422  1.00  0.00     0.060 A 
BRANCH  73  74
ATOM     74  S   UNL A   1      47.216  25.826  37.191  1.00  0.00     0.124 S 
ATOM     75  O   UNL A   1      48.112  25.607  36.059  1.00  0.00    -0.237 OA
ATOM     76  O   UNL A   1      47.707  26.741  38.219  1.00  0.00    -0.237 OA
ATOM     77  O   UNL A   1      46.531  24.638  37.690  1.00  0.00    -0.744 OA
ENDBRANCH  73  74
ENDBRANCH  52  66
BRANCH  53  78
ATOM     78  C   UNL A   1      36.356  33.330  30.921  1.00  0.00     0.058 A 
ATOM     79  C   UNL A   1      36.594  34.169  29.822  1.00  0.00     0.135 A 
ATOM     80  C   UNL A   1      35.042  33.243  31.405  1.00  0.00     0.135 A 
ATOM     81  F   UNL A   1      37.835  34.288  29.326  1.00  0.00    -0.206 F 
ATOM     82  C   UNL A   1      35.576  34.919  29.241  1.00  0.00     0.059 A 
ATOM     83  C   UNL A   1      34.002  33.965  30.826  1.00  0.00     0.059 A 
ATOM     84  F   UNL A   1      34.758  32.439  32.441  1.00  0.00    -0.206 F 
ATOM     85  C   UNL A   1      34.283  34.813  29.753  1.00  0.00     0.060 A 
BRANCH  85  86
ATOM     86  S   UNL A   1      32.960  35.770  28.979  1.00  0.00     0.124 S 
ATOM     87  O   UNL A   1      32.163  36.156  30.138  1.00  0.00    -0.237 OA
ATOM     88  O   UNL A   1      33.699  36.846  28.325  1.00  0.00    -0.237 OA
ATOM     89  O   UNL A   1      32.338  34.809  28.075  1.00  0.00    -0.744 OA
ENDBRANCH  85  86
ENDBRANCH  53  78
BRANCH  65  90
ATOM     90  C   UNL A   1      39.944  34.150  36.835  1.00  0.00     0.058 A 
ATOM     91  C   UNL A   1      40.664  35.349  36.732  1.00  0.00     0.135 A 
ATOM     92  C   UNL A   1      39.115  33.972  37.954  1.00  0.00     0.135 A 
ATOM     93  F   UNL A   1      41.476  35.561  35.683  1.00  0.00    -0.206 F 
ATOM     94  C   UNL A   1      40.573  36.333  37.709  1.00  0.00     0.059 A 
ATOM     95  C   UNL A   1      38.992  34.953  38.931  1.00  0.00     0.059 A 
ATOM     96  F   UNL A   1      38.399  32.844  38.092  1.00  0.00    -0.206 F 
ATOM     97  C   UNL A   1      39.732  36.127  38.804  1.00  0.00     0.060 A 
BRANCH  97  98
ATOM     98  S   UNL A   1      39.581  37.434  40.041  1.00  0.00     0.124 S 
ATOM     99  O   UNL A   1      39.138  36.682  41.209  1.00  0.00    -0.237 OA
ATOM    100  O   UNL A   1      40.941  37.963  40.106  1.00  0.00    -0.237 OA
ATOM    101  O   UNL A   1      38.592  38.337  39.460  1.00  0.00    -0.744 OA
ENDBRANCH  97  98
ENDBRANCH  65  90
ENDBRANCH  39  40
ENDBRANCH  31  34
ENDBRANCH  29  30
ENDBRANCH   1  29
TORSDOF 18
ENDMDL
MODEL 2
REMARK VINA RESULT:     -12.0      6.396      8.637
REMARK SMILES CC[C@](C)([NH3+])C(=O)Nc1ccc(C(F)(F)F)cc1C(=O)NCCCNC(=O)c1ccc(-c2c3nc(c(-c4c(F)cc(S(=O)(=O)[O-])cc4F)c4ccc([nH]4)c(-c4c(F)cc(S(=O)(=O)[O-])cc4F)c4nc(c(-c5c(F)cc(S(=O)(=O)[O-])cc5F)c5ccc2[nH]5)C=C4)C=C3)cc1
REMARK SMILES IDX 23 1 22 2 21 3 19 4 20 5 18 7 9 8 10 9 11 10 17 11 12 12
REMARK SMILES IDX 8 13 6 14 7 15 3 17 4 18 2 19 1 20 5 21 13 25 14 26 15 27
REMARK SMILES IDX 16 28 24 29 25 30 26 31 27 33 28 34 29 35 93 36 30 37 92 38
REMARK SMILES IDX 31 39 32 40 33 41 86 42 34 43 91 44 85 45 87 46 35 47 90 48
REMARK SMILES IDX 84 49 83 50 36 52 70 53 49 54 69 55 50 56 53 57 68 58 88 59
REMARK SMILES IDX 51 60 52 61 67 63 89 64 54 65 37 66 38 67 47 68 39 69 40 70
REMARK SMILES IDX 46 71 48 72 41 73 42 74 43 75 44 76 45 77 71 78 72 79 81 80
REMARK SMILES IDX 73 81 74 82 80 83 82 84 75 85 76 86 77 87 78 88 79 89 55 90
REMARK SMILES IDX 56 91 65 92 57 93 58 94 64 95 66 96 59 97 60 98 61 99 62 100
REMARK SMILES IDX 63 101
REMARK H PARENT 21 6 8 16 5 22 5 23 5 24 25 32 87 51 53 62
REMARK Flexibility Score: inf
ROOT
ATOM      1  C   UNL A   1      37.856  20.731  25.182  1.00  0.00     0.042 C 
ENDROOT
BRANCH   1   2
ATOM      2  C   UNL A   1      36.920  21.912  25.345  1.00  0.00     0.118 C 
BRANCH   2   3
ATOM      3  N   UNL A   1      36.013  21.829  26.468  1.00  0.00    -0.352 N 
ATOM      4  C   UNL A   1      34.657  21.610  26.508  1.00  0.00     0.253 C 
ATOM      5  O   UNL A   1      34.138  21.555  27.627  1.00  0.00    -0.269 OA
ATOM      6  H   UNL A   1      36.437  21.951  27.348  1.00  0.00     0.163 HD
BRANCH   4   7
ATOM      7  C   UNL A   1      33.761  21.561  25.300  1.00  0.00     0.063 A 
ATOM      8  C   UNL A   1      32.954  20.508  24.833  1.00  0.00     0.054 A 
ATOM      9  C   UNL A   1      32.447  20.567  23.521  1.00  0.00     0.027 A 
ATOM     10  C   UNL A   1      32.529  21.732  22.762  1.00  0.00     0.015 A 
ATOM     11  C   UNL A   1      33.797  22.750  24.527  1.00  0.00     0.029 A 
ATOM     12  C   UNL A   1      33.142  22.865  23.290  1.00  0.00     0.056 A 
BRANCH   8  13
ATOM     13  N   UNL A   1      32.568  19.344  25.509  1.00  0.00    -0.320 N 
ATOM     14  C   UNL A   1      32.839  18.017  25.347  1.00  0.00     0.285 C 
ATOM     15  O   UNL A   1      32.129  17.261  26.029  1.00  0.00    -0.267 OA
ATOM     16  H   UNL A   1      31.967  19.524  26.269  1.00  0.00     0.170 HD
BRANCH  14  17
ATOM     17  C   UNL A   1      34.064  17.443  24.579  1.00  0.00     0.171 C 
ATOM     18  C   UNL A   1      33.700  17.325  23.088  1.00  0.00     0.090 C 
BRANCH  17  19
ATOM     19  C   UNL A   1      34.434  16.079  25.205  1.00  0.00     0.075 C 
ATOM     20  C   UNL A   1      35.904  15.917  25.574  1.00  0.00     0.011 C 
ENDBRANCH  17  19
BRANCH  17  21
ATOM     21  N   UNL A   1      35.252  18.303  24.649  1.00  0.00    -0.345 N 
ATOM     22  H   UNL A   1      35.741  18.283  23.754  1.00  0.00     0.345 HD
ATOM     23  H   UNL A   1      35.875  17.965  25.384  1.00  0.00     0.345 HD
ATOM     24  H   UNL A   1      34.969  19.261  24.860  1.00  0.00     0.345 HD
ENDBRANCH  17  21
ENDBRANCH  14  17
ENDBRANCH   8  13
BRANCH  12  25
ATOM     25  C   UNL A   1      33.100  24.171  22.535  1.00  0.00     0.416 C 
ATOM     26  F   UNL A   1      33.219  24.008  21.191  1.00  0.00    -0.166 F 
ATOM     27  F   UNL A   1      31.922  24.832  22.726  1.00  0.00    -0.166 F 
ATOM     28  F   UNL A   1      34.073  25.048  22.903  1.00  0.00    -0.166 F 
ENDBRANCH  12  25
ENDBRANCH   4   7
ENDBRANCH   2   3
ENDBRANCH   1   2
BRANCH   1  29
ATOM     29  C   UNL A   1      39.200  20.922  25.882  1.00  0.00     0.118 C 
BRANCH  29  30
ATOM     30  N   UNL A   1      40.061  19.737  25.907  1.00  0.00    -0.352 N 
ATOM     31  C   UNL A   1      41.414  19.592  26.144  1.00  0.00     0.251 C 
ATOM     32  H   UNL A   1      39.590  18.892  25.723  1.00  0.00     0.163 HD
ATOM     33  O   UNL A   1      41.932  18.484  26.111  1.00  0.00    -0.269 OA
BRANCH  31  34
ATOM     34  C   UNL A   1      42.256  20.787  26.369  1.00  0.00     0.039 A 
ATOM     35  C   UNL A   1      42.796  21.455  25.266  1.00  0.00     0.014 A 
ATOM     36  C   UNL A   1      42.441  21.296  27.649  1.00  0.00     0.014 A 
ATOM     37  C   UNL A   1      43.383  22.712  25.440  1.00  0.00     0.010 A 
ATOM     38  C   UNL A   1      42.893  22.599  27.803  1.00  0.00     0.010 A 
ATOM     39  C   UNL A   1      43.355  23.332  26.699  1.00  0.00    -0.014 A 
BRANCH  39  40
ATOM     40  C   UNL A   1      43.781  24.743  26.901  1.00  0.00     0.031 A 
ATOM     41  C   UNL A   1      45.228  25.118  26.709  1.00  0.00     0.074 A 
ATOM     42  C   UNL A   1      42.904  25.657  27.371  1.00  0.00     0.049 A 
ATOM     43  N   UNL A   1      45.847  26.223  27.035  1.00  0.00    -0.248 NA
ATOM     44  C   UNL A   1      46.105  24.090  26.125  1.00  0.00     0.031 C 
ATOM     45  C   UNL A   1      41.488  25.413  27.662  1.00  0.00     0.029 A 
ATOM     46  N   UNL A   1      43.080  26.979  27.701  1.00  0.00    -0.354 N 
ATOM     47  C   UNL A   1      47.188  26.004  26.737  1.00  0.00     0.074 A 
ATOM     48  C   UNL A   1      47.300  24.642  26.266  1.00  0.00     0.031 C 
ATOM     49  C   UNL A   1      40.919  26.553  28.087  1.00  0.00     0.029 A 
ATOM     50  C   UNL A   1      41.935  27.597  28.149  1.00  0.00     0.049 A 
ATOM     51  H   UNL A   1      43.946  27.441  27.624  1.00  0.00     0.167 HD
ATOM     52  C   UNL A   1      48.228  26.869  26.814  1.00  0.00     0.037 A 
ATOM     53  C   UNL A   1      41.729  28.861  28.567  1.00  0.00     0.037 A 
ATOM     54  C   UNL A   1      48.098  28.244  27.211  1.00  0.00     0.049 A 
ATOM     55  C   UNL A   1      42.889  29.819  28.594  1.00  0.00     0.074 A 
ATOM     56  C   UNL A   1      49.076  29.220  27.270  1.00  0.00     0.029 A 
ATOM     57  N   UNL A   1      46.907  28.846  27.590  1.00  0.00    -0.354 N 
ATOM     58  N   UNL A   1      44.145  29.599  28.286  1.00  0.00    -0.248 NA
ATOM     59  C   UNL A   1      42.607  31.195  29.027  1.00  0.00     0.031 C 
ATOM     60  C   UNL A   1      48.479  30.412  27.695  1.00  0.00     0.029 A 
ATOM     61  C   UNL A   1      47.124  30.183  27.874  1.00  0.00     0.049 A 
ATOM     62  H   UNL A   1      46.037  28.390  27.648  1.00  0.00     0.167 HD
ATOM     63  C   UNL A   1      44.795  30.816  28.455  1.00  0.00     0.074 A 
ATOM     64  C   UNL A   1      43.794  31.770  28.889  1.00  0.00     0.031 C 
ATOM     65  C   UNL A   1      46.104  31.119  28.274  1.00  0.00     0.037 A 
BRANCH  52  66
ATOM     66  C   UNL A   1      49.586  26.353  26.426  1.00  0.00     0.058 A 
ATOM     67  C   UNL A   1      50.407  25.690  27.352  1.00  0.00     0.135 A 
ATOM     68  C   UNL A   1      50.070  26.517  25.120  1.00  0.00     0.135 A 
ATOM     69  F   UNL A   1      50.000  25.524  28.621  1.00  0.00    -0.206 F 
ATOM     70  C   UNL A   1      51.677  25.242  27.008  1.00  0.00     0.059 A 
ATOM     71  C   UNL A   1      51.327  26.049  24.745  1.00  0.00     0.059 A 
ATOM     72  F   UNL A   1      49.325  27.143  24.194  1.00  0.00    -0.206 F 
ATOM     73  C   UNL A   1      52.130  25.430  25.701  1.00  0.00     0.060 A 
BRANCH  73  74
ATOM     74  S   UNL A   1      53.784  24.849  25.271  1.00  0.00     0.124 S 
ATOM     75  O   UNL A   1      54.536  25.198  26.473  1.00  0.00    -0.237 OA
ATOM     76  O   UNL A   1      53.568  23.422  25.051  1.00  0.00    -0.237 OA
ATOM     77  O   UNL A   1      54.113  25.621  24.077  1.00  0.00    -0.744 OA
ENDBRANCH  73  74
ENDBRANCH  52  66
BRANCH  53  78
ATOM     78  C   UNL A   1      40.367  29.314  28.960  1.00  0.00     0.058 A 
ATOM     79  C   UNL A   1      39.402  29.602  27.983  1.00  0.00     0.135 A 
ATOM     80  C   UNL A   1      40.004  29.478  30.306  1.00  0.00     0.135 A 
ATOM     81  F   UNL A   1      39.704  29.463  26.683  1.00  0.00    -0.206 F 
ATOM     82  C   UNL A   1      38.136  30.066  28.321  1.00  0.00     0.059 A 
ATOM     83  C   UNL A   1      38.735  29.919  30.670  1.00  0.00     0.059 A 
ATOM     84  F   UNL A   1      40.883  29.196  31.280  1.00  0.00    -0.206 F 
ATOM     85  C   UNL A   1      37.812  30.225  29.669  1.00  0.00     0.060 A 
BRANCH  85  86
ATOM     86  S   UNL A   1      36.156  30.805  30.102  1.00  0.00     0.124 S 
ATOM     87  O   UNL A   1      35.378  30.347  28.957  1.00  0.00    -0.237 OA
ATOM     88  O   UNL A   1      35.906  30.112  31.362  1.00  0.00    -0.237 OA
ATOM     89  O   UNL A   1      36.327  32.250  30.214  1.00  0.00    -0.744 OA
ENDBRANCH  85  86
ENDBRANCH  53  78
BRANCH  65  90
ATOM     90  C   UNL A   1      46.520  32.544  28.488  1.00  0.00     0.058 A 
ATOM     91  C   UNL A   1      46.997  32.992  29.728  1.00  0.00     0.135 A 
ATOM     92  C   UNL A   1      46.501  33.454  27.419  1.00  0.00     0.135 A 
ATOM     93  F   UNL A   1      47.028  32.159  30.781  1.00  0.00    -0.206 F 
ATOM     94  C   UNL A   1      47.433  34.300  29.906  1.00  0.00     0.059 A 
ATOM     95  C   UNL A   1      46.953  34.761  27.569  1.00  0.00     0.059 A 
ATOM     96  F   UNL A   1      46.061  33.069  26.210  1.00  0.00    -0.206 F 
ATOM     97  C   UNL A   1      47.409  35.176  28.819  1.00  0.00     0.060 A 
BRANCH  97  98
ATOM     98  S   UNL A   1      48.026  36.859  29.047  1.00  0.00     0.124 S 
ATOM     99  O   UNL A   1      49.464  36.665  28.901  1.00  0.00    -0.237 OA
ATOM    100  O   UNL A   1      47.371  37.583  27.962  1.00  0.00    -0.237 OA
ATOM    101  O   UNL A   1      47.569  37.207  30.389  1.00  0.00    -0.744 OA
ENDBRANCH  97  98
ENDBRANCH  65  90
ENDBRANCH  39  40
ENDBRANCH  31  34
ENDBRANCH  29  30
ENDBRANCH   1  29
TORSDOF 18
ENDMDL
MODEL 3
REMARK VINA RESULT:     -12.0      6.825     12.289
REMARK SMILES CC[C@](C)([NH3+])C(=O)Nc1ccc(C(F)(F)F)cc1C(=O)NCCCNC(=O)c1ccc(-c2c3nc(c(-c4c(F)cc(S(=O)(=O)[O-])cc4F)c4ccc([nH]4)c(-c4c(F)cc(S(=O)(=O)[O-])cc4F)c4nc(c(-c5c(F)cc(S(=O)(=O)[O-])cc5F)c5ccc2[nH]5)C=C4)C=C3)cc1
REMARK SMILES IDX 23 1 22 2 21 3 19 4 20 5 18 7 9 8 10 9 11 10 17 11 12 12
REMARK SMILES IDX 8 13 6 14 7 15 3 17 4 18 2 19 1 20 5 21 13 25 14 26 15 27
REMARK SMILES IDX 16 28 24 29 25 30 26 31 27 33 28 34 29 35 93 36 30 37 92 38
REMARK SMILES IDX 31 39 32 40 33 41 86 42 34 43 91 44 85 45 87 46 35 47 90 48
REMARK SMILES IDX 84 49 83 50 36 52 70 53 49 54 69 55 50 56 53 57 68 58 88 59
REMARK SMILES IDX 51 60 52 61 67 63 89 64 54 65 37 66 38 67 47 68 39 69 40 70
REMARK SMILES IDX 46 71 48 72 41 73 42 74 43 75 44 76 45 77 71 78 72 79 81 80
REMARK SMILES IDX 73 81 74 82 80 83 82 84 75 85 76 86 77 87 78 88 79 89 55 90
REMARK SMILES IDX 56 91 65 92 57 93 58 94 64 95 66 96 59 97 60 98 61 99 62 100
REMARK SMILES IDX 63 101
REMARK H PARENT 21 6 8 16 5 22 5 23 5 24 25 32 87 51 53 62
REMARK Flexibility Score: inf
ROOT
ATOM      1  C   UNL A   1      33.674  30.880  27.404  1.00  0.00     0.042 C 
ENDROOT
BRANCH   1   2
ATOM      2  C   UNL A   1      33.010  29.795  26.581  1.00  0.00     0.118 C 
BRANCH   2   3
ATOM      3  N   UNL A   1      33.478  29.682  25.217  1.00  0.00    -0.352 N 
ATOM      4  C   UNL A   1      32.853  29.197  24.095  1.00  0.00     0.253 C 
ATOM      5  O   UNL A   1      33.489  29.254  23.037  1.00  0.00    -0.269 OA
ATOM      6  H   UNL A   1      34.397  30.004  25.070  1.00  0.00     0.163 HD
BRANCH   4   7
ATOM      7  C   UNL A   1      31.520  28.499  24.090  1.00  0.00     0.063 A 
ATOM      8  C   UNL A   1      31.191  27.206  24.535  1.00  0.00     0.054 A 
ATOM      9  C   UNL A   1      29.959  26.643  24.149  1.00  0.00     0.027 A 
ATOM     10  C   UNL A   1      28.970  27.410  23.538  1.00  0.00     0.015 A 
ATOM     11  C   UNL A   1      30.485  29.272  23.504  1.00  0.00     0.029 A 
ATOM     12  C   UNL A   1      29.197  28.759  23.277  1.00  0.00     0.056 A 
BRANCH   8  13
ATOM     13  N   UNL A   1      31.948  26.345  25.339  1.00  0.00    -0.320 N 
ATOM     14  C   UNL A   1      32.741  25.263  25.088  1.00  0.00     0.285 C 
ATOM     15  O   UNL A   1      33.078  24.629  26.100  1.00  0.00    -0.267 OA
ATOM     16  H   UNL A   1      31.897  26.570  26.296  1.00  0.00     0.170 HD
BRANCH  14  17
ATOM     17  C   UNL A   1      33.395  24.934  23.715  1.00  0.00     0.171 C 
ATOM     18  C   UNL A   1      32.361  24.204  22.840  1.00  0.00     0.090 C 
BRANCH  17  19
ATOM     19  C   UNL A   1      34.658  24.081  23.972  1.00  0.00     0.075 C 
ATOM     20  C   UNL A   1      34.807  22.862  23.067  1.00  0.00     0.011 C 
ENDBRANCH  17  19
BRANCH  17  21
ATOM     21  N   UNL A   1      33.807  26.126  22.964  1.00  0.00    -0.345 N 
ATOM     22  H   UNL A   1      33.084  26.842  23.037  1.00  0.00     0.345 HD
ATOM     23  H   UNL A   1      33.943  25.880  21.982  1.00  0.00     0.345 HD
ATOM     24  H   UNL A   1      34.681  26.486  23.347  1.00  0.00     0.345 HD
ENDBRANCH  17  21
ENDBRANCH  14  17
ENDBRANCH   8  13
BRANCH  12  25
ATOM     25  C   UNL A   1      28.079  29.629  22.757  1.00  0.00     0.416 C 
ATOM     26  F   UNL A   1      26.859  29.259  23.228  1.00  0.00    -0.166 F 
ATOM     27  F   UNL A   1      28.238  30.934  23.119  1.00  0.00    -0.166 F 
ATOM     28  F   UNL A   1      27.979  29.638  21.400  1.00  0.00    -0.166 F 
ENDBRANCH  12  25
ENDBRANCH   4   7
ENDBRANCH   2   3
ENDBRANCH   1   2
BRANCH   1  29
ATOM     29  C   UNL A   1      35.013  30.453  28.002  1.00  0.00     0.118 C 
BRANCH  29  30
ATOM     30  N   UNL A   1      35.300  30.994  29.333  1.00  0.00    -0.352 N 
ATOM     31  C   UNL A   1      36.423  30.914  30.133  1.00  0.00     0.251 C 
ATOM     32  H   UNL A   1      34.558  31.508  29.728  1.00  0.00     0.163 HD
ATOM     33  O   UNL A   1      36.438  31.451  31.233  1.00  0.00    -0.269 OA
BRANCH  31  34
ATOM     34  C   UNL A   1      37.587  30.115  29.692  1.00  0.00     0.039 A 
ATOM     35  C   UNL A   1      37.981  30.171  28.352  1.00  0.00     0.014 A 
ATOM     36  C   UNL A   1      38.337  29.387  30.607  1.00  0.00     0.014 A 
ATOM     37  C   UNL A   1      39.210  29.625  27.971  1.00  0.00     0.010 A 
ATOM     38  C   UNL A   1      39.616  28.972  30.260  1.00  0.00     0.010 A 
ATOM     39  C   UNL A   1      40.077  29.101  28.941  1.00  0.00    -0.014 A 
BRANCH  39  40
ATOM     40  C   UNL A   1      41.472  28.691  28.626  1.00  0.00     0.031 A 
ATOM     41  C   UNL A   1      42.568  29.726  28.621  1.00  0.00     0.074 A 
ATOM     42  C   UNL A   1      41.737  27.428  28.228  1.00  0.00     0.049 A 
ATOM     43  N   UNL A   1      43.793  29.633  28.173  1.00  0.00    -0.248 NA
ATOM     44  C   UNL A   1      42.219  31.061  29.137  1.00  0.00     0.031 C 
ATOM     45  C   UNL A   1      40.758  26.342  28.126  1.00  0.00     0.029 A 
ATOM     46  N   UNL A   1      42.912  26.845  27.821  1.00  0.00    -0.354 N 
ATOM     47  C   UNL A   1      44.342  30.904  28.312  1.00  0.00     0.074 A 
ATOM     48  C   UNL A   1      43.298  31.762  28.824  1.00  0.00     0.031 C 
ATOM     49  C   UNL A   1      41.379  25.220  27.725  1.00  0.00     0.029 A 
ATOM     50  C   UNL A   1      42.788  25.515  27.492  1.00  0.00     0.049 A 
ATOM     51  H   UNL A   1      43.765  27.335  27.770  1.00  0.00     0.167 HD
ATOM     52  C   UNL A   1      45.610  31.313  28.069  1.00  0.00     0.037 A 
ATOM     53  C   UNL A   1      43.705  24.635  27.047  1.00  0.00     0.037 A 
ATOM     54  C   UNL A   1      46.664  30.439  27.631  1.00  0.00     0.049 A 
ATOM     55  C   UNL A   1      45.121  25.100  26.835  1.00  0.00     0.074 A 
ATOM     56  C   UNL A   1      47.995  30.738  27.409  1.00  0.00     0.029 A 
ATOM     57  N   UNL A   1      46.509  29.084  27.376  1.00  0.00    -0.354 N 
ATOM     58  N   UNL A   1      45.625  26.300  26.994  1.00  0.00    -0.248 NA
ATOM     59  C   UNL A   1      46.092  24.094  26.380  1.00  0.00     0.031 C 
ATOM     60  C   UNL A   1      48.646  29.566  27.009  1.00  0.00     0.029 A 
ATOM     61  C   UNL A   1      47.723  28.532  27.009  1.00  0.00     0.049 A 
ATOM     62  H   UNL A   1      45.661  28.589  27.447  1.00  0.00     0.167 HD
ATOM     63  C   UNL A   1      46.978  26.185  26.693  1.00  0.00     0.074 A 
ATOM     64  C   UNL A   1      47.214  24.799  26.345  1.00  0.00     0.031 C 
ATOM     65  C   UNL A   1      47.938  27.141  26.697  1.00  0.00     0.037 A 
BRANCH  52  66
ATOM     66  C   UNL A   1      45.926  32.763  28.309  1.00  0.00     0.058 A 
ATOM     67  C   UNL A   1      45.805  33.716  27.284  1.00  0.00     0.135 A 
ATOM     68  C   UNL A   1      46.348  33.208  29.571  1.00  0.00     0.135 A 
ATOM     69  F   UNL A   1      45.424  33.341  26.053  1.00  0.00    -0.206 F 
ATOM     70  C   UNL A   1      46.129  35.052  27.491  1.00  0.00     0.059 A 
ATOM     71  C   UNL A   1      46.649  34.546  29.808  1.00  0.00     0.059 A 
ATOM     72  F   UNL A   1      46.480  32.339  30.586  1.00  0.00    -0.206 F 
ATOM     73  C   UNL A   1      46.555  35.457  28.757  1.00  0.00     0.060 A 
BRANCH  73  74
ATOM     74  S   UNL A   1      46.979  37.193  29.009  1.00  0.00     0.124 S 
ATOM     75  O   UNL A   1      47.589  37.153  30.335  1.00  0.00    -0.237 OA
ATOM     76  O   UNL A   1      47.893  37.457  27.900  1.00  0.00    -0.237 OA
ATOM     77  O   UNL A   1      45.689  37.871  28.929  1.00  0.00    -0.744 OA
ENDBRANCH  73  74
ENDBRANCH  52  66
BRANCH  53  78
ATOM     78  C   UNL A   1      43.334  23.214  26.806  1.00  0.00     0.058 A 
ATOM     79  C   UNL A   1      43.072  22.353  27.882  1.00  0.00     0.135 A 
ATOM     80  C   UNL A   1      43.243  22.685  25.509  1.00  0.00     0.135 A 
ATOM     81  F   UNL A   1      43.149  22.812  29.141  1.00  0.00    -0.206 F 
ATOM     82  C   UNL A   1      42.762  21.011  27.687  1.00  0.00     0.059 A 
ATOM     83  C   UNL A   1      42.912  21.351  25.287  1.00  0.00     0.059 A 
ATOM     84  F   UNL A   1      43.464  23.471  24.444  1.00  0.00    -0.206 F 
ATOM     85  C   UNL A   1      42.688  20.518  26.384  1.00  0.00     0.060 A 
BRANCH  85  86
ATOM     86  S   UNL A   1      42.262  18.780  26.136  1.00  0.00     0.124 S 
ATOM     87  O   UNL A   1      43.204  18.395  25.092  1.00  0.00    -0.237 OA
ATOM     88  O   UNL A   1      42.505  18.209  27.458  1.00  0.00    -0.237 OA
ATOM     89  O   UNL A   1      40.860  18.834  25.734  1.00  0.00    -0.744 OA
ENDBRANCH  85  86
ENDBRANCH  53  78
BRANCH  65  90
ATOM     90  C   UNL A   1      49.339  26.715  26.372  1.00  0.00     0.058 A 
ATOM     91  C   UNL A   1      50.172  26.130  27.336  1.00  0.00     0.135 A 
ATOM     92  C   UNL A   1      49.828  26.835  25.061  1.00  0.00     0.135 A 
ATOM     93  F   UNL A   1      49.750  26.001  28.604  1.00  0.00    -0.206 F 
ATOM     94  C   UNL A   1      51.450  25.687  27.015  1.00  0.00     0.059 A 
ATOM     95  C   UNL A   1      51.095  26.379  24.713  1.00  0.00     0.059 A 
ATOM     96  F   UNL A   1      49.064  27.381  24.102  1.00  0.00    -0.206 F 
ATOM     97  C   UNL A   1      51.901  25.814  25.700  1.00  0.00     0.060 A 
BRANCH  97  98
ATOM     98  S   UNL A   1      53.543  25.188  25.282  1.00  0.00     0.124 S 
ATOM     99  O   UNL A   1      53.717  25.703  23.928  1.00  0.00    -0.237 OA
ATOM    100  O   UNL A   1      54.383  25.802  26.306  1.00  0.00    -0.237 OA
ATOM    101  O   UNL A   1      53.391  23.740  25.391  1.00  0.00    -0.744 OA
ENDBRANCH  97  98
ENDBRANCH  65  90
ENDBRANCH  39  40
ENDBRANCH  31  34
ENDBRANCH  29  30
ENDBRANCH   1  29
TORSDOF 18
ENDMDL
