MODEL 1
REMARK VINA RESULT:     -13.0      0.000      0.000
REMARK SMILES Cc1cc(C(=O)NCCCNC(=O)c2ccc(-c3c4nc(c(-c5c(F)cc(S(=O)(=O)[O-])cc5F)c5ccc([nH]5)c(-c5c(F)cc(S(=O)(=O)[O-])cc5F)c5nc(c(-c6c(F)cc(S(=O)(=O)[O-])cc6F)c6ccc3[nH]6)C=C5)C=C4)cc2)ccc1-c1ccc(C(=O)N2CCCCC2)cc1
REMARK SMILES IDX 9 1 8 2 7 3 5 4 6 5 4 7 1 8 2 9 3 10 82 11 81 12 80 13 83 14
REMARK SMILES IDX 84 15 96 16 85 17 95 18 86 19 87 20 88 21 89 22 90 23 94 24
REMARK SMILES IDX 91 25 93 26 92 27 10 28 11 29 12 30 13 32 14 33 15 34 79 35
REMARK SMILES IDX 16 36 78 37 17 38 18 39 19 40 72 41 20 42 77 43 71 44 73 45
REMARK SMILES IDX 21 46 76 47 70 48 69 49 22 51 56 52 35 53 55 54 36 55 39 56
REMARK SMILES IDX 54 57 74 58 37 59 38 60 53 62 75 63 40 64 23 65 24 66 33 67
REMARK SMILES IDX 25 68 26 69 32 70 34 71 27 72 28 73 29 74 30 75 31 76 57 77
REMARK SMILES IDX 58 78 67 79 59 80 60 81 66 82 68 83 61 84 62 85 63 86 64 87
REMARK SMILES IDX 65 88 41 89 42 90 51 91 43 92 44 93 50 94 52 95 45 96 46 97
REMARK SMILES IDX 47 98 48 99 49 100
REMARK H PARENT 7 6 11 31 73 50 39 61
REMARK Flexibility Score: inf
ROOT
ATOM      1  C   UNL A   1      44.024  22.090  25.454  1.00  0.00     0.042 C 
ENDROOT
BRANCH   1   2
ATOM      2  C   UNL A   1      43.372  20.619  25.596  1.00  0.00     0.118 C 
BRANCH   2   3
ATOM      3  N   UNL A   1      42.683  20.233  26.852  1.00  0.00    -0.352 N 
ATOM      4  C   UNL A   1      41.387  20.061  27.291  1.00  0.00     0.251 C 
ATOM      5  O   UNL A   1      41.103  19.407  28.293  1.00  0.00    -0.269 OA
ATOM      6  H   UNL A   1      43.331  20.046  27.570  1.00  0.00     0.163 HD
BRANCH   4   7
ATOM      7  C   UNL A   1      40.286  20.693  26.561  1.00  0.00     0.040 A 
ATOM      8  C   UNL A   1      38.460  24.019  26.385  1.00  0.00     0.045 C 
ATOM      9  C   UNL A   1      38.774  22.558  26.199  1.00  0.00    -0.042 A 
ATOM     10  C   UNL A   1      39.937  22.035  26.783  1.00  0.00     0.018 A 
ATOM     11  C   UNL A   1      37.979  21.694  25.415  1.00  0.00    -0.015 A 
ATOM     12  C   UNL A   1      38.439  20.409  25.089  1.00  0.00     0.010 A 
ATOM     13  C   UNL A   1      39.620  19.938  25.610  1.00  0.00     0.014 A 
BRANCH  11  14
ATOM     14  C   UNL A   1      36.683  22.061  24.875  1.00  0.00    -0.018 A 
ATOM     15  C   UNL A   1      35.535  21.785  25.612  1.00  0.00     0.009 A 
ATOM     16  C   UNL A   1      36.585  22.751  23.655  1.00  0.00     0.009 A 
ATOM     17  C   UNL A   1      34.297  22.159  25.120  1.00  0.00     0.014 A 
ATOM     18  C   UNL A   1      35.342  23.160  23.179  1.00  0.00     0.014 A 
ATOM     19  C   UNL A   1      34.190  22.866  23.914  1.00  0.00     0.040 A 
BRANCH  19  20
ATOM     20  C   UNL A   1      32.861  23.144  23.310  1.00  0.00     0.253 C 
ATOM     21  O   UNL A   1      32.333  22.291  22.599  1.00  0.00    -0.269 OA
ATOM     22  N   UNL A   1      32.196  24.288  23.718  1.00  0.00    -0.339 N 
ATOM     23  C   UNL A   1      30.799  24.171  24.092  1.00  0.00     0.120 C 
ATOM     24  C   UNL A   1      32.786  25.626  23.745  1.00  0.00     0.120 C 
ATOM     25  C   UNL A   1      29.933  25.116  23.279  1.00  0.00     0.022 C 
ATOM     26  C   UNL A   1      31.938  26.600  22.931  1.00  0.00     0.022 C 
ATOM     27  C   UNL A   1      30.471  26.543  23.358  1.00  0.00     0.004 C 
ENDBRANCH  19  20
ENDBRANCH  11  14
ENDBRANCH   4   7
ENDBRANCH   2   3
ENDBRANCH   1   2
BRANCH   1  28
ATOM     28  C   UNL A   1      43.000  23.301  25.274  1.00  0.00     0.118 C 
BRANCH  28  29
ATOM     29  N   UNL A   1      43.236  24.780  25.711  1.00  0.00    -0.352 N 
ATOM     30  C   UNL A   1      42.792  25.554  26.864  1.00  0.00     0.251 C 
ATOM     31  H   UNL A   1      43.796  25.292  25.084  1.00  0.00     0.163 HD
ATOM     32  O   UNL A   1      43.670  25.732  27.726  1.00  0.00    -0.269 OA
BRANCH  30  33
ATOM     33  C   UNL A   1      41.420  26.295  27.173  1.00  0.00     0.039 A 
ATOM     34  C   UNL A   1      41.016  27.432  26.398  1.00  0.00     0.014 A 
ATOM     35  C   UNL A   1      40.583  26.063  28.259  1.00  0.00     0.014 A 
ATOM     36  C   UNL A   1      40.233  28.511  26.983  1.00  0.00     0.010 A 
ATOM     37  C   UNL A   1      39.817  27.130  28.842  1.00  0.00     0.010 A 
ATOM     38  C   UNL A   1      39.829  28.439  28.330  1.00  0.00    -0.014 A 
BRANCH  38  39
ATOM     39  C   UNL A   1      39.735  29.646  29.273  1.00  0.00     0.031 A 
ATOM     40  C   UNL A   1      38.654  30.623  29.173  1.00  0.00     0.074 A 
ATOM     41  C   UNL A   1      40.467  29.914  30.400  1.00  0.00     0.049 A 
ATOM     42  N   UNL A   1      38.813  31.909  29.164  1.00  0.00    -0.248 NA
ATOM     43  C   UNL A   1      37.276  30.178  29.224  1.00  0.00     0.031 C 
ATOM     44  C   UNL A   1      40.386  30.928  31.467  1.00  0.00     0.029 A 
ATOM     45  N   UNL A   1      41.518  29.193  30.909  1.00  0.00    -0.354 N 
ATOM     46  C   UNL A   1      37.592  32.429  29.546  1.00  0.00     0.074 A 
ATOM     47  C   UNL A   1      36.644  31.346  29.352  1.00  0.00     0.031 C 
ATOM     48  C   UNL A   1      41.542  30.950  32.174  1.00  0.00     0.029 A 
ATOM     49  C   UNL A   1      42.444  29.986  31.578  1.00  0.00     0.049 A 
ATOM     50  H   UNL A   1      41.607  28.217  30.811  1.00  0.00     0.167 HD
ATOM     51  C   UNL A   1      37.490  33.581  30.282  1.00  0.00     0.037 A 
ATOM     52  C   UNL A   1      43.697  30.134  31.034  1.00  0.00     0.037 A 
ATOM     53  C   UNL A   1      38.793  34.017  30.828  1.00  0.00     0.049 A 
ATOM     54  C   UNL A   1      43.814  31.513  30.430  1.00  0.00     0.074 A 
ATOM     55  C   UNL A   1      39.319  34.115  32.111  1.00  0.00     0.029 A 
ATOM     56  N   UNL A   1      39.887  34.162  29.989  1.00  0.00    -0.354 N 
ATOM     57  N   UNL A   1      42.986  32.472  30.732  1.00  0.00    -0.248 NA
ATOM     58  C   UNL A   1      44.773  31.929  29.408  1.00  0.00     0.031 C 
ATOM     59  C   UNL A   1      40.727  34.339  32.021  1.00  0.00     0.029 A 
ATOM     60  C   UNL A   1      41.063  34.399  30.682  1.00  0.00     0.049 A 
ATOM     61  H   UNL A   1      39.835  34.101  29.008  1.00  0.00     0.167 HD
ATOM     62  C   UNL A   1      43.162  33.534  29.900  1.00  0.00     0.074 A 
ATOM     63  C   UNL A   1      44.338  33.173  29.123  1.00  0.00     0.031 C 
ATOM     64  C   UNL A   1      42.294  34.588  29.918  1.00  0.00     0.037 A 
BRANCH  51  65
ATOM     65  C   UNL A   1      36.147  34.134  30.759  1.00  0.00     0.058 A 
ATOM     66  C   UNL A   1      35.152  34.577  29.863  1.00  0.00     0.135 A 
ATOM     67  C   UNL A   1      35.758  34.193  32.117  1.00  0.00     0.135 A 
ATOM     68  F   UNL A   1      35.284  34.434  28.537  1.00  0.00    -0.206 F 
ATOM     69  C   UNL A   1      33.941  35.142  30.279  1.00  0.00     0.059 A 
ATOM     70  C   UNL A   1      34.596  34.828  32.564  1.00  0.00     0.059 A 
ATOM     71  F   UNL A   1      36.451  33.554  33.071  1.00  0.00    -0.206 F 
ATOM     72  C   UNL A   1      33.683  35.295  31.635  1.00  0.00     0.060 A 
BRANCH  72  73
ATOM     73  S   UNL A   1      32.109  35.996  32.164  1.00  0.00     0.124 S 
ATOM     74  O   UNL A   1      32.528  37.046  33.086  1.00  0.00    -0.237 OA
ATOM     75  O   UNL A   1      31.541  36.450  30.899  1.00  0.00    -0.237 OA
ATOM     76  O   UNL A   1      31.423  34.866  32.784  1.00  0.00    -0.744 OA
ENDBRANCH  72  73
ENDBRANCH  51  65
BRANCH  52  77
ATOM     77  C   UNL A   1      44.335  28.833  30.471  1.00  0.00     0.058 A 
ATOM     78  C   UNL A   1      44.768  28.965  29.134  1.00  0.00     0.135 A 
ATOM     79  C   UNL A   1      45.319  28.323  31.296  1.00  0.00     0.135 A 
ATOM     80  F   UNL A   1      43.881  28.844  28.139  1.00  0.00    -0.206 F 
ATOM     81  C   UNL A   1      46.079  29.346  28.815  1.00  0.00     0.059 A 
ATOM     82  C   UNL A   1      46.631  28.720  30.997  1.00  0.00     0.059 A 
ATOM     83  F   UNL A   1      45.016  27.972  32.558  1.00  0.00    -0.206 F 
ATOM     84  C   UNL A   1      46.978  29.419  29.857  1.00  0.00     0.060 A 
BRANCH  84  85
ATOM     85  S   UNL A   1      48.461  30.698  29.864  1.00  0.00     0.124 S 
ATOM     86  O   UNL A   1      48.228  31.366  28.617  1.00  0.00    -0.237 OA
ATOM     87  O   UNL A   1      48.220  31.568  31.011  1.00  0.00    -0.237 OA
ATOM     88  O   UNL A   1      49.694  29.937  29.925  1.00  0.00    -0.744 OA
ENDBRANCH  84  85
ENDBRANCH  52  77
BRANCH  64  89
ATOM     89  C   UNL A   1      42.502  35.883  29.179  1.00  0.00     0.058 A 
ATOM     90  C   UNL A   1      41.890  36.162  27.946  1.00  0.00     0.135 A 
ATOM     91  C   UNL A   1      43.447  36.843  29.617  1.00  0.00     0.135 A 
ATOM     92  F   UNL A   1      41.098  35.261  27.344  1.00  0.00    -0.206 F 
ATOM     93  C   UNL A   1      42.104  37.359  27.264  1.00  0.00     0.059 A 
ATOM     94  C   UNL A   1      43.708  38.021  28.933  1.00  0.00     0.059 A 
ATOM     95  F   UNL A   1      44.167  36.686  30.734  1.00  0.00    -0.206 F 
ATOM     96  C   UNL A   1      43.003  38.290  27.776  1.00  0.00     0.060 A 
BRANCH  96  97
ATOM     97  S   UNL A   1      43.263  39.843  26.912  1.00  0.00     0.124 S 
ATOM     98  O   UNL A   1      43.333  40.803  28.010  1.00  0.00    -0.237 OA
ATOM     99  O   UNL A   1      44.520  39.581  26.219  1.00  0.00    -0.237 OA
ATOM    100  O   UNL A   1      42.086  39.964  26.058  1.00  0.00    -0.744 OA
ENDBRANCH  96  97
ENDBRANCH  64  89
ENDBRANCH  38  39
ENDBRANCH  30  33
ENDBRANCH  28  29
ENDBRANCH   1  28
TORSDOF 15
ENDMDL
MODEL 2
REMARK VINA RESULT:     -12.6      4.296     11.639
REMARK SMILES Cc1cc(C(=O)NCCCNC(=O)c2ccc(-c3c4nc(c(-c5c(F)cc(S(=O)(=O)[O-])cc5F)c5ccc([nH]5)c(-c5c(F)cc(S(=O)(=O)[O-])cc5F)c5nc(c(-c6c(F)cc(S(=O)(=O)[O-])cc6F)c6ccc3[nH]6)C=C5)C=C4)cc2)ccc1-c1ccc(C(=O)N2CCCCC2)cc1
REMARK SMILES IDX 9 1 8 2 7 3 5 4 6 5 4 7 1 8 2 9 3 10 82 11 81 12 80 13 83 14
REMARK SMILES IDX 84 15 96 16 85 17 95 18 86 19 87 20 88 21 89 22 90 23 94 24
REMARK SMILES IDX 91 25 93 26 92 27 10 28 11 29 12 30 13 32 14 33 15 34 79 35
REMARK SMILES IDX 16 36 78 37 17 38 18 39 19 40 72 41 20 42 77 43 71 44 73 45
REMARK SMILES IDX 21 46 76 47 70 48 69 49 22 51 56 52 35 53 55 54 36 55 39 56
REMARK SMILES IDX 54 57 74 58 37 59 38 60 53 62 75 63 40 64 23 65 24 66 33 67
REMARK SMILES IDX 25 68 26 69 32 70 34 71 27 72 28 73 29 74 30 75 31 76 57 77
REMARK SMILES IDX 58 78 67 79 59 80 60 81 66 82 68 83 61 84 62 85 63 86 64 87
REMARK SMILES IDX 65 88 41 89 42 90 51 91 43 92 44 93 50 94 52 95 45 96 46 97
REMARK SMILES IDX 47 98 48 99 49 100
REMARK H PARENT 7 6 11 31 73 50 39 61
REMARK Flexibility Score: inf
ROOT
ATOM      1  C   UNL A   1      35.263  33.556  31.611  1.00  0.00     0.042 C 
ENDROOT
BRANCH   1   2
ATOM      2  C   UNL A   1      36.337  33.926  30.462  1.00  0.00     0.118 C 
BRANCH   2   3
ATOM      3  N   UNL A   1      35.896  34.643  29.241  1.00  0.00    -0.352 N 
ATOM      4  C   UNL A   1      34.950  34.479  28.249  1.00  0.00     0.251 C 
ATOM      5  O   UNL A   1      34.569  35.402  27.532  1.00  0.00    -0.269 OA
ATOM      6  H   UNL A   1      36.422  35.463  29.099  1.00  0.00     0.163 HD
BRANCH   4   7
ATOM      7  C   UNL A   1      34.377  33.153  28.008  1.00  0.00     0.040 A 
ATOM      8  C   UNL A   1      35.487  29.536  27.673  1.00  0.00     0.045 C 
ATOM      9  C   UNL A   1      34.632  30.774  27.598  1.00  0.00    -0.042 A 
ATOM     10  C   UNL A   1      35.179  32.001  28.002  1.00  0.00     0.018 A 
ATOM     11  C   UNL A   1      33.280  30.752  27.190  1.00  0.00    -0.015 A 
ATOM     12  C   UNL A   1      32.472  31.885  27.359  1.00  0.00     0.010 A 
ATOM     13  C   UNL A   1      33.007  33.061  27.827  1.00  0.00     0.014 A 
BRANCH  11  14
ATOM     14  C   UNL A   1      32.632  29.588  26.614  1.00  0.00    -0.018 A 
ATOM     15  C   UNL A   1      31.990  28.681  27.453  1.00  0.00     0.009 A 
ATOM     16  C   UNL A   1      32.588  29.409  25.221  1.00  0.00     0.009 A 
ATOM     17  C   UNL A   1      31.344  27.585  26.910  1.00  0.00     0.014 A 
ATOM     18  C   UNL A   1      31.906  28.326  24.674  1.00  0.00     0.014 A 
ATOM     19  C   UNL A   1      31.277  27.408  25.522  1.00  0.00     0.040 A 
BRANCH  19  20
ATOM     20  C   UNL A   1      30.711  26.163  24.939  1.00  0.00     0.253 C 
ATOM     21  O   UNL A   1      29.509  26.108  24.688  1.00  0.00    -0.269 OA
ATOM     22  N   UNL A   1      31.600  25.177  24.542  1.00  0.00    -0.339 N 
ATOM     23  C   UNL A   1      31.425  24.588  23.228  1.00  0.00     0.120 C 
ATOM     24  C   UNL A   1      32.673  24.642  25.378  1.00  0.00     0.120 C 
ATOM     25  C   UNL A   1      31.284  23.080  23.318  1.00  0.00     0.022 C 
ATOM     26  C   UNL A   1      32.556  23.124  25.492  1.00  0.00     0.022 C 
ATOM     27  C   UNL A   1      32.441  22.476  24.112  1.00  0.00     0.004 C 
ENDBRANCH  19  20
ENDBRANCH  11  14
ENDBRANCH   4   7
ENDBRANCH   2   3
ENDBRANCH   1   2
BRANCH   1  28
ATOM     28  C   UNL A   1      35.254  32.038  32.105  1.00  0.00     0.118 C 
BRANCH  28  29
ATOM     29  N   UNL A   1      36.508  31.163  32.416  1.00  0.00    -0.352 N 
ATOM     30  C   UNL A   1      37.759  30.937  31.702  1.00  0.00     0.251 C 
ATOM     31  H   UNL A   1      36.441  30.665  33.262  1.00  0.00     0.163 HD
ATOM     32  O   UNL A   1      38.735  31.539  32.182  1.00  0.00    -0.269 OA
BRANCH  30  33
ATOM     33  C   UNL A   1      38.120  29.985  30.481  1.00  0.00     0.039 A 
ATOM     34  C   UNL A   1      37.966  28.563  30.597  1.00  0.00     0.014 A 
ATOM     35  C   UNL A   1      38.747  30.361  29.298  1.00  0.00     0.014 A 
ATOM     36  C   UNL A   1      38.848  27.644  29.892  1.00  0.00     0.010 A 
ATOM     37  C   UNL A   1      39.624  29.457  28.607  1.00  0.00     0.010 A 
ATOM     38  C   UNL A   1      39.860  28.144  29.050  1.00  0.00    -0.014 A 
BRANCH  38  39
ATOM     39  C   UNL A   1      41.245  27.501  28.883  1.00  0.00     0.031 A 
ATOM     40  C   UNL A   1      41.407  26.106  28.485  1.00  0.00     0.074 A 
ATOM     41  C   UNL A   1      42.476  28.103  28.892  1.00  0.00     0.049 A 
ATOM     42  N   UNL A   1      42.186  25.252  29.070  1.00  0.00    -0.248 NA
ATOM     43  C   UNL A   1      40.779  25.628  27.269  1.00  0.00     0.031 C 
ATOM     44  C   UNL A   1      43.848  27.650  28.596  1.00  0.00     0.029 A 
ATOM     45  N   UNL A   1      42.763  29.424  29.131  1.00  0.00    -0.354 N 
ATOM     46  C   UNL A   1      42.412  24.264  28.133  1.00  0.00     0.074 A 
ATOM     47  C   UNL A   1      41.359  24.433  27.146  1.00  0.00     0.031 C 
ATOM     48  C   UNL A   1      44.744  28.552  29.068  1.00  0.00     0.029 A 
ATOM     49  C   UNL A   1      44.006  29.607  29.729  1.00  0.00     0.049 A 
ATOM     50  H   UNL A   1      42.155  30.163  28.901  1.00  0.00     0.167 HD
ATOM     51  C   UNL A   1      43.604  23.592  28.056  1.00  0.00     0.037 A 
ATOM     52  C   UNL A   1      44.050  30.072  31.021  1.00  0.00     0.037 A 
ATOM     53  C   UNL A   1      44.659  24.223  28.877  1.00  0.00     0.049 A 
ATOM     54  C   UNL A   1      44.416  28.932  31.943  1.00  0.00     0.074 A 
ATOM     55  C   UNL A   1      45.851  24.877  28.583  1.00  0.00     0.029 A 
ATOM     56  N   UNL A   1      44.429  24.500  30.216  1.00  0.00    -0.354 N 
ATOM     57  N   UNL A   1      44.950  27.830  31.500  1.00  0.00    -0.248 NA
ATOM     58  C   UNL A   1      44.162  28.871  33.381  1.00  0.00     0.031 C 
ATOM     59  C   UNL A   1      46.331  25.522  29.763  1.00  0.00     0.029 A 
ATOM     60  C   UNL A   1      45.445  25.249  30.788  1.00  0.00     0.049 A 
ATOM     61  H   UNL A   1      43.631  24.199  30.706  1.00  0.00     0.167 HD
ATOM     62  C   UNL A   1      44.978  26.887  32.480  1.00  0.00     0.074 A 
ATOM     63  C   UNL A   1      44.529  27.605  33.664  1.00  0.00     0.031 C 
ATOM     64  C   UNL A   1      45.338  25.599  32.202  1.00  0.00     0.037 A 
BRANCH  51  65
ATOM     65  C   UNL A   1      43.885  22.537  26.986  1.00  0.00     0.058 A 
ATOM     66  C   UNL A   1      43.144  21.340  26.893  1.00  0.00     0.135 A 
ATOM     67  C   UNL A   1      44.853  22.688  25.967  1.00  0.00     0.135 A 
ATOM     68  F   UNL A   1      42.078  21.110  27.671  1.00  0.00    -0.206 F 
ATOM     69  C   UNL A   1      43.424  20.335  25.960  1.00  0.00     0.059 A 
ATOM     70  C   UNL A   1      45.210  21.669  25.079  1.00  0.00     0.059 A 
ATOM     71  F   UNL A   1      45.440  23.871  25.730  1.00  0.00    -0.206 F 
ATOM     72  C   UNL A   1      44.483  20.493  25.075  1.00  0.00     0.060 A 
BRANCH  72  73
ATOM     73  S   UNL A   1      44.817  19.207  23.857  1.00  0.00     0.124 S 
ATOM     74  O   UNL A   1      43.930  18.131  24.286  1.00  0.00    -0.237 OA
ATOM     75  O   UNL A   1      44.454  19.871  22.609  1.00  0.00    -0.237 OA
ATOM     76  O   UNL A   1      46.243  18.938  24.027  1.00  0.00    -0.744 OA
ENDBRANCH  72  73
ENDBRANCH  51  65
BRANCH  52  77
ATOM     77  C   UNL A   1      43.064  31.228  31.346  1.00  0.00     0.058 A 
ATOM     78  C   UNL A   1      42.361  31.031  32.554  1.00  0.00     0.135 A 
ATOM     79  C   UNL A   1      43.663  32.471  31.282  1.00  0.00     0.135 A 
ATOM     80  F   UNL A   1      41.282  30.239  32.568  1.00  0.00    -0.206 F 
ATOM     81  C   UNL A   1      42.830  31.538  33.774  1.00  0.00     0.059 A 
ATOM     82  C   UNL A   1      44.156  32.975  32.494  1.00  0.00     0.059 A 
ATOM     83  F   UNL A   1      44.220  32.884  30.130  1.00  0.00    -0.206 F 
ATOM     84  C   UNL A   1      43.916  32.385  33.721  1.00  0.00     0.060 A 
BRANCH  84  85
ATOM     85  S   UNL A   1      45.234  32.479  35.166  1.00  0.00     0.124 S 
ATOM     86  O   UNL A   1      45.455  33.895  35.219  1.00  0.00    -0.237 OA
ATOM     87  O   UNL A   1      44.546  31.983  36.354  1.00  0.00    -0.237 OA
ATOM     88  O   UNL A   1      46.386  31.698  34.760  1.00  0.00    -0.744 OA
ENDBRANCH  84  85
ENDBRANCH  52  77
BRANCH  64  89
ATOM     89  C   UNL A   1      45.580  24.534  33.238  1.00  0.00     0.058 A 
ATOM     90  C   UNL A   1      46.802  24.398  33.918  1.00  0.00     0.135 A 
ATOM     91  C   UNL A   1      44.633  23.510  33.484  1.00  0.00     0.135 A 
ATOM     92  F   UNL A   1      47.838  25.208  33.653  1.00  0.00    -0.206 F 
ATOM     93  C   UNL A   1      47.018  23.397  34.865  1.00  0.00     0.059 A 
ATOM     94  C   UNL A   1      44.843  22.480  34.389  1.00  0.00     0.059 A 
ATOM     95  F   UNL A   1      43.451  23.457  32.858  1.00  0.00    -0.206 F 
ATOM     96  C   UNL A   1      46.024  22.453  35.105  1.00  0.00     0.060 A 
BRANCH  96  97
ATOM     97  S   UNL A   1      46.291  21.176  36.340  1.00  0.00     0.124 S 
ATOM     98  O   UNL A   1      45.460  20.083  35.844  1.00  0.00    -0.237 OA
ATOM     99  O   UNL A   1      47.733  20.973  36.237  1.00  0.00    -0.237 OA
ATOM    100  O   UNL A   1      45.830  21.793  37.579  1.00  0.00    -0.744 OA
ENDBRANCH  96  97
ENDBRANCH  64  89
ENDBRANCH  38  39
ENDBRANCH  30  33
ENDBRANCH  28  29
ENDBRANCH   1  28
TORSDOF 15
ENDMDL
MODEL 3
REMARK VINA RESULT:     -12.5      4.202     10.977
REMARK SMILES Cc1cc(C(=O)NCCCNC(=O)c2ccc(-c3c4nc(c(-c5c(F)cc(S(=O)(=O)[O-])cc5F)c5ccc([nH]5)c(-c5c(F)cc(S(=O)(=O)[O-])cc5F)c5nc(c(-c6c(F)cc(S(=O)(=O)[O-])cc6F)c6ccc3[nH]6)C=C5)C=C4)cc2)ccc1-c1ccc(C(=O)N2CCCCC2)cc1
REMARK SMILES IDX 9 1 8 2 7 3 5 4 6 5 4 7 1 8 2 9 3 10 82 11 81 12 80 13 83 14
REMARK SMILES IDX 84 15 96 16 85 17 95 18 86 19 87 20 88 21 89 22 90 23 94 24
REMARK SMILES IDX 91 25 93 26 92 27 10 28 11 29 12 30 13 32 14 33 15 34 79 35
REMARK SMILES IDX 16 36 78 37 17 38 18 39 19 40 72 41 20 42 77 43 71 44 73 45
REMARK SMILES IDX 21 46 76 47 70 48 69 49 22 51 56 52 35 53 55 54 36 55 39 56
REMARK SMILES IDX 54 57 74 58 37 59 38 60 53 62 75 63 40 64 23 65 24 66 33 67
REMARK SMILES IDX 25 68 26 69 32 70 34 71 27 72 28 73 29 74 30 75 31 76 57 77
REMARK SMILES IDX 58 78 67 79 59 80 60 81 66 82 68 83 61 84 62 85 63 86 64 87
REMARK SMILES IDX 65 88 41 89 42 90 51 91 43 92 44 93 50 94 52 95 45 96 46 97
REMARK SMILES IDX 47 98 48 99 49 100
REMARK H PARENT 7 6 11 31 73 50 39 61
REMARK Flexibility Score: inf
ROOT
ATOM      1  C   UNL A   1      31.702  32.767  27.077  1.00  0.00     0.042 C 
ENDROOT
BRANCH   1   2
ATOM      2  C   UNL A   1      31.517  31.326  26.371  1.00  0.00     0.118 C 
BRANCH   2   3
ATOM      3  N   UNL A   1      30.797  31.223  25.078  1.00  0.00    -0.352 N 
ATOM      4  C   UNL A   1      30.459  30.234  24.176  1.00  0.00     0.251 C 
ATOM      5  O   UNL A   1      29.563  30.368  23.345  1.00  0.00    -0.269 OA
ATOM      6  H   UNL A   1      30.468  32.103  24.782  1.00  0.00     0.163 HD
BRANCH   4   7
ATOM      7  C   UNL A   1      31.200  28.971  24.176  1.00  0.00     0.040 A 
ATOM      8  C   UNL A   1      30.543  25.230  24.187  1.00  0.00     0.045 C 
ATOM      9  C   UNL A   1      31.261  26.548  24.312  1.00  0.00    -0.042 A 
ATOM     10  C   UNL A   1      30.536  27.735  24.136  1.00  0.00     0.018 A 
ATOM     11  C   UNL A   1      32.651  26.648  24.544  1.00  0.00    -0.015 A 
ATOM     12  C   UNL A   1      33.302  27.885  24.422  1.00  0.00     0.010 A 
ATOM     13  C   UNL A   1      32.583  29.030  24.174  1.00  0.00     0.014 A 
BRANCH  11  14
ATOM     14  C   UNL A   1      33.493  25.517  24.885  1.00  0.00    -0.018 A 
ATOM     15  C   UNL A   1      34.414  25.047  23.952  1.00  0.00     0.009 A 
ATOM     16  C   UNL A   1      33.436  24.941  26.166  1.00  0.00     0.009 A 
ATOM     17  C   UNL A   1      35.243  23.989  24.279  1.00  0.00     0.014 A 
ATOM     18  C   UNL A   1      34.295  23.901  26.506  1.00  0.00     0.014 A 
ATOM     19  C   UNL A   1      35.207  23.421  25.560  1.00  0.00     0.040 A 
BRANCH  19  20
ATOM     20  C   UNL A   1      35.988  22.196  25.872  1.00  0.00     0.253 C 
ATOM     21  O   UNL A   1      35.394  21.169  26.194  1.00  0.00    -0.269 OA
ATOM     22  N   UNL A   1      37.350  22.219  25.617  1.00  0.00    -0.339 N 
ATOM     23  C   UNL A   1      37.930  21.102  24.897  1.00  0.00     0.120 C 
ATOM     24  C   UNL A   1      38.262  23.267  26.074  1.00  0.00     0.120 C 
ATOM     25  C   UNL A   1      39.062  20.470  25.685  1.00  0.00     0.022 C 
ATOM     26  C   UNL A   1      39.412  22.663  26.875  1.00  0.00     0.022 C 
ATOM     27  C   UNL A   1      40.084  21.526  26.103  1.00  0.00     0.004 C 
ENDBRANCH  19  20
ENDBRANCH  11  14
ENDBRANCH   4   7
ENDBRANCH   2   3
ENDBRANCH   1   2
BRANCH   1  28
ATOM     28  C   UNL A   1      33.175  33.123  27.579  1.00  0.00     0.118 C 
BRANCH  28  29
ATOM     29  N   UNL A   1      33.779  32.779  28.976  1.00  0.00    -0.352 N 
ATOM     30  C   UNL A   1      35.099  32.328  29.399  1.00  0.00     0.251 C 
ATOM     31  H   UNL A   1      33.143  32.890  29.719  1.00  0.00     0.163 HD
ATOM     32  O   UNL A   1      35.797  33.214  29.921  1.00  0.00    -0.269 OA
BRANCH  30  33
ATOM     33  C   UNL A   1      35.770  30.886  29.403  1.00  0.00     0.039 A 
ATOM     34  C   UNL A   1      36.189  30.282  30.634  1.00  0.00     0.014 A 
ATOM     35  C   UNL A   1      36.166  30.157  28.287  1.00  0.00     0.014 A 
ATOM     36  C   UNL A   1      37.341  29.393  30.690  1.00  0.00     0.010 A 
ATOM     37  C   UNL A   1      37.307  29.287  28.340  1.00  0.00     0.010 A 
ATOM     38  C   UNL A   1      38.052  29.085  29.515  1.00  0.00    -0.014 A 
BRANCH  38  39
ATOM     39  C   UNL A   1      39.573  28.880  29.449  1.00  0.00     0.031 A 
ATOM     40  C   UNL A   1      40.165  27.625  28.996  1.00  0.00     0.074 A 
ATOM     41  C   UNL A   1      40.570  29.806  29.608  1.00  0.00     0.049 A 
ATOM     42  N   UNL A   1      41.111  26.986  29.609  1.00  0.00    -0.248 NA
ATOM     43  C   UNL A   1      39.799  27.083  27.703  1.00  0.00     0.031 C 
ATOM     44  C   UNL A   1      42.033  29.788  29.422  1.00  0.00     0.029 A 
ATOM     45  N   UNL A   1      40.441  31.131  29.941  1.00  0.00    -0.354 N 
ATOM     46  C   UNL A   1      41.687  26.180  28.647  1.00  0.00     0.074 A 
ATOM     47  C   UNL A   1      40.710  26.117  27.574  1.00  0.00     0.031 C 
ATOM     48  C   UNL A   1      42.589  30.868  30.025  1.00  0.00     0.029 A 
ATOM     49  C   UNL A   1      41.526  31.614  30.665  1.00  0.00     0.049 A 
ATOM     50  H   UNL A   1      39.663  31.681  29.693  1.00  0.00     0.167 HD
ATOM     51  C   UNL A   1      43.025  25.884  28.651  1.00  0.00     0.037 A 
ATOM     52  C   UNL A   1      41.332  31.970  31.978  1.00  0.00     0.037 A 
ATOM     53  C   UNL A   1      43.784  26.724  29.602  1.00  0.00     0.049 A 
ATOM     54  C   UNL A   1      41.942  30.915  32.870  1.00  0.00     0.074 A 
ATOM     55  C   UNL A   1      44.752  27.712  29.459  1.00  0.00     0.029 A 
ATOM     56  N   UNL A   1      43.380  26.819  30.924  1.00  0.00    -0.354 N 
ATOM     57  N   UNL A   1      42.807  30.049  32.425  1.00  0.00    -0.248 NA
ATOM     58  C   UNL A   1      41.607  30.672  34.273  1.00  0.00     0.031 C 
ATOM     59  C   UNL A   1      44.930  28.374  30.711  1.00  0.00     0.029 A 
ATOM     60  C   UNL A   1      44.086  27.781  31.630  1.00  0.00     0.049 A 
ATOM     61  H   UNL A   1      42.669  26.266  31.319  1.00  0.00     0.167 HD
ATOM     62  C   UNL A   1      43.033  29.080  33.353  1.00  0.00     0.074 A 
ATOM     63  C   UNL A   1      42.304  29.545  34.523  1.00  0.00     0.031 C 
ATOM     64  C   UNL A   1      43.773  27.974  33.044  1.00  0.00     0.037 A 
BRANCH  51  65
ATOM     65  C   UNL A   1      43.683  25.039  27.560  1.00  0.00     0.058 A 
ATOM     66  C   UNL A   1      43.565  23.634  27.518  1.00  0.00     0.135 A 
ATOM     67  C   UNL A   1      44.405  25.582  26.473  1.00  0.00     0.135 A 
ATOM     68  F   UNL A   1      42.775  22.969  28.372  1.00  0.00    -0.206 F 
ATOM     69  C   UNL A   1      44.208  22.838  26.564  1.00  0.00     0.059 A 
ATOM     70  C   UNL A   1      45.126  24.811  25.557  1.00  0.00     0.059 A 
ATOM     71  F   UNL A   1      44.370  26.895  26.197  1.00  0.00    -0.206 F 
ATOM     72  C   UNL A   1      45.016  23.433  25.603  1.00  0.00     0.060 A 
BRANCH  72  73
ATOM     73  S   UNL A   1      45.817  22.403  24.359  1.00  0.00     0.124 S 
ATOM     74  O   UNL A   1      46.370  21.317  25.162  1.00  0.00    -0.237 OA
ATOM     75  O   UNL A   1      44.697  22.048  23.494  1.00  0.00    -0.237 OA
ATOM     76  O   UNL A   1      46.806  23.296  23.762  1.00  0.00    -0.744 OA
ENDBRANCH  72  73
ENDBRANCH  51  65
BRANCH  52  77
ATOM     77  C   UNL A   1      40.030  32.768  32.266  1.00  0.00     0.058 A 
ATOM     78  C   UNL A   1      39.344  32.309  33.411  1.00  0.00     0.135 A 
ATOM     79  C   UNL A   1      40.237  34.134  32.288  1.00  0.00     0.135 A 
ATOM     80  F   UNL A   1      38.549  31.236  33.317  1.00  0.00    -0.206 F 
ATOM     81  C   UNL A   1      39.565  32.865  34.679  1.00  0.00     0.059 A 
ATOM     82  C   UNL A   1      40.483  34.693  33.551  1.00  0.00     0.059 A 
ATOM     83  F   UNL A   1      40.718  34.753  31.196  1.00  0.00    -0.206 F 
ATOM     84  C   UNL A   1      40.353  33.994  34.736  1.00  0.00     0.060 A 
BRANCH  84  85
ATOM     85  S   UNL A   1      41.491  34.393  36.278  1.00  0.00     0.124 S 
ATOM     86  O   UNL A   1      40.625  33.989  37.346  1.00  0.00    -0.237 OA
ATOM     87  O   UNL A   1      42.650  33.515  36.144  1.00  0.00    -0.237 OA
ATOM     88  O   UNL A   1      41.795  35.810  36.243  1.00  0.00    -0.744 OA
ENDBRANCH  84  85
ENDBRANCH  52  77
BRANCH  64  89
ATOM     89  C   UNL A   1      44.234  26.945  34.041  1.00  0.00     0.058 A 
ATOM     90  C   UNL A   1      45.591  26.715  34.323  1.00  0.00     0.135 A 
ATOM     91  C   UNL A   1      43.327  26.046  34.652  1.00  0.00     0.135 A 
ATOM     92  F   UNL A   1      46.558  27.392  33.686  1.00  0.00    -0.206 F 
ATOM     93  C   UNL A   1      46.006  25.748  35.239  1.00  0.00     0.059 A 
ATOM     94  C   UNL A   1      43.720  25.048  35.531  1.00  0.00     0.059 A 
ATOM     95  F   UNL A   1      42.009  26.088  34.425  1.00  0.00    -0.206 F 
ATOM     96  C   UNL A   1      45.059  24.931  35.851  1.00  0.00     0.060 A 
BRANCH  96  97
ATOM     97  S   UNL A   1      45.588  23.700  37.047  1.00  0.00     0.124 S 
ATOM     98  O   UNL A   1      45.125  22.455  36.441  1.00  0.00    -0.237 OA
ATOM     99  O   UNL A   1      47.033  23.904  37.051  1.00  0.00    -0.237 OA
ATOM    100  O   UNL A   1      44.895  24.089  38.271  1.00  0.00    -0.744 OA
ENDBRANCH  96  97
ENDBRANCH  64  89
ENDBRANCH  38  39
ENDBRANCH  30  33
ENDBRANCH  28  29
ENDBRANCH   1  28
TORSDOF 15
ENDMDL
