MODEL 1
REMARK VINA RESULT:     -11.5      0.000      0.000
REMARK SMILES CN(C)Nc1ncnc(Nc2ccc(C(=O)NCCCNC(=O)c3ccc(-c4c5nc(c(-c6c(F)cc(S(=O)(=O)[O-])cc6F)c6ccc([nH]6)c(-c6c(F)cc(S(=O)(=O)[O-])cc6F)c6nc(c(-c7c(F)cc(S(=O)(=O)[O-])cc7F)c7ccc4[nH]7)C=C6)C=C5)cc3)cc2)c1[N+](=O)[O-]
REMARK SMILES IDX 18 1 17 2 15 3 16 4 14 6 11 7 12 8 91 9 13 10 90 11 10 12
REMARK SMILES IDX 9 14 5 15 6 16 92 17 7 18 8 19 4 20 2 22 1 23 3 24 93 25
REMARK SMILES IDX 94 26 95 27 19 28 20 29 21 30 22 31 23 33 24 34 25 35 89 36
REMARK SMILES IDX 26 37 88 38 27 39 28 40 29 41 82 42 30 43 87 44 81 45 83 46
REMARK SMILES IDX 31 47 86 48 80 49 79 50 32 52 66 53 45 54 65 55 46 56 49 57
REMARK SMILES IDX 64 58 84 59 47 60 48 61 63 63 85 64 50 65 33 66 34 67 43 68
REMARK SMILES IDX 35 69 36 70 42 71 44 72 37 73 38 74 39 75 40 76 41 77 67 78
REMARK SMILES IDX 68 79 77 80 69 81 70 82 76 83 78 84 71 85 72 86 73 87 74 88
REMARK SMILES IDX 75 89 51 90 52 91 61 92 53 93 54 94 60 95 62 96 55 97 56 98
REMARK SMILES IDX 57 99 58 100 59 101
REMARK H PARENT 17 5 10 13 4 21 21 32 83 51 49 62
REMARK Flexibility Score: inf
ROOT
ATOM      1  C   UNL A   1      39.339  22.092  26.295  1.00  0.00     0.118 C 
ENDROOT
BRANCH   1   2
ATOM      2  N   UNL A   1      38.926  20.805  25.764  1.00  0.00    -0.352 N 
ATOM      3  C   UNL A   1      37.849  20.407  25.016  1.00  0.00     0.251 C 
ATOM      4  O   UNL A   1      37.793  19.222  24.684  1.00  0.00    -0.269 OA
ATOM      5  H   UNL A   1      39.543  20.070  25.987  1.00  0.00     0.163 HD
BRANCH   3   6
ATOM      6  C   UNL A   1      36.798  21.342  24.528  1.00  0.00     0.039 A 
ATOM      7  C   UNL A   1      34.638  22.881  23.572  1.00  0.00     0.040 A 
ATOM      8  C   UNL A   1      34.428  21.911  24.549  1.00  0.00     0.027 A 
ATOM      9  C   UNL A   1      35.951  23.163  23.175  1.00  0.00     0.027 A 
ATOM     10  C   UNL A   1      35.495  21.132  25.006  1.00  0.00     0.016 A 
ATOM     11  C   UNL A   1      37.027  22.411  23.661  1.00  0.00     0.016 A 
BRANCH   7  12
ATOM     12  N   UNL A   1      33.549  23.624  23.079  1.00  0.00    -0.334 N 
ATOM     13  H   UNL A   1      32.799  23.128  22.677  1.00  0.00     0.168 HD
BRANCH  12  14
ATOM     14  C   UNL A   1      33.458  25.031  23.119  1.00  0.00     0.215 A 
ATOM     15  C   UNL A   1      33.045  27.111  24.189  1.00  0.00     0.225 A 
ATOM     16  N   UNL A   1      33.272  27.767  23.030  1.00  0.00    -0.212 NA
ATOM     17  C   UNL A   1      33.041  25.731  24.239  1.00  0.00     0.354 A 
ATOM     18  C   UNL A   1      33.597  27.024  21.971  1.00  0.00     0.227 A 
ATOM     19  N   UNL A   1      33.730  25.697  21.973  1.00  0.00    -0.212 NA
BRANCH  15  20
ATOM     20  N   UNL A   1      32.947  27.989  25.273  1.00  0.00    -0.298 N 
ATOM     21  H   UNL A   1      33.788  28.313  25.667  1.00  0.00     0.184 HD
BRANCH  20  22
ATOM     22  N   UNL A   1      31.731  28.455  25.855  1.00  0.00    -0.228 NA
ATOM     23  C   UNL A   1      31.652  28.193  27.304  1.00  0.00     0.130 C 
ATOM     24  C   UNL A   1      31.713  29.922  25.676  1.00  0.00     0.130 C 
ENDBRANCH  20  22
ENDBRANCH  15  20
BRANCH  17  25
ATOM     25  N   UNL A   1      32.550  25.033  25.389  1.00  0.00     0.070 N 
ATOM     26  O   UNL A   1      31.442  24.483  25.284  1.00  0.00    -0.258 OA
ATOM     27  O   UNL A   1      33.206  25.114  26.436  1.00  0.00    -0.258 OA
ENDBRANCH  17  25
ENDBRANCH  12  14
ENDBRANCH   7  12
ENDBRANCH   3   6
ENDBRANCH   1   2
BRANCH   1  28
ATOM     28  C   UNL A   1      40.391  21.919  27.389  1.00  0.00     0.042 C 
BRANCH  28  29
ATOM     29  C   UNL A   1      41.210  23.184  27.645  1.00  0.00     0.118 C 
BRANCH  29  30
ATOM     30  N   UNL A   1      41.485  23.913  26.413  1.00  0.00    -0.352 N 
ATOM     31  C   UNL A   1      41.378  25.254  26.140  1.00  0.00     0.251 C 
ATOM     32  H   UNL A   1      41.796  23.357  25.662  1.00  0.00     0.163 HD
ATOM     33  O   UNL A   1      41.435  25.637  24.975  1.00  0.00    -0.269 OA
BRANCH  31  34
ATOM     34  C   UNL A   1      41.184  26.232  27.233  1.00  0.00     0.039 A 
ATOM     35  C   UNL A   1      40.121  26.046  28.123  1.00  0.00     0.014 A 
ATOM     36  C   UNL A   1      42.012  27.351  27.358  1.00  0.00     0.014 A 
ATOM     37  C   UNL A   1      39.924  26.950  29.170  1.00  0.00     0.010 A 
ATOM     38  C   UNL A   1      41.851  28.218  28.438  1.00  0.00     0.010 A 
ATOM     39  C   UNL A   1      40.806  28.027  29.354  1.00  0.00    -0.014 A 
BRANCH  39  40
ATOM     40  C   UNL A   1      40.655  28.962  30.498  1.00  0.00     0.031 A 
ATOM     41  C   UNL A   1      41.521  28.807  31.720  1.00  0.00     0.074 A 
ATOM     42  C   UNL A   1      39.696  29.908  30.462  1.00  0.00     0.049 A 
ATOM     43  N   UNL A   1      41.472  29.457  32.854  1.00  0.00    -0.248 NA
ATOM     44  C   UNL A   1      42.565  27.772  31.666  1.00  0.00     0.031 C 
ATOM     45  C   UNL A   1      38.776  30.138  29.345  1.00  0.00     0.029 A 
ATOM     46  N   UNL A   1      39.327  30.847  31.392  1.00  0.00    -0.354 N 
ATOM     47  C   UNL A   1      42.470  28.907  33.650  1.00  0.00     0.074 A 
ATOM     48  C   UNL A   1      43.075  27.836  32.887  1.00  0.00     0.031 C 
ATOM     49  C   UNL A   1      37.960  31.160  29.649  1.00  0.00     0.029 A 
ATOM     50  C   UNL A   1      38.269  31.632  30.995  1.00  0.00     0.049 A 
ATOM     51  H   UNL A   1      39.776  30.949  32.262  1.00  0.00     0.167 HD
ATOM     52  C   UNL A   1      42.861  29.275  34.894  1.00  0.00     0.037 A 
ATOM     53  C   UNL A   1      37.614  32.611  31.648  1.00  0.00     0.037 A 
ATOM     54  C   UNL A   1      42.265  30.352  35.642  1.00  0.00     0.049 A 
ATOM     55  C   UNL A   1      38.048  32.980  33.042  1.00  0.00     0.074 A 
ATOM     56  C   UNL A   1      42.610  30.825  36.896  1.00  0.00     0.029 A 
ATOM     57  N   UNL A   1      41.201  31.128  35.202  1.00  0.00    -0.354 N 
ATOM     58  N   UNL A   1      39.018  32.473  33.764  1.00  0.00    -0.248 NA
ATOM     59  C   UNL A   1      37.299  34.055  33.708  1.00  0.00     0.031 C 
ATOM     60  C   UNL A   1      41.732  31.862  37.230  1.00  0.00     0.029 A 
ATOM     61  C   UNL A   1      40.868  32.065  36.166  1.00  0.00     0.049 A 
ATOM     62  H   UNL A   1      40.750  31.027  34.333  1.00  0.00     0.167 HD
ATOM     63  C   UNL A   1      39.014  33.186  34.958  1.00  0.00     0.074 A 
ATOM     64  C   UNL A   1      37.953  34.167  34.855  1.00  0.00     0.031 C 
ATOM     65  C   UNL A   1      39.815  33.042  36.042  1.00  0.00     0.037 A 
BRANCH  52  66
ATOM     66  C   UNL A   1      43.995  28.513  35.524  1.00  0.00     0.058 A 
ATOM     67  C   UNL A   1      45.331  28.913  35.352  1.00  0.00     0.135 A 
ATOM     68  C   UNL A   1      43.747  27.398  36.340  1.00  0.00     0.135 A 
ATOM     69  F   UNL A   1      45.627  29.964  34.569  1.00  0.00    -0.206 F 
ATOM     70  C   UNL A   1      46.380  28.221  35.946  1.00  0.00     0.059 A 
ATOM     71  C   UNL A   1      44.780  26.706  36.966  1.00  0.00     0.059 A 
ATOM     72  F   UNL A   1      42.490  26.973  36.539  1.00  0.00    -0.206 F 
ATOM     73  C   UNL A   1      46.095  27.118  36.752  1.00  0.00     0.060 A 
BRANCH  73  74
ATOM     74  S   UNL A   1      47.469  26.238  37.524  1.00  0.00     0.124 S 
ATOM     75  O   UNL A   1      47.441  24.968  36.805  1.00  0.00    -0.237 OA
ATOM     76  O   UNL A   1      48.604  27.107  37.228  1.00  0.00    -0.237 OA
ATOM     77  O   UNL A   1      47.085  26.171  38.930  1.00  0.00    -0.744 OA
ENDBRANCH  73  74
ENDBRANCH  52  66
BRANCH  53  78
ATOM     78  C   UNL A   1      36.484  33.321  30.992  1.00  0.00     0.058 A 
ATOM     79  C   UNL A   1      36.716  34.251  29.968  1.00  0.00     0.135 A 
ATOM     80  C   UNL A   1      35.153  33.092  31.377  1.00  0.00     0.135 A 
ATOM     81  F   UNL A   1      37.971  34.509  29.571  1.00  0.00    -0.206 F 
ATOM     82  C   UNL A   1      35.675  34.947  29.364  1.00  0.00     0.059 A 
ATOM     83  C   UNL A   1      34.092  33.756  30.770  1.00  0.00     0.059 A 
ATOM     84  F   UNL A   1      34.874  32.199  32.339  1.00  0.00    -0.206 F 
ATOM     85  C   UNL A   1      34.364  34.694  29.773  1.00  0.00     0.060 A 
BRANCH  85  86
ATOM     86  S   UNL A   1      33.016  35.578  28.960  1.00  0.00     0.124 S 
ATOM     87  O   UNL A   1      32.394  34.513  28.184  1.00  0.00    -0.237 OA
ATOM     88  O   UNL A   1      32.246  36.075  30.097  1.00  0.00    -0.237 OA
ATOM     89  O   UNL A   1      33.708  36.605  28.187  1.00  0.00    -0.744 OA
ENDBRANCH  85  86
ENDBRANCH  53  78
BRANCH  65  90
ATOM     90  C   UNL A   1      39.599  33.988  37.190  1.00  0.00     0.058 A 
ATOM     91  C   UNL A   1      38.756  33.664  38.264  1.00  0.00     0.135 A 
ATOM     92  C   UNL A   1      40.280  35.215  37.236  1.00  0.00     0.135 A 
ATOM     93  F   UNL A   1      38.075  32.506  38.263  1.00  0.00    -0.206 F 
ATOM     94  C   UNL A   1      38.577  34.534  39.334  1.00  0.00     0.059 A 
ATOM     95  C   UNL A   1      40.138  36.089  38.309  1.00  0.00     0.059 A 
ATOM     96  F   UNL A   1      41.107  35.568  36.239  1.00  0.00    -0.206 F 
ATOM     97  C   UNL A   1      39.275  35.744  39.349  1.00  0.00     0.060 A 
BRANCH  97  98
ATOM     98  S   UNL A   1      39.061  36.848  40.761  1.00  0.00     0.124 S 
ATOM     99  O   UNL A   1      38.423  38.002  40.138  1.00  0.00    -0.237 OA
ATOM    100  O   UNL A   1      38.216  36.059  41.651  1.00  0.00    -0.237 OA
ATOM    101  O   UNL A   1      40.427  37.064  41.232  1.00  0.00    -0.744 OA
ENDBRANCH  97  98
ENDBRANCH  65  90
ENDBRANCH  39  40
ENDBRANCH  31  34
ENDBRANCH  29  30
ENDBRANCH  28  29
ENDBRANCH   1  28
TORSDOF 18
ENDMDL
MODEL 2
REMARK VINA RESULT:     -11.4      6.406     12.147
REMARK SMILES CN(C)Nc1ncnc(Nc2ccc(C(=O)NCCCNC(=O)c3ccc(-c4c5nc(c(-c6c(F)cc(S(=O)(=O)[O-])cc6F)c6ccc([nH]6)c(-c6c(F)cc(S(=O)(=O)[O-])cc6F)c6nc(c(-c7c(F)cc(S(=O)(=O)[O-])cc7F)c7ccc4[nH]7)C=C6)C=C5)cc3)cc2)c1[N+](=O)[O-]
REMARK SMILES IDX 18 1 17 2 15 3 16 4 14 6 11 7 12 8 91 9 13 10 90 11 10 12
REMARK SMILES IDX 9 14 5 15 6 16 92 17 7 18 8 19 4 20 2 22 1 23 3 24 93 25
REMARK SMILES IDX 94 26 95 27 19 28 20 29 21 30 22 31 23 33 24 34 25 35 89 36
REMARK SMILES IDX 26 37 88 38 27 39 28 40 29 41 82 42 30 43 87 44 81 45 83 46
REMARK SMILES IDX 31 47 86 48 80 49 79 50 32 52 66 53 45 54 65 55 46 56 49 57
REMARK SMILES IDX 64 58 84 59 47 60 48 61 63 63 85 64 50 65 33 66 34 67 43 68
REMARK SMILES IDX 35 69 36 70 42 71 44 72 37 73 38 74 39 75 40 76 41 77 67 78
REMARK SMILES IDX 68 79 77 80 69 81 70 82 76 83 78 84 71 85 72 86 73 87 74 88
REMARK SMILES IDX 75 89 51 90 52 91 61 92 53 93 54 94 60 95 62 96 55 97 56 98
REMARK SMILES IDX 57 99 58 100 59 101
REMARK H PARENT 17 5 10 13 4 21 21 32 83 51 49 62
REMARK Flexibility Score: inf
ROOT
ATOM      1  C   UNL A   1      34.504  29.349  26.243  1.00  0.00     0.118 C 
ENDROOT
BRANCH   1   2
ATOM      2  N   UNL A   1      33.404  30.294  26.173  1.00  0.00    -0.352 N 
ATOM      3  C   UNL A   1      32.077  30.160  25.855  1.00  0.00     0.251 C 
ATOM      4  O   UNL A   1      31.372  31.166  25.921  1.00  0.00    -0.269 OA
ATOM      5  H   UNL A   1      33.662  31.217  26.400  1.00  0.00     0.163 HD
BRANCH   3   6
ATOM      6  C   UNL A   1      31.444  28.857  25.511  1.00  0.00     0.039 A 
ATOM      7  C   UNL A   1      30.468  26.262  24.997  1.00  0.00     0.040 A 
ATOM      8  C   UNL A   1      30.910  26.603  26.272  1.00  0.00     0.027 A 
ATOM      9  C   UNL A   1      30.394  27.263  24.020  1.00  0.00     0.027 A 
ATOM     10  C   UNL A   1      31.416  27.882  26.522  1.00  0.00     0.016 A 
ATOM     11  C   UNL A   1      30.864  28.557  24.279  1.00  0.00     0.016 A 
BRANCH   7  12
ATOM     12  N   UNL A   1      30.009  24.956  24.742  1.00  0.00    -0.334 N 
ATOM     13  H   UNL A   1      29.039  24.796  24.773  1.00  0.00     0.168 HD
BRANCH  12  14
ATOM     14  C   UNL A   1      30.846  23.859  24.445  1.00  0.00     0.215 A 
ATOM     15  C   UNL A   1      31.912  21.796  24.941  1.00  0.00     0.225 A 
ATOM     16  N   UNL A   1      32.541  21.819  23.746  1.00  0.00    -0.212 NA
ATOM     17  C   UNL A   1      31.128  22.854  25.355  1.00  0.00     0.354 A 
ATOM     18  C   UNL A   1      32.281  22.855  22.947  1.00  0.00     0.227 A 
ATOM     19  N   UNL A   1      31.442  23.853  23.230  1.00  0.00    -0.212 NA
BRANCH  15  20
ATOM     20  N   UNL A   1      32.070  20.566  25.588  1.00  0.00    -0.298 N 
ATOM     21  H   UNL A   1      31.253  20.057  25.794  1.00  0.00     0.184 HD
BRANCH  20  22
ATOM     22  N   UNL A   1      33.314  19.987  25.976  1.00  0.00    -0.228 NA
ATOM     23  C   UNL A   1      33.993  19.291  24.866  1.00  0.00     0.130 C 
ATOM     24  C   UNL A   1      34.189  21.106  26.389  1.00  0.00     0.130 C 
ENDBRANCH  20  22
ENDBRANCH  15  20
BRANCH  17  25
ATOM     25  N   UNL A   1      30.674  22.955  26.710  1.00  0.00     0.070 N 
ATOM     26  O   UNL A   1      31.434  23.511  27.518  1.00  0.00    -0.258 OA
ATOM     27  O   UNL A   1      29.613  22.389  27.006  1.00  0.00    -0.258 OA
ENDBRANCH  17  25
ENDBRANCH  12  14
ENDBRANCH   7  12
ENDBRANCH   3   6
ENDBRANCH   1   2
BRANCH   1  28
ATOM     28  C   UNL A   1      35.067  29.271  27.661  1.00  0.00     0.042 C 
BRANCH  28  29
ATOM     29  C   UNL A   1      35.534  30.622  28.201  1.00  0.00     0.118 C 
BRANCH  29  30
ATOM     30  N   UNL A   1      35.490  30.672  29.656  1.00  0.00    -0.352 N 
ATOM     31  C   UNL A   1      36.431  30.290  30.580  1.00  0.00     0.251 C 
ATOM     32  H   UNL A   1      34.657  31.037  30.035  1.00  0.00     0.163 HD
ATOM     33  O   UNL A   1      36.111  30.198  31.761  1.00  0.00    -0.269 OA
BRANCH  31  34
ATOM     34  C   UNL A   1      37.816  29.979  30.161  1.00  0.00     0.039 A 
ATOM     35  C   UNL A   1      38.723  29.518  31.120  1.00  0.00     0.014 A 
ATOM     36  C   UNL A   1      38.236  30.182  28.843  1.00  0.00     0.014 A 
ATOM     37  C   UNL A   1      40.033  29.207  30.747  1.00  0.00     0.010 A 
ATOM     38  C   UNL A   1      39.524  29.814  28.460  1.00  0.00     0.010 A 
ATOM     39  C   UNL A   1      40.436  29.325  29.407  1.00  0.00    -0.014 A 
BRANCH  39  40
ATOM     40  C   UNL A   1      41.803  28.937  28.975  1.00  0.00     0.031 A 
ATOM     41  C   UNL A   1      42.899  29.967  28.916  1.00  0.00     0.074 A 
ATOM     42  C   UNL A   1      42.041  27.671  28.577  1.00  0.00     0.049 A 
ATOM     43  N   UNL A   1      44.123  29.846  28.473  1.00  0.00    -0.248 NA
ATOM     44  C   UNL A   1      42.566  31.317  29.399  1.00  0.00     0.031 C 
ATOM     45  C   UNL A   1      41.053  26.590  28.563  1.00  0.00     0.029 A 
ATOM     46  N   UNL A   1      43.183  27.081  28.097  1.00  0.00    -0.354 N 
ATOM     47  C   UNL A   1      44.705  31.101  28.616  1.00  0.00     0.074 A 
ATOM     48  C   UNL A   1      43.684  31.981  29.141  1.00  0.00     0.031 C 
ATOM     49  C   UNL A   1      41.636  25.466  28.113  1.00  0.00     0.029 A 
ATOM     50  C   UNL A   1      43.023  25.755  27.767  1.00  0.00     0.049 A 
ATOM     51  H   UNL A   1      44.036  27.562  27.997  1.00  0.00     0.167 HD
ATOM     52  C   UNL A   1      45.980  31.478  28.356  1.00  0.00     0.037 A 
ATOM     53  C   UNL A   1      43.894  24.876  27.234  1.00  0.00     0.037 A 
ATOM     54  C   UNL A   1      46.996  30.593  27.848  1.00  0.00     0.049 A 
ATOM     55  C   UNL A   1      45.296  25.330  26.925  1.00  0.00     0.074 A 
ATOM     56  C   UNL A   1      48.326  30.870  27.582  1.00  0.00     0.029 A 
ATOM     57  N   UNL A   1      46.797  29.256  27.534  1.00  0.00    -0.354 N 
ATOM     58  N   UNL A   1      45.838  26.510  27.102  1.00  0.00    -0.248 NA
ATOM     59  C   UNL A   1      46.204  24.331  26.345  1.00  0.00     0.031 C 
ATOM     60  C   UNL A   1      48.922  29.712  27.072  1.00  0.00     0.029 A 
ATOM     61  C   UNL A   1      47.975  28.699  27.063  1.00  0.00     0.049 A 
ATOM     62  H   UNL A   1      45.945  28.774  27.632  1.00  0.00     0.167 HD
ATOM     63  C   UNL A   1      47.158  26.389  26.681  1.00  0.00     0.074 A 
ATOM     64  C   UNL A   1      47.335  25.016  26.253  1.00  0.00     0.031 C 
ATOM     65  C   UNL A   1      48.135  27.327  26.651  1.00  0.00     0.037 A 
BRANCH  52  66
ATOM     66  C   UNL A   1      46.352  32.912  28.624  1.00  0.00     0.058 A 
ATOM     67  C   UNL A   1      46.846  33.318  29.874  1.00  0.00     0.135 A 
ATOM     68  C   UNL A   1      46.255  33.881  27.613  1.00  0.00     0.135 A 
ATOM     69  F   UNL A   1      46.946  32.435  30.881  1.00  0.00    -0.206 F 
ATOM     70  C   UNL A   1      47.207  34.637  30.120  1.00  0.00     0.059 A 
ATOM     71  C   UNL A   1      46.636  35.203  27.829  1.00  0.00     0.059 A 
ATOM     72  F   UNL A   1      45.790  33.548  26.399  1.00  0.00    -0.206 F 
ATOM     73  C   UNL A   1      47.098  35.574  29.092  1.00  0.00     0.060 A 
BRANCH  73  74
ATOM     74  S   UNL A   1      47.581  37.281  29.426  1.00  0.00     0.124 S 
ATOM     75  O   UNL A   1      48.328  37.134  30.671  1.00  0.00    -0.237 OA
ATOM     76  O   UNL A   1      48.374  37.618  28.248  1.00  0.00    -0.237 OA
ATOM     77  O   UNL A   1      46.305  37.980  29.539  1.00  0.00    -0.744 OA
ENDBRANCH  73  74
ENDBRANCH  52  66
BRANCH  53  78
ATOM     78  C   UNL A   1      43.473  23.476  26.966  1.00  0.00     0.058 A 
ATOM     79  C   UNL A   1      43.260  23.027  25.653  1.00  0.00     0.135 A 
ATOM     80  C   UNL A   1      43.266  22.560  28.010  1.00  0.00     0.135 A 
ATOM     81  F   UNL A   1      43.438  23.867  24.622  1.00  0.00    -0.206 F 
ATOM     82  C   UNL A   1      42.837  21.730  25.385  1.00  0.00     0.059 A 
ATOM     83  C   UNL A   1      42.868  21.250  27.765  1.00  0.00     0.059 A 
ATOM     84  F   UNL A   1      43.473  22.933  29.283  1.00  0.00    -0.206 F 
ATOM     85  C   UNL A   1      42.642  20.848  26.449  1.00  0.00     0.060 A 
BRANCH  85  86
ATOM     86  S   UNL A   1      42.123  19.156  26.089  1.00  0.00     0.124 S 
ATOM     87  O   UNL A   1      42.494  18.469  27.320  1.00  0.00    -0.237 OA
ATOM     88  O   UNL A   1      40.692  19.317  25.852  1.00  0.00    -0.237 OA
ATOM     89  O   UNL A   1      42.909  18.810  24.909  1.00  0.00    -0.744 OA
ENDBRANCH  85  86
ENDBRANCH  53  78
BRANCH  65  90
ATOM     90  C   UNL A   1      49.492  26.895  26.171  1.00  0.00     0.058 A 
ATOM     91  C   UNL A   1      50.387  26.210  27.008  1.00  0.00     0.135 A 
ATOM     92  C   UNL A   1      49.885  27.130  24.843  1.00  0.00     0.135 A 
ATOM     93  F   UNL A   1      50.063  25.968  28.289  1.00  0.00    -0.206 F 
ATOM     94  C   UNL A   1      51.632  25.792  26.552  1.00  0.00     0.059 A 
ATOM     95  C   UNL A   1      51.114  26.698  24.358  1.00  0.00     0.059 A 
ATOM     96  F   UNL A   1      49.062  27.773  23.998  1.00  0.00    -0.206 F 
ATOM     97  C   UNL A   1      51.987  26.040  25.224  1.00  0.00     0.060 A 
BRANCH  97  98
ATOM     98  S   UNL A   1      53.593  25.462  24.636  1.00  0.00     0.124 S 
ATOM     99  O   UNL A   1      53.511  24.033  24.914  1.00  0.00    -0.237 OA
ATOM    100  O   UNL A   1      53.563  25.836  23.226  1.00  0.00    -0.237 OA
ATOM    101  O   UNL A   1      54.543  26.209  25.456  1.00  0.00    -0.744 OA
ENDBRANCH  97  98
ENDBRANCH  65  90
ENDBRANCH  39  40
ENDBRANCH  31  34
ENDBRANCH  29  30
ENDBRANCH  28  29
ENDBRANCH   1  28
TORSDOF 18
ENDMDL
MODEL 3
REMARK VINA RESULT:     -11.3      5.917     10.634
REMARK SMILES CN(C)Nc1ncnc(Nc2ccc(C(=O)NCCCNC(=O)c3ccc(-c4c5nc(c(-c6c(F)cc(S(=O)(=O)[O-])cc6F)c6ccc([nH]6)c(-c6c(F)cc(S(=O)(=O)[O-])cc6F)c6nc(c(-c7c(F)cc(S(=O)(=O)[O-])cc7F)c7ccc4[nH]7)C=C6)C=C5)cc3)cc2)c1[N+](=O)[O-]
REMARK SMILES IDX 18 1 17 2 15 3 16 4 14 6 11 7 12 8 91 9 13 10 90 11 10 12
REMARK SMILES IDX 9 14 5 15 6 16 92 17 7 18 8 19 4 20 2 22 1 23 3 24 93 25
REMARK SMILES IDX 94 26 95 27 19 28 20 29 21 30 22 31 23 33 24 34 25 35 89 36
REMARK SMILES IDX 26 37 88 38 27 39 28 40 29 41 82 42 30 43 87 44 81 45 83 46
REMARK SMILES IDX 31 47 86 48 80 49 79 50 32 52 66 53 45 54 65 55 46 56 49 57
REMARK SMILES IDX 64 58 84 59 47 60 48 61 63 63 85 64 50 65 33 66 34 67 43 68
REMARK SMILES IDX 35 69 36 70 42 71 44 72 37 73 38 74 39 75 40 76 41 77 67 78
REMARK SMILES IDX 68 79 77 80 69 81 70 82 76 83 78 84 71 85 72 86 73 87 74 88
REMARK SMILES IDX 75 89 51 90 52 91 61 92 53 93 54 94 60 95 62 96 55 97 56 98
REMARK SMILES IDX 57 99 58 100 59 101
REMARK H PARENT 17 5 10 13 4 21 21 32 83 51 49 62
REMARK Flexibility Score: inf
ROOT
ATOM      1  C   UNL A   1      36.271  21.089  25.384  1.00  0.00     0.118 C 
ENDROOT
BRANCH   1   2
ATOM      2  N   UNL A   1      35.381  19.971  25.127  1.00  0.00    -0.352 N 
ATOM      3  C   UNL A   1      34.067  19.893  24.746  1.00  0.00     0.251 C 
ATOM      4  O   UNL A   1      33.591  18.771  24.571  1.00  0.00    -0.269 OA
ATOM      5  H   UNL A   1      35.808  19.091  25.252  1.00  0.00     0.163 HD
BRANCH   3   6
ATOM      6  C   UNL A   1      33.223  21.086  24.464  1.00  0.00     0.039 A 
ATOM      7  C   UNL A   1      31.393  23.179  23.994  1.00  0.00     0.040 A 
ATOM      8  C   UNL A   1      31.275  22.390  25.135  1.00  0.00     0.027 A 
ATOM      9  C   UNL A   1      32.506  22.998  23.162  1.00  0.00     0.027 A 
ATOM     10  C   UNL A   1      32.168  21.337  25.357  1.00  0.00     0.016 A 
ATOM     11  C   UNL A   1      33.424  21.969  23.404  1.00  0.00     0.016 A 
BRANCH   7  12
ATOM     12  N   UNL A   1      30.458  24.203  23.751  1.00  0.00    -0.334 N 
ATOM     13  H   UNL A   1      29.529  23.940  23.557  1.00  0.00     0.168 HD
BRANCH  12  14
ATOM     14  C   UNL A   1      30.760  25.581  23.765  1.00  0.00     0.215 A 
ATOM     15  C   UNL A   1      31.248  27.645  24.833  1.00  0.00     0.225 A 
ATOM     16  N   UNL A   1      31.290  28.269  23.636  1.00  0.00    -0.212 NA
ATOM     17  C   UNL A   1      30.893  26.315  24.932  1.00  0.00     0.354 A 
ATOM     18  C   UNL A   1      31.078  27.516  22.555  1.00  0.00     0.227 A 
ATOM     19  N   UNL A   1      30.848  26.202  22.566  1.00  0.00    -0.212 NA
BRANCH  15  20
ATOM     20  N   UNL A   1      31.712  28.468  25.864  1.00  0.00    -0.298 N 
ATOM     21  H   UNL A   1      31.548  28.169  26.787  1.00  0.00     0.184 HD
BRANCH  20  22
ATOM     22  N   UNL A   1      32.402  29.704  25.692  1.00  0.00    -0.228 NA
ATOM     23  C   UNL A   1      31.646  30.860  26.208  1.00  0.00     0.130 C 
ATOM     24  C   UNL A   1      33.645  29.606  26.486  1.00  0.00     0.130 C 
ENDBRANCH  20  22
ENDBRANCH  15  20
BRANCH  17  25
ATOM     25  N   UNL A   1      30.597  25.719  26.201  1.00  0.00     0.070 N 
ATOM     26  O   UNL A   1      29.414  25.411  26.415  1.00  0.00    -0.258 OA
ATOM     27  O   UNL A   1      31.511  25.652  27.033  1.00  0.00    -0.258 OA
ENDBRANCH  17  25
ENDBRANCH  12  14
ENDBRANCH   7  12
ENDBRANCH   3   6
ENDBRANCH   1   2
BRANCH   1  28
ATOM     28  C   UNL A   1      37.675  20.803  24.853  1.00  0.00     0.042 C 
BRANCH  28  29
ATOM     29  C   UNL A   1      38.777  21.108  25.867  1.00  0.00     0.118 C 
BRANCH  29  30
ATOM     30  N   UNL A   1      39.720  20.004  25.994  1.00  0.00    -0.352 N 
ATOM     31  C   UNL A   1      41.083  20.024  26.161  1.00  0.00     0.251 C 
ATOM     32  H   UNL A   1      39.318  19.106  25.954  1.00  0.00     0.163 HD
ATOM     33  O   UNL A   1      41.722  18.987  26.015  1.00  0.00    -0.269 OA
BRANCH  31  34
ATOM     34  C   UNL A   1      41.781  21.283  26.503  1.00  0.00     0.039 A 
ATOM     35  C   UNL A   1      42.144  22.155  25.471  1.00  0.00     0.014 A 
ATOM     36  C   UNL A   1      42.120  21.587  27.824  1.00  0.00     0.014 A 
ATOM     37  C   UNL A   1      42.794  23.354  25.769  1.00  0.00     0.010 A 
ATOM     38  C   UNL A   1      42.714  22.811  28.126  1.00  0.00     0.010 A 
ATOM     39  C   UNL A   1      43.058  23.707  27.103  1.00  0.00    -0.014 A 
BRANCH  39  40
ATOM     40  C   UNL A   1      43.688  25.007  27.448  1.00  0.00     0.031 A 
ATOM     41  C   UNL A   1      42.847  26.139  27.974  1.00  0.00     0.074 A 
ATOM     42  C   UNL A   1      45.006  25.186  27.228  1.00  0.00     0.049 A 
ATOM     43  N   UNL A   1      43.194  27.372  28.236  1.00  0.00    -0.248 NA
ATOM     44  C   UNL A   1      41.424  25.850  28.218  1.00  0.00     0.031 C 
ATOM     45  C   UNL A   1      45.920  24.173  26.695  1.00  0.00     0.029 A 
ATOM     46  N   UNL A   1      45.804  26.286  27.413  1.00  0.00    -0.354 N 
ATOM     47  C   UNL A   1      42.036  28.009  28.667  1.00  0.00     0.074 A 
ATOM     48  C   UNL A   1      40.965  27.038  28.584  1.00  0.00     0.031 C 
ATOM     49  C   UNL A   1      47.155  24.694  26.611  1.00  0.00     0.029 A 
ATOM     50  C   UNL A   1      47.114  26.087  27.043  1.00  0.00     0.049 A 
ATOM     51  H   UNL A   1      45.471  27.139  27.776  1.00  0.00     0.167 HD
ATOM     52  C   UNL A   1      41.882  29.279  29.113  1.00  0.00     0.037 A 
ATOM     53  C   UNL A   1      48.160  26.936  27.041  1.00  0.00     0.037 A 
ATOM     54  C   UNL A   1      42.955  30.236  29.208  1.00  0.00     0.049 A 
ATOM     55  C   UNL A   1      47.957  28.351  27.512  1.00  0.00     0.074 A 
ATOM     56  C   UNL A   1      42.910  31.537  29.677  1.00  0.00     0.029 A 
ATOM     57  N   UNL A   1      44.269  29.993  28.832  1.00  0.00    -0.354 N 
ATOM     58  N   UNL A   1      46.862  28.924  27.950  1.00  0.00    -0.248 NA
ATOM     59  C   UNL A   1      49.131  29.234  27.488  1.00  0.00     0.031 C 
ATOM     60  C   UNL A   1      44.187  32.093  29.550  1.00  0.00     0.029 A 
ATOM     61  C   UNL A   1      45.039  31.125  29.044  1.00  0.00     0.049 A 
ATOM     62  H   UNL A   1      44.603  29.142  28.468  1.00  0.00     0.167 HD
ATOM     63  C   UNL A   1      47.221  30.226  28.282  1.00  0.00     0.074 A 
ATOM     64  C   UNL A   1      48.638  30.351  28.004  1.00  0.00     0.031 C 
ATOM     65  C   UNL A   1      46.451  31.228  28.770  1.00  0.00     0.037 A 
BRANCH  52  66
ATOM     66  C   UNL A   1      40.505  29.707  29.542  1.00  0.00     0.058 A 
ATOM     67  C   UNL A   1      40.195  29.927  30.894  1.00  0.00     0.135 A 
ATOM     68  C   UNL A   1      39.497  29.942  28.593  1.00  0.00     0.135 A 
ATOM     69  F   UNL A   1      41.117  29.704  31.845  1.00  0.00    -0.206 F 
ATOM     70  C   UNL A   1      38.928  30.339  31.293  1.00  0.00     0.059 A 
ATOM     71  C   UNL A   1      38.229  30.381  28.967  1.00  0.00     0.059 A 
ATOM     72  F   UNL A   1      39.739  29.749  27.287  1.00  0.00    -0.206 F 
ATOM     73  C   UNL A   1      37.951  30.563  30.322  1.00  0.00     0.060 A 
BRANCH  73  74
ATOM     74  S   UNL A   1      36.315  31.108  30.856  1.00  0.00     0.124 S 
ATOM     75  O   UNL A   1      35.931  30.030  31.762  1.00  0.00    -0.237 OA
ATOM     76  O   UNL A   1      36.603  32.393  31.486  1.00  0.00    -0.237 OA
ATOM     77  O   UNL A   1      35.556  31.180  29.611  1.00  0.00    -0.744 OA
ENDBRANCH  73  74
ENDBRANCH  52  66
BRANCH  53  78
ATOM     78  C   UNL A   1      49.498  26.472  26.586  1.00  0.00     0.058 A 
ATOM     79  C   UNL A   1      49.913  26.663  25.259  1.00  0.00     0.135 A 
ATOM     80  C   UNL A   1      50.385  25.824  27.461  1.00  0.00     0.135 A 
ATOM     81  F   UNL A   1      49.098  27.271  24.384  1.00  0.00    -0.206 F 
ATOM     82  C   UNL A   1      51.148  26.209  24.809  1.00  0.00     0.059 A 
ATOM     83  C   UNL A   1      51.636  25.385  27.040  1.00  0.00     0.059 A 
ATOM     84  F   UNL A   1      50.044  25.633  28.745  1.00  0.00    -0.206 F 
ATOM     85  C   UNL A   1      52.003  25.569  25.707  1.00  0.00     0.060 A 
BRANCH  85  86
ATOM     86  S   UNL A   1      53.618  25.012  25.122  1.00  0.00     0.124 S 
ATOM     87  O   UNL A   1      53.633  25.536  23.762  1.00  0.00    -0.237 OA
ATOM     88  O   UNL A   1      54.526  25.655  26.066  1.00  0.00    -0.237 OA
ATOM     89  O   UNL A   1      53.533  23.559  25.240  1.00  0.00    -0.744 OA
ENDBRANCH  85  86
ENDBRANCH  53  78
BRANCH  65  90
ATOM     90  C   UNL A   1      47.127  32.536  29.069  1.00  0.00     0.058 A 
ATOM     91  C   UNL A   1      47.203  33.563  28.115  1.00  0.00     0.135 A 
ATOM     92  C   UNL A   1      47.667  32.782  30.343  1.00  0.00     0.135 A 
ATOM     93  F   UNL A   1      46.710  33.374  26.880  1.00  0.00    -0.206 F 
ATOM     94  C   UNL A   1      47.811  34.779  28.405  1.00  0.00     0.059 A 
ATOM     95  C   UNL A   1      48.254  34.001  30.663  1.00  0.00     0.059 A 
ATOM     96  F   UNL A   1      47.611  31.837  31.295  1.00  0.00    -0.206 F 
ATOM     97  C   UNL A   1      48.332  34.990  29.683  1.00  0.00     0.060 A 
BRANCH  97  98
ATOM     98  S   UNL A   1      49.087  36.587  30.057  1.00  0.00     0.124 S 
ATOM     99  O   UNL A   1      48.506  37.436  29.023  1.00  0.00    -0.237 OA
ATOM    100  O   UNL A   1      48.627  36.840  31.418  1.00  0.00    -0.237 OA
ATOM    101  O   UNL A   1      50.517  36.325  29.924  1.00  0.00    -0.744 OA
ENDBRANCH  97  98
ENDBRANCH  65  90
ENDBRANCH  39  40
ENDBRANCH  31  34
ENDBRANCH  29  30
ENDBRANCH  28  29
ENDBRANCH   1  28
TORSDOF 18
ENDMDL
