MODEL 1
REMARK VINA RESULT:     -11.7      0.000      0.000
REMARK SMILES O=C(NCCCNC(=O)[C@@H]1C=C[C@H](Nc2ncccn2)C1)c1ccc(-c2c3nc(c(-c4c(F)cc(S(=O)(=O)[O-])cc4F)c4ccc([nH]4)c(-c4c(F)cc(S(=O)(=O)[O-])cc4F)c4nc(c(-c5c(F)cc(S(=O)(=O)[O-])cc5F)c5ccc2[nH]5)C=C4)C=C3)cc1
REMARK SMILES IDX 4 1 3 2 1 3 2 4 22 6 23 7 87 8 24 9 86 10 25 11 26 12 27 13
REMARK SMILES IDX 80 14 28 15 85 16 79 17 81 18 29 19 84 20 78 21 77 22 30 24
REMARK SMILES IDX 64 25 43 26 63 27 44 28 47 29 62 30 82 31 45 32 46 33 61 35
REMARK SMILES IDX 83 36 48 37 31 38 32 39 41 40 33 41 34 42 40 43 42 44 35 45
REMARK SMILES IDX 36 46 37 47 38 48 39 49 65 50 66 51 75 52 67 53 68 54 74 55
REMARK SMILES IDX 76 56 69 57 70 58 71 59 72 60 73 61 49 62 50 63 59 64 51 65
REMARK SMILES IDX 52 66 58 67 60 68 53 69 54 70 55 71 56 72 57 73 5 74 6 75
REMARK SMILES IDX 7 76 8 77 9 79 10 80 11 81 21 82 12 83 13 84 14 85 15 87
REMARK SMILES IDX 16 88 20 89 17 90 19 91 18 92
REMARK H PARENT 3 5 81 23 47 34 7 78 14 86
REMARK Flexibility Score: inf
ROOT
ATOM      1  C   UNL A   1      41.167  22.990  27.235  1.00  0.00     0.118 C 
ENDROOT
BRANCH   1   2
ATOM      2  N   UNL A   1      41.405  23.909  26.129  1.00  0.00    -0.352 N 
ATOM      3  O   UNL A   1      41.435  25.852  25.001  1.00  0.00    -0.269 OA
ATOM      4  C   UNL A   1      41.368  25.284  26.089  1.00  0.00     0.251 C 
ATOM      5  H   UNL A   1      41.629  23.477  25.274  1.00  0.00     0.163 HD
BRANCH   4   6
ATOM      6  C   UNL A   1      41.221  26.077  27.330  1.00  0.00     0.039 A 
ATOM      7  C   UNL A   1      40.128  25.895  28.180  1.00  0.00     0.014 A 
ATOM      8  C   UNL A   1      42.210  27.009  27.666  1.00  0.00     0.014 A 
ATOM      9  C   UNL A   1      39.935  26.756  29.256  1.00  0.00     0.010 A 
ATOM     10  C   UNL A   1      42.061  27.809  28.805  1.00  0.00     0.010 A 
ATOM     11  C   UNL A   1      40.898  27.724  29.585  1.00  0.00    -0.014 A 
BRANCH  11  12
ATOM     12  C   UNL A   1      40.669  28.608  30.760  1.00  0.00     0.031 A 
ATOM     13  C   UNL A   1      41.541  28.517  31.985  1.00  0.00     0.074 A 
ATOM     14  C   UNL A   1      39.695  29.538  30.697  1.00  0.00     0.049 A 
ATOM     15  N   UNL A   1      41.522  29.256  33.066  1.00  0.00    -0.248 NA
ATOM     16  C   UNL A   1      42.560  27.456  32.008  1.00  0.00     0.031 C 
ATOM     17  C   UNL A   1      38.770  29.713  29.573  1.00  0.00     0.029 A 
ATOM     18  N   UNL A   1      39.335  30.527  31.577  1.00  0.00    -0.354 N 
ATOM     19  C   UNL A   1      42.503  28.738  33.905  1.00  0.00     0.074 A 
ATOM     20  C   UNL A   1      43.083  27.604  33.218  1.00  0.00     0.031 C 
ATOM     21  C   UNL A   1      37.992  30.780  29.805  1.00  0.00     0.029 A 
ATOM     22  C   UNL A   1      38.322  31.333  31.114  1.00  0.00     0.049 A 
ATOM     23  H   UNL A   1      39.761  30.648  32.456  1.00  0.00     0.167 HD
ATOM     24  C   UNL A   1      42.890  29.173  35.129  1.00  0.00     0.037 A 
ATOM     25  C   UNL A   1      37.721  32.399  31.677  1.00  0.00     0.037 A 
ATOM     26  C   UNL A   1      42.329  30.320  35.798  1.00  0.00     0.049 A 
ATOM     27  C   UNL A   1      38.177  32.866  33.029  1.00  0.00     0.074 A 
ATOM     28  C   UNL A   1      42.687  30.867  37.018  1.00  0.00     0.029 A 
ATOM     29  N   UNL A   1      41.292  31.098  35.304  1.00  0.00    -0.354 N 
ATOM     30  N   UNL A   1      39.134  32.385  33.787  1.00  0.00    -0.248 NA
ATOM     31  C   UNL A   1      37.474  34.021  33.602  1.00  0.00     0.031 C 
ATOM     32  C   UNL A   1      41.840  31.949  37.281  1.00  0.00     0.029 A 
ATOM     33  C   UNL A   1      40.984  32.107  36.203  1.00  0.00     0.049 A 
ATOM     34  H   UNL A   1      40.840  30.954  34.441  1.00  0.00     0.167 HD
ATOM     35  C   UNL A   1      39.162  33.193  34.919  1.00  0.00     0.074 A 
ATOM     36  C   UNL A   1      38.136  34.200  34.736  1.00  0.00     0.031 C 
ATOM     37  C   UNL A   1      39.965  33.107  36.007  1.00  0.00     0.037 A 
BRANCH  24  38
ATOM     38  C   UNL A   1      43.966  28.396  35.840  1.00  0.00     0.058 A 
ATOM     39  C   UNL A   1      45.328  28.694  35.676  1.00  0.00     0.135 A 
ATOM     40  C   UNL A   1      43.625  27.362  36.729  1.00  0.00     0.135 A 
ATOM     41  F   UNL A   1      45.711  29.662  34.830  1.00  0.00    -0.206 F 
ATOM     42  C   UNL A   1      46.316  27.977  36.347  1.00  0.00     0.059 A 
ATOM     43  C   UNL A   1      44.596  26.648  37.428  1.00  0.00     0.059 A 
ATOM     44  F   UNL A   1      42.338  27.036  36.925  1.00  0.00    -0.206 F 
ATOM     45  C   UNL A   1      45.939  26.953  37.218  1.00  0.00     0.060 A 
BRANCH  45  46
ATOM     46  S   UNL A   1      47.231  26.028  38.075  1.00  0.00     0.124 S 
ATOM     47  O   UNL A   1      48.425  26.469  37.361  1.00  0.00    -0.237 OA
ATOM     48  O   UNL A   1      47.102  26.508  39.448  1.00  0.00    -0.237 OA
ATOM     49  O   UNL A   1      46.850  24.636  37.863  1.00  0.00    -0.744 OA
ENDBRANCH  45  46
ENDBRANCH  24  38
BRANCH  25  50
ATOM     50  C   UNL A   1      36.635  33.104  30.948  1.00  0.00     0.058 A 
ATOM     51  C   UNL A   1      35.302  33.016  31.376  1.00  0.00     0.135 A 
ATOM     52  C   UNL A   1      36.912  33.899  29.825  1.00  0.00     0.135 A 
ATOM     53  F   UNL A   1      34.988  32.264  32.442  1.00  0.00    -0.206 F 
ATOM     54  C   UNL A   1      34.279  33.680  30.709  1.00  0.00     0.059 A 
ATOM     55  C   UNL A   1      35.909  34.594  29.157  1.00  0.00     0.059 A 
ATOM     56  F   UNL A   1      38.173  34.030  29.387  1.00  0.00    -0.206 F 
ATOM     57  C   UNL A   1      34.594  34.470  29.600  1.00  0.00     0.060 A 
BRANCH  57  58
ATOM     58  S   UNL A   1      33.266  35.372  28.772  1.00  0.00     0.124 S 
ATOM     59  O   UNL A   1      34.018  36.355  28.000  1.00  0.00    -0.237 OA
ATOM     60  O   UNL A   1      32.612  34.319  28.001  1.00  0.00    -0.237 OA
ATOM     61  O   UNL A   1      32.482  35.905  29.882  1.00  0.00    -0.744 OA
ENDBRANCH  57  58
ENDBRANCH  25  50
BRANCH  37  62
ATOM     62  C   UNL A   1      39.790  34.155  37.071  1.00  0.00     0.058 A 
ATOM     63  C   UNL A   1      39.070  33.900  38.249  1.00  0.00     0.135 A 
ATOM     64  C   UNL A   1      40.371  35.424  36.918  1.00  0.00     0.135 A 
ATOM     65  F   UNL A   1      38.490  32.705  38.441  1.00  0.00    -0.206 F 
ATOM     66  C   UNL A   1      38.904  34.878  39.224  1.00  0.00     0.059 A 
ATOM     67  C   UNL A   1      40.238  36.409  37.891  1.00  0.00     0.059 A 
ATOM     68  F   UNL A   1      41.078  35.716  35.814  1.00  0.00    -0.206 F 
ATOM     69  C   UNL A   1      39.489  36.132  39.034  1.00  0.00     0.060 A 
BRANCH  69  70
ATOM     70  S   UNL A   1      39.279  37.392  40.309  1.00  0.00     0.124 S 
ATOM     71  O   UNL A   1      38.541  36.656  41.329  1.00  0.00    -0.237 OA
ATOM     72  O   UNL A   1      40.658  37.732  40.646  1.00  0.00    -0.237 OA
ATOM     73  O   UNL A   1      38.530  38.442  39.627  1.00  0.00    -0.744 OA
ENDBRANCH  69  70
ENDBRANCH  37  62
ENDBRANCH  11  12
ENDBRANCH   4   6
ENDBRANCH   1   2
BRANCH   1  74
ATOM     74  C   UNL A   1      40.926  21.557  26.773  1.00  0.00     0.042 C 
BRANCH  74  75
ATOM     75  C   UNL A   1      39.567  21.337  26.116  1.00  0.00     0.117 C 
BRANCH  75  76
ATOM     76  N   UNL A   1      38.634  22.402  26.443  1.00  0.00    -0.356 N 
ATOM     77  C   UNL A   1      37.541  22.841  25.748  1.00  0.00     0.227 C 
ATOM     78  H   UNL A   1      38.816  22.877  27.285  1.00  0.00     0.163 HD
ATOM     79  O   UNL A   1      36.977  23.861  26.145  1.00  0.00    -0.274 OA
BRANCH  77  80
ATOM     80  C   UNL A   1      37.050  22.034  24.543  1.00  0.00     0.103 C 
ATOM     81  C   UNL A   1      36.654  22.921  23.403  1.00  0.00    -0.016 C 
ATOM     82  C   UNL A   1      35.738  21.278  24.842  1.00  0.00     0.047 C 
ATOM     83  C   UNL A   1      35.329  22.955  23.236  1.00  0.00    -0.006 C 
ATOM     84  C   UNL A   1      34.599  22.116  24.240  1.00  0.00     0.106 C 
BRANCH  84  85
ATOM     85  N   UNL A   1      34.007  22.984  25.222  1.00  0.00    -0.348 N 
ATOM     86  H   UNL A   1      34.424  23.109  26.106  1.00  0.00     0.164 HD
BRANCH  85  87
ATOM     87  C   UNL A   1      32.841  23.633  24.890  1.00  0.00     0.223 A 
ATOM     88  N   UNL A   1      32.767  24.926  25.225  1.00  0.00    -0.222 NA
ATOM     89  N   UNL A   1      31.885  22.985  24.203  1.00  0.00    -0.222 NA
ATOM     90  C   UNL A   1      31.691  25.610  24.792  1.00  0.00     0.117 A 
ATOM     91  C   UNL A   1      30.814  23.703  23.819  1.00  0.00     0.117 A 
ATOM     92  C   UNL A   1      30.668  25.043  24.076  1.00  0.00     0.040 A 
ENDBRANCH  85  87
ENDBRANCH  84  85
ENDBRANCH  77  80
ENDBRANCH  75  76
ENDBRANCH  74  75
ENDBRANCH   1  74
TORSDOF 15
ENDMDL
MODEL 2
REMARK VINA RESULT:     -11.7      6.993     12.536
REMARK SMILES O=C(NCCCNC(=O)[C@@H]1C=C[C@H](Nc2ncccn2)C1)c1ccc(-c2c3nc(c(-c4c(F)cc(S(=O)(=O)[O-])cc4F)c4ccc([nH]4)c(-c4c(F)cc(S(=O)(=O)[O-])cc4F)c4nc(c(-c5c(F)cc(S(=O)(=O)[O-])cc5F)c5ccc2[nH]5)C=C4)C=C3)cc1
REMARK SMILES IDX 4 1 3 2 1 3 2 4 22 6 23 7 87 8 24 9 86 10 25 11 26 12 27 13
REMARK SMILES IDX 80 14 28 15 85 16 79 17 81 18 29 19 84 20 78 21 77 22 30 24
REMARK SMILES IDX 64 25 43 26 63 27 44 28 47 29 62 30 82 31 45 32 46 33 61 35
REMARK SMILES IDX 83 36 48 37 31 38 32 39 41 40 33 41 34 42 40 43 42 44 35 45
REMARK SMILES IDX 36 46 37 47 38 48 39 49 65 50 66 51 75 52 67 53 68 54 74 55
REMARK SMILES IDX 76 56 69 57 70 58 71 59 72 60 73 61 49 62 50 63 59 64 51 65
REMARK SMILES IDX 52 66 58 67 60 68 53 69 54 70 55 71 56 72 57 73 5 74 6 75
REMARK SMILES IDX 7 76 8 77 9 79 10 80 11 81 21 82 12 83 13 84 14 85 15 87
REMARK SMILES IDX 16 88 20 89 17 90 19 91 18 92
REMARK H PARENT 3 5 81 23 47 34 7 78 14 86
REMARK Flexibility Score: inf
ROOT
ATOM      1  C   UNL A   1      35.510  31.186  28.263  1.00  0.00     0.118 C 
ENDROOT
BRANCH   1   2
ATOM      2  N   UNL A   1      35.487  30.961  29.702  1.00  0.00    -0.352 N 
ATOM      3  O   UNL A   1      36.075  30.085  31.686  1.00  0.00    -0.269 OA
ATOM      4  C   UNL A   1      36.381  30.304  30.516  1.00  0.00     0.251 C 
ATOM      5  H   UNL A   1      34.707  31.339  30.167  1.00  0.00     0.163 HD
BRANCH   4   6
ATOM      6  C   UNL A   1      37.685  29.837  29.992  1.00  0.00     0.039 A 
ATOM      7  C   UNL A   1      38.679  29.361  30.848  1.00  0.00     0.014 A 
ATOM      8  C   UNL A   1      37.911  29.854  28.611  1.00  0.00     0.014 A 
ATOM      9  C   UNL A   1      39.946  29.073  30.348  1.00  0.00     0.010 A 
ATOM     10  C   UNL A   1      39.156  29.470  28.101  1.00  0.00     0.010 A 
ATOM     11  C   UNL A   1      40.202  29.121  28.968  1.00  0.00    -0.014 A 
BRANCH  11  12
ATOM     12  C   UNL A   1      41.562  28.780  28.469  1.00  0.00     0.031 A 
ATOM     13  C   UNL A   1      42.664  29.806  28.446  1.00  0.00     0.074 A 
ATOM     14  C   UNL A   1      41.816  27.514  28.079  1.00  0.00     0.049 A 
ATOM     15  N   UNL A   1      43.921  29.659  28.107  1.00  0.00    -0.248 NA
ATOM     16  C   UNL A   1      42.314  31.178  28.846  1.00  0.00     0.031 C 
ATOM     17  C   UNL A   1      40.827  26.433  28.036  1.00  0.00     0.029 A 
ATOM     18  N   UNL A   1      42.980  26.912  27.674  1.00  0.00    -0.354 N 
ATOM     19  C   UNL A   1      44.503  30.916  28.227  1.00  0.00     0.074 A 
ATOM     20  C   UNL A   1      43.456  31.822  28.647  1.00  0.00     0.031 C 
ATOM     21  C   UNL A   1      41.437  25.291  27.686  1.00  0.00     0.029 A 
ATOM     22  C   UNL A   1      42.846  25.566  27.427  1.00  0.00     0.049 A 
ATOM     23  H   UNL A   1      43.830  27.398  27.570  1.00  0.00     0.167 HD
ATOM     24  C   UNL A   1      45.792  31.279  28.017  1.00  0.00     0.037 A 
ATOM     25  C   UNL A   1      43.753  24.651  27.035  1.00  0.00     0.037 A 
ATOM     26  C   UNL A   1      46.838  30.367  27.627  1.00  0.00     0.049 A 
ATOM     27  C   UNL A   1      45.177  25.078  26.819  1.00  0.00     0.074 A 
ATOM     28  C   UNL A   1      48.183  30.630  27.434  1.00  0.00     0.029 A 
ATOM     29  N   UNL A   1      46.658  29.016  27.368  1.00  0.00    -0.354 N 
ATOM     30  N   UNL A   1      45.714  26.265  26.977  1.00  0.00    -0.248 NA
ATOM     31  C   UNL A   1      46.118  24.042  26.374  1.00  0.00     0.031 C 
ATOM     32  C   UNL A   1      48.809  29.449  27.021  1.00  0.00     0.029 A 
ATOM     33  C   UNL A   1      47.862  28.437  27.000  1.00  0.00     0.049 A 
ATOM     34  H   UNL A   1      45.799  28.538  27.435  1.00  0.00     0.167 HD
ATOM     35  C   UNL A   1      47.062  26.113  26.671  1.00  0.00     0.074 A 
ATOM     36  C   UNL A   1      47.258  24.718  26.334  1.00  0.00     0.031 C 
ATOM     37  C   UNL A   1      48.045  27.046  26.671  1.00  0.00     0.037 A 
BRANCH  24  38
ATOM     38  C   UNL A   1      46.148  32.731  28.188  1.00  0.00     0.058 A 
ATOM     39  C   UNL A   1      46.663  33.232  29.394  1.00  0.00     0.135 A 
ATOM     40  C   UNL A   1      46.006  33.629  27.116  1.00  0.00     0.135 A 
ATOM     41  F   UNL A   1      46.807  32.423  30.456  1.00  0.00    -0.206 F 
ATOM     42  C   UNL A   1      47.000  34.575  29.541  1.00  0.00     0.059 A 
ATOM     43  C   UNL A   1      46.359  34.971  27.233  1.00  0.00     0.059 A 
ATOM     44  F   UNL A   1      45.520  33.204  25.940  1.00  0.00    -0.206 F 
ATOM     45  C   UNL A   1      46.840  35.438  28.455  1.00  0.00     0.060 A 
BRANCH  45  46
ATOM     46  S   UNL A   1      47.275  37.178  28.661  1.00  0.00     0.124 S 
ATOM     47  O   UNL A   1      46.591  37.502  29.909  1.00  0.00    -0.237 OA
ATOM     48  O   UNL A   1      48.732  37.130  28.733  1.00  0.00    -0.237 OA
ATOM     49  O   UNL A   1      46.730  37.809  27.464  1.00  0.00    -0.744 OA
ENDBRANCH  45  46
ENDBRANCH  24  38
BRANCH  25  50
ATOM     50  C   UNL A   1      43.338  23.238  26.840  1.00  0.00     0.058 A 
ATOM     51  C   UNL A   1      43.228  22.688  25.554  1.00  0.00     0.135 A 
ATOM     52  C   UNL A   1      43.068  22.403  27.935  1.00  0.00     0.135 A 
ATOM     53  F   UNL A   1      43.472  23.448  24.476  1.00  0.00    -0.206 F 
ATOM     54  C   UNL A   1      42.852  21.364  25.359  1.00  0.00     0.059 A 
ATOM     55  C   UNL A   1      42.715  21.068  27.766  1.00  0.00     0.059 A 
ATOM     56  F   UNL A   1      43.177  22.877  29.185  1.00  0.00    -0.206 F 
ATOM     57  C   UNL A   1      42.599  20.560  26.474  1.00  0.00     0.060 A 
BRANCH  57  58
ATOM     58  S   UNL A   1      42.163  18.827  26.214  1.00  0.00     0.124 S 
ATOM     59  O   UNL A   1      42.353  18.274  27.550  1.00  0.00    -0.237 OA
ATOM     60  O   UNL A   1      40.782  18.922  25.752  1.00  0.00    -0.237 OA
ATOM     61  O   UNL A   1      43.124  18.389  25.206  1.00  0.00    -0.744 OA
ENDBRANCH  57  58
ENDBRANCH  25  50
BRANCH  37  62
ATOM     62  C   UNL A   1      49.432  26.578  26.330  1.00  0.00     0.058 A 
ATOM     63  C   UNL A   1      50.268  25.982  27.289  1.00  0.00     0.135 A 
ATOM     64  C   UNL A   1      49.924  26.708  25.021  1.00  0.00     0.135 A 
ATOM     65  F   UNL A   1      49.848  25.840  28.556  1.00  0.00    -0.206 F 
ATOM     66  C   UNL A   1      51.554  25.560  26.969  1.00  0.00     0.059 A 
ATOM     67  C   UNL A   1      51.198  26.271  24.674  1.00  0.00     0.059 A 
ATOM     68  F   UNL A   1      49.161  27.263  24.065  1.00  0.00    -0.206 F 
ATOM     69  C   UNL A   1      52.012  25.713  25.659  1.00  0.00     0.060 A 
BRANCH  69  70
ATOM     70  S   UNL A   1      53.678  25.153  25.248  1.00  0.00     0.124 S 
ATOM     71  O   UNL A   1      54.471  25.813  26.280  1.00  0.00    -0.237 OA
ATOM     72  O   UNL A   1      53.562  23.703  25.369  1.00  0.00    -0.237 OA
ATOM     73  O   UNL A   1      53.877  25.648  23.890  1.00  0.00    -0.744 OA
ENDBRANCH  69  70
ENDBRANCH  37  62
ENDBRANCH  11  12
ENDBRANCH   4   6
ENDBRANCH   1   2
BRANCH   1  74
ATOM     74  C   UNL A   1      34.122  31.134  27.632  1.00  0.00     0.042 C 
BRANCH  74  75
ATOM     75  C   UNL A   1      33.778  29.791  26.998  1.00  0.00     0.117 C 
BRANCH  75  76
ATOM     76  N   UNL A   1      33.653  29.895  25.554  1.00  0.00    -0.356 N 
ATOM     77  C   UNL A   1      33.251  28.954  24.647  1.00  0.00     0.227 C 
ATOM     78  H   UNL A   1      33.894  30.770  25.173  1.00  0.00     0.163 HD
ATOM     79  O   UNL A   1      33.363  29.221  23.450  1.00  0.00    -0.274 OA
BRANCH  77  80
ATOM     80  C   UNL A   1      32.654  27.638  25.154  1.00  0.00     0.103 C 
ATOM     81  C   UNL A   1      33.135  26.464  24.356  1.00  0.00    -0.016 C 
ATOM     82  C   UNL A   1      31.127  27.572  24.948  1.00  0.00     0.047 C 
ATOM     83  C   UNL A   1      32.173  25.971  23.570  1.00  0.00    -0.006 C 
ATOM     84  C   UNL A   1      30.888  26.731  23.684  1.00  0.00     0.106 C 
BRANCH  84  85
ATOM     85  N   UNL A   1      30.738  27.562  22.519  1.00  0.00    -0.348 N 
ATOM     86  H   UNL A   1      31.352  27.477  21.754  1.00  0.00     0.164 HD
BRANCH  85  87
ATOM     87  C   UNL A   1      29.712  28.478  22.508  1.00  0.00     0.223 A 
ATOM     88  N   UNL A   1      29.923  29.593  21.799  1.00  0.00    -0.222 NA
ATOM     89  N   UNL A   1      28.553  28.196  23.126  1.00  0.00    -0.222 NA
ATOM     90  C   UNL A   1      28.884  30.440  21.667  1.00  0.00     0.117 A 
ATOM     91  C   UNL A   1      27.555  29.087  22.992  1.00  0.00     0.117 A 
ATOM     92  C   UNL A   1      27.659  30.236  22.249  1.00  0.00     0.040 A 
ENDBRANCH  85  87
ENDBRANCH  84  85
ENDBRANCH  77  80
ENDBRANCH  75  76
ENDBRANCH  74  75
ENDBRANCH   1  74
TORSDOF 15
ENDMDL
MODEL 3
REMARK VINA RESULT:     -11.7      1.103      2.084
REMARK SMILES O=C(NCCCNC(=O)[C@@H]1C=C[C@H](Nc2ncccn2)C1)c1ccc(-c2c3nc(c(-c4c(F)cc(S(=O)(=O)[O-])cc4F)c4ccc([nH]4)c(-c4c(F)cc(S(=O)(=O)[O-])cc4F)c4nc(c(-c5c(F)cc(S(=O)(=O)[O-])cc5F)c5ccc2[nH]5)C=C4)C=C3)cc1
REMARK SMILES IDX 4 1 3 2 1 3 2 4 22 6 23 7 87 8 24 9 86 10 25 11 26 12 27 13
REMARK SMILES IDX 80 14 28 15 85 16 79 17 81 18 29 19 84 20 78 21 77 22 30 24
REMARK SMILES IDX 64 25 43 26 63 27 44 28 47 29 62 30 82 31 45 32 46 33 61 35
REMARK SMILES IDX 83 36 48 37 31 38 32 39 41 40 33 41 34 42 40 43 42 44 35 45
REMARK SMILES IDX 36 46 37 47 38 48 39 49 65 50 66 51 75 52 67 53 68 54 74 55
REMARK SMILES IDX 76 56 69 57 70 58 71 59 72 60 73 61 49 62 50 63 59 64 51 65
REMARK SMILES IDX 52 66 58 67 60 68 53 69 54 70 55 71 56 72 57 73 5 74 6 75
REMARK SMILES IDX 7 76 8 77 9 79 10 80 11 81 21 82 12 83 13 84 14 85 15 87
REMARK SMILES IDX 16 88 20 89 17 90 19 91 18 92
REMARK H PARENT 3 5 81 23 47 34 7 78 14 86
REMARK Flexibility Score: inf
ROOT
ATOM      1  C   UNL A   1      40.276  23.067  27.097  1.00  0.00     0.118 C 
ENDROOT
BRANCH   1   2
ATOM      2  N   UNL A   1      40.928  23.889  26.087  1.00  0.00    -0.352 N 
ATOM      3  O   UNL A   1      41.656  25.755  25.068  1.00  0.00    -0.269 OA
ATOM      4  C   UNL A   1      41.262  25.224  26.104  1.00  0.00     0.251 C 
ATOM      5  H   UNL A   1      41.169  23.414  25.260  1.00  0.00     0.163 HD
BRANCH   4   6
ATOM      6  C   UNL A   1      41.126  26.026  27.341  1.00  0.00     0.039 A 
ATOM      7  C   UNL A   1      40.036  25.856  28.197  1.00  0.00     0.014 A 
ATOM      8  C   UNL A   1      42.122  26.954  27.666  1.00  0.00     0.014 A 
ATOM      9  C   UNL A   1      39.853  26.725  29.269  1.00  0.00     0.010 A 
ATOM     10  C   UNL A   1      41.983  27.762  28.800  1.00  0.00     0.010 A 
ATOM     11  C   UNL A   1      40.824  27.689  29.587  1.00  0.00    -0.014 A 
BRANCH  11  12
ATOM     12  C   UNL A   1      40.605  28.583  30.757  1.00  0.00     0.031 A 
ATOM     13  C   UNL A   1      41.479  28.491  31.980  1.00  0.00     0.074 A 
ATOM     14  C   UNL A   1      39.639  29.521  30.691  1.00  0.00     0.049 A 
ATOM     15  N   UNL A   1      41.470  29.237  33.058  1.00  0.00    -0.248 NA
ATOM     16  C   UNL A   1      42.489  27.421  32.007  1.00  0.00     0.031 C 
ATOM     17  C   UNL A   1      38.713  29.697  29.569  1.00  0.00     0.029 A 
ATOM     18  N   UNL A   1      39.290  30.517  31.566  1.00  0.00    -0.354 N 
ATOM     19  C   UNL A   1      42.448  28.715  33.897  1.00  0.00     0.074 A 
ATOM     20  C   UNL A   1      43.016  27.572  33.215  1.00  0.00     0.031 C 
ATOM     21  C   UNL A   1      37.944  30.772  29.796  1.00  0.00     0.029 A 
ATOM     22  C   UNL A   1      38.283  31.330  31.101  1.00  0.00     0.049 A 
ATOM     23  H   UNL A   1      39.720  30.640  32.443  1.00  0.00     0.167 HD
ATOM     24  C   UNL A   1      42.843  29.153  35.117  1.00  0.00     0.037 A 
ATOM     25  C   UNL A   1      37.693  32.404  31.659  1.00  0.00     0.037 A 
ATOM     26  C   UNL A   1      42.294  30.309  35.780  1.00  0.00     0.049 A 
ATOM     27  C   UNL A   1      38.157  32.875  33.008  1.00  0.00     0.074 A 
ATOM     28  C   UNL A   1      42.659  30.860  36.997  1.00  0.00     0.029 A 
ATOM     29  N   UNL A   1      41.262  31.093  35.285  1.00  0.00    -0.354 N 
ATOM     30  N   UNL A   1      39.111  32.390  33.766  1.00  0.00    -0.248 NA
ATOM     31  C   UNL A   1      37.465  34.040  33.576  1.00  0.00     0.031 C 
ATOM     32  C   UNL A   1      41.823  31.951  37.255  1.00  0.00     0.029 A 
ATOM     33  C   UNL A   1      40.966  32.110  36.179  1.00  0.00     0.049 A 
ATOM     34  H   UNL A   1      40.806  30.948  34.423  1.00  0.00     0.167 HD
ATOM     35  C   UNL A   1      39.149  33.205  34.893  1.00  0.00     0.074 A 
ATOM     36  C   UNL A   1      38.132  34.220  34.707  1.00  0.00     0.031 C 
ATOM     37  C   UNL A   1      39.954  33.118  35.980  1.00  0.00     0.037 A 
BRANCH  24  38
ATOM     38  C   UNL A   1      43.913  28.371  35.830  1.00  0.00     0.058 A 
ATOM     39  C   UNL A   1      43.604  27.324  36.713  1.00  0.00     0.135 A 
ATOM     40  C   UNL A   1      45.271  28.648  35.597  1.00  0.00     0.135 A 
ATOM     41  F   UNL A   1      42.323  27.024  36.983  1.00  0.00    -0.206 F 
ATOM     42  C   UNL A   1      44.600  26.598  37.360  1.00  0.00     0.059 A 
ATOM     43  C   UNL A   1      46.284  27.919  36.215  1.00  0.00     0.059 A 
ATOM     44  F   UNL A   1      45.624  29.637  34.761  1.00  0.00    -0.206 F 
ATOM     45  C   UNL A   1      45.938  26.906  37.106  1.00  0.00     0.060 A 
BRANCH  45  46
ATOM     46  S   UNL A   1      47.220  25.960  37.957  1.00  0.00     0.124 S 
ATOM     47  O   UNL A   1      46.462  25.367  39.054  1.00  0.00    -0.237 OA
ATOM     48  O   UNL A   1      47.663  25.032  36.921  1.00  0.00    -0.237 OA
ATOM     49  O   UNL A   1      48.193  26.976  38.342  1.00  0.00    -0.744 OA
ENDBRANCH  45  46
ENDBRANCH  24  38
BRANCH  25  50
ATOM     50  C   UNL A   1      36.611  33.115  30.929  1.00  0.00     0.058 A 
ATOM     51  C   UNL A   1      35.275  33.015  31.342  1.00  0.00     0.135 A 
ATOM     52  C   UNL A   1      36.896  33.926  29.820  1.00  0.00     0.135 A 
ATOM     53  F   UNL A   1      34.953  32.248  32.395  1.00  0.00    -0.206 F 
ATOM     54  C   UNL A   1      34.255  33.683  30.674  1.00  0.00     0.059 A 
ATOM     55  C   UNL A   1      35.897  34.625  29.151  1.00  0.00     0.059 A 
ATOM     56  F   UNL A   1      38.161  34.068  29.397  1.00  0.00    -0.206 F 
ATOM     57  C   UNL A   1      34.578  34.490  29.579  1.00  0.00     0.060 A 
BRANCH  57  58
ATOM     58  S   UNL A   1      33.255  35.397  28.750  1.00  0.00     0.124 S 
ATOM     59  O   UNL A   1      34.012  36.358  27.957  1.00  0.00    -0.237 OA
ATOM     60  O   UNL A   1      32.579  34.342  28.001  1.00  0.00    -0.237 OA
ATOM     61  O   UNL A   1      32.488  35.957  29.859  1.00  0.00    -0.744 OA
ENDBRANCH  57  58
ENDBRANCH  25  50
BRANCH  37  62
ATOM     62  C   UNL A   1      39.792  34.173  37.037  1.00  0.00     0.058 A 
ATOM     63  C   UNL A   1      40.391  35.438  36.918  1.00  0.00     0.135 A 
ATOM     64  C   UNL A   1      39.009  33.923  38.175  1.00  0.00     0.135 A 
ATOM     65  F   UNL A   1      41.156  35.725  35.853  1.00  0.00    -0.206 F 
ATOM     66  C   UNL A   1      40.246  36.406  37.906  1.00  0.00     0.059 A 
ATOM     67  C   UNL A   1      38.829  34.886  39.164  1.00  0.00     0.059 A 
ATOM     68  F   UNL A   1      38.406  32.733  38.334  1.00  0.00    -0.206 F 
ATOM     69  C   UNL A   1      39.466  36.119  39.028  1.00  0.00     0.060 A 
BRANCH  69  70
ATOM     70  S   UNL A   1      39.272  37.385  40.300  1.00  0.00     0.124 S 
ATOM     71  O   UNL A   1      38.557  36.650  41.337  1.00  0.00    -0.237 OA
ATOM     72  O   UNL A   1      40.655  37.734  40.610  1.00  0.00    -0.237 OA
ATOM     73  O   UNL A   1      38.506  38.428  39.625  1.00  0.00    -0.744 OA
ENDBRANCH  69  70
ENDBRANCH  37  62
ENDBRANCH  11  12
ENDBRANCH   4   6
ENDBRANCH   1   2
BRANCH   1  74
ATOM     74  C   UNL A   1      39.285  22.072  26.502  1.00  0.00     0.042 C 
BRANCH  74  75
ATOM     75  C   UNL A   1      38.144  22.722  25.727  1.00  0.00     0.117 C 
BRANCH  75  76
ATOM     76  N   UNL A   1      36.875  22.581  26.421  1.00  0.00    -0.356 N 
ATOM     77  C   UNL A   1      35.643  23.068  26.083  1.00  0.00     0.227 C 
ATOM     78  H   UNL A   1      36.907  22.060  27.255  1.00  0.00     0.163 HD
ATOM     79  O   UNL A   1      34.731  22.948  26.902  1.00  0.00    -0.274 OA
BRANCH  77  80
ATOM     80  C   UNL A   1      35.445  23.705  24.704  1.00  0.00     0.103 C 
ATOM     81  C   UNL A   1      34.452  24.826  24.745  1.00  0.00    -0.016 C 
ATOM     82  C   UNL A   1      34.797  22.729  23.699  1.00  0.00     0.047 C 
ATOM     83  C   UNL A   1      33.299  24.491  24.159  1.00  0.00    -0.006 C 
ATOM     84  C   UNL A   1      33.304  23.087  23.637  1.00  0.00     0.106 C 
BRANCH  84  85
ATOM     85  N   UNL A   1      32.527  22.263  24.524  1.00  0.00    -0.348 N 
ATOM     86  H   UNL A   1      31.968  22.663  25.230  1.00  0.00     0.164 HD
BRANCH  85  87
ATOM     87  C   UNL A   1      32.591  20.899  24.359  1.00  0.00     0.223 A 
ATOM     88  N   UNL A   1      32.964  20.190  25.430  1.00  0.00    -0.222 NA
ATOM     89  N   UNL A   1      32.218  20.346  23.192  1.00  0.00    -0.222 NA
ATOM     90  C   UNL A   1      32.905  18.849  25.328  1.00  0.00     0.117 A 
ATOM     91  C   UNL A   1      32.205  19.003  23.128  1.00  0.00     0.117 A 
ATOM     92  C   UNL A   1      32.528  18.190  24.185  1.00  0.00     0.040 A 
ENDBRANCH  85  87
ENDBRANCH  84  85
ENDBRANCH  77  80
ENDBRANCH  75  76
ENDBRANCH  74  75
ENDBRANCH   1  74
TORSDOF 15
ENDMDL
