MODEL 1
REMARK VINA RESULT:     -13.0      0.000      0.000
REMARK SMILES CCn1c(CC2CC[NH+](Cc3cn[nH]c3C(=O)NCCCNC(=O)c3ccc(-c4c5nc(c(-c6c(F)cc(S(=O)(=O)[O-])cc6F)c6ccc([nH]6)c(-c6c(F)cc(S(=O)(=O)[O-])cc6F)c6nc(c(-c7c(F)cc(S(=O)(=O)[O-])cc7F)c7ccc4[nH]7)C=C6)C=C5)cc3)CC2)nn(C)c1=O
REMARK SMILES IDX 19 1 18 2 16 3 17 4 15 6 11 7 12 8 13 9 14 10 10 12 9 13
REMARK SMILES IDX 6 14 7 15 92 16 8 17 91 18 5 20 4 21 3 22 96 23 93 24 94 25
REMARK SMILES IDX 97 26 95 27 2 28 1 29 20 30 21 31 22 32 23 33 24 35 25 36
REMARK SMILES IDX 26 37 90 38 27 39 89 40 28 41 29 42 30 43 83 44 31 45 88 46
REMARK SMILES IDX 82 47 84 48 32 49 87 50 81 51 80 52 33 54 67 55 46 56 66 57
REMARK SMILES IDX 47 58 50 59 65 60 85 61 48 62 49 63 64 65 86 66 51 67 34 68
REMARK SMILES IDX 35 69 44 70 36 71 37 72 43 73 45 74 38 75 39 76 40 77 41 78
REMARK SMILES IDX 42 79 68 80 69 81 78 82 70 83 71 84 77 85 79 86 72 87 73 88
REMARK SMILES IDX 74 89 75 90 76 91 52 92 53 93 62 94 54 95 55 96 61 97 63 98
REMARK SMILES IDX 56 99 57 100 58 101 59 102 60 103
REMARK H PARENT 18 5 14 11 9 19 22 34 84 53 50 64
REMARK Flexibility Score: inf
ROOT
ATOM      1  C   UNL A   1      33.421  28.930  26.104  1.00  0.00     0.118 C 
ENDROOT
BRANCH   1   2
ATOM      2  N   UNL A   1      34.053  28.850  24.822  1.00  0.00    -0.351 N 
ATOM      3  C   UNL A   1      33.472  28.784  23.595  1.00  0.00     0.269 C 
ATOM      4  O   UNL A   1      34.219  28.958  22.633  1.00  0.00    -0.268 OA
ATOM      5  H   UNL A   1      35.037  28.841  24.830  1.00  0.00     0.163 HD
BRANCH   3   6
ATOM      6  C   UNL A   1      32.041  28.624  23.402  1.00  0.00     0.131 A 
ATOM      7  C   UNL A   1      30.614  27.770  24.117  1.00  0.00     0.057 A 
ATOM      8  C   UNL A   1      29.050  28.345  23.054  1.00  0.00     0.145 A 
ATOM      9  N   UNL A   1      29.557  29.341  21.740  1.00  0.00    -0.183 NA
ATOM     10  N   UNL A   1      31.385  29.632  21.955  1.00  0.00    -0.272 N 
ATOM     11  H   UNL A   1      31.931  30.227  21.392  1.00  0.00     0.190 HD
BRANCH   7  12
ATOM     12  C   UNL A   1      30.391  26.837  25.291  1.00  0.00     0.303 C 
BRANCH  12  13
ATOM     13  N   UNL A   1      30.190  25.406  24.980  1.00  0.00    -0.331 N 
ATOM     14  C   UNL A   1      31.597  22.878  24.302  1.00  0.00     0.008 C 
ATOM     15  C   UNL A   1      30.770  23.645  23.259  1.00  0.00     0.065 C 
ATOM     16  C   UNL A   1      30.843  23.002  25.613  1.00  0.00     0.065 C 
ATOM     17  C   UNL A   1      30.527  25.109  23.593  1.00  0.00     0.262 C 
ATOM     18  C   UNL A   1      30.608  24.458  26.013  1.00  0.00     0.262 C 
ATOM     19  H   UNL A   1      29.187  25.227  25.036  1.00  0.00     0.348 HD
BRANCH  14  20
ATOM     20  C   UNL A   1      33.119  23.182  24.421  1.00  0.00     0.081 C 
BRANCH  20  21
ATOM     21  C   UNL A   1      34.079  22.015  24.594  1.00  0.00     0.133 A 
ATOM     22  N   UNL A   1      35.412  22.103  24.666  1.00  0.00    -0.279 N 
ATOM     23  C   UNL A   1      35.942  20.844  24.915  1.00  0.00     0.345 A 
ATOM     24  N   UNL A   1      33.603  20.823  24.661  1.00  0.00    -0.155 NA
ATOM     25  N   UNL A   1      34.820  19.791  24.693  1.00  0.00    -0.216 N 
ATOM     26  O   UNL A   1      37.108  20.614  25.224  1.00  0.00    -0.246 OA
ATOM     27  C   UNL A   1      34.662  17.649  24.390  1.00  0.00     0.179 C 
BRANCH  22  28
ATOM     28  C   UNL A   1      36.227  23.314  24.543  1.00  0.00     0.125 C 
ATOM     29  C   UNL A   1      36.948  23.812  25.795  1.00  0.00     0.028 C 
ENDBRANCH  22  28
ENDBRANCH  20  21
ENDBRANCH  14  20
ENDBRANCH  12  13
ENDBRANCH   7  12
ENDBRANCH   3   6
ENDBRANCH   1   2
BRANCH   1  30
ATOM     30  C   UNL A   1      33.602  30.320  26.686  1.00  0.00     0.042 C 
BRANCH  30  31
ATOM     31  C   UNL A   1      34.940  30.505  27.326  1.00  0.00     0.118 C 
BRANCH  31  32
ATOM     32  N   UNL A   1      34.987  31.734  28.126  1.00  0.00    -0.352 N 
ATOM     33  C   UNL A   1      35.641  31.921  29.333  1.00  0.00     0.251 C 
ATOM     34  H   UNL A   1      34.502  32.511  27.766  1.00  0.00     0.163 HD
ATOM     35  O   UNL A   1      35.353  32.845  30.080  1.00  0.00    -0.269 OA
BRANCH  33  36
ATOM     36  C   UNL A   1      36.738  30.989  29.635  1.00  0.00     0.039 A 
ATOM     37  C   UNL A   1      36.681  29.598  29.657  1.00  0.00     0.014 A 
ATOM     38  C   UNL A   1      37.936  31.587  29.956  1.00  0.00     0.014 A 
ATOM     39  C   UNL A   1      37.873  28.915  29.959  1.00  0.00     0.010 A 
ATOM     40  C   UNL A   1      39.044  30.933  29.552  1.00  0.00     0.010 A 
ATOM     41  C   UNL A   1      39.077  29.646  30.006  1.00  0.00    -0.014 A 
BRANCH  41  42
ATOM     42  C   UNL A   1      40.441  29.125  30.004  1.00  0.00     0.031 A 
ATOM     43  C   UNL A   1      40.901  28.977  31.418  1.00  0.00     0.074 A 
ATOM     44  C   UNL A   1      41.028  28.635  28.869  1.00  0.00     0.049 A 
ATOM     45  N   UNL A   1      41.603  29.849  32.067  1.00  0.00    -0.248 NA
ATOM     46  C   UNL A   1      40.246  28.006  32.333  1.00  0.00     0.031 C 
ATOM     47  C   UNL A   1      40.509  28.578  27.486  1.00  0.00     0.029 A 
ATOM     48  N   UNL A   1      42.262  28.045  28.705  1.00  0.00    -0.354 N 
ATOM     49  C   UNL A   1      41.813  29.282  33.317  1.00  0.00     0.074 A 
ATOM     50  C   UNL A   1      40.712  28.394  33.525  1.00  0.00     0.031 C 
ATOM     51  C   UNL A   1      41.291  27.779  26.710  1.00  0.00     0.029 A 
ATOM     52  C   UNL A   1      42.450  27.360  27.472  1.00  0.00     0.049 A 
ATOM     53  H   UNL A   1      42.964  28.095  29.393  1.00  0.00     0.167 HD
ATOM     54  C   UNL A   1      43.074  29.266  33.834  1.00  0.00     0.037 A 
ATOM     55  C   UNL A   1      43.531  26.583  27.117  1.00  0.00     0.037 A 
ATOM     56  C   UNL A   1      43.905  30.189  33.093  1.00  0.00     0.049 A 
ATOM     57  C   UNL A   1      44.635  26.994  28.034  1.00  0.00     0.074 A 
ATOM     58  C   UNL A   1      43.845  31.542  32.822  1.00  0.00     0.029 A 
ATOM     59  N   UNL A   1      44.673  29.626  32.103  1.00  0.00    -0.354 N 
ATOM     60  N   UNL A   1      45.147  28.199  28.007  1.00  0.00    -0.248 NA
ATOM     61  C   UNL A   1      44.667  26.312  29.322  1.00  0.00     0.031 C 
ATOM     62  C   UNL A   1      44.202  31.660  31.447  1.00  0.00     0.029 A 
ATOM     63  C   UNL A   1      44.628  30.415  30.985  1.00  0.00     0.049 A 
ATOM     64  H   UNL A   1      45.178  28.784  32.185  1.00  0.00     0.167 HD
ATOM     65  C   UNL A   1      45.111  28.611  29.332  1.00  0.00     0.074 A 
ATOM     66  C   UNL A   1      44.794  27.395  30.098  1.00  0.00     0.031 C 
ATOM     67  C   UNL A   1      44.975  29.932  29.666  1.00  0.00     0.037 A 
BRANCH  54  68
ATOM     68  C   UNL A   1      43.677  28.113  34.615  1.00  0.00     0.058 A 
ATOM     69  C   UNL A   1      44.302  28.402  35.848  1.00  0.00     0.135 A 
ATOM     70  C   UNL A   1      43.923  26.817  34.105  1.00  0.00     0.135 A 
ATOM     71  F   UNL A   1      44.143  29.602  36.427  1.00  0.00    -0.206 F 
ATOM     72  C   UNL A   1      45.155  27.502  36.486  1.00  0.00     0.059 A 
ATOM     73  C   UNL A   1      44.735  25.889  34.750  1.00  0.00     0.059 A 
ATOM     74  F   UNL A   1      43.459  26.402  32.923  1.00  0.00    -0.206 F 
ATOM     75  C   UNL A   1      45.367  26.247  35.927  1.00  0.00     0.060 A 
BRANCH  75  76
ATOM     76  S   UNL A   1      46.472  25.091  36.753  1.00  0.00     0.124 S 
ATOM     77  O   UNL A   1      45.567  24.426  37.682  1.00  0.00    -0.237 OA
ATOM     78  O   UNL A   1      46.947  24.286  35.632  1.00  0.00    -0.237 OA
ATOM     79  O   UNL A   1      47.476  25.961  37.360  1.00  0.00    -0.744 OA
ENDBRANCH  75  76
ENDBRANCH  54  68
BRANCH  55  80
ATOM     80  C   UNL A   1      43.580  25.265  26.379  1.00  0.00     0.058 A 
ATOM     81  C   UNL A   1      44.420  25.002  25.264  1.00  0.00     0.135 A 
ATOM     82  C   UNL A   1      43.016  24.123  26.971  1.00  0.00     0.135 A 
ATOM     83  F   UNL A   1      45.030  26.012  24.624  1.00  0.00    -0.206 F 
ATOM     84  C   UNL A   1      44.708  23.693  24.808  1.00  0.00     0.059 A 
ATOM     85  C   UNL A   1      43.291  22.820  26.544  1.00  0.00     0.059 A 
ATOM     86  F   UNL A   1      42.245  24.236  28.062  1.00  0.00    -0.206 F 
ATOM     87  C   UNL A   1      44.156  22.602  25.479  1.00  0.00     0.060 A 
BRANCH  87  88
ATOM     88  S   UNL A   1      44.647  20.899  25.065  1.00  0.00     0.124 S 
ATOM     89  O   UNL A   1      44.574  20.899  23.607  1.00  0.00    -0.237 OA
ATOM     90  O   UNL A   1      45.987  20.810  25.635  1.00  0.00    -0.237 OA
ATOM     91  O   UNL A   1      43.637  20.085  25.736  1.00  0.00    -0.744 OA
ENDBRANCH  87  88
ENDBRANCH  55  80
BRANCH  67  92
ATOM     92  C   UNL A   1      45.101  30.976  28.580  1.00  0.00     0.058 A 
ATOM     93  C   UNL A   1      44.054  31.462  27.771  1.00  0.00     0.135 A 
ATOM     94  C   UNL A   1      46.332  31.637  28.484  1.00  0.00     0.135 A 
ATOM     95  F   UNL A   1      42.813  30.969  27.881  1.00  0.00    -0.206 F 
ATOM     96  C   UNL A   1      44.244  32.520  26.873  1.00  0.00     0.059 A 
ATOM     97  C   UNL A   1      46.535  32.709  27.624  1.00  0.00     0.059 A 
ATOM     98  F   UNL A   1      47.347  31.277  29.285  1.00  0.00    -0.206 F 
ATOM     99  C   UNL A   1      45.496  33.133  26.802  1.00  0.00     0.060 A 
BRANCH  99 100
ATOM    100  S   UNL A   1      45.764  34.503  25.655  1.00  0.00     0.124 S 
ATOM    101  O   UNL A   1      44.836  34.183  24.576  1.00  0.00    -0.237 OA
ATOM    102  O   UNL A   1      45.419  35.668  26.465  1.00  0.00    -0.237 OA
ATOM    103  O   UNL A   1      47.180  34.388  25.313  1.00  0.00    -0.744 OA
ENDBRANCH  99 100
ENDBRANCH  67  92
ENDBRANCH  41  42
ENDBRANCH  33  36
ENDBRANCH  31  32
ENDBRANCH  30  31
ENDBRANCH   1  30
TORSDOF 18
ENDMDL
MODEL 2
REMARK VINA RESULT:     -12.7      3.401      7.976
REMARK SMILES CCn1c(CC2CC[NH+](Cc3cn[nH]c3C(=O)NCCCNC(=O)c3ccc(-c4c5nc(c(-c6c(F)cc(S(=O)(=O)[O-])cc6F)c6ccc([nH]6)c(-c6c(F)cc(S(=O)(=O)[O-])cc6F)c6nc(c(-c7c(F)cc(S(=O)(=O)[O-])cc7F)c7ccc4[nH]7)C=C6)C=C5)cc3)CC2)nn(C)c1=O
REMARK SMILES IDX 19 1 18 2 16 3 17 4 15 6 11 7 12 8 13 9 14 10 10 12 9 13
REMARK SMILES IDX 6 14 7 15 92 16 8 17 91 18 5 20 4 21 3 22 96 23 93 24 94 25
REMARK SMILES IDX 97 26 95 27 2 28 1 29 20 30 21 31 22 32 23 33 24 35 25 36
REMARK SMILES IDX 26 37 90 38 27 39 89 40 28 41 29 42 30 43 83 44 31 45 88 46
REMARK SMILES IDX 82 47 84 48 32 49 87 50 81 51 80 52 33 54 67 55 46 56 66 57
REMARK SMILES IDX 47 58 50 59 65 60 85 61 48 62 49 63 64 65 86 66 51 67 34 68
REMARK SMILES IDX 35 69 44 70 36 71 37 72 43 73 45 74 38 75 39 76 40 77 41 78
REMARK SMILES IDX 42 79 68 80 69 81 78 82 70 83 71 84 77 85 79 86 72 87 73 88
REMARK SMILES IDX 74 89 75 90 76 91 52 92 53 93 62 94 54 95 55 96 61 97 63 98
REMARK SMILES IDX 56 99 57 100 58 101 59 102 60 103
REMARK H PARENT 18 5 14 11 9 19 22 34 84 53 50 64
REMARK Flexibility Score: inf
ROOT
ATOM      1  C   UNL A   1      31.480  29.235  25.421  1.00  0.00     0.118 C 
ENDROOT
BRANCH   1   2
ATOM      2  N   UNL A   1      31.003  29.442  24.087  1.00  0.00    -0.351 N 
ATOM      3  C   UNL A   1      31.159  28.644  22.998  1.00  0.00     0.269 C 
ATOM      4  O   UNL A   1      30.462  28.918  22.022  1.00  0.00    -0.268 OA
ATOM      5  H   UNL A   1      30.496  30.273  23.939  1.00  0.00     0.163 HD
BRANCH   3   6
ATOM      6  C   UNL A   1      32.009  27.466  22.993  1.00  0.00     0.131 A 
ATOM      7  C   UNL A   1      32.944  26.404  24.122  1.00  0.00     0.057 A 
ATOM      8  C   UNL A   1      33.718  24.971  23.002  1.00  0.00     0.145 A 
ATOM      9  N   UNL A   1      33.374  25.266  21.338  1.00  0.00    -0.183 NA
ATOM     10  N   UNL A   1      32.237  26.741  21.273  1.00  0.00    -0.272 N 
ATOM     11  H   UNL A   1      31.816  27.092  20.454  1.00  0.00     0.190 HD
BRANCH   7  12
ATOM     12  C   UNL A   1      33.183  26.364  25.619  1.00  0.00     0.303 C 
BRANCH  12  13
ATOM     13  N   UNL A   1      32.487  25.306  26.381  1.00  0.00    -0.331 N 
ATOM     14  C   UNL A   1      31.474  22.517  26.234  1.00  0.00     0.008 C 
ATOM     15  C   UNL A   1      30.520  23.721  26.241  1.00  0.00     0.065 C 
ATOM     16  C   UNL A   1      32.603  22.867  27.184  1.00  0.00     0.065 C 
ATOM     17  C   UNL A   1      31.161  25.040  25.836  1.00  0.00     0.262 C 
ATOM     18  C   UNL A   1      33.306  24.167  26.796  1.00  0.00     0.262 C 
ATOM     19  H   UNL A   1      32.303  25.681  27.312  1.00  0.00     0.348 HD
BRANCH  14  20
ATOM     20  C   UNL A   1      31.954  21.950  24.866  1.00  0.00     0.081 C 
BRANCH  20  21
ATOM     21  C   UNL A   1      32.821  20.701  24.864  1.00  0.00     0.133 A 
ATOM     22  N   UNL A   1      34.134  20.660  24.609  1.00  0.00    -0.279 N 
ATOM     23  C   UNL A   1      34.595  19.363  24.788  1.00  0.00     0.345 A 
ATOM     24  N   UNL A   1      32.273  19.563  25.105  1.00  0.00    -0.155 NA
ATOM     25  N   UNL A   1      33.365  18.419  24.897  1.00  0.00    -0.216 N 
ATOM     26  O   UNL A   1      35.776  19.027  24.819  1.00  0.00    -0.246 OA
ATOM     27  C   UNL A   1      32.949  16.294  24.753  1.00  0.00     0.179 C 
BRANCH  22  28
ATOM     28  C   UNL A   1      34.998  21.780  24.231  1.00  0.00     0.125 C 
ATOM     29  C   UNL A   1      35.865  22.405  25.323  1.00  0.00     0.028 C 
ENDBRANCH  22  28
ENDBRANCH  20  21
ENDBRANCH  14  20
ENDBRANCH  12  13
ENDBRANCH   7  12
ENDBRANCH   3   6
ENDBRANCH   1   2
BRANCH   1  30
ATOM     30  C   UNL A   1      32.654  30.154  25.702  1.00  0.00     0.042 C 
BRANCH  30  31
ATOM     31  C   UNL A   1      32.565  30.804  27.045  1.00  0.00     0.118 C 
BRANCH  31  32
ATOM     32  N   UNL A   1      32.278  32.239  26.929  1.00  0.00    -0.352 N 
ATOM     33  C   UNL A   1      32.771  33.256  27.729  1.00  0.00     0.251 C 
ATOM     34  H   UNL A   1      31.671  32.507  26.203  1.00  0.00     0.163 HD
ATOM     35  O   UNL A   1      32.227  34.350  27.778  1.00  0.00    -0.269 OA
BRANCH  33  36
ATOM     36  C   UNL A   1      34.012  32.970  28.465  1.00  0.00     0.039 A 
ATOM     37  C   UNL A   1      34.138  32.292  29.673  1.00  0.00     0.014 A 
ATOM     38  C   UNL A   1      35.157  33.464  27.883  1.00  0.00     0.014 A 
ATOM     39  C   UNL A   1      35.440  32.124  30.178  1.00  0.00     0.010 A 
ATOM     40  C   UNL A   1      36.264  32.709  28.037  1.00  0.00     0.010 A 
ATOM     41  C   UNL A   1      36.533  32.448  29.349  1.00  0.00    -0.014 A 
BRANCH  41  42
ATOM     42  C   UNL A   1      37.935  32.089  29.535  1.00  0.00     0.031 A 
ATOM     43  C   UNL A   1      38.136  30.679  29.083  1.00  0.00     0.074 A 
ATOM     44  C   UNL A   1      38.890  33.025  29.831  1.00  0.00     0.049 A 
ATOM     45  N   UNL A   1      38.125  29.642  29.856  1.00  0.00    -0.248 NA
ATOM     46  C   UNL A   1      37.952  30.305  27.657  1.00  0.00     0.031 C 
ATOM     47  C   UNL A   1      38.746  34.475  30.079  1.00  0.00     0.029 A 
ATOM     48  N   UNL A   1      40.252  32.875  29.966  1.00  0.00    -0.354 N 
ATOM     49  C   UNL A   1      38.375  28.566  29.016  1.00  0.00     0.074 A 
ATOM     50  C   UNL A   1      37.908  28.970  27.726  1.00  0.00     0.031 C 
ATOM     51  C   UNL A   1      39.961  35.088  30.075  1.00  0.00     0.029 A 
ATOM     52  C   UNL A   1      41.002  34.085  29.963  1.00  0.00     0.049 A 
ATOM     53  H   UNL A   1      40.678  31.992  30.057  1.00  0.00     0.167 HD
ATOM     54  C   UNL A   1      39.326  27.655  29.367  1.00  0.00     0.037 A 
ATOM     55  C   UNL A   1      42.374  34.206  29.949  1.00  0.00     0.037 A 
ATOM     56  C   UNL A   1      39.649  27.821  30.768  1.00  0.00     0.049 A 
ATOM     57  C   UNL A   1      42.894  32.890  30.425  1.00  0.00     0.074 A 
ATOM     58  C   UNL A   1      38.922  27.775  31.941  1.00  0.00     0.029 A 
ATOM     59  N   UNL A   1      40.765  28.578  31.030  1.00  0.00    -0.354 N 
ATOM     60  N   UNL A   1      42.672  32.454  31.640  1.00  0.00    -0.248 NA
ATOM     61  C   UNL A   1      43.052  31.867  29.397  1.00  0.00     0.031 C 
ATOM     62  C   UNL A   1      39.403  28.869  32.718  1.00  0.00     0.029 A 
ATOM     63  C   UNL A   1      40.508  29.425  32.074  1.00  0.00     0.049 A 
ATOM     64  H   UNL A   1      41.619  28.520  30.541  1.00  0.00     0.167 HD
ATOM     65  C   UNL A   1      42.178  31.171  31.455  1.00  0.00     0.074 A 
ATOM     66  C   UNL A   1      42.431  30.869  30.037  1.00  0.00     0.031 C 
ATOM     67  C   UNL A   1      41.295  30.611  32.338  1.00  0.00     0.037 A 
BRANCH  54  68
ATOM     68  C   UNL A   1      40.300  27.001  28.405  1.00  0.00     0.058 A 
ATOM     69  C   UNL A   1      40.327  25.591  28.345  1.00  0.00     0.135 A 
ATOM     70  C   UNL A   1      41.379  27.651  27.762  1.00  0.00     0.135 A 
ATOM     71  F   UNL A   1      39.356  24.866  28.923  1.00  0.00    -0.206 F 
ATOM     72  C   UNL A   1      41.374  24.884  27.755  1.00  0.00     0.059 A 
ATOM     73  C   UNL A   1      42.411  26.964  27.129  1.00  0.00     0.059 A 
ATOM     74  F   UNL A   1      41.539  28.978  27.776  1.00  0.00    -0.206 F 
ATOM     75  C   UNL A   1      42.415  25.581  27.150  1.00  0.00     0.060 A 
BRANCH  75  76
ATOM     76  S   UNL A   1      43.766  24.664  26.393  1.00  0.00     0.124 S 
ATOM     77  O   UNL A   1      43.735  25.165  25.025  1.00  0.00    -0.237 OA
ATOM     78  O   UNL A   1      44.901  25.089  27.207  1.00  0.00    -0.237 OA
ATOM     79  O   UNL A   1      43.365  23.271  26.568  1.00  0.00    -0.744 OA
ENDBRANCH  75  76
ENDBRANCH  54  68
BRANCH  55  80
ATOM     80  C   UNL A   1      43.258  35.162  29.183  1.00  0.00     0.058 A 
ATOM     81  C   UNL A   1      43.076  35.501  27.816  1.00  0.00     0.135 A 
ATOM     82  C   UNL A   1      44.126  36.013  29.889  1.00  0.00     0.135 A 
ATOM     83  F   UNL A   1      42.257  34.772  27.042  1.00  0.00    -0.206 F 
ATOM     84  C   UNL A   1      43.680  36.632  27.216  1.00  0.00     0.059 A 
ATOM     85  C   UNL A   1      44.729  37.140  29.320  1.00  0.00     0.059 A 
ATOM     86  F   UNL A   1      44.341  35.827  31.198  1.00  0.00    -0.206 F 
ATOM     87  C   UNL A   1      44.486  37.465  27.991  1.00  0.00     0.060 A 
BRANCH  87  88
ATOM     88  S   UNL A   1      45.125  39.035  27.328  1.00  0.00     0.124 S 
ATOM     89  O   UNL A   1      46.303  38.604  26.584  1.00  0.00    -0.237 OA
ATOM     90  O   UNL A   1      44.006  39.517  26.525  1.00  0.00    -0.237 OA
ATOM     91  O   UNL A   1      45.403  39.820  28.530  1.00  0.00    -0.744 OA
ENDBRANCH  87  88
ENDBRANCH  55  80
BRANCH  67  92
ATOM     92  C   UNL A   1      41.035  31.309  33.653  1.00  0.00     0.058 A 
ATOM     93  C   UNL A   1      39.980  32.203  33.923  1.00  0.00     0.135 A 
ATOM     94  C   UNL A   1      41.813  30.903  34.744  1.00  0.00     0.135 A 
ATOM     95  F   UNL A   1      39.113  32.556  32.964  1.00  0.00    -0.206 F 
ATOM     96  C   UNL A   1      39.748  32.708  35.210  1.00  0.00     0.059 A 
ATOM     97  C   UNL A   1      41.583  31.365  36.035  1.00  0.00     0.059 A 
ATOM     98  F   UNL A   1      42.782  29.991  34.571  1.00  0.00    -0.206 F 
ATOM     99  C   UNL A   1      40.565  32.286  36.259  1.00  0.00     0.060 A 
BRANCH  99 100
ATOM    100  S   UNL A   1      40.284  32.918  37.929  1.00  0.00     0.124 S 
ATOM    101  O   UNL A   1      41.356  32.279  38.682  1.00  0.00    -0.237 OA
ATOM    102  O   UNL A   1      40.407  34.362  37.746  1.00  0.00    -0.237 OA
ATOM    103  O   UNL A   1      38.936  32.452  38.247  1.00  0.00    -0.744 OA
ENDBRANCH  99 100
ENDBRANCH  67  92
ENDBRANCH  41  42
ENDBRANCH  33  36
ENDBRANCH  31  32
ENDBRANCH  30  31
ENDBRANCH   1  30
TORSDOF 18
ENDMDL
MODEL 3
REMARK VINA RESULT:     -12.7      3.403      7.929
REMARK SMILES CCn1c(CC2CC[NH+](Cc3cn[nH]c3C(=O)NCCCNC(=O)c3ccc(-c4c5nc(c(-c6c(F)cc(S(=O)(=O)[O-])cc6F)c6ccc([nH]6)c(-c6c(F)cc(S(=O)(=O)[O-])cc6F)c6nc(c(-c7c(F)cc(S(=O)(=O)[O-])cc7F)c7ccc4[nH]7)C=C6)C=C5)cc3)CC2)nn(C)c1=O
REMARK SMILES IDX 19 1 18 2 16 3 17 4 15 6 11 7 12 8 13 9 14 10 10 12 9 13
REMARK SMILES IDX 6 14 7 15 92 16 8 17 91 18 5 20 4 21 3 22 96 23 93 24 94 25
REMARK SMILES IDX 97 26 95 27 2 28 1 29 20 30 21 31 22 32 23 33 24 35 25 36
REMARK SMILES IDX 26 37 90 38 27 39 89 40 28 41 29 42 30 43 83 44 31 45 88 46
REMARK SMILES IDX 82 47 84 48 32 49 87 50 81 51 80 52 33 54 67 55 46 56 66 57
REMARK SMILES IDX 47 58 50 59 65 60 85 61 48 62 49 63 64 65 86 66 51 67 34 68
REMARK SMILES IDX 35 69 44 70 36 71 37 72 43 73 45 74 38 75 39 76 40 77 41 78
REMARK SMILES IDX 42 79 68 80 69 81 78 82 70 83 71 84 77 85 79 86 72 87 73 88
REMARK SMILES IDX 74 89 75 90 76 91 52 92 53 93 62 94 54 95 55 96 61 97 63 98
REMARK SMILES IDX 56 99 57 100 58 101 59 102 60 103
REMARK H PARENT 18 5 14 11 9 19 22 34 84 53 50 64
REMARK Flexibility Score: inf
ROOT
ATOM      1  C   UNL A   1      31.601  30.748  26.108  1.00  0.00     0.118 C 
ENDROOT
BRANCH   1   2
ATOM      2  N   UNL A   1      32.666  30.023  26.732  1.00  0.00    -0.351 N 
ATOM      3  C   UNL A   1      32.942  28.694  26.660  1.00  0.00     0.269 C 
ATOM      4  O   UNL A   1      34.041  28.346  27.090  1.00  0.00    -0.268 OA
ATOM      5  H   UNL A   1      33.280  30.557  27.287  1.00  0.00     0.163 HD
BRANCH   3   6
ATOM      6  C   UNL A   1      32.057  27.734  26.023  1.00  0.00     0.131 A 
ATOM      7  C   UNL A   1      31.628  27.091  24.387  1.00  0.00     0.057 A 
ATOM      8  C   UNL A   1      30.274  25.684  24.696  1.00  0.00     0.145 A 
ATOM      9  N   UNL A   1      29.852  25.621  26.367  1.00  0.00    -0.183 NA
ATOM     10  N   UNL A   1      30.991  26.797  27.258  1.00  0.00    -0.272 N 
ATOM     11  H   UNL A   1      31.029  26.912  28.235  1.00  0.00     0.190 HD
BRANCH   7  12
ATOM     12  C   UNL A   1      32.094  27.350  22.968  1.00  0.00     0.303 C 
BRANCH  12  13
ATOM     13  N   UNL A   1      32.967  26.328  22.352  1.00  0.00    -0.331 N 
ATOM     14  C   UNL A   1      33.416  23.404  22.082  1.00  0.00     0.008 C 
ATOM     15  C   UNL A   1      34.349  24.288  22.924  1.00  0.00     0.065 C 
ATOM     16  C   UNL A   1      33.032  24.230  20.869  1.00  0.00     0.065 C 
ATOM     17  C   UNL A   1      33.744  25.614  23.358  1.00  0.00     0.262 C 
ATOM     18  C   UNL A   1      32.383  25.559  21.254  1.00  0.00     0.262 C 
ATOM     19  H   UNL A   1      33.668  26.827  21.804  1.00  0.00     0.348 HD
BRANCH  14  20
ATOM     20  C   UNL A   1      32.209  22.712  22.780  1.00  0.00     0.081 C 
BRANCH  20  21
ATOM     21  C   UNL A   1      32.462  21.436  23.568  1.00  0.00     0.133 A 
ATOM     22  N   UNL A   1      32.837  21.370  24.851  1.00  0.00    -0.279 N 
ATOM     23  C   UNL A   1      32.880  20.040  25.247  1.00  0.00     0.345 A 
ATOM     24  N   UNL A   1      32.330  20.303  22.975  1.00  0.00    -0.155 NA
ATOM     25  N   UNL A   1      32.791  19.149  23.977  1.00  0.00    -0.216 N 
ATOM     26  O   UNL A   1      33.002  19.649  26.405  1.00  0.00    -0.246 OA
ATOM     27  C   UNL A   1      33.188  17.088  23.425  1.00  0.00     0.179 C 
BRANCH  22  28
ATOM     28  C   UNL A   1      33.134  22.490  25.745  1.00  0.00     0.125 C 
ATOM     29  C   UNL A   1      32.225  22.689  26.957  1.00  0.00     0.028 C 
ENDBRANCH  22  28
ENDBRANCH  20  21
ENDBRANCH  14  20
ENDBRANCH  12  13
ENDBRANCH   7  12
ENDBRANCH   3   6
ENDBRANCH   1   2
BRANCH   1  30
ATOM     30  C   UNL A   1      31.417  32.091  26.790  1.00  0.00     0.042 C 
BRANCH  30  31
ATOM     31  C   UNL A   1      32.707  32.670  27.276  1.00  0.00     0.118 C 
BRANCH  31  32
ATOM     32  N   UNL A   1      32.540  34.059  27.718  1.00  0.00    -0.352 N 
ATOM     33  C   UNL A   1      33.108  34.656  28.831  1.00  0.00     0.251 C 
ATOM     34  H   UNL A   1      31.962  34.630  27.162  1.00  0.00     0.163 HD
ATOM     35  O   UNL A   1      32.655  35.689  29.303  1.00  0.00    -0.269 OA
BRANCH  33  36
ATOM     36  C   UNL A   1      34.316  34.015  29.373  1.00  0.00     0.039 A 
ATOM     37  C   UNL A   1      34.376  32.969  30.289  1.00  0.00     0.014 A 
ATOM     38  C   UNL A   1      35.504  34.549  28.929  1.00  0.00     0.014 A 
ATOM     39  C   UNL A   1      35.656  32.509  30.649  1.00  0.00     0.010 A 
ATOM     40  C   UNL A   1      36.518  33.674  28.776  1.00  0.00     0.010 A 
ATOM     41  C   UNL A   1      36.770  32.971  29.919  1.00  0.00    -0.014 A 
BRANCH  41  42
ATOM     42  C   UNL A   1      38.124  32.425  29.911  1.00  0.00     0.031 A 
ATOM     43  C   UNL A   1      38.069  31.009  29.436  1.00  0.00     0.074 A 
ATOM     44  C   UNL A   1      39.226  33.220  30.072  1.00  0.00     0.049 A 
ATOM     45  N   UNL A   1      38.026  29.969  30.204  1.00  0.00    -0.248 NA
ATOM     46  C   UNL A   1      37.645  30.689  28.048  1.00  0.00     0.031 C 
ATOM     47  C   UNL A   1      39.313  34.672  30.336  1.00  0.00     0.029 A 
ATOM     48  N   UNL A   1      40.562  32.888  30.018  1.00  0.00    -0.354 N 
ATOM     49  C   UNL A   1      38.011  28.884  29.338  1.00  0.00     0.074 A 
ATOM     50  C   UNL A   1      37.432  29.370  28.124  1.00  0.00     0.031 C 
ATOM     51  C   UNL A   1      40.588  35.118  30.165  1.00  0.00     0.029 A 
ATOM     52  C   UNL A   1      41.459  33.988  29.912  1.00  0.00     0.049 A 
ATOM     53  H   UNL A   1      40.874  31.955  30.051  1.00  0.00     0.167 HD
ATOM     54  C   UNL A   1      38.871  27.849  29.555  1.00  0.00     0.037 A 
ATOM     55  C   UNL A   1      42.820  33.925  29.710  1.00  0.00     0.037 A 
ATOM     56  C   UNL A   1      39.401  27.945  30.899  1.00  0.00     0.049 A 
ATOM     57  C   UNL A   1      43.219  32.543  30.111  1.00  0.00     0.074 A 
ATOM     58  C   UNL A   1      38.841  27.975  32.160  1.00  0.00     0.029 A 
ATOM     59  N   UNL A   1      40.634  28.543  31.004  1.00  0.00    -0.354 N 
ATOM     60  N   UNL A   1      43.108  32.120  31.345  1.00  0.00    -0.248 NA
ATOM     61  C   UNL A   1      43.097  31.528  29.071  1.00  0.00     0.031 C 
ATOM     62  C   UNL A   1      39.566  28.982  32.864  1.00  0.00     0.029 A 
ATOM     63  C   UNL A   1      40.637  29.398  32.074  1.00  0.00     0.049 A 
ATOM     64  H   UNL A   1      41.397  28.381  30.403  1.00  0.00     0.167 HD
ATOM     65  C   UNL A   1      42.426  30.917  31.230  1.00  0.00     0.074 A 
ATOM     66  C   UNL A   1      42.441  30.610  29.791  1.00  0.00     0.031 C 
ATOM     67  C   UNL A   1      41.604  30.464  32.227  1.00  0.00     0.037 A 
BRANCH  54  68
ATOM     68  C   UNL A   1      39.608  27.089  28.469  1.00  0.00     0.058 A 
ATOM     69  C   UNL A   1      39.595  25.678  28.521  1.00  0.00     0.135 A 
ATOM     70  C   UNL A   1      40.541  27.648  27.565  1.00  0.00     0.135 A 
ATOM     71  F   UNL A   1      38.753  25.035  29.345  1.00  0.00    -0.206 F 
ATOM     72  C   UNL A   1      40.481  24.891  27.786  1.00  0.00     0.059 A 
ATOM     73  C   UNL A   1      41.403  26.879  26.790  1.00  0.00     0.059 A 
ATOM     74  F   UNL A   1      40.726  28.966  27.436  1.00  0.00    -0.206 F 
ATOM     75  C   UNL A   1      41.384  25.502  26.923  1.00  0.00     0.060 A 
BRANCH  75  76
ATOM     76  S   UNL A   1      42.528  24.482  25.980  1.00  0.00     0.124 S 
ATOM     77  O   UNL A   1      41.823  23.207  25.936  1.00  0.00    -0.237 OA
ATOM     78  O   UNL A   1      42.608  25.216  24.721  1.00  0.00    -0.237 OA
ATOM     79  O   UNL A   1      43.744  24.505  26.789  1.00  0.00    -0.744 OA
ENDBRANCH  75  76
ENDBRANCH  54  68
BRANCH  55  80
ATOM     80  C   UNL A   1      43.713  34.769  28.829  1.00  0.00     0.058 A 
ATOM     81  C   UNL A   1      43.327  35.292  27.566  1.00  0.00     0.135 A 
ATOM     82  C   UNL A   1      44.873  35.345  29.374  1.00  0.00     0.135 A 
ATOM     83  F   UNL A   1      42.226  34.833  26.952  1.00  0.00    -0.206 F 
ATOM     84  C   UNL A   1      44.025  36.343  26.923  1.00  0.00     0.059 A 
ATOM     85  C   UNL A   1      45.575  36.388  28.761  1.00  0.00     0.059 A 
ATOM     86  F   UNL A   1      45.311  34.972  30.585  1.00  0.00    -0.206 F 
ATOM     87  C   UNL A   1      45.137  36.905  27.548  1.00  0.00     0.060 A 
BRANCH  87  88
ATOM     88  S   UNL A   1      45.950  38.383  26.865  1.00  0.00     0.124 S 
ATOM     89  O   UNL A   1      46.753  37.826  25.782  1.00  0.00    -0.237 OA
ATOM     90  O   UNL A   1      44.817  39.207  26.459  1.00  0.00    -0.237 OA
ATOM     91  O   UNL A   1      46.712  38.902  27.999  1.00  0.00    -0.744 OA
ENDBRANCH  87  88
ENDBRANCH  55  80
BRANCH  67  92
ATOM     92  C   UNL A   1      41.622  31.167  33.565  1.00  0.00     0.058 A 
ATOM     93  C   UNL A   1      40.707  32.147  33.999  1.00  0.00     0.135 A 
ATOM     94  C   UNL A   1      42.527  30.681  34.517  1.00  0.00     0.135 A 
ATOM     95  F   UNL A   1      39.732  32.584  33.191  1.00  0.00    -0.206 F 
ATOM     96  C   UNL A   1      40.731  32.655  35.304  1.00  0.00     0.059 A 
ATOM     97  C   UNL A   1      42.548  31.146  35.826  1.00  0.00     0.059 A 
ATOM     98  F   UNL A   1      43.371  29.690  34.192  1.00  0.00    -0.206 F 
ATOM     99  C   UNL A   1      41.665  32.150  36.210  1.00  0.00     0.060 A 
BRANCH  99 100
ATOM    100  S   UNL A   1      41.713  32.786  37.901  1.00  0.00     0.124 S 
ATOM    101  O   UNL A   1      42.000  31.581  38.672  1.00  0.00    -0.237 OA
ATOM    102  O   UNL A   1      42.787  33.772  37.839  1.00  0.00    -0.237 OA
ATOM    103  O   UNL A   1      40.376  33.343  38.093  1.00  0.00    -0.744 OA
ENDBRANCH  99 100
ENDBRANCH  67  92
ENDBRANCH  41  42
ENDBRANCH  33  36
ENDBRANCH  31  32
ENDBRANCH  30  31
ENDBRANCH   1  30
TORSDOF 18
ENDMDL
