MODEL 1
REMARK VINA RESULT:     -12.2      0.000      0.000
REMARK SMILES Cc1ccnc(C(=O)c2[nH]c3ccc(F)cc3c2CC(=O)NCCCNC(=O)c2ccc(-c3c4nc(c(-c5c(F)cc(S(=O)(=O)[O-])cc5F)c5ccc([nH]5)c(-c5c(F)cc(S(=O)(=O)[O-])cc5F)c5nc(c(-c6c(F)cc(S(=O)(=O)[O-])cc6F)c6ccc3[nH]6)C=C5)C=C4)cc2)c1
REMARK SMILES IDX 24 1 23 2 22 3 20 4 21 5 19 7 18 8 9 9 10 10 11 11 17 13
REMARK SMILES IDX 12 14 16 15 13 16 14 17 15 18 7 19 8 20 6 21 1 22 2 23 3 24
REMARK SMILES IDX 95 25 4 26 5 27 25 28 26 29 27 30 28 32 29 33 30 34 94 35
REMARK SMILES IDX 31 36 93 37 32 38 33 39 34 40 87 41 35 42 92 43 86 44 88 45
REMARK SMILES IDX 36 46 91 47 85 48 84 49 37 51 71 52 50 53 70 54 51 55 54 56
REMARK SMILES IDX 69 57 89 58 52 59 53 60 68 62 90 63 55 64 38 65 39 66 48 67
REMARK SMILES IDX 40 68 41 69 47 70 49 71 42 72 43 73 44 74 45 75 46 76 72 77
REMARK SMILES IDX 73 78 82 79 74 80 75 81 81 82 83 83 76 84 77 85 78 86 79 87
REMARK SMILES IDX 80 88 56 89 57 90 66 91 58 92 59 93 65 94 67 95 60 96 61 97
REMARK SMILES IDX 62 98 63 99 64 100
REMARK H PARENT 22 6 10 12 26 31 88 50 54 61
REMARK Flexibility Score: inf
ROOT
ATOM      1  C   UNL A   1      33.858  27.713  25.816  1.00  0.00     0.042 C 
ENDROOT
BRANCH   1   2
ATOM      2  C   UNL A   1      33.153  26.486  25.232  1.00  0.00     0.117 C 
BRANCH   2   3
ATOM      3  N   UNL A   1      32.757  25.471  26.189  1.00  0.00    -0.356 N 
ATOM      4  C   UNL A   1      32.857  24.111  26.136  1.00  0.00     0.224 C 
ATOM      5  O   UNL A   1      32.656  23.496  27.188  1.00  0.00    -0.275 OA
ATOM      6  H   UNL A   1      32.348  25.822  27.012  1.00  0.00     0.163 HD
BRANCH   4   7
ATOM      7  C   UNL A   1      33.256  23.363  24.879  1.00  0.00     0.138 C 
BRANCH   7   8
ATOM      8  C   UNL A   1      34.277  22.274  25.041  1.00  0.00    -0.002 A 
ATOM      9  C   UNL A   1      34.103  20.888  25.053  1.00  0.00     0.093 A 
ATOM     10  N   UNL A   1      35.332  20.337  25.368  1.00  0.00    -0.352 N 
ATOM     11  C   UNL A   1      36.307  21.295  25.460  1.00  0.00     0.046 A 
ATOM     12  H   UNL A   1      35.488  19.376  25.510  1.00  0.00     0.167 HD
ATOM     13  C   UNL A   1      35.671  22.526  25.331  1.00  0.00     0.007 A 
ATOM     14  C   UNL A   1      37.688  21.164  25.668  1.00  0.00     0.030 A 
ATOM     15  C   UNL A   1      36.452  23.694  25.472  1.00  0.00     0.049 A 
ATOM     16  C   UNL A   1      38.445  22.336  25.743  1.00  0.00     0.041 A 
ATOM     17  C   UNL A   1      37.829  23.574  25.655  1.00  0.00     0.123 A 
ATOM     18  F   UNL A   1      38.572  24.688  25.730  1.00  0.00    -0.207 F 
BRANCH   9  19
ATOM     19  C   UNL A   1      32.949  19.999  24.938  1.00  0.00     0.227 C 
ATOM     20  O   UNL A   1      31.821  20.456  25.120  1.00  0.00    -0.285 OA
BRANCH  19  21
ATOM     21  C   UNL A   1      33.097  18.515  24.725  1.00  0.00     0.113 A 
ATOM     22  C   UNL A   1      32.143  15.146  26.206  1.00  0.00     0.044 C 
ATOM     23  C   UNL A   1      32.682  16.212  25.300  1.00  0.00    -0.047 A 
ATOM     24  C   UNL A   1      33.438  15.842  24.191  1.00  0.00     0.023 A 
ATOM     25  C   UNL A   1      32.458  17.576  25.529  1.00  0.00     0.036 A 
ATOM     26  C   UNL A   1      33.980  16.837  23.397  1.00  0.00     0.112 A 
ATOM     27  N   UNL A   1      33.843  18.155  23.647  1.00  0.00    -0.253 NA
ENDBRANCH  19  21
ENDBRANCH   9  19
ENDBRANCH   7   8
ENDBRANCH   4   7
ENDBRANCH   2   3
ENDBRANCH   1   2
BRANCH   1  28
ATOM     28  C   UNL A   1      33.524  28.109  27.252  1.00  0.00     0.118 C 
BRANCH  28  29
ATOM     29  N   UNL A   1      33.383  29.536  27.458  1.00  0.00    -0.352 N 
ATOM     30  C   UNL A   1      34.294  30.434  27.959  1.00  0.00     0.251 C 
ATOM     31  H   UNL A   1      32.512  29.916  27.202  1.00  0.00     0.163 HD
ATOM     32  O   UNL A   1      33.943  31.587  28.184  1.00  0.00    -0.269 OA
BRANCH  30  33
ATOM     33  C   UNL A   1      35.683  30.009  28.244  1.00  0.00     0.039 A 
ATOM     34  C   UNL A   1      36.623  30.062  27.212  1.00  0.00     0.014 A 
ATOM     35  C   UNL A   1      36.052  29.536  29.507  1.00  0.00     0.014 A 
ATOM     36  C   UNL A   1      37.946  29.687  27.459  1.00  0.00     0.010 A 
ATOM     37  C   UNL A   1      37.384  29.209  29.764  1.00  0.00     0.010 A 
ATOM     38  C   UNL A   1      38.346  29.283  28.743  1.00  0.00    -0.014 A 
BRANCH  38  39
ATOM     39  C   UNL A   1      39.769  28.960  29.033  1.00  0.00     0.031 A 
ATOM     40  C   UNL A   1      40.689  29.999  29.619  1.00  0.00     0.074 A 
ATOM     41  C   UNL A   1      40.247  27.737  28.724  1.00  0.00     0.049 A 
ATOM     42  N   UNL A   1      41.965  29.910  29.894  1.00  0.00    -0.248 NA
ATOM     43  C   UNL A   1      40.102  31.315  29.914  1.00  0.00     0.031 C 
ATOM     44  C   UNL A   1      39.469  26.655  28.118  1.00  0.00     0.029 A 
ATOM     45  N   UNL A   1      41.503  27.201  28.865  1.00  0.00    -0.354 N 
ATOM     46  C   UNL A   1      42.337  31.156  30.387  1.00  0.00     0.074 A 
ATOM     47  C   UNL A   1      41.161  31.999  30.325  1.00  0.00     0.031 C 
ATOM     48  C   UNL A   1      40.257  25.581  27.958  1.00  0.00     0.029 A 
ATOM     49  C   UNL A   1      41.606  25.907  28.408  1.00  0.00     0.049 A 
ATOM     50  H   UNL A   1      42.259  27.695  29.258  1.00  0.00     0.167 HD
ATOM     51  C   UNL A   1      43.540  31.555  30.864  1.00  0.00     0.037 A 
ATOM     52  C   UNL A   1      42.668  25.080  28.347  1.00  0.00     0.037 A 
ATOM     53  C   UNL A   1      44.704  30.708  30.933  1.00  0.00     0.049 A 
ATOM     54  C   UNL A   1      44.000  25.553  28.864  1.00  0.00     0.074 A 
ATOM     55  C   UNL A   1      45.954  31.005  31.449  1.00  0.00     0.029 A 
ATOM     56  N   UNL A   1      44.767  29.402  30.467  1.00  0.00    -0.354 N 
ATOM     57  N   UNL A   1      44.316  26.713  29.387  1.00  0.00    -0.248 NA
ATOM     58  C   UNL A   1      45.118  24.602  28.792  1.00  0.00     0.031 C 
ATOM     59  C   UNL A   1      46.788  29.900  31.243  1.00  0.00     0.029 A 
ATOM     60  C   UNL A   1      46.041  28.890  30.658  1.00  0.00     0.049 A 
ATOM     61  H   UNL A   1      44.017  28.911  30.060  1.00  0.00     0.167 HD
ATOM     62  C   UNL A   1      45.661  26.622  29.732  1.00  0.00     0.074 A 
ATOM     63  C   UNL A   1      46.094  25.288  29.371  1.00  0.00     0.031 C 
ATOM     64  C   UNL A   1      46.462  27.558  30.300  1.00  0.00     0.037 A 
BRANCH  51  65
ATOM     65  C   UNL A   1      43.668  32.976  31.349  1.00  0.00     0.058 A 
ATOM     66  C   UNL A   1      43.513  33.310  32.704  1.00  0.00     0.135 A 
ATOM     67  C   UNL A   1      43.993  34.010  30.455  1.00  0.00     0.135 A 
ATOM     68  F   UNL A   1      43.190  32.366  33.603  1.00  0.00    -0.206 F 
ATOM     69  C   UNL A   1      43.647  34.622  33.151  1.00  0.00     0.059 A 
ATOM     70  C   UNL A   1      44.163  35.323  30.885  1.00  0.00     0.059 A 
ATOM     71  F   UNL A   1      44.155  33.749  29.149  1.00  0.00    -0.206 F 
ATOM     72  C   UNL A   1      43.972  35.621  32.234  1.00  0.00     0.060 A 
BRANCH  72  73
ATOM     73  S   UNL A   1      44.144  37.316  32.832  1.00  0.00     0.124 S 
ATOM     74  O   UNL A   1      45.472  37.275  33.440  1.00  0.00    -0.237 OA
ATOM     75  O   UNL A   1      44.036  38.093  31.602  1.00  0.00    -0.237 OA
ATOM     76  O   UNL A   1      43.032  37.464  33.765  1.00  0.00    -0.744 OA
ENDBRANCH  72  73
ENDBRANCH  51  65
BRANCH  52  77
ATOM     77  C   UNL A   1      42.512  23.711  27.782  1.00  0.00     0.058 A 
ATOM     78  C   UNL A   1      42.500  23.496  26.397  1.00  0.00     0.135 A 
ATOM     79  C   UNL A   1      42.382  22.590  28.618  1.00  0.00     0.135 A 
ATOM     80  F   UNL A   1      42.614  24.536  25.557  1.00  0.00    -0.206 F 
ATOM     81  C   UNL A   1      42.350  22.223  25.857  1.00  0.00     0.059 A 
ATOM     82  C   UNL A   1      42.259  21.304  28.103  1.00  0.00     0.059 A 
ATOM     83  F   UNL A   1      42.404  22.738  29.952  1.00  0.00    -0.206 F 
ATOM     84  C   UNL A   1      42.232  21.132  26.719  1.00  0.00     0.060 A 
BRANCH  84  85
ATOM     85  S   UNL A   1      42.089  19.478  26.009  1.00  0.00     0.124 S 
ATOM     86  O   UNL A   1      42.586  18.647  27.099  1.00  0.00    -0.237 OA
ATOM     87  O   UNL A   1      40.660  19.386  25.735  1.00  0.00    -0.237 OA
ATOM     88  O   UNL A   1      42.944  19.546  24.827  1.00  0.00    -0.744 OA
ENDBRANCH  84  85
ENDBRANCH  52  77
BRANCH  64  89
ATOM     89  C   UNL A   1      47.883  27.166  30.603  1.00  0.00     0.058 A 
ATOM     90  C   UNL A   1      48.924  27.376  29.685  1.00  0.00     0.135 A 
ATOM     91  C   UNL A   1      48.217  26.618  31.853  1.00  0.00     0.135 A 
ATOM     92  F   UNL A   1      48.662  27.891  28.472  1.00  0.00    -0.206 F 
ATOM     93  C   UNL A   1      50.239  27.034  29.985  1.00  0.00     0.059 A 
ATOM     94  C   UNL A   1      49.529  26.298  32.186  1.00  0.00     0.059 A 
ATOM     95  F   UNL A   1      47.263  26.405  32.774  1.00  0.00    -0.206 F 
ATOM     96  C   UNL A   1      50.532  26.499  31.240  1.00  0.00     0.060 A 
BRANCH  96  97
ATOM     97  S   UNL A   1      52.248  26.092  31.628  1.00  0.00     0.124 S 
ATOM     98  O   UNL A   1      52.128  24.712  32.083  1.00  0.00    -0.237 OA
ATOM     99  O   UNL A   1      52.911  26.281  30.341  1.00  0.00    -0.237 OA
ATOM    100  O   UNL A   1      52.604  27.065  32.657  1.00  0.00    -0.744 OA
ENDBRANCH  96  97
ENDBRANCH  64  89
ENDBRANCH  38  39
ENDBRANCH  30  33
ENDBRANCH  28  29
ENDBRANCH   1  28
TORSDOF 16
ENDMDL
MODEL 2
REMARK VINA RESULT:     -11.9      1.701      3.747
REMARK SMILES Cc1ccnc(C(=O)c2[nH]c3ccc(F)cc3c2CC(=O)NCCCNC(=O)c2ccc(-c3c4nc(c(-c5c(F)cc(S(=O)(=O)[O-])cc5F)c5ccc([nH]5)c(-c5c(F)cc(S(=O)(=O)[O-])cc5F)c5nc(c(-c6c(F)cc(S(=O)(=O)[O-])cc6F)c6ccc3[nH]6)C=C5)C=C4)cc2)c1
REMARK SMILES IDX 24 1 23 2 22 3 20 4 21 5 19 7 18 8 9 9 10 10 11 11 17 13
REMARK SMILES IDX 12 14 16 15 13 16 14 17 15 18 7 19 8 20 6 21 1 22 2 23 3 24
REMARK SMILES IDX 95 25 4 26 5 27 25 28 26 29 27 30 28 32 29 33 30 34 94 35
REMARK SMILES IDX 31 36 93 37 32 38 33 39 34 40 87 41 35 42 92 43 86 44 88 45
REMARK SMILES IDX 36 46 91 47 85 48 84 49 37 51 71 52 50 53 70 54 51 55 54 56
REMARK SMILES IDX 69 57 89 58 52 59 53 60 68 62 90 63 55 64 38 65 39 66 48 67
REMARK SMILES IDX 40 68 41 69 47 70 49 71 42 72 43 73 44 74 45 75 46 76 72 77
REMARK SMILES IDX 73 78 82 79 74 80 75 81 81 82 83 83 76 84 77 85 78 86 79 87
REMARK SMILES IDX 80 88 56 89 57 90 66 91 58 92 59 93 65 94 67 95 60 96 61 97
REMARK SMILES IDX 62 98 63 99 64 100
REMARK H PARENT 22 6 10 12 26 31 88 50 54 61
REMARK Flexibility Score: inf
ROOT
ATOM      1  C   UNL A   1      33.999  27.778  26.099  1.00  0.00     0.042 C 
ENDROOT
BRANCH   1   2
ATOM      2  C   UNL A   1      33.179  26.730  25.343  1.00  0.00     0.117 C 
BRANCH   2   3
ATOM      3  N   UNL A   1      32.800  25.556  26.106  1.00  0.00    -0.356 N 
ATOM      4  C   UNL A   1      33.219  24.261  26.012  1.00  0.00     0.224 C 
ATOM      5  O   UNL A   1      32.908  23.505  26.939  1.00  0.00    -0.275 OA
ATOM      6  H   UNL A   1      32.130  25.721  26.806  1.00  0.00     0.163 HD
BRANCH   4   7
ATOM      7  C   UNL A   1      34.080  23.755  24.871  1.00  0.00     0.138 C 
BRANCH   7   8
ATOM      8  C   UNL A   1      33.381  22.969  23.799  1.00  0.00    -0.002 A 
ATOM      9  C   UNL A   1      32.766  23.418  22.627  1.00  0.00     0.093 A 
ATOM     10  N   UNL A   1      32.155  22.318  22.055  1.00  0.00    -0.352 N 
ATOM     11  C   UNL A   1      32.430  21.169  22.747  1.00  0.00     0.046 A 
ATOM     12  H   UNL A   1      31.591  22.355  21.249  1.00  0.00     0.167 HD
ATOM     13  C   UNL A   1      33.136  21.547  23.885  1.00  0.00     0.007 A 
ATOM     14  C   UNL A   1      32.089  19.838  22.464  1.00  0.00     0.030 A 
ATOM     15  C   UNL A   1      33.474  20.544  24.820  1.00  0.00     0.049 A 
ATOM     16  C   UNL A   1      32.490  18.859  23.377  1.00  0.00     0.041 A 
ATOM     17  C   UNL A   1      33.162  19.215  24.536  1.00  0.00     0.123 A 
ATOM     18  F   UNL A   1      33.537  18.262  25.400  1.00  0.00    -0.207 F 
BRANCH   9  19
ATOM     19  C   UNL A   1      32.555  24.730  22.019  1.00  0.00     0.227 C 
ATOM     20  O   UNL A   1      33.307  25.101  21.119  1.00  0.00    -0.285 OA
BRANCH  19  21
ATOM     21  C   UNL A   1      31.524  25.698  22.538  1.00  0.00     0.113 A 
ATOM     22  C   UNL A   1      30.411  29.326  22.312  1.00  0.00     0.044 C 
ATOM     23  C   UNL A   1      30.479  27.866  22.647  1.00  0.00    -0.047 A 
ATOM     24  C   UNL A   1      29.568  27.336  23.557  1.00  0.00     0.023 A 
ATOM     25  C   UNL A   1      31.433  27.010  22.083  1.00  0.00     0.036 A 
ATOM     26  C   UNL A   1      29.680  26.001  23.904  1.00  0.00     0.112 A 
ATOM     27  N   UNL A   1      30.641  25.180  23.432  1.00  0.00    -0.253 NA
ENDBRANCH  19  21
ENDBRANCH   9  19
ENDBRANCH   7   8
ENDBRANCH   4   7
ENDBRANCH   2   3
ENDBRANCH   1   2
BRANCH   1  28
ATOM     28  C   UNL A   1      33.495  28.226  27.468  1.00  0.00     0.118 C 
BRANCH  28  29
ATOM     29  N   UNL A   1      33.381  29.662  27.620  1.00  0.00    -0.352 N 
ATOM     30  C   UNL A   1      34.318  30.564  28.061  1.00  0.00     0.251 C 
ATOM     31  H   UNL A   1      32.509  30.046  27.371  1.00  0.00     0.163 HD
ATOM     32  O   UNL A   1      33.991  31.730  28.249  1.00  0.00    -0.269 OA
BRANCH  30  33
ATOM     33  C   UNL A   1      35.708  30.129  28.327  1.00  0.00     0.039 A 
ATOM     34  C   UNL A   1      36.617  30.114  27.268  1.00  0.00     0.014 A 
ATOM     35  C   UNL A   1      36.106  29.711  29.601  1.00  0.00     0.014 A 
ATOM     36  C   UNL A   1      37.941  29.726  27.494  1.00  0.00     0.010 A 
ATOM     37  C   UNL A   1      37.440  29.374  29.836  1.00  0.00     0.010 A 
ATOM     38  C   UNL A   1      38.372  29.379  28.786  1.00  0.00    -0.014 A 
BRANCH  38  39
ATOM     39  C   UNL A   1      39.797  29.045  29.051  1.00  0.00     0.031 A 
ATOM     40  C   UNL A   1      40.736  30.077  29.617  1.00  0.00     0.074 A 
ATOM     41  C   UNL A   1      40.259  27.818  28.736  1.00  0.00     0.049 A 
ATOM     42  N   UNL A   1      42.016  29.978  29.869  1.00  0.00    -0.248 NA
ATOM     43  C   UNL A   1      40.165  31.399  29.919  1.00  0.00     0.031 C 
ATOM     44  C   UNL A   1      39.461  26.740  28.147  1.00  0.00     0.029 A 
ATOM     45  N   UNL A   1      41.513  27.270  28.856  1.00  0.00    -0.354 N 
ATOM     46  C   UNL A   1      42.407  31.222  30.352  1.00  0.00     0.074 A 
ATOM     47  C   UNL A   1      41.237  32.074  30.309  1.00  0.00     0.031 C 
ATOM     48  C   UNL A   1      40.237  25.659  27.975  1.00  0.00     0.029 A 
ATOM     49  C   UNL A   1      41.597  25.975  28.400  1.00  0.00     0.049 A 
ATOM     50  H   UNL A   1      42.280  27.760  29.233  1.00  0.00     0.167 HD
ATOM     51  C   UNL A   1      43.623  31.612  30.807  1.00  0.00     0.037 A 
ATOM     52  C   UNL A   1      42.651  25.138  28.322  1.00  0.00     0.037 A 
ATOM     53  C   UNL A   1      44.780  30.755  30.857  1.00  0.00     0.049 A 
ATOM     54  C   UNL A   1      43.996  25.601  28.814  1.00  0.00     0.074 A 
ATOM     55  C   UNL A   1      46.042  31.043  31.349  1.00  0.00     0.029 A 
ATOM     56  N   UNL A   1      44.823  29.448  30.393  1.00  0.00    -0.354 N 
ATOM     57  N   UNL A   1      44.330  26.761  29.328  1.00  0.00    -0.248 NA
ATOM     58  C   UNL A   1      45.104  24.641  28.723  1.00  0.00     0.031 C 
ATOM     59  C   UNL A   1      46.862  29.930  31.131  1.00  0.00     0.029 A 
ATOM     60  C   UNL A   1      46.096  28.926  30.562  1.00  0.00     0.049 A 
ATOM     61  H   UNL A   1      44.062  28.962  30.001  1.00  0.00     0.167 HD
ATOM     62  C   UNL A   1      45.680  26.658  29.648  1.00  0.00     0.074 A 
ATOM     63  C   UNL A   1      46.096  25.321  29.283  1.00  0.00     0.031 C 
ATOM     64  C   UNL A   1      46.500  27.589  30.199  1.00  0.00     0.037 A 
BRANCH  51  65
ATOM     65  C   UNL A   1      43.771  33.033  31.286  1.00  0.00     0.058 A 
ATOM     66  C   UNL A   1      44.179  34.064  30.424  1.00  0.00     0.135 A 
ATOM     67  C   UNL A   1      43.456  33.377  32.611  1.00  0.00     0.135 A 
ATOM     68  F   UNL A   1      44.505  33.793  29.150  1.00  0.00    -0.206 F 
ATOM     69  C   UNL A   1      44.300  35.378  30.867  1.00  0.00     0.059 A 
ATOM     70  C   UNL A   1      43.539  34.690  33.066  1.00  0.00     0.059 A 
ATOM     71  F   UNL A   1      43.058  32.433  33.478  1.00  0.00    -0.206 F 
ATOM     72  C   UNL A   1      43.977  35.681  32.190  1.00  0.00     0.060 A 
BRANCH  72  73
ATOM     73  S   UNL A   1      44.136  37.392  32.745  1.00  0.00     0.124 S 
ATOM     74  O   UNL A   1      43.816  38.124  31.522  1.00  0.00    -0.237 OA
ATOM     75  O   UNL A   1      43.140  37.468  33.807  1.00  0.00    -0.237 OA
ATOM     76  O   UNL A   1      45.526  37.481  33.182  1.00  0.00    -0.744 OA
ENDBRANCH  72  73
ENDBRANCH  51  65
BRANCH  52  77
ATOM     77  C   UNL A   1      42.472  23.770  27.763  1.00  0.00     0.058 A 
ATOM     78  C   UNL A   1      42.459  23.549  26.379  1.00  0.00     0.135 A 
ATOM     79  C   UNL A   1      42.323  22.655  28.604  1.00  0.00     0.135 A 
ATOM     80  F   UNL A   1      42.591  24.582  25.534  1.00  0.00    -0.206 F 
ATOM     81  C   UNL A   1      42.289  22.276  25.845  1.00  0.00     0.059 A 
ATOM     82  C   UNL A   1      42.179  21.368  28.095  1.00  0.00     0.059 A 
ATOM     83  F   UNL A   1      42.345  22.809  29.937  1.00  0.00    -0.206 F 
ATOM     84  C   UNL A   1      42.152  21.190  26.712  1.00  0.00     0.060 A 
BRANCH  84  85
ATOM     85  S   UNL A   1      41.983  19.536  26.010  1.00  0.00     0.124 S 
ATOM     86  O   UNL A   1      42.903  19.602  24.880  1.00  0.00    -0.237 OA
ATOM     87  O   UNL A   1      42.396  18.688  27.122  1.00  0.00    -0.237 OA
ATOM     88  O   UNL A   1      40.565  19.461  25.667  1.00  0.00    -0.744 OA
ENDBRANCH  84  85
ENDBRANCH  52  77
BRANCH  64  89
ATOM     89  C   UNL A   1      47.922  27.186  30.478  1.00  0.00     0.058 A 
ATOM     90  C   UNL A   1      48.954  27.416  29.554  1.00  0.00     0.135 A 
ATOM     91  C   UNL A   1      48.268  26.606  31.710  1.00  0.00     0.135 A 
ATOM     92  F   UNL A   1      48.681  27.961  28.357  1.00  0.00    -0.206 F 
ATOM     93  C   UNL A   1      50.272  27.063  29.832  1.00  0.00     0.059 A 
ATOM     94  C   UNL A   1      49.582  26.274  32.022  1.00  0.00     0.059 A 
ATOM     95  F   UNL A   1      47.323  26.373  32.636  1.00  0.00    -0.206 F 
ATOM     96  C   UNL A   1      50.576  26.496  31.070  1.00  0.00     0.060 A 
BRANCH  96  97
ATOM     97  S   UNL A   1      52.294  26.075  31.430  1.00  0.00     0.124 S 
ATOM     98  O   UNL A   1      52.647  27.090  32.415  1.00  0.00    -0.237 OA
ATOM     99  O   UNL A   1      52.182  24.710  31.936  1.00  0.00    -0.237 OA
ATOM    100  O   UNL A   1      52.954  26.203  30.133  1.00  0.00    -0.744 OA
ENDBRANCH  96  97
ENDBRANCH  64  89
ENDBRANCH  38  39
ENDBRANCH  30  33
ENDBRANCH  28  29
ENDBRANCH   1  28
TORSDOF 16
ENDMDL
MODEL 3
REMARK VINA RESULT:     -11.7      4.752     10.340
REMARK SMILES Cc1ccnc(C(=O)c2[nH]c3ccc(F)cc3c2CC(=O)NCCCNC(=O)c2ccc(-c3c4nc(c(-c5c(F)cc(S(=O)(=O)[O-])cc5F)c5ccc([nH]5)c(-c5c(F)cc(S(=O)(=O)[O-])cc5F)c5nc(c(-c6c(F)cc(S(=O)(=O)[O-])cc6F)c6ccc3[nH]6)C=C5)C=C4)cc2)c1
REMARK SMILES IDX 24 1 23 2 22 3 20 4 21 5 19 7 18 8 9 9 10 10 11 11 17 13
REMARK SMILES IDX 12 14 16 15 13 16 14 17 15 18 7 19 8 20 6 21 1 22 2 23 3 24
REMARK SMILES IDX 95 25 4 26 5 27 25 28 26 29 27 30 28 32 29 33 30 34 94 35
REMARK SMILES IDX 31 36 93 37 32 38 33 39 34 40 87 41 35 42 92 43 86 44 88 45
REMARK SMILES IDX 36 46 91 47 85 48 84 49 37 51 71 52 50 53 70 54 51 55 54 56
REMARK SMILES IDX 69 57 89 58 52 59 53 60 68 62 90 63 55 64 38 65 39 66 48 67
REMARK SMILES IDX 40 68 41 69 47 70 49 71 42 72 43 73 44 74 45 75 46 76 72 77
REMARK SMILES IDX 73 78 82 79 74 80 75 81 81 82 83 83 76 84 77 85 78 86 79 87
REMARK SMILES IDX 80 88 56 89 57 90 66 91 58 92 59 93 65 94 67 95 60 96 61 97
REMARK SMILES IDX 62 98 63 99 64 100
REMARK H PARENT 22 6 10 12 26 31 88 50 54 61
REMARK Flexibility Score: inf
ROOT
ATOM      1  C   UNL A   1      37.324  23.715  25.417  1.00  0.00     0.042 C 
ENDROOT
BRANCH   1   2
ATOM      2  C   UNL A   1      36.296  22.623  25.725  1.00  0.00     0.117 C 
BRANCH   2   3
ATOM      3  N   UNL A   1      35.226  23.001  26.627  1.00  0.00    -0.356 N 
ATOM      4  C   UNL A   1      34.203  22.266  27.152  1.00  0.00     0.224 C 
ATOM      5  O   UNL A   1      33.566  22.778  28.079  1.00  0.00    -0.275 OA
ATOM      6  H   UNL A   1      35.238  23.945  26.905  1.00  0.00     0.163 HD
BRANCH   4   7
ATOM      7  C   UNL A   1      33.877  20.860  26.689  1.00  0.00     0.138 C 
BRANCH   7   8
ATOM      8  C   UNL A   1      33.220  20.730  25.345  1.00  0.00    -0.002 A 
ATOM      9  C   UNL A   1      32.432  21.651  24.649  1.00  0.00     0.093 A 
ATOM     10  N   UNL A   1      31.960  20.998  23.525  1.00  0.00    -0.352 N 
ATOM     11  C   UNL A   1      32.486  19.738  23.414  1.00  0.00     0.046 A 
ATOM     12  H   UNL A   1      31.324  21.390  22.884  1.00  0.00     0.167 HD
ATOM     13  C   UNL A   1      33.223  19.509  24.571  1.00  0.00     0.007 A 
ATOM     14  C   UNL A   1      32.344  18.785  22.394  1.00  0.00     0.030 A 
ATOM     15  C   UNL A   1      33.809  18.236  24.743  1.00  0.00     0.049 A 
ATOM     16  C   UNL A   1      32.985  17.555  22.564  1.00  0.00     0.041 A 
ATOM     17  C   UNL A   1      33.695  17.290  23.724  1.00  0.00     0.123 A 
ATOM     18  F   UNL A   1      34.302  16.104  23.870  1.00  0.00    -0.207 F 
BRANCH   9  19
ATOM     19  C   UNL A   1      31.951  23.003  24.926  1.00  0.00     0.227 C 
ATOM     20  O   UNL A   1      31.020  23.157  25.715  1.00  0.00    -0.285 OA
BRANCH  19  21
ATOM     21  C   UNL A   1      32.473  24.207  24.186  1.00  0.00     0.113 A 
ATOM     22  C   UNL A   1      33.826  27.720  24.719  1.00  0.00     0.044 C 
ATOM     23  C   UNL A   1      33.402  26.428  24.087  1.00  0.00    -0.047 A 
ATOM     24  C   UNL A   1      33.421  26.313  22.699  1.00  0.00     0.023 A 
ATOM     25  C   UNL A   1      32.978  25.326  24.840  1.00  0.00     0.036 A 
ATOM     26  C   UNL A   1      32.970  25.138  22.125  1.00  0.00     0.112 A 
ATOM     27  N   UNL A   1      32.483  24.096  22.831  1.00  0.00    -0.253 NA
ENDBRANCH  19  21
ENDBRANCH   9  19
ENDBRANCH   7   8
ENDBRANCH   4   7
ENDBRANCH   2   3
ENDBRANCH   1   2
BRANCH   1  28
ATOM     28  C   UNL A   1      38.314  24.091  26.516  1.00  0.00     0.118 C 
BRANCH  28  29
ATOM     29  N   UNL A   1      39.704  23.900  26.156  1.00  0.00    -0.352 N 
ATOM     30  C   UNL A   1      40.806  24.622  26.544  1.00  0.00     0.251 C 
ATOM     31  H   UNL A   1      39.884  23.147  25.549  1.00  0.00     0.163 HD
ATOM     32  O   UNL A   1      41.893  24.390  26.025  1.00  0.00    -0.269 OA
BRANCH  30  33
ATOM     33  C   UNL A   1      40.682  25.686  27.565  1.00  0.00     0.039 A 
ATOM     34  C   UNL A   1      39.685  25.568  28.536  1.00  0.00     0.014 A 
ATOM     35  C   UNL A   1      41.520  26.806  27.553  1.00  0.00     0.014 A 
ATOM     36  C   UNL A   1      39.558  26.547  29.524  1.00  0.00     0.010 A 
ATOM     37  C   UNL A   1      41.424  27.757  28.569  1.00  0.00     0.010 A 
ATOM     38  C   UNL A   1      40.443  27.637  29.567  1.00  0.00    -0.014 A 
BRANCH  38  39
ATOM     39  C   UNL A   1      40.366  28.641  30.663  1.00  0.00     0.031 A 
ATOM     40  C   UNL A   1      41.245  28.517  31.880  1.00  0.00     0.074 A 
ATOM     41  C   UNL A   1      39.467  29.642  30.582  1.00  0.00     0.049 A 
ATOM     42  N   UNL A   1      41.282  29.270  32.950  1.00  0.00    -0.248 NA
ATOM     43  C   UNL A   1      42.189  27.390  31.907  1.00  0.00     0.031 C 
ATOM     44  C   UNL A   1      38.533  29.850  29.473  1.00  0.00     0.029 A 
ATOM     45  N   UNL A   1      39.182  30.667  31.449  1.00  0.00    -0.354 N 
ATOM     46  C   UNL A   1      42.245  28.706  33.780  1.00  0.00     0.074 A 
ATOM     47  C   UNL A   1      42.732  27.518  33.109  1.00  0.00     0.031 C 
ATOM     48  C   UNL A   1      37.794  30.943  29.719  1.00  0.00     0.029 A 
ATOM     49  C   UNL A   1      38.168  31.491  31.019  1.00  0.00     0.049 A 
ATOM     50  H   UNL A   1      39.659  30.800  32.301  1.00  0.00     0.167 HD
ATOM     51  C   UNL A   1      42.695  29.148  34.979  1.00  0.00     0.037 A 
ATOM     52  C   UNL A   1      37.595  32.560  31.606  1.00  0.00     0.037 A 
ATOM     53  C   UNL A   1      42.215  30.337  35.635  1.00  0.00     0.049 A 
ATOM     54  C   UNL A   1      38.098  33.019  32.948  1.00  0.00     0.074 A 
ATOM     55  C   UNL A   1      42.645  30.895  36.827  1.00  0.00     0.029 A 
ATOM     56  N   UNL A   1      41.192  31.149  35.163  1.00  0.00    -0.354 N 
ATOM     57  N   UNL A   1      39.055  32.510  33.688  1.00  0.00    -0.248 NA
ATOM     58  C   UNL A   1      37.451  34.201  33.533  1.00  0.00     0.031 C 
ATOM     59  C   UNL A   1      41.846  32.010  37.104  1.00  0.00     0.029 A 
ATOM     60  C   UNL A   1      40.960  32.186  36.053  1.00  0.00     0.049 A 
ATOM     61  H   UNL A   1      40.703  31.008  34.321  1.00  0.00     0.167 HD
ATOM     62  C   UNL A   1      39.144  33.328  34.810  1.00  0.00     0.074 A 
ATOM     63  C   UNL A   1      38.153  34.371  34.645  1.00  0.00     0.031 C 
ATOM     64  C   UNL A   1      39.974  33.224  35.878  1.00  0.00     0.037 A 
BRANCH  51  65
ATOM     65  C   UNL A   1      43.764  28.339  35.669  1.00  0.00     0.058 A 
ATOM     66  C   UNL A   1      43.445  27.329  36.591  1.00  0.00     0.135 A 
ATOM     67  C   UNL A   1      45.121  28.546  35.370  1.00  0.00     0.135 A 
ATOM     68  F   UNL A   1      42.165  27.095  36.925  1.00  0.00    -0.206 F 
ATOM     69  C   UNL A   1      44.435  26.574  37.215  1.00  0.00     0.059 A 
ATOM     70  C   UNL A   1      46.124  27.781  35.958  1.00  0.00     0.059 A 
ATOM     71  F   UNL A   1      45.483  29.495  34.494  1.00  0.00    -0.206 F 
ATOM     72  C   UNL A   1      45.771  26.807  36.891  1.00  0.00     0.060 A 
BRANCH  72  73
ATOM     73  S   UNL A   1      47.040  25.816  37.708  1.00  0.00     0.124 S 
ATOM     74  O   UNL A   1      46.237  25.021  38.633  1.00  0.00    -0.237 OA
ATOM     75  O   UNL A   1      47.629  25.084  36.592  1.00  0.00    -0.237 OA
ATOM     76  O   UNL A   1      47.906  26.813  38.328  1.00  0.00    -0.744 OA
ENDBRANCH  72  73
ENDBRANCH  51  65
BRANCH  52  77
ATOM     77  C   UNL A   1      36.485  33.278  30.922  1.00  0.00     0.058 A 
ATOM     78  C   UNL A   1      35.163  33.167  31.375  1.00  0.00     0.135 A 
ATOM     79  C   UNL A   1      36.727  34.097  29.807  1.00  0.00     0.135 A 
ATOM     80  F   UNL A   1      34.880  32.390  32.431  1.00  0.00    -0.206 F 
ATOM     81  C   UNL A   1      34.116  33.829  30.741  1.00  0.00     0.059 A 
ATOM     82  C   UNL A   1      35.702  34.792  29.174  1.00  0.00     0.059 A 
ATOM     83  F   UNL A   1      37.977  34.252  29.344  1.00  0.00    -0.206 F 
ATOM     84  C   UNL A   1      34.397  34.642  29.641  1.00  0.00     0.060 A 
BRANCH  84  85
ATOM     85  S   UNL A   1      33.039  35.538  28.857  1.00  0.00     0.124 S 
ATOM     86  O   UNL A   1      33.758  36.554  28.099  1.00  0.00    -0.237 OA
ATOM     87  O   UNL A   1      32.395  34.490  28.073  1.00  0.00    -0.237 OA
ATOM     88  O   UNL A   1      32.262  36.028  29.993  1.00  0.00    -0.744 OA
ENDBRANCH  84  85
ENDBRANCH  52  77
BRANCH  64  89
ATOM     89  C   UNL A   1      39.877  34.286  36.940  1.00  0.00     0.058 A 
ATOM     90  C   UNL A   1      40.536  35.520  36.819  1.00  0.00     0.135 A 
ATOM     91  C   UNL A   1      39.072  34.085  38.073  1.00  0.00     0.135 A 
ATOM     92  F   UNL A   1      41.325  35.764  35.759  1.00  0.00    -0.206 F 
ATOM     93  C   UNL A   1      40.419  36.506  37.794  1.00  0.00     0.059 A 
ATOM     94  C   UNL A   1      38.915  35.068  39.045  1.00  0.00     0.059 A 
ATOM     95  F   UNL A   1      38.410  32.928  38.236  1.00  0.00    -0.206 F 
ATOM     96  C   UNL A   1      39.603  36.272  38.902  1.00  0.00     0.060 A 
BRANCH  96  97
ATOM     97  S   UNL A   1      39.434  37.573  40.142  1.00  0.00     0.124 S 
ATOM     98  O   UNL A   1      39.034  36.810  41.318  1.00  0.00    -0.237 OA
ATOM     99  O   UNL A   1      40.778  38.142  40.181  1.00  0.00    -0.237 OA
ATOM    100  O   UNL A   1      38.407  38.446  39.581  1.00  0.00    -0.744 OA
ENDBRANCH  96  97
ENDBRANCH  64  89
ENDBRANCH  38  39
ENDBRANCH  30  33
ENDBRANCH  28  29
ENDBRANCH   1  28
TORSDOF 16
ENDMDL
