MODEL 1
REMARK VINA RESULT:     -13.7      0.000      0.000
REMARK SMILES Cc1ccc(NC(=O)C[N@H+]2CCC[C@@H](C(=O)NCCCNC(=O)c3ccc(-c4c5nc(c(-c6c(F)cc(S(=O)(=O)[O-])cc6F)c6ccc([nH]6)c(-c6c(F)cc(S(=O)(=O)[O-])cc6F)c6nc(c(-c7c(F)cc(S(=O)(=O)[O-])cc7F)c7ccc4[nH]7)C=C6)C=C5)cc3)C2)cc1F
REMARK SMILES IDX 19 1 18 2 17 3 15 4 16 5 14 7 10 8 11 9 90 10 12 12 13 13
REMARK SMILES IDX 9 14 7 15 6 16 8 18 5 19 1 20 2 21 3 22 92 23 4 24 91 25
REMARK SMILES IDX 93 26 20 27 21 28 22 29 23 31 24 32 25 33 89 34 26 35 88 36
REMARK SMILES IDX 27 37 28 38 29 39 82 40 30 41 87 42 81 43 83 44 31 45 86 46
REMARK SMILES IDX 80 47 79 48 32 50 66 51 45 52 65 53 46 54 49 55 64 56 84 57
REMARK SMILES IDX 47 58 48 59 63 61 85 62 50 63 33 64 34 65 43 66 35 67 36 68
REMARK SMILES IDX 42 69 44 70 37 71 38 72 39 73 40 74 41 75 67 76 68 77 77 78
REMARK SMILES IDX 69 79 70 80 76 81 78 82 71 83 72 84 73 85 74 86 75 87 51 88
REMARK SMILES IDX 52 89 61 90 53 91 54 92 60 93 62 94 55 95 56 96 57 97 58 98
REMARK SMILES IDX 59 99
REMARK H PARENT 17 6 10 11 6 17 21 30 83 49 49 60
REMARK Flexibility Score: inf
ROOT
ATOM      1  C   UNL A   1      39.101  22.396  26.115  1.00  0.00     0.042 C 
ENDROOT
BRANCH   1   2
ATOM      2  C   UNL A   1      37.806  23.179  25.919  1.00  0.00     0.117 C 
BRANCH   2   3
ATOM      3  N   UNL A   1      37.428  23.275  24.511  1.00  0.00    -0.356 N 
ATOM      4  C   UNL A   1      36.234  22.967  23.919  1.00  0.00     0.228 C 
ATOM      5  O   UNL A   1      36.093  23.140  22.709  1.00  0.00    -0.275 OA
ATOM      6  H   UNL A   1      38.129  23.607  23.906  1.00  0.00     0.163 HD
BRANCH   4   7
ATOM      7  C   UNL A   1      35.109  22.435  24.794  1.00  0.00     0.133 C 
ATOM      8  N   UNL A   1      32.711  22.710  25.315  1.00  0.00    -0.326 N 
ATOM      9  C   UNL A   1      32.535  21.244  25.347  1.00  0.00     0.262 C 
ATOM     10  C   UNL A   1      33.777  23.067  24.364  1.00  0.00     0.276 C 
ATOM     11  H   UNL A   1      33.030  23.063  26.217  1.00  0.00     0.348 HD
ATOM     12  C   UNL A   1      33.833  20.486  25.655  1.00  0.00     0.062 C 
ATOM     13  C   UNL A   1      34.975  20.915  24.738  1.00  0.00     0.025 C 
BRANCH   8  14
ATOM     14  C   UNL A   1      31.397  23.371  25.081  1.00  0.00     0.363 C 
BRANCH  14  15
ATOM     15  C   UNL A   1      30.742  24.054  26.279  1.00  0.00     0.279 C 
ATOM     16  N   UNL A   1      30.308  25.345  26.292  1.00  0.00    -0.321 N 
ATOM     17  H   UNL A   1      29.881  25.593  27.144  1.00  0.00     0.170 HD
ATOM     18  O   UNL A   1      30.574  23.402  27.322  1.00  0.00    -0.268 OA
BRANCH  16  19
ATOM     19  C   UNL A   1      30.329  26.406  25.370  1.00  0.00     0.044 A 
ATOM     20  C   UNL A   1      30.205  29.453  22.307  1.00  0.00     0.047 C 
ATOM     21  C   UNL A   1      30.204  28.412  23.382  1.00  0.00    -0.015 A 
ATOM     22  C   UNL A   1      29.284  27.362  23.382  1.00  0.00     0.008 A 
ATOM     23  C   UNL A   1      31.178  28.434  24.374  1.00  0.00     0.128 A 
ATOM     24  C   UNL A   1      29.343  26.374  24.369  1.00  0.00     0.026 A 
ATOM     25  C   UNL A   1      31.243  27.453  25.363  1.00  0.00     0.065 A 
ATOM     26  F   UNL A   1      32.089  29.419  24.390  1.00  0.00    -0.207 F 
ENDBRANCH  16  19
ENDBRANCH  14  15
ENDBRANCH   8  14
ENDBRANCH   4   7
ENDBRANCH   2   3
ENDBRANCH   1   2
BRANCH   1  27
ATOM     27  C   UNL A   1      39.904  22.973  27.281  1.00  0.00     0.118 C 
BRANCH  27  28
ATOM     28  N   UNL A   1      41.123  23.645  26.806  1.00  0.00    -0.352 N 
ATOM     29  C   UNL A   1      41.427  24.954  26.493  1.00  0.00     0.251 C 
ATOM     30  H   UNL A   1      41.884  23.031  26.688  1.00  0.00     0.163 HD
ATOM     31  O   UNL A   1      42.550  25.276  26.110  1.00  0.00    -0.269 OA
BRANCH  29  32
ATOM     32  C   UNL A   1      40.455  26.022  26.774  1.00  0.00     0.039 A 
ATOM     33  C   UNL A   1      40.749  27.264  26.196  1.00  0.00     0.014 A 
ATOM     34  C   UNL A   1      39.629  25.920  27.879  1.00  0.00     0.014 A 
ATOM     35  C   UNL A   1      40.532  28.410  26.942  1.00  0.00     0.010 A 
ATOM     36  C   UNL A   1      39.539  27.038  28.679  1.00  0.00     0.010 A 
ATOM     37  C   UNL A   1      40.063  28.262  28.245  1.00  0.00    -0.014 A 
BRANCH  37  38
ATOM     38  C   UNL A   1      40.154  29.324  29.234  1.00  0.00     0.031 A 
ATOM     39  C   UNL A   1      39.053  30.303  29.305  1.00  0.00     0.074 A 
ATOM     40  C   UNL A   1      41.234  29.477  30.034  1.00  0.00     0.049 A 
ATOM     41  N   UNL A   1      39.227  31.563  29.516  1.00  0.00    -0.248 NA
ATOM     42  C   UNL A   1      37.657  29.939  29.077  1.00  0.00     0.031 C 
ATOM     43  C   UNL A   1      41.358  30.420  31.142  1.00  0.00     0.029 A 
ATOM     44  N   UNL A   1      42.511  28.931  29.908  1.00  0.00    -0.354 N 
ATOM     45  C   UNL A   1      37.986  32.120  29.702  1.00  0.00     0.074 A 
ATOM     46  C   UNL A   1      37.038  31.087  29.356  1.00  0.00     0.031 C 
ATOM     47  C   UNL A   1      42.656  30.573  31.441  1.00  0.00     0.029 A 
ATOM     48  C   UNL A   1      43.439  29.822  30.475  1.00  0.00     0.049 A 
ATOM     49  H   UNL A   1      42.727  28.066  29.490  1.00  0.00     0.167 HD
ATOM     50  C   UNL A   1      37.860  33.353  30.263  1.00  0.00     0.037 A 
ATOM     51  C   UNL A   1      44.471  30.355  29.750  1.00  0.00     0.037 A 
ATOM     52  C   UNL A   1      39.156  33.886  30.664  1.00  0.00     0.049 A 
ATOM     53  C   UNL A   1      44.378  31.843  29.533  1.00  0.00     0.074 A 
ATOM     54  C   UNL A   1      39.838  33.835  31.870  1.00  0.00     0.029 A 
ATOM     55  N   UNL A   1      40.092  34.252  29.702  1.00  0.00    -0.354 N 
ATOM     56  N   UNL A   1      43.311  32.548  29.790  1.00  0.00    -0.248 NA
ATOM     57  C   UNL A   1      45.455  32.659  28.979  1.00  0.00     0.031 C 
ATOM     58  C   UNL A   1      41.202  34.121  31.621  1.00  0.00     0.029 A 
ATOM     59  C   UNL A   1      41.349  34.376  30.269  1.00  0.00     0.049 A 
ATOM     60  H   UNL A   1      39.887  34.401  28.750  1.00  0.00     0.167 HD
ATOM     61  C   UNL A   1      43.503  33.846  29.399  1.00  0.00     0.074 A 
ATOM     62  C   UNL A   1      44.878  33.873  28.935  1.00  0.00     0.031 C 
ATOM     63  C   UNL A   1      42.501  34.774  29.469  1.00  0.00     0.037 A 
BRANCH  50  64
ATOM     64  C   UNL A   1      36.520  33.859  30.730  1.00  0.00     0.058 A 
ATOM     65  C   UNL A   1      35.548  34.308  29.817  1.00  0.00     0.135 A 
ATOM     66  C   UNL A   1      36.172  33.980  32.092  1.00  0.00     0.135 A 
ATOM     67  F   UNL A   1      35.718  34.181  28.495  1.00  0.00    -0.206 F 
ATOM     68  C   UNL A   1      34.370  34.934  30.223  1.00  0.00     0.059 A 
ATOM     69  C   UNL A   1      35.026  34.655  32.523  1.00  0.00     0.059 A 
ATOM     70  F   UNL A   1      36.946  33.445  33.050  1.00  0.00    -0.206 F 
ATOM     71  C   UNL A   1      34.131  35.135  31.577  1.00  0.00     0.060 A 
BRANCH  71  72
ATOM     72  S   UNL A   1      32.654  36.041  32.073  1.00  0.00     0.124 S 
ATOM     73  O   UNL A   1      32.258  36.699  30.832  1.00  0.00    -0.237 OA
ATOM     74  O   UNL A   1      31.781  34.965  32.529  1.00  0.00    -0.237 OA
ATOM     75  O   UNL A   1      33.143  36.939  33.116  1.00  0.00    -0.744 OA
ENDBRANCH  71  72
ENDBRANCH  50  64
BRANCH  51  76
ATOM     76  C   UNL A   1      45.245  29.376  28.924  1.00  0.00     0.058 A 
ATOM     77  C   UNL A   1      46.128  28.580  29.673  1.00  0.00     0.135 A 
ATOM     78  C   UNL A   1      44.596  28.772  27.839  1.00  0.00     0.135 A 
ATOM     79  F   UNL A   1      46.876  29.139  30.638  1.00  0.00    -0.206 F 
ATOM     80  C   UNL A   1      46.052  27.195  29.625  1.00  0.00     0.059 A 
ATOM     81  C   UNL A   1      44.474  27.385  27.789  1.00  0.00     0.059 A 
ATOM     82  F   UNL A   1      43.856  29.516  27.003  1.00  0.00    -0.206 F 
ATOM     83  C   UNL A   1      45.091  26.630  28.789  1.00  0.00     0.060 A 
BRANCH  83  84
ATOM     84  S   UNL A   1      44.175  25.195  29.432  1.00  0.00     0.124 S 
ATOM     85  O   UNL A   1      44.417  24.147  28.446  1.00  0.00    -0.237 OA
ATOM     86  O   UNL A   1      44.769  24.955  30.742  1.00  0.00    -0.237 OA
ATOM     87  O   UNL A   1      42.822  25.752  29.461  1.00  0.00    -0.744 OA
ENDBRANCH  83  84
ENDBRANCH  51  76
BRANCH  63  88
ATOM     88  C   UNL A   1      42.522  36.168  28.881  1.00  0.00     0.058 A 
ATOM     89  C   UNL A   1      43.086  37.289  29.515  1.00  0.00     0.135 A 
ATOM     90  C   UNL A   1      42.084  36.384  27.549  1.00  0.00     0.135 A 
ATOM     91  F   UNL A   1      43.633  37.202  30.735  1.00  0.00    -0.206 F 
ATOM     92  C   UNL A   1      43.159  38.541  28.898  1.00  0.00     0.059 A 
ATOM     93  C   UNL A   1      42.208  37.606  26.893  1.00  0.00     0.059 A 
ATOM     94  F   UNL A   1      41.532  35.399  26.823  1.00  0.00    -0.206 F 
ATOM     95  C   UNL A   1      42.725  38.689  27.585  1.00  0.00     0.060 A 
BRANCH  95  96
ATOM     96  S   UNL A   1      42.904  40.278  26.754  1.00  0.00     0.124 S 
ATOM     97  O   UNL A   1      43.958  39.983  25.788  1.00  0.00    -0.237 OA
ATOM     98  O   UNL A   1      41.575  40.498  26.189  1.00  0.00    -0.237 OA
ATOM     99  O   UNL A   1      43.271  41.182  27.839  1.00  0.00    -0.744 OA
ENDBRANCH  95  96
ENDBRANCH  63  88
ENDBRANCH  37  38
ENDBRANCH  29  32
ENDBRANCH  27  28
ENDBRANCH   1  27
TORSDOF 16
ENDMDL
MODEL 2
REMARK VINA RESULT:     -13.7      4.390     11.330
REMARK SMILES Cc1ccc(NC(=O)C[N@H+]2CCC[C@@H](C(=O)NCCCNC(=O)c3ccc(-c4c5nc(c(-c6c(F)cc(S(=O)(=O)[O-])cc6F)c6ccc([nH]6)c(-c6c(F)cc(S(=O)(=O)[O-])cc6F)c6nc(c(-c7c(F)cc(S(=O)(=O)[O-])cc7F)c7ccc4[nH]7)C=C6)C=C5)cc3)C2)cc1F
REMARK SMILES IDX 19 1 18 2 17 3 15 4 16 5 14 7 10 8 11 9 90 10 12 12 13 13
REMARK SMILES IDX 9 14 7 15 6 16 8 18 5 19 1 20 2 21 3 22 92 23 4 24 91 25
REMARK SMILES IDX 93 26 20 27 21 28 22 29 23 31 24 32 25 33 89 34 26 35 88 36
REMARK SMILES IDX 27 37 28 38 29 39 82 40 30 41 87 42 81 43 83 44 31 45 86 46
REMARK SMILES IDX 80 47 79 48 32 50 66 51 45 52 65 53 46 54 49 55 64 56 84 57
REMARK SMILES IDX 47 58 48 59 63 61 85 62 50 63 33 64 34 65 43 66 35 67 36 68
REMARK SMILES IDX 42 69 44 70 37 71 38 72 39 73 40 74 41 75 67 76 68 77 77 78
REMARK SMILES IDX 69 79 70 80 76 81 78 82 71 83 72 84 73 85 74 86 75 87 51 88
REMARK SMILES IDX 52 89 61 90 53 91 54 92 60 93 62 94 55 95 56 96 57 97 58 98
REMARK SMILES IDX 59 99
REMARK H PARENT 17 6 10 11 6 17 21 30 83 49 49 60
REMARK Flexibility Score: inf
ROOT
ATOM      1  C   UNL A   1      34.121  31.228  27.735  1.00  0.00     0.042 C 
ENDROOT
BRANCH   1   2
ATOM      2  C   UNL A   1      34.072  29.820  27.152  1.00  0.00     0.117 C 
BRANCH   2   3
ATOM      3  N   UNL A   1      32.973  29.032  27.705  1.00  0.00    -0.356 N 
ATOM      4  C   UNL A   1      32.020  28.303  27.047  1.00  0.00     0.228 C 
ATOM      5  O   UNL A   1      31.180  27.678  27.693  1.00  0.00    -0.275 OA
ATOM      6  H   UNL A   1      32.909  29.025  28.687  1.00  0.00     0.163 HD
BRANCH   4   7
ATOM      7  C   UNL A   1      32.051  28.281  25.527  1.00  0.00     0.133 C 
ATOM      8  N   UNL A   1      31.949  26.778  23.569  1.00  0.00    -0.326 N 
ATOM      9  C   UNL A   1      31.045  27.718  22.877  1.00  0.00     0.262 C 
ATOM     10  C   UNL A   1      31.740  26.862  25.025  1.00  0.00     0.276 C 
ATOM     11  H   UNL A   1      32.926  27.031  23.426  1.00  0.00     0.348 HD
ATOM     12  C   UNL A   1      31.179  29.163  23.375  1.00  0.00     0.062 C 
ATOM     13  C   UNL A   1      31.060  29.256  24.893  1.00  0.00     0.025 C 
BRANCH   8  14
ATOM     14  C   UNL A   1      31.809  25.417  22.981  1.00  0.00     0.363 C 
BRANCH  14  15
ATOM     15  C   UNL A   1      32.893  24.970  22.004  1.00  0.00     0.279 C 
ATOM     16  N   UNL A   1      33.519  23.761  22.044  1.00  0.00    -0.321 N 
ATOM     17  H   UNL A   1      34.164  23.643  21.309  1.00  0.00     0.170 HD
ATOM     18  O   UNL A   1      33.237  25.742  21.096  1.00  0.00    -0.268 OA
BRANCH  16  19
ATOM     19  C   UNL A   1      33.458  22.641  22.893  1.00  0.00     0.044 A 
ATOM     20  C   UNL A   1      32.920  19.163  25.402  1.00  0.00     0.047 C 
ATOM     21  C   UNL A   1      33.114  20.338  24.495  1.00  0.00    -0.015 A 
ATOM     22  C   UNL A   1      32.249  20.590  23.430  1.00  0.00     0.008 A 
ATOM     23  C   UNL A   1      34.133  21.251  24.747  1.00  0.00     0.128 A 
ATOM     24  C   UNL A   1      32.424  21.726  22.634  1.00  0.00     0.026 A 
ATOM     25  C   UNL A   1      34.315  22.386  23.957  1.00  0.00     0.065 A 
ATOM     26  F   UNL A   1      34.969  21.048  25.776  1.00  0.00    -0.207 F 
ENDBRANCH  16  19
ENDBRANCH  14  15
ENDBRANCH   8  14
ENDBRANCH   4   7
ENDBRANCH   2   3
ENDBRANCH   1   2
BRANCH   1  27
ATOM     27  C   UNL A   1      35.567  31.715  27.835  1.00  0.00     0.118 C 
BRANCH  27  28
ATOM     28  N   UNL A   1      36.009  31.788  29.236  1.00  0.00    -0.352 N 
ATOM     29  C   UNL A   1      36.656  30.905  30.076  1.00  0.00     0.251 C 
ATOM     30  H   UNL A   1      35.799  32.649  29.665  1.00  0.00     0.163 HD
ATOM     31  O   UNL A   1      36.925  31.208  31.237  1.00  0.00    -0.269 OA
BRANCH  29  32
ATOM     32  C   UNL A   1      37.188  29.640  29.545  1.00  0.00     0.039 A 
ATOM     33  C   UNL A   1      37.499  28.673  30.508  1.00  0.00     0.014 A 
ATOM     34  C   UNL A   1      37.767  29.618  28.288  1.00  0.00     0.014 A 
ATOM     35  C   UNL A   1      38.654  27.925  30.348  1.00  0.00     0.010 A 
ATOM     36  C   UNL A   1      38.984  28.981  28.189  1.00  0.00     0.010 A 
ATOM     37  C   UNL A   1      39.463  28.202  29.250  1.00  0.00    -0.014 A 
BRANCH  37  38
ATOM     38  C   UNL A   1      40.850  27.772  29.173  1.00  0.00     0.031 A 
ATOM     39  C   UNL A   1      41.130  26.417  28.660  1.00  0.00     0.074 A 
ATOM     40  C   UNL A   1      41.872  28.541  29.612  1.00  0.00     0.049 A 
ATOM     41  N   UNL A   1      42.043  25.643  29.140  1.00  0.00    -0.248 NA
ATOM     42  C   UNL A   1      40.345  25.799  27.594  1.00  0.00     0.031 C 
ATOM     43  C   UNL A   1      43.295  28.256  29.452  1.00  0.00     0.029 A 
ATOM     44  N   UNL A   1      41.841  29.658  30.446  1.00  0.00    -0.354 N 
ATOM     45  C   UNL A   1      42.137  24.558  28.304  1.00  0.00     0.074 A 
ATOM     46  C   UNL A   1      41.019  24.666  27.396  1.00  0.00     0.031 C 
ATOM     47  C   UNL A   1      43.990  28.996  30.328  1.00  0.00     0.029 A 
ATOM     48  C   UNL A   1      43.047  29.715  31.168  1.00  0.00     0.049 A 
ATOM     49  H   UNL A   1      41.099  30.300  30.519  1.00  0.00     0.167 HD
ATOM     50  C   UNL A   1      43.222  23.739  28.357  1.00  0.00     0.037 A 
ATOM     51  C   UNL A   1      43.076  29.694  32.536  1.00  0.00     0.037 A 
ATOM     52  C   UNL A   1      44.205  24.225  29.316  1.00  0.00     0.049 A 
ATOM     53  C   UNL A   1      43.704  28.459  33.130  1.00  0.00     0.074 A 
ATOM     54  C   UNL A   1      45.315  25.041  29.160  1.00  0.00     0.029 A 
ATOM     55  N   UNL A   1      43.929  24.200  30.679  1.00  0.00    -0.354 N 
ATOM     56  N   UNL A   1      43.986  27.388  32.442  1.00  0.00    -0.248 NA
ATOM     57  C   UNL A   1      44.036  28.308  34.544  1.00  0.00     0.031 C 
ATOM     58  C   UNL A   1      45.675  25.549  30.431  1.00  0.00     0.029 A 
ATOM     59  C   UNL A   1      44.804  25.021  31.369  1.00  0.00     0.049 A 
ATOM     60  H   UNL A   1      43.210  23.670  31.095  1.00  0.00     0.167 HD
ATOM     61  C   UNL A   1      44.456  26.408  33.275  1.00  0.00     0.074 A 
ATOM     62  C   UNL A   1      44.508  27.049  34.576  1.00  0.00     0.031 C 
ATOM     63  C   UNL A   1      44.735  25.150  32.819  1.00  0.00     0.037 A 
BRANCH  50  64
ATOM     64  C   UNL A   1      43.478  22.721  27.276  1.00  0.00     0.058 A 
ATOM     65  C   UNL A   1      42.765  21.508  27.228  1.00  0.00     0.135 A 
ATOM     66  C   UNL A   1      44.476  22.875  26.292  1.00  0.00     0.135 A 
ATOM     67  F   UNL A   1      41.741  21.265  28.055  1.00  0.00    -0.206 F 
ATOM     68  C   UNL A   1      43.093  20.480  26.345  1.00  0.00     0.059 A 
ATOM     69  C   UNL A   1      44.862  21.839  25.436  1.00  0.00     0.059 A 
ATOM     70  F   UNL A   1      45.115  24.046  26.137  1.00  0.00    -0.206 F 
ATOM     71  C   UNL A   1      44.165  20.639  25.474  1.00  0.00     0.060 A 
BRANCH  71  72
ATOM     72  S   UNL A   1      44.637  19.257  24.417  1.00  0.00     0.124 S 
ATOM     73  O   UNL A   1      46.040  19.059  24.767  1.00  0.00    -0.237 OA
ATOM     74  O   UNL A   1      43.718  18.214  24.860  1.00  0.00    -0.237 OA
ATOM     75  O   UNL A   1      44.405  19.769  23.069  1.00  0.00    -0.744 OA
ENDBRANCH  71  72
ENDBRANCH  50  64
BRANCH  51  76
ATOM     76  C   UNL A   1      42.113  30.621  33.210  1.00  0.00     0.058 A 
ATOM     77  C   UNL A   1      42.516  31.967  33.187  1.00  0.00     0.135 A 
ATOM     78  C   UNL A   1      40.743  30.356  33.080  1.00  0.00     0.135 A 
ATOM     79  F   UNL A   1      43.795  32.286  33.442  1.00  0.00    -0.206 F 
ATOM     80  C   UNL A   1      41.693  32.946  32.649  1.00  0.00     0.059 A 
ATOM     81  C   UNL A   1      39.905  31.309  32.506  1.00  0.00     0.059 A 
ATOM     82  F   UNL A   1      40.285  29.105  33.239  1.00  0.00    -0.206 F 
ATOM     83  C   UNL A   1      40.450  32.549  32.161  1.00  0.00     0.060 A 
BRANCH  83  84
ATOM     84  S   UNL A   1      39.899  33.292  30.595  1.00  0.00     0.124 S 
ATOM     85  O   UNL A   1      38.624  33.919  30.927  1.00  0.00    -0.237 OA
ATOM     86  O   UNL A   1      40.968  34.221  30.249  1.00  0.00    -0.237 OA
ATOM     87  O   UNL A   1      39.828  32.094  29.758  1.00  0.00    -0.744 OA
ENDBRANCH  83  84
ENDBRANCH  51  76
BRANCH  63  88
ATOM     88  C   UNL A   1      45.055  23.936  33.665  1.00  0.00     0.058 A 
ATOM     89  C   UNL A   1      44.126  22.939  34.008  1.00  0.00     0.135 A 
ATOM     90  C   UNL A   1      46.396  23.668  34.043  1.00  0.00     0.135 A 
ATOM     91  F   UNL A   1      42.845  23.013  33.621  1.00  0.00    -0.206 F 
ATOM     92  C   UNL A   1      44.486  21.791  34.719  1.00  0.00     0.059 A 
ATOM     93  C   UNL A   1      46.787  22.501  34.694  1.00  0.00     0.059 A 
ATOM     94  F   UNL A   1      47.388  24.531  33.774  1.00  0.00    -0.206 F 
ATOM     95  C   UNL A   1      45.820  21.577  35.052  1.00  0.00     0.060 A 
BRANCH  95  96
ATOM     96  S   UNL A   1      46.303  20.054  35.886  1.00  0.00     0.124 S 
ATOM     97  O   UNL A   1      45.758  20.270  37.223  1.00  0.00    -0.237 OA
ATOM     98  O   UNL A   1      45.636  19.025  35.093  1.00  0.00    -0.237 OA
ATOM     99  O   UNL A   1      47.758  20.066  35.785  1.00  0.00    -0.744 OA
ENDBRANCH  95  96
ENDBRANCH  63  88
ENDBRANCH  37  38
ENDBRANCH  29  32
ENDBRANCH  27  28
ENDBRANCH   1  27
TORSDOF 16
ENDMDL
MODEL 3
REMARK VINA RESULT:     -13.6      4.998     11.321
REMARK SMILES Cc1ccc(NC(=O)C[N@H+]2CCC[C@@H](C(=O)NCCCNC(=O)c3ccc(-c4c5nc(c(-c6c(F)cc(S(=O)(=O)[O-])cc6F)c6ccc([nH]6)c(-c6c(F)cc(S(=O)(=O)[O-])cc6F)c6nc(c(-c7c(F)cc(S(=O)(=O)[O-])cc7F)c7ccc4[nH]7)C=C6)C=C5)cc3)C2)cc1F
REMARK SMILES IDX 19 1 18 2 17 3 15 4 16 5 14 7 10 8 11 9 90 10 12 12 13 13
REMARK SMILES IDX 9 14 7 15 6 16 8 18 5 19 1 20 2 21 3 22 92 23 4 24 91 25
REMARK SMILES IDX 93 26 20 27 21 28 22 29 23 31 24 32 25 33 89 34 26 35 88 36
REMARK SMILES IDX 27 37 28 38 29 39 82 40 30 41 87 42 81 43 83 44 31 45 86 46
REMARK SMILES IDX 80 47 79 48 32 50 66 51 45 52 65 53 46 54 49 55 64 56 84 57
REMARK SMILES IDX 47 58 48 59 63 61 85 62 50 63 33 64 34 65 43 66 35 67 36 68
REMARK SMILES IDX 42 69 44 70 37 71 38 72 39 73 40 74 41 75 67 76 68 77 77 78
REMARK SMILES IDX 69 79 70 80 76 81 78 82 71 83 72 84 73 85 74 86 75 87 51 88
REMARK SMILES IDX 52 89 61 90 53 91 54 92 60 93 62 94 55 95 56 96 57 97 58 98
REMARK SMILES IDX 59 99
REMARK H PARENT 17 6 10 11 6 17 21 30 83 49 49 60
REMARK Flexibility Score: inf
ROOT
ATOM      1  C   UNL A   1      34.022  31.356  27.752  1.00  0.00     0.042 C 
ENDROOT
BRANCH   1   2
ATOM      2  C   UNL A   1      33.859  30.045  26.990  1.00  0.00     0.117 C 
BRANCH   2   3
ATOM      3  N   UNL A   1      32.833  29.189  27.581  1.00  0.00    -0.356 N 
ATOM      4  C   UNL A   1      31.926  28.377  26.956  1.00  0.00     0.228 C 
ATOM      5  O   UNL A   1      31.147  27.704  27.630  1.00  0.00    -0.275 OA
ATOM      6  H   UNL A   1      32.788  29.198  28.563  1.00  0.00     0.163 HD
BRANCH   4   7
ATOM      7  C   UNL A   1      31.931  28.325  25.436  1.00  0.00     0.133 C 
ATOM      8  N   UNL A   1      31.874  26.780  23.510  1.00  0.00    -0.326 N 
ATOM      9  C   UNL A   1      30.910  27.657  22.816  1.00  0.00     0.262 C 
ATOM     10  C   UNL A   1      31.686  26.883  24.968  1.00  0.00     0.276 C 
ATOM     11  H   UNL A   1      32.833  27.081  23.344  1.00  0.00     0.348 HD
ATOM     12  C   UNL A   1      30.975  29.117  23.284  1.00  0.00     0.062 C 
ATOM     13  C   UNL A   1      30.879  29.234  24.802  1.00  0.00     0.025 C 
BRANCH   8  14
ATOM     14  C   UNL A   1      31.795  25.402  22.951  1.00  0.00     0.363 C 
BRANCH  14  15
ATOM     15  C   UNL A   1      32.916  24.971  22.009  1.00  0.00     0.279 C 
ATOM     16  N   UNL A   1      33.558  23.771  22.068  1.00  0.00    -0.321 N 
ATOM     17  H   UNL A   1      34.228  23.664  21.354  1.00  0.00     0.170 HD
ATOM     18  O   UNL A   1      33.278  25.749  21.113  1.00  0.00    -0.268 OA
BRANCH  16  19
ATOM     19  C   UNL A   1      33.486  22.650  22.913  1.00  0.00     0.044 A 
ATOM     20  C   UNL A   1      32.904  19.193  25.442  1.00  0.00     0.047 C 
ATOM     21  C   UNL A   1      33.108  20.360  24.528  1.00  0.00    -0.015 A 
ATOM     22  C   UNL A   1      32.175  20.689  23.543  1.00  0.00     0.008 A 
ATOM     23  C   UNL A   1      34.211  21.191  24.694  1.00  0.00     0.128 A 
ATOM     24  C   UNL A   1      32.366  21.818  22.741  1.00  0.00     0.026 A 
ATOM     25  C   UNL A   1      34.410  22.318  23.897  1.00  0.00     0.065 A 
ATOM     26  F   UNL A   1      35.115  20.913  25.645  1.00  0.00    -0.207 F 
ENDBRANCH  16  19
ENDBRANCH  14  15
ENDBRANCH   8  14
ENDBRANCH   4   7
ENDBRANCH   2   3
ENDBRANCH   1   2
BRANCH   1  27
ATOM     27  C   UNL A   1      35.473  31.836  27.687  1.00  0.00     0.118 C 
BRANCH  27  28
ATOM     28  N   UNL A   1      36.076  31.890  29.028  1.00  0.00    -0.352 N 
ATOM     29  C   UNL A   1      36.852  31.014  29.758  1.00  0.00     0.251 C 
ATOM     30  H   UNL A   1      35.884  32.730  29.505  1.00  0.00     0.163 HD
ATOM     31  O   UNL A   1      37.246  31.297  30.887  1.00  0.00    -0.269 OA
BRANCH  29  32
ATOM     32  C   UNL A   1      37.368  29.788  29.128  1.00  0.00     0.039 A 
ATOM     33  C   UNL A   1      37.601  28.720  30.004  1.00  0.00     0.014 A 
ATOM     34  C   UNL A   1      38.003  29.866  27.902  1.00  0.00     0.014 A 
ATOM     35  C   UNL A   1      38.736  27.949  29.822  1.00  0.00     0.010 A 
ATOM     36  C   UNL A   1      39.202  29.196  27.794  1.00  0.00     0.010 A 
ATOM     37  C   UNL A   1      39.605  28.301  28.792  1.00  0.00    -0.014 A 
BRANCH  37  38
ATOM     38  C   UNL A   1      40.979  27.828  28.733  1.00  0.00     0.031 A 
ATOM     39  C   UNL A   1      41.219  26.443  28.286  1.00  0.00     0.074 A 
ATOM     40  C   UNL A   1      42.024  28.590  29.133  1.00  0.00     0.049 A 
ATOM     41  N   UNL A   1      42.112  25.669  28.801  1.00  0.00    -0.248 NA
ATOM     42  C   UNL A   1      40.414  25.797  27.253  1.00  0.00     0.031 C 
ATOM     43  C   UNL A   1      43.438  28.257  28.985  1.00  0.00     0.029 A 
ATOM     44  N   UNL A   1      42.027  29.746  29.912  1.00  0.00    -0.354 N 
ATOM     45  C   UNL A   1      42.172  24.542  28.019  1.00  0.00     0.074 A 
ATOM     46  C   UNL A   1      41.056  24.637  27.108  1.00  0.00     0.031 C 
ATOM     47  C   UNL A   1      44.155  29.019  29.822  1.00  0.00     0.029 A 
ATOM     48  C   UNL A   1      43.236  29.803  30.628  1.00  0.00     0.049 A 
ATOM     49  H   UNL A   1      41.303  30.411  29.955  1.00  0.00     0.167 HD
ATOM     50  C   UNL A   1      43.234  23.696  28.109  1.00  0.00     0.037 A 
ATOM     51  C   UNL A   1      43.269  29.847  31.996  1.00  0.00     0.037 A 
ATOM     52  C   UNL A   1      44.234  24.200  29.042  1.00  0.00     0.049 A 
ATOM     53  C   UNL A   1      43.864  28.626  32.648  1.00  0.00     0.074 A 
ATOM     54  C   UNL A   1      45.366  24.976  28.845  1.00  0.00     0.029 A 
ATOM     55  N   UNL A   1      43.961  24.249  30.405  1.00  0.00    -0.354 N 
ATOM     56  N   UNL A   1      44.113  27.515  32.012  1.00  0.00    -0.248 NA
ATOM     57  C   UNL A   1      44.196  28.534  34.067  1.00  0.00     0.031 C 
ATOM     58  C   UNL A   1      45.744  25.535  30.089  1.00  0.00     0.029 A 
ATOM     59  C   UNL A   1      44.862  25.077  31.053  1.00  0.00     0.049 A 
ATOM     60  H   UNL A   1      43.229  23.760  30.848  1.00  0.00     0.167 HD
ATOM     61  C   UNL A   1      44.558  26.564  32.891  1.00  0.00     0.074 A 
ATOM     62  C   UNL A   1      44.633  27.265  34.159  1.00  0.00     0.031 C 
ATOM     63  C   UNL A   1      44.800  25.278  32.496  1.00  0.00     0.037 A 
BRANCH  50  64
ATOM     64  C   UNL A   1      43.458  22.621  27.079  1.00  0.00     0.058 A 
ATOM     65  C   UNL A   1      42.732  21.415  27.107  1.00  0.00     0.135 A 
ATOM     66  C   UNL A   1      44.440  22.711  26.070  1.00  0.00     0.135 A 
ATOM     67  F   UNL A   1      41.720  21.228  27.964  1.00  0.00    -0.206 F 
ATOM     68  C   UNL A   1      43.030  20.339  26.273  1.00  0.00     0.059 A 
ATOM     69  C   UNL A   1      44.797  21.627  25.263  1.00  0.00     0.059 A 
ATOM     70  F   UNL A   1      45.089  23.864  25.842  1.00  0.00    -0.206 F 
ATOM     71  C   UNL A   1      44.087  20.440  25.376  1.00  0.00     0.060 A 
BRANCH  71  72
ATOM     72  S   UNL A   1      44.524  18.999  24.384  1.00  0.00     0.124 S 
ATOM     73  O   UNL A   1      45.838  18.642  24.909  1.00  0.00    -0.237 OA
ATOM     74  O   UNL A   1      43.441  18.076  24.703  1.00  0.00    -0.237 OA
ATOM     75  O   UNL A   1      44.527  19.517  23.018  1.00  0.00    -0.744 OA
ENDBRANCH  71  72
ENDBRANCH  50  64
BRANCH  51  76
ATOM     76  C   UNL A   1      42.334  30.833  32.626  1.00  0.00     0.058 A 
ATOM     77  C   UNL A   1      41.269  30.236  33.322  1.00  0.00     0.135 A 
ATOM     78  C   UNL A   1      42.880  32.005  33.166  1.00  0.00     0.135 A 
ATOM     79  F   UNL A   1      40.622  29.191  32.782  1.00  0.00    -0.206 F 
ATOM     80  C   UNL A   1      41.044  30.524  34.660  1.00  0.00     0.059 A 
ATOM     81  C   UNL A   1      42.699  32.295  34.517  1.00  0.00     0.059 A 
ATOM     82  F   UNL A   1      43.798  32.697  32.475  1.00  0.00    -0.206 F 
ATOM     83  C   UNL A   1      41.892  31.442  35.275  1.00  0.00     0.060 A 
BRANCH  83  84
ATOM     84  S   UNL A   1      42.447  31.056  36.964  1.00  0.00     0.124 S 
ATOM     85  O   UNL A   1      42.462  29.598  37.010  1.00  0.00    -0.237 OA
ATOM     86  O   UNL A   1      43.759  31.687  37.057  1.00  0.00    -0.237 OA
ATOM     87  O   UNL A   1      41.391  31.714  37.733  1.00  0.00    -0.744 OA
ENDBRANCH  83  84
ENDBRANCH  51  76
BRANCH  63  88
ATOM     88  C   UNL A   1      45.089  24.098  33.398  1.00  0.00     0.058 A 
ATOM     89  C   UNL A   1      44.209  23.022  33.606  1.00  0.00     0.135 A 
ATOM     90  C   UNL A   1      46.373  23.950  33.985  1.00  0.00     0.135 A 
ATOM     91  F   UNL A   1      43.003  22.982  33.024  1.00  0.00    -0.206 F 
ATOM     92  C   UNL A   1      44.552  21.912  34.382  1.00  0.00     0.059 A 
ATOM     93  C   UNL A   1      46.758  22.823  34.706  1.00  0.00     0.059 A 
ATOM     94  F   UNL A   1      47.315  24.898  33.861  1.00  0.00    -0.206 F 
ATOM     95  C   UNL A   1      45.831  21.816  34.922  1.00  0.00     0.060 A 
BRANCH  95  96
ATOM     96  S   UNL A   1      46.309  20.343  35.843  1.00  0.00     0.124 S 
ATOM     97  O   UNL A   1      47.736  20.267  35.549  1.00  0.00    -0.237 OA
ATOM     98  O   UNL A   1      45.967  20.697  37.218  1.00  0.00    -0.237 OA
ATOM     99  O   UNL A   1      45.482  19.297  35.252  1.00  0.00    -0.744 OA
ENDBRANCH  95  96
ENDBRANCH  63  88
ENDBRANCH  37  38
ENDBRANCH  29  32
ENDBRANCH  27  28
ENDBRANCH   1  27
TORSDOF 16
ENDMDL
