MODEL 1
REMARK VINA RESULT:     -10.4      0.000      0.000
REMARK SMILES NC(=O)c1ccc(Nc2ccc(C(=O)NCCCNC(=O)c3ccc(-c4c5nc(c(-c6c(F)cc(S(=O)(=O)[O-])cc6F)c6ccc([nH]6)c(-c6c(F)cc(S(=O)(=O)[O-])cc6F)c6nc(c(-c7c(F)cc(S(=O)(=O)[O-])cc7F)c7ccc4[nH]7)C=C6)C=C5)cc3)c(Cl)c2)nn1
REMARK SMILES IDX 17 1 16 2 15 3 13 4 14 5 12 7 9 8 10 9 90 10 11 11 88 12
REMARK SMILES IDX 89 13 8 14 7 16 4 17 5 18 92 19 6 20 91 21 2 22 1 23 3 26
REMARK SMILES IDX 18 27 19 28 20 29 21 31 22 32 23 33 87 34 24 35 86 36 25 37
REMARK SMILES IDX 26 38 27 39 80 40 28 41 85 42 79 43 81 44 29 45 84 46 78 47
REMARK SMILES IDX 77 48 30 50 64 51 43 52 63 53 44 54 47 55 62 56 82 57 45 58
REMARK SMILES IDX 46 59 61 61 83 62 48 63 31 64 32 65 41 66 33 67 34 68 40 69
REMARK SMILES IDX 42 70 35 71 36 72 37 73 38 74 39 75 65 76 66 77 75 78 67 79
REMARK SMILES IDX 68 80 74 81 76 82 69 83 70 84 71 85 72 86 73 87 49 88 50 89
REMARK SMILES IDX 59 90 51 91 52 92 58 93 60 94 53 95 54 96 55 97 56 98 57 99
REMARK H PARENT 15 6 8 15 1 24 1 25 19 30 81 49 47 60
REMARK Flexibility Score: inf
ROOT
ATOM      1  C   UNL A   1      34.528  32.867  30.411  1.00  0.00     0.042 C 
ENDROOT
BRANCH   1   2
ATOM      2  C   UNL A   1      35.786  33.328  31.151  1.00  0.00     0.118 C 
BRANCH   2   3
ATOM      3  N   UNL A   1      35.482  33.588  32.544  1.00  0.00    -0.352 N 
ATOM      4  C   UNL A   1      36.019  33.178  33.734  1.00  0.00     0.252 C 
ATOM      5  O   UNL A   1      35.441  33.596  34.744  1.00  0.00    -0.269 OA
ATOM      6  H   UNL A   1      34.716  34.196  32.660  1.00  0.00     0.163 HD
BRANCH   4   7
ATOM      7  C   UNL A   1      37.270  32.387  33.926  1.00  0.00     0.058 A 
ATOM      8  C   UNL A   1      39.537  30.654  33.887  1.00  0.00     0.041 A 
ATOM      9  C   UNL A   1      38.364  30.285  33.242  1.00  0.00     0.027 A 
ATOM     10  C   UNL A   1      39.574  31.887  34.538  1.00  0.00     0.047 A 
ATOM     11  C   UNL A   1      37.241  31.122  33.293  1.00  0.00     0.017 A 
ATOM     12  C   UNL A   1      38.482  32.771  34.512  1.00  0.00     0.055 A 
ATOM     13  Cl  UNL A   1      38.893  34.345  35.062  1.00  0.00    -0.083 Cl
BRANCH   8  14
ATOM     14  N   UNL A   1      40.742  29.941  33.714  1.00  0.00    -0.339 N 
ATOM     15  H   UNL A   1      41.353  30.217  32.993  1.00  0.00     0.168 HD
BRANCH  14  16
ATOM     16  C   UNL A   1      41.107  28.848  34.533  1.00  0.00     0.153 A 
ATOM     17  C   UNL A   1      41.774  26.696  36.096  1.00  0.00     0.150 A 
ATOM     18  C   UNL A   1      42.028  26.631  34.735  1.00  0.00     0.040 A 
ATOM     19  N   UNL A   1      41.222  27.785  36.660  1.00  0.00    -0.143 NA
ATOM     20  C   UNL A   1      41.696  27.732  33.946  1.00  0.00     0.051 A 
ATOM     21  N   UNL A   1      40.899  28.867  35.869  1.00  0.00    -0.132 NA
BRANCH  17  22
ATOM     22  C   UNL A   1      42.130  25.581  37.012  1.00  0.00     0.269 C 
ATOM     23  N   UNL A   1      41.113  24.730  37.376  1.00  0.00    -0.364 N 
ATOM     24  H   UNL A   1      41.296  23.976  37.980  1.00  0.00     0.160 HD
ATOM     25  H   UNL A   1      40.203  24.875  37.030  1.00  0.00     0.160 HD
ATOM     26  O   UNL A   1      43.267  25.394  37.425  1.00  0.00    -0.268 OA
ENDBRANCH  17  22
ENDBRANCH  14  16
ENDBRANCH   8  14
ENDBRANCH   4   7
ENDBRANCH   2   3
ENDBRANCH   1   2
BRANCH   1  27
ATOM     27  C   UNL A   1      34.700  32.720  28.905  1.00  0.00     0.118 C 
BRANCH  27  28
ATOM     28  N   UNL A   1      34.033  31.533  28.401  1.00  0.00    -0.352 N 
ATOM     29  C   UNL A   1      34.563  30.329  28.002  1.00  0.00     0.251 C 
ATOM     30  H   UNL A   1      33.053  31.600  28.333  1.00  0.00     0.163 HD
ATOM     31  O   UNL A   1      33.859  29.554  27.358  1.00  0.00    -0.269 OA
BRANCH  29  32
ATOM     32  C   UNL A   1      35.962  29.957  28.329  1.00  0.00     0.039 A 
ATOM     33  C   UNL A   1      36.939  30.074  27.334  1.00  0.00     0.014 A 
ATOM     34  C   UNL A   1      36.309  29.431  29.577  1.00  0.00     0.014 A 
ATOM     35  C   UNL A   1      38.261  29.703  27.602  1.00  0.00     0.010 A 
ATOM     36  C   UNL A   1      37.640  29.132  29.867  1.00  0.00     0.010 A 
ATOM     37  C   UNL A   1      38.628  29.248  28.878  1.00  0.00    -0.014 A 
BRANCH  37  38
ATOM     38  C   UNL A   1      40.029  28.861  29.189  1.00  0.00     0.031 A 
ATOM     39  C   UNL A   1      40.952  29.845  29.860  1.00  0.00     0.074 A 
ATOM     40  C   UNL A   1      40.490  27.651  28.816  1.00  0.00     0.049 A 
ATOM     41  N   UNL A   1      42.225  29.729  30.138  1.00  0.00    -0.248 NA
ATOM     42  C   UNL A   1      40.371  31.141  30.247  1.00  0.00     0.031 C 
ATOM     43  C   UNL A   1      39.707  26.625  28.122  1.00  0.00     0.029 A 
ATOM     44  N   UNL A   1      41.730  27.080  28.959  1.00  0.00    -0.354 N 
ATOM     45  C   UNL A   1      42.602  30.940  30.707  1.00  0.00     0.074 A 
ATOM     46  C   UNL A   1      41.433  31.792  30.698  1.00  0.00     0.031 C 
ATOM     47  C   UNL A   1      40.481  25.546  27.915  1.00  0.00     0.029 A 
ATOM     48  C   UNL A   1      41.820  25.813  28.432  1.00  0.00     0.049 A 
ATOM     49  H   UNL A   1      42.484  27.535  29.399  1.00  0.00     0.167 HD
ATOM     50  C   UNL A   1      43.807  31.304  31.211  1.00  0.00     0.037 A 
ATOM     51  C   UNL A   1      42.865  24.965  28.364  1.00  0.00     0.037 A 
ATOM     52  C   UNL A   1      44.957  30.438  31.252  1.00  0.00     0.049 A 
ATOM     53  C   UNL A   1      44.186  25.382  28.950  1.00  0.00     0.074 A 
ATOM     54  C   UNL A   1      46.205  30.690  31.794  1.00  0.00     0.029 A 
ATOM     55  N   UNL A   1      44.997  29.150  30.738  1.00  0.00    -0.354 N 
ATOM     56  N   UNL A   1      44.511  26.514  29.527  1.00  0.00    -0.248 NA
ATOM     57  C   UNL A   1      45.282  24.406  28.879  1.00  0.00     0.031 C 
ATOM     58  C   UNL A   1      47.010  29.565  31.581  1.00  0.00     0.029 A 
ATOM     59  C   UNL A   1      46.251  28.599  30.939  1.00  0.00     0.049 A 
ATOM     60  H   UNL A   1      44.244  28.697  30.293  1.00  0.00     0.167 HD
ATOM     61  C   UNL A   1      45.840  26.377  29.911  1.00  0.00     0.074 A 
ATOM     62  C   UNL A   1      46.256  25.049  29.509  1.00  0.00     0.031 C 
ATOM     63  C   UNL A   1      46.643  27.271  30.540  1.00  0.00     0.037 A 
BRANCH  50  64
ATOM     64  C   UNL A   1      43.938  32.695  31.765  1.00  0.00     0.058 A 
ATOM     65  C   UNL A   1      43.699  32.973  33.121  1.00  0.00     0.135 A 
ATOM     66  C   UNL A   1      44.334  33.761  30.940  1.00  0.00     0.135 A 
ATOM     67  F   UNL A   1      43.303  31.994  33.951  1.00  0.00    -0.206 F 
ATOM     68  C   UNL A   1      43.814  34.261  33.632  1.00  0.00     0.059 A 
ATOM     69  C   UNL A   1      44.481  35.054  31.436  1.00  0.00     0.059 A 
ATOM     70  F   UNL A   1      44.578  33.552  29.637  1.00  0.00    -0.206 F 
ATOM     71  C   UNL A   1      44.202  35.297  32.780  1.00  0.00     0.060 A 
BRANCH  71  72
ATOM     72  S   UNL A   1      44.348  36.965  33.457  1.00  0.00     0.124 S 
ATOM     73  O   UNL A   1      45.495  36.816  34.348  1.00  0.00    -0.237 OA
ATOM     74  O   UNL A   1      44.575  37.772  32.262  1.00  0.00    -0.237 OA
ATOM     75  O   UNL A   1      43.064  37.176  34.118  1.00  0.00    -0.744 OA
ENDBRANCH  71  72
ENDBRANCH  50  64
BRANCH  51  76
ATOM     76  C   UNL A   1      42.693  23.626  27.745  1.00  0.00     0.058 A 
ATOM     77  C   UNL A   1      42.803  23.456  26.358  1.00  0.00     0.135 A 
ATOM     78  C   UNL A   1      42.437  22.486  28.524  1.00  0.00     0.135 A 
ATOM     79  F   UNL A   1      43.039  24.517  25.570  1.00  0.00    -0.206 F 
ATOM     80  C   UNL A   1      42.655  22.208  25.761  1.00  0.00     0.059 A 
ATOM     81  C   UNL A   1      42.308  21.224  27.953  1.00  0.00     0.059 A 
ATOM     82  F   UNL A   1      42.340  22.593  29.859  1.00  0.00    -0.206 F 
ATOM     83  C   UNL A   1      42.409  21.097  26.568  1.00  0.00     0.060 A 
BRANCH  83  84
ATOM     84  S   UNL A   1      42.277  19.472  25.789  1.00  0.00     0.124 S 
ATOM     85  O   UNL A   1      42.640  18.588  26.889  1.00  0.00    -0.237 OA
ATOM     86  O   UNL A   1      40.876  19.440  25.378  1.00  0.00    -0.237 OA
ATOM     87  O   UNL A   1      43.240  19.548  24.693  1.00  0.00    -0.744 OA
ENDBRANCH  83  84
ENDBRANCH  51  76
BRANCH  63  88
ATOM     88  C   UNL A   1      48.044  26.831  30.860  1.00  0.00     0.058 A 
ATOM     89  C   UNL A   1      49.109  27.072  29.979  1.00  0.00     0.135 A 
ATOM     90  C   UNL A   1      48.329  26.209  32.085  1.00  0.00     0.135 A 
ATOM     91  F   UNL A   1      48.885  27.658  28.793  1.00  0.00    -0.206 F 
ATOM     92  C   UNL A   1      50.409  26.690  30.294  1.00  0.00     0.059 A 
ATOM     93  C   UNL A   1      49.625  25.839  32.430  1.00  0.00     0.059 A 
ATOM     94  F   UNL A   1      47.345  25.966  32.966  1.00  0.00    -0.206 F 
ATOM     95  C   UNL A   1      50.657  26.075  31.522  1.00  0.00     0.060 A 
BRANCH  95  96
ATOM     96  S   UNL A   1      52.354  25.616  31.936  1.00  0.00     0.124 S 
ATOM     97  O   UNL A   1      52.211  24.192  32.221  1.00  0.00    -0.237 OA
ATOM     98  O   UNL A   1      53.078  25.948  30.713  1.00  0.00    -0.237 OA
ATOM     99  O   UNL A   1      52.662  26.460  33.087  1.00  0.00    -0.744 OA
ENDBRANCH  95  96
ENDBRANCH  63  88
ENDBRANCH  37  38
ENDBRANCH  29  32
ENDBRANCH  27  28
ENDBRANCH   1  27
TORSDOF 16
ENDMDL
MODEL 2
REMARK VINA RESULT:     -10.4      1.206      2.093
REMARK SMILES NC(=O)c1ccc(Nc2ccc(C(=O)NCCCNC(=O)c3ccc(-c4c5nc(c(-c6c(F)cc(S(=O)(=O)[O-])cc6F)c6ccc([nH]6)c(-c6c(F)cc(S(=O)(=O)[O-])cc6F)c6nc(c(-c7c(F)cc(S(=O)(=O)[O-])cc7F)c7ccc4[nH]7)C=C6)C=C5)cc3)c(Cl)c2)nn1
REMARK SMILES IDX 17 1 16 2 15 3 13 4 14 5 12 7 9 8 10 9 90 10 11 11 88 12
REMARK SMILES IDX 89 13 8 14 7 16 4 17 5 18 92 19 6 20 91 21 2 22 1 23 3 26
REMARK SMILES IDX 18 27 19 28 20 29 21 31 22 32 23 33 87 34 24 35 86 36 25 37
REMARK SMILES IDX 26 38 27 39 80 40 28 41 85 42 79 43 81 44 29 45 84 46 78 47
REMARK SMILES IDX 77 48 30 50 64 51 43 52 63 53 44 54 47 55 62 56 82 57 45 58
REMARK SMILES IDX 46 59 61 61 83 62 48 63 31 64 32 65 41 66 33 67 34 68 40 69
REMARK SMILES IDX 42 70 35 71 36 72 37 73 38 74 39 75 65 76 66 77 75 78 67 79
REMARK SMILES IDX 68 80 74 81 76 82 69 83 70 84 71 85 72 86 73 87 49 88 50 89
REMARK SMILES IDX 59 90 51 91 52 92 58 93 60 94 53 95 54 96 55 97 56 98 57 99
REMARK H PARENT 15 6 8 15 1 24 1 25 19 30 81 49 47 60
REMARK Flexibility Score: inf
ROOT
ATOM      1  C   UNL A   1      34.181  33.280  29.629  1.00  0.00     0.042 C 
ENDROOT
BRANCH   1   2
ATOM      2  C   UNL A   1      34.952  34.552  29.990  1.00  0.00     0.118 C 
BRANCH   2   3
ATOM      3  N   UNL A   1      36.320  34.460  29.522  1.00  0.00    -0.352 N 
ATOM      4  C   UNL A   1      37.492  34.013  30.069  1.00  0.00     0.252 C 
ATOM      5  O   UNL A   1      38.490  34.138  29.350  1.00  0.00    -0.269 OA
ATOM      6  H   UNL A   1      36.432  34.794  28.602  1.00  0.00     0.163 HD
BRANCH   4   7
ATOM      7  C   UNL A   1      37.657  33.304  31.373  1.00  0.00     0.058 A 
ATOM      8  C   UNL A   1      37.822  31.562  33.627  1.00  0.00     0.041 A 
ATOM      9  C   UNL A   1      36.952  31.274  32.582  1.00  0.00     0.027 A 
ATOM     10  C   UNL A   1      38.609  32.710  33.535  1.00  0.00     0.047 A 
ATOM     11  C   UNL A   1      36.848  32.150  31.494  1.00  0.00     0.017 A 
ATOM     12  C   UNL A   1      38.575  33.541  32.402  1.00  0.00     0.055 A 
ATOM     13  Cl  UNL A   1      39.875  34.664  32.369  1.00  0.00    -0.083 Cl
BRANCH   8  14
ATOM     14  N   UNL A   1      38.098  30.630  34.648  1.00  0.00    -0.339 N 
ATOM     15  H   UNL A   1      37.397  30.436  35.312  1.00  0.00     0.168 HD
BRANCH  14  16
ATOM     16  C   UNL A   1      39.341  29.963  34.758  1.00  0.00     0.153 A 
ATOM     17  C   UNL A   1      41.723  28.621  34.954  1.00  0.00     0.150 A 
ATOM     18  C   UNL A   1      41.180  28.826  33.697  1.00  0.00     0.040 A 
ATOM     19  N   UNL A   1      41.116  29.069  36.068  1.00  0.00    -0.143 NA
ATOM     20  C   UNL A   1      39.973  29.519  33.601  1.00  0.00     0.051 A 
ATOM     21  N   UNL A   1      39.923  29.753  35.960  1.00  0.00    -0.132 NA
BRANCH  17  22
ATOM     22  C   UNL A   1      43.023  27.924  35.141  1.00  0.00     0.269 C 
ATOM     23  N   UNL A   1      44.153  28.610  34.764  1.00  0.00    -0.364 N 
ATOM     24  H   UNL A   1      45.038  28.193  34.867  1.00  0.00     0.160 HD
ATOM     25  H   UNL A   1      44.076  29.517  34.392  1.00  0.00     0.160 HD
ATOM     26  O   UNL A   1      43.114  26.802  35.621  1.00  0.00    -0.268 OA
ENDBRANCH  17  22
ENDBRANCH  14  16
ENDBRANCH   8  14
ENDBRANCH   4   7
ENDBRANCH   2   3
ENDBRANCH   1   2
BRANCH   1  27
ATOM     27  C   UNL A   1      34.639  32.608  28.342  1.00  0.00     0.118 C 
BRANCH  27  28
ATOM     28  N   UNL A   1      33.922  31.370  28.095  1.00  0.00    -0.352 N 
ATOM     29  C   UNL A   1      34.406  30.102  27.876  1.00  0.00     0.251 C 
ATOM     30  H   UNL A   1      32.941  31.451  28.081  1.00  0.00     0.163 HD
ATOM     31  O   UNL A   1      33.648  29.247  27.424  1.00  0.00    -0.269 OA
BRANCH  29  32
ATOM     32  C   UNL A   1      35.819  29.755  28.171  1.00  0.00     0.039 A 
ATOM     33  C   UNL A   1      36.145  29.292  29.450  1.00  0.00     0.014 A 
ATOM     34  C   UNL A   1      36.833  29.945  27.227  1.00  0.00     0.014 A 
ATOM     35  C   UNL A   1      37.472  28.984  29.767  1.00  0.00     0.010 A 
ATOM     36  C   UNL A   1      38.143  29.568  27.520  1.00  0.00     0.010 A 
ATOM     37  C   UNL A   1      38.481  29.100  28.799  1.00  0.00    -0.014 A 
BRANCH  37  38
ATOM     38  C   UNL A   1      39.895  28.767  29.109  1.00  0.00     0.031 A 
ATOM     39  C   UNL A   1      40.787  29.793  29.760  1.00  0.00     0.074 A 
ATOM     40  C   UNL A   1      40.396  27.567  28.753  1.00  0.00     0.049 A 
ATOM     41  N   UNL A   1      42.064  29.725  30.033  1.00  0.00    -0.248 NA
ATOM     42  C   UNL A   1      40.163  31.074  30.129  1.00  0.00     0.031 C 
ATOM     43  C   UNL A   1      39.647  26.505  28.079  1.00  0.00     0.029 A 
ATOM     44  N   UNL A   1      41.656  27.042  28.898  1.00  0.00    -0.354 N 
ATOM     45  C   UNL A   1      42.402  30.957  30.581  1.00  0.00     0.074 A 
ATOM     46  C   UNL A   1      41.204  31.768  30.564  1.00  0.00     0.031 C 
ATOM     47  C   UNL A   1      40.456  25.450  27.885  1.00  0.00     0.029 A 
ATOM     48  C   UNL A   1      41.788  25.771  28.390  1.00  0.00     0.049 A 
ATOM     49  H   UNL A   1      42.396  27.530  29.327  1.00  0.00     0.167 HD
ATOM     50  C   UNL A   1      43.595  31.371  31.073  1.00  0.00     0.037 A 
ATOM     51  C   UNL A   1      42.861  24.959  28.331  1.00  0.00     0.037 A 
ATOM     52  C   UNL A   1      44.775  30.546  31.122  1.00  0.00     0.049 A 
ATOM     53  C   UNL A   1      44.170  25.430  28.903  1.00  0.00     0.074 A 
ATOM     54  C   UNL A   1      46.016  30.849  31.654  1.00  0.00     0.029 A 
ATOM     55  N   UNL A   1      44.858  29.252  30.628  1.00  0.00    -0.354 N 
ATOM     56  N   UNL A   1      44.458  26.582  29.461  1.00  0.00    -0.248 NA
ATOM     57  C   UNL A   1      45.298  24.491  28.843  1.00  0.00     0.031 C 
ATOM     58  C   UNL A   1      46.858  29.749  31.454  1.00  0.00     0.029 A 
ATOM     59  C   UNL A   1      46.131  28.747  30.831  1.00  0.00     0.049 A 
ATOM     60  H   UNL A   1      44.119  28.766  30.194  1.00  0.00     0.167 HD
ATOM     61  C   UNL A   1      45.792  26.497  29.840  1.00  0.00     0.074 A 
ATOM     62  C   UNL A   1      46.252  25.178  29.457  1.00  0.00     0.031 C 
ATOM     63  C   UNL A   1      46.567  27.428  30.451  1.00  0.00     0.037 A 
BRANCH  50  64
ATOM     64  C   UNL A   1      43.681  32.774  31.604  1.00  0.00     0.058 A 
ATOM     65  C   UNL A   1      44.128  33.838  30.804  1.00  0.00     0.135 A 
ATOM     66  C   UNL A   1      43.290  33.067  32.921  1.00  0.00     0.135 A 
ATOM     67  F   UNL A   1      44.530  33.613  29.542  1.00  0.00    -0.206 F 
ATOM     68  C   UNL A   1      44.214  35.136  31.298  1.00  0.00     0.059 A 
ATOM     69  C   UNL A   1      43.343  34.363  33.428  1.00  0.00     0.059 A 
ATOM     70  F   UNL A   1      42.852  32.089  33.729  1.00  0.00    -0.206 F 
ATOM     71  C   UNL A   1      43.822  35.388  32.614  1.00  0.00     0.060 A 
BRANCH  71  72
ATOM     72  S   UNL A   1      43.940  37.077  33.242  1.00  0.00     0.124 S 
ATOM     73  O   UNL A   1      42.791  37.130  34.142  1.00  0.00    -0.237 OA
ATOM     74  O   UNL A   1      45.250  37.083  33.886  1.00  0.00    -0.237 OA
ATOM     75  O   UNL A   1      43.833  37.895  32.038  1.00  0.00    -0.744 OA
ENDBRANCH  71  72
ENDBRANCH  50  64
BRANCH  51  76
ATOM     76  C   UNL A   1      42.733  23.604  27.734  1.00  0.00     0.058 A 
ATOM     77  C   UNL A   1      42.483  22.485  28.540  1.00  0.00     0.135 A 
ATOM     78  C   UNL A   1      42.835  23.402  26.349  1.00  0.00     0.135 A 
ATOM     79  F   UNL A   1      42.384  22.627  29.871  1.00  0.00    -0.206 F 
ATOM     80  C   UNL A   1      42.350  21.210  27.999  1.00  0.00     0.059 A 
ATOM     81  C   UNL A   1      42.683  22.141  25.781  1.00  0.00     0.059 A 
ATOM     82  F   UNL A   1      43.057  24.445  25.532  1.00  0.00    -0.206 F 
ATOM     83  C   UNL A   1      42.450  21.049  26.616  1.00  0.00     0.060 A 
BRANCH  83  84
ATOM     84  S   UNL A   1      42.218  19.399  25.917  1.00  0.00     0.124 S 
ATOM     85  O   UNL A   1      40.777  19.371  25.702  1.00  0.00    -0.237 OA
ATOM     86  O   UNL A   1      43.044  19.453  24.714  1.00  0.00    -0.237 OA
ATOM     87  O   UNL A   1      42.719  18.518  26.969  1.00  0.00    -0.744 OA
ENDBRANCH  83  84
ENDBRANCH  51  76
BRANCH  63  88
ATOM     88  C   UNL A   1      47.983  27.042  30.771  1.00  0.00     0.058 A 
ATOM     89  C   UNL A   1      49.038  27.321  29.888  1.00  0.00     0.135 A 
ATOM     90  C   UNL A   1      48.293  26.433  31.997  1.00  0.00     0.135 A 
ATOM     91  F   UNL A   1      48.792  27.896  28.701  1.00  0.00    -0.206 F 
ATOM     92  C   UNL A   1      50.352  26.989  30.203  1.00  0.00     0.059 A 
ATOM     93  C   UNL A   1      49.602  26.114  32.341  1.00  0.00     0.059 A 
ATOM     94  F   UNL A   1      47.320  26.156  32.879  1.00  0.00    -0.206 F 
ATOM     95  C   UNL A   1      50.624  26.386  31.432  1.00  0.00     0.060 A 
BRANCH  95  96
ATOM     96  S   UNL A   1      52.337  25.992  31.846  1.00  0.00     0.124 S 
ATOM     97  O   UNL A   1      52.600  26.932  32.930  1.00  0.00    -0.237 OA
ATOM     98  O   UNL A   1      52.253  24.587  32.232  1.00  0.00    -0.237 OA
ATOM     99  O   UNL A   1      53.054  26.251  30.601  1.00  0.00    -0.744 OA
ENDBRANCH  95  96
ENDBRANCH  63  88
ENDBRANCH  37  38
ENDBRANCH  29  32
ENDBRANCH  27  28
ENDBRANCH   1  27
TORSDOF 16
ENDMDL
MODEL 3
REMARK VINA RESULT:     -10.4      5.160     12.366
REMARK SMILES NC(=O)c1ccc(Nc2ccc(C(=O)NCCCNC(=O)c3ccc(-c4c5nc(c(-c6c(F)cc(S(=O)(=O)[O-])cc6F)c6ccc([nH]6)c(-c6c(F)cc(S(=O)(=O)[O-])cc6F)c6nc(c(-c7c(F)cc(S(=O)(=O)[O-])cc7F)c7ccc4[nH]7)C=C6)C=C5)cc3)c(Cl)c2)nn1
REMARK SMILES IDX 17 1 16 2 15 3 13 4 14 5 12 7 9 8 10 9 90 10 11 11 88 12
REMARK SMILES IDX 89 13 8 14 7 16 4 17 5 18 92 19 6 20 91 21 2 22 1 23 3 26
REMARK SMILES IDX 18 27 19 28 20 29 21 31 22 32 23 33 87 34 24 35 86 36 25 37
REMARK SMILES IDX 26 38 27 39 80 40 28 41 85 42 79 43 81 44 29 45 84 46 78 47
REMARK SMILES IDX 77 48 30 50 64 51 43 52 63 53 44 54 47 55 62 56 82 57 45 58
REMARK SMILES IDX 46 59 61 61 83 62 48 63 31 64 32 65 41 66 33 67 34 68 40 69
REMARK SMILES IDX 42 70 35 71 36 72 37 73 38 74 39 75 65 76 66 77 75 78 67 79
REMARK SMILES IDX 68 80 74 81 76 82 69 83 70 84 71 85 72 86 73 87 49 88 50 89
REMARK SMILES IDX 59 90 51 91 52 92 58 93 60 94 53 95 54 96 55 97 56 98 57 99
REMARK H PARENT 15 6 8 15 1 24 1 25 19 30 81 49 47 60
REMARK Flexibility Score: inf
ROOT
ATOM      1  C   UNL A   1      38.524  23.632  26.101  1.00  0.00     0.042 C 
ENDROOT
BRANCH   1   2
ATOM      2  C   UNL A   1      37.646  22.460  25.655  1.00  0.00     0.118 C 
BRANCH   2   3
ATOM      3  N   UNL A   1      37.281  22.608  24.260  1.00  0.00    -0.352 N 
ATOM      4  C   UNL A   1      36.140  22.976  23.602  1.00  0.00     0.252 C 
ATOM      5  O   UNL A   1      36.208  22.943  22.369  1.00  0.00    -0.269 OA
ATOM      6  H   UNL A   1      38.023  22.396  23.647  1.00  0.00     0.163 HD
BRANCH   4   7
ATOM      7  C   UNL A   1      34.887  23.509  24.215  1.00  0.00     0.058 A 
ATOM      8  C   UNL A   1      32.745  24.928  25.458  1.00  0.00     0.041 A 
ATOM      9  C   UNL A   1      34.063  25.274  25.728  1.00  0.00     0.027 A 
ATOM     10  C   UNL A   1      32.505  23.884  24.564  1.00  0.00     0.047 A 
ATOM     11  C   UNL A   1      35.112  24.552  25.144  1.00  0.00     0.017 A 
ATOM     12  C   UNL A   1      33.553  23.220  23.904  1.00  0.00     0.055 A 
ATOM     13  Cl  UNL A   1      33.000  22.242  22.605  1.00  0.00    -0.083 Cl
BRANCH   8  14
ATOM     14  N   UNL A   1      31.662  25.731  25.870  1.00  0.00    -0.339 N 
ATOM     15  H   UNL A   1      31.242  25.545  26.741  1.00  0.00     0.168 HD
BRANCH  14  16
ATOM     16  C   UNL A   1      31.154  26.791  25.084  1.00  0.00     0.153 A 
ATOM     17  C   UNL A   1      30.190  28.821  23.513  1.00  0.00     0.150 A 
ATOM     18  C   UNL A   1      29.586  27.576  23.433  1.00  0.00     0.040 A 
ATOM     19  N   UNL A   1      31.222  29.053  24.343  1.00  0.00    -0.143 NA
ATOM     20  C   UNL A   1      30.074  26.550  24.242  1.00  0.00     0.051 A 
ATOM     21  N   UNL A   1      31.694  28.029  25.138  1.00  0.00    -0.132 NA
BRANCH  17  22
ATOM     22  C   UNL A   1      29.709  29.976  22.712  1.00  0.00     0.269 C 
ATOM     23  N   UNL A   1      30.361  30.223  21.528  1.00  0.00    -0.364 N 
ATOM     24  H   UNL A   1      30.082  30.977  20.960  1.00  0.00     0.160 HD
ATOM     25  H   UNL A   1      31.107  29.646  21.248  1.00  0.00     0.160 HD
ATOM     26  O   UNL A   1      28.769  30.680  23.056  1.00  0.00    -0.268 OA
ENDBRANCH  17  22
ENDBRANCH  14  16
ENDBRANCH   8  14
ENDBRANCH   4   7
ENDBRANCH   2   3
ENDBRANCH   1   2
BRANCH   1  27
ATOM     27  C   UNL A   1      39.745  23.231  26.917  1.00  0.00     0.118 C 
BRANCH  27  28
ATOM     28  N   UNL A   1      40.983  23.578  26.241  1.00  0.00    -0.352 N 
ATOM     29  C   UNL A   1      41.737  24.724  26.322  1.00  0.00     0.251 C 
ATOM     30  H   UNL A   1      41.334  22.889  25.632  1.00  0.00     0.163 HD
ATOM     31  O   UNL A   1      42.600  24.928  25.472  1.00  0.00    -0.269 OA
BRANCH  29  32
ATOM     32  C   UNL A   1      41.522  25.713  27.408  1.00  0.00     0.039 A 
ATOM     33  C   UNL A   1      42.398  26.799  27.512  1.00  0.00     0.014 A 
ATOM     34  C   UNL A   1      40.514  25.548  28.363  1.00  0.00     0.014 A 
ATOM     35  C   UNL A   1      42.239  27.733  28.542  1.00  0.00     0.010 A 
ATOM     36  C   UNL A   1      40.310  26.518  29.344  1.00  0.00     0.010 A 
ATOM     37  C   UNL A   1      41.181  27.612  29.455  1.00  0.00    -0.014 A 
BRANCH  37  38
ATOM     38  C   UNL A   1      40.986  28.598  30.550  1.00  0.00     0.031 A 
ATOM     39  C   UNL A   1      41.832  28.522  31.794  1.00  0.00     0.074 A 
ATOM     40  C   UNL A   1      40.010  29.523  30.454  1.00  0.00     0.049 A 
ATOM     41  N   UNL A   1      41.759  29.233  32.890  1.00  0.00    -0.248 NA
ATOM     42  C   UNL A   1      42.884  27.493  31.818  1.00  0.00     0.031 C 
ATOM     43  C   UNL A   1      39.096  29.672  29.319  1.00  0.00     0.029 A 
ATOM     44  N   UNL A   1      39.616  30.506  31.327  1.00  0.00    -0.354 N 
ATOM     45  C   UNL A   1      42.734  28.724  33.740  1.00  0.00     0.074 A 
ATOM     46  C   UNL A   1      43.358  27.616  33.049  1.00  0.00     0.031 C 
ATOM     47  C   UNL A   1      38.260  30.697  29.558  1.00  0.00     0.029 A 
ATOM     48  C   UNL A   1      38.557  31.256  30.874  1.00  0.00     0.049 A 
ATOM     49  H   UNL A   1      40.053  30.659  32.196  1.00  0.00     0.167 HD
ATOM     50  C   UNL A   1      43.091  29.150  34.975  1.00  0.00     0.037 A 
ATOM     51  C   UNL A   1      37.893  32.274  31.455  1.00  0.00     0.037 A 
ATOM     52  C   UNL A   1      42.492  30.277  35.643  1.00  0.00     0.049 A 
ATOM     53  C   UNL A   1      38.322  32.746  32.818  1.00  0.00     0.074 A 
ATOM     54  C   UNL A   1      42.822  30.827  36.869  1.00  0.00     0.029 A 
ATOM     55  N   UNL A   1      41.444  31.032  35.136  1.00  0.00    -0.354 N 
ATOM     56  N   UNL A   1      39.278  32.282  33.587  1.00  0.00    -0.248 NA
ATOM     57  C   UNL A   1      37.587  33.881  33.390  1.00  0.00     0.031 C 
ATOM     58  C   UNL A   1      41.953  31.896  37.117  1.00  0.00     0.029 A 
ATOM     59  C   UNL A   1      41.107  32.035  36.029  1.00  0.00     0.049 A 
ATOM     60  H   UNL A   1      41.004  30.875  34.269  1.00  0.00     0.167 HD
ATOM     61  C   UNL A   1      39.275  33.083  34.722  1.00  0.00     0.074 A 
ATOM     62  C   UNL A   1      38.229  34.068  34.536  1.00  0.00     0.031 C 
ATOM     63  C   UNL A   1      40.068  33.011  35.821  1.00  0.00     0.037 A 
BRANCH  50  64
ATOM     64  C   UNL A   1      44.187  28.401  35.682  1.00  0.00     0.058 A 
ATOM     65  C   UNL A   1      43.907  27.330  36.547  1.00  0.00     0.135 A 
ATOM     66  C   UNL A   1      45.534  28.737  35.474  1.00  0.00     0.135 A 
ATOM     67  F   UNL A   1      42.634  26.976  36.794  1.00  0.00    -0.206 F 
ATOM     68  C   UNL A   1      44.919  26.641  37.205  1.00  0.00     0.059 A 
ATOM     69  C   UNL A   1      46.566  28.044  36.102  1.00  0.00     0.059 A 
ATOM     70  F   UNL A   1      45.859  29.749  34.655  1.00  0.00    -0.206 F 
ATOM     71  C   UNL A   1      46.248  27.008  36.979  1.00  0.00     0.060 A 
BRANCH  71  72
ATOM     72  S   UNL A   1      47.552  26.105  37.841  1.00  0.00     0.124 S 
ATOM     73  O   UNL A   1      47.728  26.924  39.037  1.00  0.00    -0.237 OA
ATOM     74  O   UNL A   1      46.942  24.796  38.054  1.00  0.00    -0.237 OA
ATOM     75  O   UNL A   1      48.663  26.129  36.894  1.00  0.00    -0.744 OA
ENDBRANCH  71  72
ENDBRANCH  50  64
BRANCH  51  76
ATOM     76  C   UNL A   1      36.774  32.936  30.736  1.00  0.00     0.058 A 
ATOM     77  C   UNL A   1      35.442  32.598  31.015  1.00  0.00     0.135 A 
ATOM     78  C   UNL A   1      37.009  33.932  29.775  1.00  0.00     0.135 A 
ATOM     79  F   UNL A   1      35.168  31.646  31.921  1.00  0.00    -0.206 F 
ATOM     80  C   UNL A   1      34.381  33.214  30.359  1.00  0.00     0.059 A 
ATOM     81  C   UNL A   1      35.963  34.578  29.122  1.00  0.00     0.059 A 
ATOM     82  F   UNL A   1      38.266  34.303  29.485  1.00  0.00    -0.206 F 
ATOM     83  C   UNL A   1      34.652  34.205  29.415  1.00  0.00     0.060 A 
BRANCH  83  84
ATOM     84  S   UNL A   1      33.265  35.038  28.611  1.00  0.00     0.124 S 
ATOM     85  O   UNL A   1      32.518  35.539  29.759  1.00  0.00    -0.237 OA
ATOM     86  O   UNL A   1      33.939  36.047  27.798  1.00  0.00    -0.237 OA
ATOM     87  O   UNL A   1      32.623  33.966  27.857  1.00  0.00    -0.744 OA
ENDBRANCH  83  84
ENDBRANCH  51  76
BRANCH  63  88
ATOM     88  C   UNL A   1      39.856  34.043  36.892  1.00  0.00     0.058 A 
ATOM     89  C   UNL A   1      39.057  33.781  38.015  1.00  0.00     0.135 A 
ATOM     90  C   UNL A   1      40.500  35.287  36.816  1.00  0.00     0.135 A 
ATOM     91  F   UNL A   1      38.415  32.609  38.130  1.00  0.00    -0.206 F 
ATOM     92  C   UNL A   1      38.889  34.729  39.020  1.00  0.00     0.059 A 
ATOM     93  C   UNL A   1      40.364  36.241  37.820  1.00  0.00     0.059 A 
ATOM     94  F   UNL A   1      41.283  35.581  35.766  1.00  0.00    -0.206 F 
ATOM     95  C   UNL A   1      39.546  35.956  38.913  1.00  0.00     0.060 A 
BRANCH  95  96
ATOM     96  S   UNL A   1      39.349  37.165  40.240  1.00  0.00     0.124 S 
ATOM     97  O   UNL A   1      40.738  37.462  40.574  1.00  0.00    -0.237 OA
ATOM     98  O   UNL A   1      38.612  38.239  39.581  1.00  0.00    -0.237 OA
ATOM     99  O   UNL A   1      38.600  36.433  41.257  1.00  0.00    -0.744 OA
ENDBRANCH  95  96
ENDBRANCH  63  88
ENDBRANCH  37  38
ENDBRANCH  29  32
ENDBRANCH  27  28
ENDBRANCH   1  27
TORSDOF 16
ENDMDL
