MODEL 1
REMARK VINA RESULT:      -9.2      0.000      0.000
REMARK SMILES C#CCN(CC(=O)NCCCNC(=O)c1ccc(-c2c3nc(c(-c4c(F)cc(S(=O)(=O)[O-])cc4F)c4ccc([nH]4)c(-c4c(F)cc(S(=O)(=O)[O-])cc4F)c4nc(c(-c5c(F)cc(S(=O)(=O)[O-])cc5F)c5ccc2[nH]5)C=C4)C=C3)cc1)C(=O)NCCc1ccco1
REMARK SMILES IDX 9 1 8 2 6 3 7 4 5 6 4 7 3 8 2 9 1 10 81 11 82 12 83 13 84 15
REMARK SMILES IDX 85 16 86 17 87 18 90 19 88 20 89 21 10 22 11 23 12 24 13 25
REMARK SMILES IDX 14 27 15 28 16 29 80 30 17 31 79 32 18 33 19 34 20 35 73 36
REMARK SMILES IDX 21 37 78 38 72 39 74 40 22 41 77 42 71 43 70 44 23 46 57 47
REMARK SMILES IDX 36 48 56 49 37 50 40 51 55 52 75 53 38 54 39 55 54 57 76 58
REMARK SMILES IDX 41 59 24 60 25 61 34 62 26 63 27 64 33 65 35 66 28 67 29 68
REMARK SMILES IDX 30 69 31 70 32 71 58 72 59 73 68 74 60 75 61 76 67 77 69 78
REMARK SMILES IDX 62 79 63 80 64 81 65 82 66 83 42 84 43 85 52 86 44 87 45 88
REMARK SMILES IDX 51 89 53 90 46 91 47 92 48 93 49 94 50 95
REMARK H PARENT 8 5 83 14 12 26 74 45 40 56
REMARK Flexibility Score: inf
ROOT
ATOM      1  C   UNL A   1      38.494  23.820  26.308  1.00  0.00     0.117 C 
ENDROOT
BRANCH   1   2
ATOM      2  N   UNL A   1      38.102  22.439  26.111  1.00  0.00    -0.354 N 
ATOM      3  C   UNL A   1      37.457  21.862  25.058  1.00  0.00     0.239 C 
ATOM      4  O   UNL A   1      37.541  20.634  24.952  1.00  0.00    -0.273 OA
ATOM      5  H   UNL A   1      38.338  21.827  26.845  1.00  0.00     0.163 HD
BRANCH   3   6
ATOM      6  C   UNL A   1      36.775  22.696  23.961  1.00  0.00     0.222 C 
BRANCH   6   7
ATOM      7  N   UNL A   1      35.360  22.969  24.185  1.00  0.00    -0.304 N 
BRANCH   7   8
ATOM      8  C   UNL A   1      34.688  22.125  25.170  1.00  0.00     0.211 C 
BRANCH   8   9
ATOM      9  C   UNL A   1      33.654  21.199  24.550  1.00  0.00    -0.085 C 
ATOM     10  C   UNL A   1      32.767  20.404  24.019  1.00  0.00     0.006 C 
ENDBRANCH   8   9
ENDBRANCH   7   8
BRANCH   7  11
ATOM     11  C   UNL A   1      34.597  23.937  23.597  1.00  0.00     0.318 C 
ATOM     12  O   UNL A   1      34.296  23.874  22.400  1.00  0.00    -0.249 OA
ATOM     13  N   UNL A   1      34.124  25.020  24.228  1.00  0.00    -0.337 N 
ATOM     14  H   UNL A   1      33.592  25.572  23.611  1.00  0.00     0.165 HD
BRANCH  13  15
ATOM     15  C   UNL A   1      34.160  25.629  25.554  1.00  0.00     0.125 C 
BRANCH  15  16
ATOM     16  C   UNL A   1      33.441  26.981  25.579  1.00  0.00     0.096 C 
BRANCH  16  17
ATOM     17  C   UNL A   1      32.106  26.907  24.928  1.00  0.00     0.105 A 
ATOM     18  C   UNL A   1      30.827  26.684  25.394  1.00  0.00     0.045 A 
ATOM     19  O   UNL A   1      32.085  27.094  23.577  1.00  0.00    -0.469 OA
ATOM     20  C   UNL A   1      29.977  26.735  24.262  1.00  0.00     0.042 A 
ATOM     21  C   UNL A   1      30.791  26.987  23.182  1.00  0.00     0.195 A 
ENDBRANCH  16  17
ENDBRANCH  15  16
ENDBRANCH  13  15
ENDBRANCH   7  11
ENDBRANCH   6   7
ENDBRANCH   3   6
ENDBRANCH   1   2
BRANCH   1  22
ATOM     22  C   UNL A   1      39.985  24.001  26.574  1.00  0.00     0.042 C 
BRANCH  22  23
ATOM     23  C   UNL A   1      40.639  25.121  25.773  1.00  0.00     0.118 C 
BRANCH  23  24
ATOM     24  N   UNL A   1      42.094  25.030  25.768  1.00  0.00    -0.352 N 
ATOM     25  C   UNL A   1      43.036  25.705  26.499  1.00  0.00     0.251 C 
ATOM     26  H   UNL A   1      42.461  24.373  25.132  1.00  0.00     0.163 HD
ATOM     27  O   UNL A   1      44.218  25.626  26.163  1.00  0.00    -0.269 OA
BRANCH  25  28
ATOM     28  C   UNL A   1      42.656  26.521  27.673  1.00  0.00     0.039 A 
ATOM     29  C   UNL A   1      41.970  25.911  28.729  1.00  0.00     0.014 A 
ATOM     30  C   UNL A   1      42.916  27.893  27.715  1.00  0.00     0.014 A 
ATOM     31  C   UNL A   1      41.600  26.664  29.848  1.00  0.00     0.010 A 
ATOM     32  C   UNL A   1      42.616  28.625  28.861  1.00  0.00     0.010 A 
ATOM     33  C   UNL A   1      41.945  28.020  29.936  1.00  0.00    -0.014 A 
BRANCH  33  34
ATOM     34  C   UNL A   1      41.606  28.837  31.129  1.00  0.00     0.031 A 
ATOM     35  C   UNL A   1      40.436  29.784  31.082  1.00  0.00     0.074 A 
ATOM     36  C   UNL A   1      42.395  28.788  32.220  1.00  0.00     0.049 A 
ATOM     37  N   UNL A   1      40.053  30.671  31.964  1.00  0.00    -0.248 NA
ATOM     38  C   UNL A   1      39.603  29.748  29.869  1.00  0.00     0.031 C 
ATOM     39  C   UNL A   1      43.578  27.939  32.372  1.00  0.00     0.029 A 
ATOM     40  N   UNL A   1      42.332  29.483  33.403  1.00  0.00    -0.354 N 
ATOM     41  C   UNL A   1      38.954  31.312  31.406  1.00  0.00     0.074 A 
ATOM     42  C   UNL A   1      38.758  30.745  30.089  1.00  0.00     0.031 C 
ATOM     43  C   UNL A   1      44.123  28.154  33.580  1.00  0.00     0.029 A 
ATOM     44  C   UNL A   1      43.355  29.185  34.272  1.00  0.00     0.049 A 
ATOM     45  H   UNL A   1      41.623  30.133  33.608  1.00  0.00     0.167 HD
ATOM     46  C   UNL A   1      38.169  32.273  31.949  1.00  0.00     0.037 A 
ATOM     47  C   UNL A   1      43.651  29.696  35.483  1.00  0.00     0.037 A 
ATOM     48  C   UNL A   1      38.352  32.810  33.271  1.00  0.00     0.049 A 
ATOM     49  C   UNL A   1      42.762  30.760  36.068  1.00  0.00     0.074 A 
ATOM     50  C   UNL A   1      37.580  33.749  33.934  1.00  0.00     0.029 A 
ATOM     51  N   UNL A   1      39.378  32.454  34.135  1.00  0.00    -0.354 N 
ATOM     52  N   UNL A   1      41.699  31.323  35.544  1.00  0.00    -0.248 NA
ATOM     53  C   UNL A   1      43.108  31.257  37.406  1.00  0.00     0.031 C 
ATOM     54  C   UNL A   1      38.161  33.990  35.184  1.00  0.00     0.029 A 
ATOM     55  C   UNL A   1      39.265  33.165  35.319  1.00  0.00     0.049 A 
ATOM     56  H   UNL A   1      40.081  31.795  33.936  1.00  0.00     0.167 HD
ATOM     57  C   UNL A   1      41.229  32.213  36.504  1.00  0.00     0.074 A 
ATOM     58  C   UNL A   1      42.120  32.112  37.640  1.00  0.00     0.031 C 
ATOM     59  C   UNL A   1      40.152  33.036  36.449  1.00  0.00     0.037 A 
BRANCH  46  60
ATOM     60  C   UNL A   1      37.036  32.805  31.111  1.00  0.00     0.058 A 
ATOM     61  C   UNL A   1      37.242  33.785  30.129  1.00  0.00     0.135 A 
ATOM     62  C   UNL A   1      35.733  32.304  31.271  1.00  0.00     0.135 A 
ATOM     63  F   UNL A   1      38.464  34.310  29.942  1.00  0.00    -0.206 F 
ATOM     64  C   UNL A   1      36.194  34.275  29.356  1.00  0.00     0.059 A 
ATOM     65  C   UNL A   1      34.674  32.758  30.490  1.00  0.00     0.059 A 
ATOM     66  F   UNL A   1      35.478  31.364  32.196  1.00  0.00    -0.206 F 
ATOM     67  C   UNL A   1      34.912  33.755  29.545  1.00  0.00     0.060 A 
BRANCH  67  68
ATOM     68  S   UNL A   1      33.563  34.400  28.535  1.00  0.00     0.124 S 
ATOM     69  O   UNL A   1      34.247  35.432  27.761  1.00  0.00    -0.237 OA
ATOM     70  O   UNL A   1      33.143  33.221  27.784  1.00  0.00    -0.237 OA
ATOM     71  O   UNL A   1      32.602  34.887  29.520  1.00  0.00    -0.744 OA
ENDBRANCH  67  68
ENDBRANCH  46  60
BRANCH  47  72
ATOM     72  C   UNL A   1      44.831  29.190  36.235  1.00  0.00     0.058 A 
ATOM     73  C   UNL A   1      46.068  29.847  36.161  1.00  0.00     0.135 A 
ATOM     74  C   UNL A   1      44.744  28.052  37.052  1.00  0.00     0.135 A 
ATOM     75  F   UNL A   1      46.203  30.937  35.389  1.00  0.00    -0.206 F 
ATOM     76  C   UNL A   1      47.182  29.387  36.855  1.00  0.00     0.059 A 
ATOM     77  C   UNL A   1      45.838  27.585  37.776  1.00  0.00     0.059 A 
ATOM     78  F   UNL A   1      43.579  27.396  37.170  1.00  0.00    -0.206 F 
ATOM     79  C   UNL A   1      47.056  28.255  37.663  1.00  0.00     0.060 A 
BRANCH  79  80
ATOM     80  S   UNL A   1      48.497  27.694  38.596  1.00  0.00     0.124 S 
ATOM     81  O   UNL A   1      48.980  26.601  37.760  1.00  0.00    -0.237 OA
ATOM     82  O   UNL A   1      49.329  28.892  38.626  1.00  0.00    -0.237 OA
ATOM     83  O   UNL A   1      47.930  27.301  39.883  1.00  0.00    -0.744 OA
ENDBRANCH  79  80
ENDBRANCH  47  72
BRANCH  59  84
ATOM     84  C   UNL A   1      39.842  33.858  37.670  1.00  0.00     0.058 A 
ATOM     85  C   UNL A   1      38.965  33.404  38.666  1.00  0.00     0.135 A 
ATOM     86  C   UNL A   1      40.490  35.088  37.873  1.00  0.00     0.135 A 
ATOM     87  F   UNL A   1      38.316  32.239  38.516  1.00  0.00    -0.206 F 
ATOM     88  C   UNL A   1      38.728  34.150  39.817  1.00  0.00     0.059 A 
ATOM     89  C   UNL A   1      40.288  35.837  39.028  1.00  0.00     0.059 A 
ATOM     90  F   UNL A   1      41.346  35.562  36.955  1.00  0.00    -0.206 F 
ATOM     91  C   UNL A   1      39.398  35.363  39.991  1.00  0.00     0.060 A 
BRANCH  91  92
ATOM     92  S   UNL A   1      39.118  36.296  41.511  1.00  0.00     0.124 S 
ATOM     93  O   UNL A   1      38.880  37.639  40.992  1.00  0.00    -0.237 OA
ATOM     94  O   UNL A   1      37.956  35.623  42.083  1.00  0.00    -0.237 OA
ATOM     95  O   UNL A   1      40.364  36.120  42.252  1.00  0.00    -0.744 OA
ENDBRANCH  91  92
ENDBRANCH  59  84
ENDBRANCH  33  34
ENDBRANCH  25  28
ENDBRANCH  23  24
ENDBRANCH  22  23
ENDBRANCH   1  22
TORSDOF 20
ENDMDL
MODEL 2
REMARK VINA RESULT:      -9.2      3.892     11.049
REMARK SMILES C#CCN(CC(=O)NCCCNC(=O)c1ccc(-c2c3nc(c(-c4c(F)cc(S(=O)(=O)[O-])cc4F)c4ccc([nH]4)c(-c4c(F)cc(S(=O)(=O)[O-])cc4F)c4nc(c(-c5c(F)cc(S(=O)(=O)[O-])cc5F)c5ccc2[nH]5)C=C4)C=C3)cc1)C(=O)NCCc1ccco1
REMARK SMILES IDX 9 1 8 2 6 3 7 4 5 6 4 7 3 8 2 9 1 10 81 11 82 12 83 13 84 15
REMARK SMILES IDX 85 16 86 17 87 18 90 19 88 20 89 21 10 22 11 23 12 24 13 25
REMARK SMILES IDX 14 27 15 28 16 29 80 30 17 31 79 32 18 33 19 34 20 35 73 36
REMARK SMILES IDX 21 37 78 38 72 39 74 40 22 41 77 42 71 43 70 44 23 46 57 47
REMARK SMILES IDX 36 48 56 49 37 50 40 51 55 52 75 53 38 54 39 55 54 57 76 58
REMARK SMILES IDX 41 59 24 60 25 61 34 62 26 63 27 64 33 65 35 66 28 67 29 68
REMARK SMILES IDX 30 69 31 70 32 71 58 72 59 73 68 74 60 75 61 76 67 77 69 78
REMARK SMILES IDX 62 79 63 80 64 81 65 82 66 83 42 84 43 85 52 86 44 87 45 88
REMARK SMILES IDX 51 89 53 90 46 91 47 92 48 93 49 94 50 95
REMARK H PARENT 8 5 83 14 12 26 74 45 40 56
REMARK Flexibility Score: inf
ROOT
ATOM      1  C   UNL A   1      43.345  22.871  30.073  1.00  0.00     0.117 C 
ENDROOT
BRANCH   1   2
ATOM      2  N   UNL A   1      44.007  24.086  30.502  1.00  0.00    -0.354 N 
ATOM      3  C   UNL A   1      44.794  24.307  31.592  1.00  0.00     0.239 C 
ATOM      4  O   UNL A   1      45.522  25.306  31.567  1.00  0.00    -0.273 OA
ATOM      5  H   UNL A   1      43.869  24.867  29.918  1.00  0.00     0.163 HD
BRANCH   3   6
ATOM      6  C   UNL A   1      44.894  23.297  32.747  1.00  0.00     0.222 C 
BRANCH   6   7
ATOM      7  N   UNL A   1      44.779  23.874  34.081  1.00  0.00    -0.304 N 
BRANCH   7   8
ATOM      8  C   UNL A   1      43.558  23.558  34.819  1.00  0.00     0.211 C 
BRANCH   8   9
ATOM      9  C   UNL A   1      42.638  24.757  34.984  1.00  0.00    -0.085 C 
ATOM     10  C   UNL A   1      41.849  25.785  35.125  1.00  0.00     0.006 C 
ENDBRANCH   8   9
ENDBRANCH   7   8
BRANCH   7  11
ATOM     11  C   UNL A   1      45.691  24.658  34.729  1.00  0.00     0.318 C 
ATOM     12  O   UNL A   1      45.893  25.826  34.381  1.00  0.00    -0.249 OA
ATOM     13  N   UNL A   1      46.443  24.254  35.762  1.00  0.00    -0.337 N 
ATOM     14  H   UNL A   1      47.019  24.988  36.076  1.00  0.00     0.165 HD
BRANCH  13  15
ATOM     15  C   UNL A   1      46.666  23.054  36.562  1.00  0.00     0.125 C 
BRANCH  15  16
ATOM     16  C   UNL A   1      47.322  21.938  35.744  1.00  0.00     0.096 C 
BRANCH  16  17
ATOM     17  C   UNL A   1      46.578  20.656  35.863  1.00  0.00     0.105 A 
ATOM     18  C   UNL A   1      46.000  19.799  34.950  1.00  0.00     0.045 A 
ATOM     19  O   UNL A   1      46.400  20.181  37.129  1.00  0.00    -0.469 OA
ATOM     20  C   UNL A   1      45.435  18.740  35.703  1.00  0.00     0.042 A 
ATOM     21  C   UNL A   1      45.705  19.019  37.022  1.00  0.00     0.195 A 
ENDBRANCH  16  17
ENDBRANCH  15  16
ENDBRANCH  13  15
ENDBRANCH   7  11
ENDBRANCH   6   7
ENDBRANCH   3   6
ENDBRANCH   1   2
BRANCH   1  22
ATOM     22  C   UNL A   1      43.169  22.771  28.562  1.00  0.00     0.042 C 
BRANCH  22  23
ATOM     23  C   UNL A   1      44.147  23.615  27.753  1.00  0.00     0.118 C 
BRANCH  23  24
ATOM     24  N   UNL A   1      43.534  24.199  26.566  1.00  0.00    -0.352 N 
ATOM     25  C   UNL A   1      42.674  25.257  26.431  1.00  0.00     0.251 C 
ATOM     26  H   UNL A   1      43.781  23.760  25.720  1.00  0.00     0.163 HD
ATOM     27  O   UNL A   1      42.108  25.429  25.351  1.00  0.00    -0.269 OA
BRANCH  25  28
ATOM     28  C   UNL A   1      42.416  26.185  27.554  1.00  0.00     0.039 A 
ATOM     29  C   UNL A   1      43.224  27.319  27.694  1.00  0.00     0.014 A 
ATOM     30  C   UNL A   1      41.427  25.916  28.502  1.00  0.00     0.014 A 
ATOM     31  C   UNL A   1      43.000  28.209  28.750  1.00  0.00     0.010 A 
ATOM     32  C   UNL A   1      41.154  26.841  29.507  1.00  0.00     0.010 A 
ATOM     33  C   UNL A   1      41.944  27.993  29.648  1.00  0.00    -0.014 A 
BRANCH  33  34
ATOM     34  C   UNL A   1      41.651  28.942  30.752  1.00  0.00     0.031 A 
ATOM     35  C   UNL A   1      42.462  28.891  32.020  1.00  0.00     0.074 A 
ATOM     36  C   UNL A   1      40.609  29.789  30.648  1.00  0.00     0.049 A 
ATOM     37  N   UNL A   1      42.286  29.540  33.142  1.00  0.00    -0.248 NA
ATOM     38  C   UNL A   1      43.606  27.965  32.038  1.00  0.00     0.031 C 
ATOM     39  C   UNL A   1      39.726  29.906  29.486  1.00  0.00     0.029 A 
ATOM     40  N   UNL A   1      40.102  30.700  31.541  1.00  0.00    -0.354 N 
ATOM     41  C   UNL A   1      43.277  29.087  34.004  1.00  0.00     0.074 A 
ATOM     42  C   UNL A   1      44.025  28.073  33.290  1.00  0.00     0.031 C 
ATOM     43  C   UNL A   1      38.794  30.842  29.732  1.00  0.00     0.029 A 
ATOM     44  C   UNL A   1      38.986  31.360  31.083  1.00  0.00     0.049 A 
ATOM     45  H   UNL A   1      40.499  30.864  32.426  1.00  0.00     0.167 HD
ATOM     46  C   UNL A   1      43.552  29.491  35.267  1.00  0.00     0.037 A 
ATOM     47  C   UNL A   1      38.197  32.270  31.688  1.00  0.00     0.037 A 
ATOM     48  C   UNL A   1      42.822  30.522  35.958  1.00  0.00     0.049 A 
ATOM     49  C   UNL A   1      38.523  32.706  33.091  1.00  0.00     0.074 A 
ATOM     50  C   UNL A   1      43.053  31.041  37.219  1.00  0.00     0.029 A 
ATOM     51  N   UNL A   1      41.722  31.193  35.444  1.00  0.00    -0.354 N 
ATOM     52  N   UNL A   1      39.494  32.300  33.875  1.00  0.00    -0.248 NA
ATOM     53  C   UNL A   1      37.653  33.727  33.691  1.00  0.00     0.031 C 
ATOM     54  C   UNL A   1      42.069  32.000  37.485  1.00  0.00     0.029 A 
ATOM     55  C   UNL A   1      41.256  32.112  36.369  1.00  0.00     0.049 A 
ATOM     56  H   UNL A   1      41.331  31.039  34.554  1.00  0.00     0.167 HD
ATOM     57  C   UNL A   1      39.372  33.040  35.045  1.00  0.00     0.074 A 
ATOM     58  C   UNL A   1      38.237  33.921  34.866  1.00  0.00     0.031 C 
ATOM     59  C   UNL A   1      40.135  32.997  36.166  1.00  0.00     0.037 A 
BRANCH  46  60
ATOM     60  C   UNL A   1      44.691  28.818  35.984  1.00  0.00     0.058 A 
ATOM     61  C   UNL A   1      46.028  29.167  35.734  1.00  0.00     0.135 A 
ATOM     62  C   UNL A   1      44.443  27.835  36.956  1.00  0.00     0.135 A 
ATOM     63  F   UNL A   1      46.324  30.089  34.805  1.00  0.00    -0.206 F 
ATOM     64  C   UNL A   1      47.080  28.543  36.398  1.00  0.00     0.059 A 
ATOM     65  C   UNL A   1      45.478  27.219  37.654  1.00  0.00     0.059 A 
ATOM     66  F   UNL A   1      43.184  27.463  37.236  1.00  0.00    -0.206 F 
ATOM     67  C   UNL A   1      46.794  27.568  37.356  1.00  0.00     0.060 A 
BRANCH  67  68
ATOM     68  S   UNL A   1      48.170  26.769  38.209  1.00  0.00     0.124 S 
ATOM     69  O   UNL A   1      47.471  26.024  39.252  1.00  0.00    -0.237 OA
ATOM     70  O   UNL A   1      48.769  25.964  37.150  1.00  0.00    -0.237 OA
ATOM     71  O   UNL A   1      48.979  27.891  38.674  1.00  0.00    -0.744 OA
ENDBRANCH  67  68
ENDBRANCH  46  60
BRANCH  47  72
ATOM     72  C   UNL A   1      37.034  32.845  30.961  1.00  0.00     0.058 A 
ATOM     73  C   UNL A   1      37.193  33.946  30.106  1.00  0.00     0.135 A 
ATOM     74  C   UNL A   1      35.747  32.299  31.091  1.00  0.00     0.135 A 
ATOM     75  F   UNL A   1      38.402  34.507  29.952  1.00  0.00    -0.206 F 
ATOM     76  C   UNL A   1      36.116  34.498  29.419  1.00  0.00     0.059 A 
ATOM     77  C   UNL A   1      34.659  32.818  30.396  1.00  0.00     0.059 A 
ATOM     78  F   UNL A   1      35.546  31.235  31.884  1.00  0.00    -0.206 F 
ATOM     79  C   UNL A   1      34.852  33.924  29.569  1.00  0.00     0.060 A 
BRANCH  79  80
ATOM     80  S   UNL A   1      33.471  34.620  28.636  1.00  0.00     0.124 S 
ATOM     81  O   UNL A   1      33.060  33.479  27.826  1.00  0.00    -0.237 OA
ATOM     82  O   UNL A   1      32.552  35.015  29.698  1.00  0.00    -0.237 OA
ATOM     83  O   UNL A   1      34.084  35.725  27.905  1.00  0.00    -0.744 OA
ENDBRANCH  79  80
ENDBRANCH  47  72
BRANCH  59  84
ATOM     84  C   UNL A   1      39.805  33.963  37.270  1.00  0.00     0.058 A 
ATOM     85  C   UNL A   1      39.017  33.593  38.368  1.00  0.00     0.135 A 
ATOM     86  C   UNL A   1      40.347  35.260  37.256  1.00  0.00     0.135 A 
ATOM     87  F   UNL A   1      38.470  32.369  38.426  1.00  0.00    -0.206 F 
ATOM     88  C   UNL A   1      38.762  34.479  39.411  1.00  0.00     0.059 A 
ATOM     89  C   UNL A   1      40.127  36.153  38.299  1.00  0.00     0.059 A 
ATOM     90  F   UNL A   1      41.116  35.661  36.232  1.00  0.00    -0.206 F 
ATOM     91  C   UNL A   1      39.326  35.756  39.368  1.00  0.00     0.060 A 
BRANCH  91  92
ATOM     92  S   UNL A   1      39.029  36.880  40.750  1.00  0.00     0.124 S 
ATOM     93  O   UNL A   1      38.288  37.956  40.100  1.00  0.00    -0.237 OA
ATOM     94  O   UNL A   1      38.261  36.048  41.671  1.00  0.00    -0.237 OA
ATOM     95  O   UNL A   1      40.373  37.227  41.202  1.00  0.00    -0.744 OA
ENDBRANCH  91  92
ENDBRANCH  59  84
ENDBRANCH  33  34
ENDBRANCH  25  28
ENDBRANCH  23  24
ENDBRANCH  22  23
ENDBRANCH   1  22
TORSDOF 20
ENDMDL
MODEL 3
REMARK VINA RESULT:      -9.2      8.676     14.723
REMARK SMILES C#CCN(CC(=O)NCCCNC(=O)c1ccc(-c2c3nc(c(-c4c(F)cc(S(=O)(=O)[O-])cc4F)c4ccc([nH]4)c(-c4c(F)cc(S(=O)(=O)[O-])cc4F)c4nc(c(-c5c(F)cc(S(=O)(=O)[O-])cc5F)c5ccc2[nH]5)C=C4)C=C3)cc1)C(=O)NCCc1ccco1
REMARK SMILES IDX 9 1 8 2 6 3 7 4 5 6 4 7 3 8 2 9 1 10 81 11 82 12 83 13 84 15
REMARK SMILES IDX 85 16 86 17 87 18 90 19 88 20 89 21 10 22 11 23 12 24 13 25
REMARK SMILES IDX 14 27 15 28 16 29 80 30 17 31 79 32 18 33 19 34 20 35 73 36
REMARK SMILES IDX 21 37 78 38 72 39 74 40 22 41 77 42 71 43 70 44 23 46 57 47
REMARK SMILES IDX 36 48 56 49 37 50 40 51 55 52 75 53 38 54 39 55 54 57 76 58
REMARK SMILES IDX 41 59 24 60 25 61 34 62 26 63 27 64 33 65 35 66 28 67 29 68
REMARK SMILES IDX 30 69 31 70 32 71 58 72 59 73 68 74 60 75 61 76 67 77 69 78
REMARK SMILES IDX 62 79 63 80 64 81 65 82 66 83 42 84 43 85 52 86 44 87 45 88
REMARK SMILES IDX 51 89 53 90 46 91 47 92 48 93 49 94 50 95
REMARK H PARENT 8 5 83 14 12 26 74 45 40 56
REMARK Flexibility Score: inf
ROOT
ATOM      1  C   UNL A   1      45.451  39.427  26.927  1.00  0.00     0.117 C 
ENDROOT
BRANCH   1   2
ATOM      2  N   UNL A   1      45.391  40.621  27.746  1.00  0.00    -0.354 N 
ATOM      3  C   UNL A   1      44.606  41.727  27.611  1.00  0.00     0.239 C 
ATOM      4  O   UNL A   1      44.478  42.449  28.606  1.00  0.00    -0.273 OA
ATOM      5  H   UNL A   1      46.008  40.634  28.513  1.00  0.00     0.163 HD
BRANCH   3   6
ATOM      6  C   UNL A   1      43.792  42.002  26.337  1.00  0.00     0.222 C 
BRANCH   6   7
ATOM      7  N   UNL A   1      44.493  42.767  25.312  1.00  0.00    -0.304 N 
BRANCH   7   8
ATOM      8  C   UNL A   1      44.972  44.089  25.708  1.00  0.00     0.211 C 
BRANCH   8   9
ATOM      9  C   UNL A   1      46.469  44.262  25.511  1.00  0.00    -0.085 C 
ATOM     10  C   UNL A   1      47.753  44.409  25.342  1.00  0.00     0.006 C 
ENDBRANCH   8   9
ENDBRANCH   7   8
BRANCH   7  11
ATOM     11  C   UNL A   1      44.772  42.382  24.032  1.00  0.00     0.318 C 
ATOM     12  O   UNL A   1      45.745  41.663  23.777  1.00  0.00    -0.249 OA
ATOM     13  N   UNL A   1      44.055  42.738  22.957  1.00  0.00    -0.337 N 
ATOM     14  H   UNL A   1      44.434  42.335  22.143  1.00  0.00     0.165 HD
BRANCH  13  15
ATOM     15  C   UNL A   1      42.884  43.544  22.630  1.00  0.00     0.125 C 
BRANCH  15  16
ATOM     16  C   UNL A   1      41.979  42.844  21.612  1.00  0.00     0.096 C 
BRANCH  16  17
ATOM     17  C   UNL A   1      42.025  43.512  20.283  1.00  0.00     0.105 A 
ATOM     18  C   UNL A   1      41.080  43.776  19.314  1.00  0.00     0.045 A 
ATOM     19  O   UNL A   1      43.242  43.984  19.891  1.00  0.00    -0.469 OA
ATOM     20  C   UNL A   1      41.761  44.446  18.268  1.00  0.00     0.042 A 
ATOM     21  C   UNL A   1      43.073  44.548  18.667  1.00  0.00     0.195 A 
ENDBRANCH  16  17
ENDBRANCH  15  16
ENDBRANCH  13  15
ENDBRANCH   7  11
ENDBRANCH   6   7
ENDBRANCH   3   6
ENDBRANCH   1   2
BRANCH   1  22
ATOM     22  C   UNL A   1      45.057  38.155  27.671  1.00  0.00     0.042 C 
BRANCH  22  23
ATOM     23  C   UNL A   1      45.658  38.026  29.066  1.00  0.00     0.118 C 
BRANCH  23  24
ATOM     24  N   UNL A   1      47.113  37.939  29.044  1.00  0.00    -0.352 N 
ATOM     25  C   UNL A   1      47.944  36.850  29.031  1.00  0.00     0.251 C 
ATOM     26  H   UNL A   1      47.575  38.809  29.038  1.00  0.00     0.163 HD
ATOM     27  O   UNL A   1      49.146  37.017  29.244  1.00  0.00    -0.269 OA
BRANCH  25  28
ATOM     28  C   UNL A   1      47.424  35.490  28.771  1.00  0.00     0.039 A 
ATOM     29  C   UNL A   1      47.032  35.152  27.471  1.00  0.00     0.014 A 
ATOM     30  C   UNL A   1      47.263  34.567  29.806  1.00  0.00     0.014 A 
ATOM     31  C   UNL A   1      46.535  33.873  27.202  1.00  0.00     0.010 A 
ATOM     32  C   UNL A   1      46.841  33.269  29.524  1.00  0.00     0.010 A 
ATOM     33  C   UNL A   1      46.463  32.911  28.221  1.00  0.00    -0.014 A 
BRANCH  33  34
ATOM     34  C   UNL A   1      45.983  31.530  27.959  1.00  0.00     0.031 A 
ATOM     35  C   UNL A   1      44.572  31.146  28.320  1.00  0.00     0.074 A 
ATOM     36  C   UNL A   1      46.835  30.605  27.476  1.00  0.00     0.049 A 
ATOM     37  N   UNL A   1      44.003  29.969  28.291  1.00  0.00    -0.248 NA
ATOM     38  C   UNL A   1      43.696  32.224  28.805  1.00  0.00     0.031 C 
ATOM     39  C   UNL A   1      48.236  30.847  27.123  1.00  0.00     0.029 A 
ATOM     40  N   UNL A   1      46.654  29.270  27.216  1.00  0.00    -0.354 N 
ATOM     41  C   UNL A   1      42.713  30.159  28.774  1.00  0.00     0.074 A 
ATOM     42  C   UNL A   1      42.599  31.556  29.132  1.00  0.00     0.031 C 
ATOM     43  C   UNL A   1      48.783  29.702  26.684  1.00  0.00     0.029 A 
ATOM     44  C   UNL A   1      47.788  28.637  26.763  1.00  0.00     0.049 A 
ATOM     45  H   UNL A   1      45.794  28.808  27.343  1.00  0.00     0.167 HD
ATOM     46  C   UNL A   1      41.711  29.255  28.891  1.00  0.00     0.037 A 
ATOM     47  C   UNL A   1      48.006  27.342  26.460  1.00  0.00     0.037 A 
ATOM     48  C   UNL A   1      41.824  27.874  28.504  1.00  0.00     0.049 A 
ATOM     49  C   UNL A   1      46.876  26.357  26.594  1.00  0.00     0.074 A 
ATOM     50  C   UNL A   1      40.852  26.890  28.533  1.00  0.00     0.029 A 
ATOM     51  N   UNL A   1      42.979  27.281  28.012  1.00  0.00    -0.354 N 
ATOM     52  N   UNL A   1      45.649  26.564  27.009  1.00  0.00    -0.248 NA
ATOM     53  C   UNL A   1      47.157  24.966  26.216  1.00  0.00     0.031 C 
ATOM     54  C   UNL A   1      41.428  25.692  28.096  1.00  0.00     0.029 A 
ATOM     55  C   UNL A   1      42.745  25.942  27.748  1.00  0.00     0.049 A 
ATOM     56  H   UNL A   1      43.836  27.744  27.873  1.00  0.00     0.167 HD
ATOM     57  C   UNL A   1      45.002  25.337  26.908  1.00  0.00     0.074 A 
ATOM     58  C   UNL A   1      45.972  24.395  26.390  1.00  0.00     0.031 C 
ATOM     59  C   UNL A   1      43.718  25.022  27.212  1.00  0.00     0.037 A 
BRANCH  46  60
ATOM     60  C   UNL A   1      40.402  29.734  29.459  1.00  0.00     0.058 A 
ATOM     61  C   UNL A   1      40.253  30.026  30.824  1.00  0.00     0.135 A 
ATOM     62  C   UNL A   1      39.291  29.935  28.624  1.00  0.00     0.135 A 
ATOM     63  F   UNL A   1      41.277  29.838  31.672  1.00  0.00    -0.206 F 
ATOM     64  C   UNL A   1      39.042  30.468  31.347  1.00  0.00     0.059 A 
ATOM     65  C   UNL A   1      38.078  30.405  29.120  1.00  0.00     0.059 A 
ATOM     66  F   UNL A   1      39.376  29.674  27.309  1.00  0.00    -0.206 F 
ATOM     67  C   UNL A   1      37.959  30.654  30.486  1.00  0.00     0.060 A 
BRANCH  67  68
ATOM     68  S   UNL A   1      36.395  31.229  31.180  1.00  0.00     0.124 S 
ATOM     69  O   UNL A   1      36.803  32.474  31.823  1.00  0.00    -0.237 OA
ATOM     70  O   UNL A   1      35.561  31.375  29.992  1.00  0.00    -0.237 OA
ATOM     71  O   UNL A   1      36.007  30.151  32.085  1.00  0.00    -0.744 OA
ENDBRANCH  67  68
ENDBRANCH  46  60
BRANCH  47  72
ATOM     72  C   UNL A   1      49.344  26.908  25.978  1.00  0.00     0.058 A 
ATOM     73  C   UNL A   1      49.717  27.079  24.636  1.00  0.00     0.135 A 
ATOM     74  C   UNL A   1      50.282  26.329  26.846  1.00  0.00     0.135 A 
ATOM     75  F   UNL A   1      48.853  27.623  23.765  1.00  0.00    -0.206 F 
ATOM     76  C   UNL A   1      50.963  26.678  24.167  1.00  0.00     0.059 A 
ATOM     77  C   UNL A   1      51.545  25.941  26.407  1.00  0.00     0.059 A 
ATOM     78  F   UNL A   1      49.981  26.157  28.143  1.00  0.00    -0.206 F 
ATOM     79  C   UNL A   1      51.872  26.111  25.062  1.00  0.00     0.060 A 
BRANCH  79  80
ATOM     80  S   UNL A   1      53.504  25.636  24.452  1.00  0.00     0.124 S 
ATOM     81  O   UNL A   1      54.369  26.557  25.181  1.00  0.00    -0.237 OA
ATOM     82  O   UNL A   1      53.584  24.234  24.850  1.00  0.00    -0.237 OA
ATOM     83  O   UNL A   1      53.404  25.867  23.014  1.00  0.00    -0.744 OA
ENDBRANCH  79  80
ENDBRANCH  47  72
BRANCH  59  84
ATOM     84  C   UNL A   1      43.267  23.612  26.946  1.00  0.00     0.058 A 
ATOM     85  C   UNL A   1      43.066  23.132  25.644  1.00  0.00     0.135 A 
ATOM     86  C   UNL A   1      43.100  22.713  28.013  1.00  0.00     0.135 A 
ATOM     87  F   UNL A   1      43.205  23.953  24.592  1.00  0.00    -0.206 F 
ATOM     88  C   UNL A   1      42.700  21.810  25.407  1.00  0.00     0.059 A 
ATOM     89  C   UNL A   1      42.760  21.381  27.798  1.00  0.00     0.059 A 
ATOM     90  F   UNL A   1      43.290  23.120  29.277  1.00  0.00    -0.206 F 
ATOM     91  C   UNL A   1      42.553  20.942  26.491  1.00  0.00     0.060 A 
BRANCH  91  92
ATOM     92  S   UNL A   1      42.126  19.217  26.167  1.00  0.00     0.124 S 
ATOM     93  O   UNL A   1      42.885  18.951  24.949  1.00  0.00    -0.237 OA
ATOM     94  O   UNL A   1      42.605  18.544  27.371  1.00  0.00    -0.237 OA
ATOM     95  O   UNL A   1      40.675  19.250  26.009  1.00  0.00    -0.744 OA
ENDBRANCH  91  92
ENDBRANCH  59  84
ENDBRANCH  33  34
ENDBRANCH  25  28
ENDBRANCH  23  24
ENDBRANCH  22  23
ENDBRANCH   1  22
TORSDOF 20
ENDMDL
