MODEL 1
REMARK VINA RESULT:     -13.1      0.000      0.000
REMARK SMILES C[C@@H](C(=O)NCCCNC(=O)c1ccc(-c2c3nc(c(-c4c(F)cc(S(=O)(=O)[O-])cc4F)c4ccc([nH]4)c(-c4c(F)cc(S(=O)(=O)[O-])cc4F)c4nc(c(-c5c(F)cc(S(=O)(=O)[O-])cc5F)c5ccc2[nH]5)C=C4)C=C3)cc1)c1ccc2c(c1)[nH]c1ccc(Cl)cc12
REMARK SMILES IDX 8 1 7 2 6 3 5 4 3 5 4 6 2 8 1 9 78 10 79 11 83 12 80 13
REMARK SMILES IDX 82 14 81 15 84 16 91 17 85 18 90 20 86 21 88 22 87 23 89 24
REMARK SMILES IDX 9 25 10 26 11 28 12 29 13 30 77 31 14 32 76 33 15 34 16 35
REMARK SMILES IDX 17 36 70 37 18 38 75 39 69 40 71 41 19 42 74 43 68 44 67 45
REMARK SMILES IDX 20 47 54 48 33 49 53 50 34 51 37 52 52 53 72 54 35 55 36 56
REMARK SMILES IDX 51 58 73 59 38 60 21 61 22 62 31 63 23 64 24 65 30 66 32 67
REMARK SMILES IDX 25 68 26 69 27 70 28 71 29 72 55 73 56 74 65 75 57 76 58 77
REMARK SMILES IDX 64 78 66 79 59 80 60 81 61 82 62 83 63 84 39 85 40 86 49 87
REMARK SMILES IDX 41 88 42 89 48 90 50 91 43 92 44 93 45 94 46 95 47 96
REMARK H PARENT 5 7 84 19 9 27 71 46 37 57
REMARK Flexibility Score: inf
ROOT
ATOM      1  C   UNL A   1      35.064  29.323  27.739  1.00  0.00     0.118 C 
ENDROOT
BRANCH   1   2
ATOM      2  C   UNL A   1      33.660  29.179  27.164  1.00  0.00     0.042 C 
BRANCH   2   3
ATOM      3  C   UNL A   1      33.256  30.306  26.221  1.00  0.00     0.117 C 
BRANCH   3   4
ATOM      4  N   UNL A   1      32.240  29.888  25.271  1.00  0.00    -0.356 N 
ATOM      5  C   UNL A   1      32.314  29.013  24.223  1.00  0.00     0.227 C 
ATOM      6  O   UNL A   1      31.304  28.887  23.527  1.00  0.00    -0.274 OA
ATOM      7  H   UNL A   1      31.357  30.302  25.402  1.00  0.00     0.163 HD
BRANCH   5   8
ATOM      8  C   UNL A   1      33.620  28.253  23.959  1.00  0.00     0.105 C 
ATOM      9  C   UNL A   1      34.185  28.611  22.583  1.00  0.00     0.023 C 
BRANCH   8  10
ATOM     10  C   UNL A   1      33.473  26.743  24.132  1.00  0.00    -0.034 A 
ATOM     11  C   UNL A   1      33.864  26.096  25.313  1.00  0.00     0.005 A 
ATOM     12  C   UNL A   1      32.937  25.987  23.074  1.00  0.00     0.031 A 
ATOM     13  C   UNL A   1      33.704  24.713  25.474  1.00  0.00     0.011 A 
ATOM     14  C   UNL A   1      32.806  24.604  23.246  1.00  0.00     0.047 A 
ATOM     15  C   UNL A   1      33.163  23.950  24.422  1.00  0.00     0.007 A 
ATOM     16  N   UNL A   1      32.346  23.648  22.374  1.00  0.00    -0.355 N 
ATOM     17  C   UNL A   1      32.882  22.558  24.239  1.00  0.00     0.009 A 
ATOM     18  C   UNL A   1      32.410  22.396  22.937  1.00  0.00     0.047 A 
ATOM     19  H   UNL A   1      32.015  23.835  21.466  1.00  0.00     0.167 HD
ATOM     20  C   UNL A   1      33.005  21.416  25.059  1.00  0.00     0.031 A 
ATOM     21  C   UNL A   1      32.089  21.148  22.391  1.00  0.00     0.028 A 
ATOM     22  C   UNL A   1      32.675  20.165  24.530  1.00  0.00     0.041 A 
ATOM     23  C   UNL A   1      32.236  20.028  23.215  1.00  0.00     0.022 A 
ATOM     24  Cl  UNL A   1      32.818  18.763  25.523  1.00  0.00    -0.084 Cl
ENDBRANCH   8  10
ENDBRANCH   5   8
ENDBRANCH   3   4
ENDBRANCH   2   3
ENDBRANCH   1   2
BRANCH   1  25
ATOM     25  N   UNL A   1      35.130  30.284  28.832  1.00  0.00    -0.352 N 
ATOM     26  C   UNL A   1      36.178  30.576  29.677  1.00  0.00     0.251 C 
ATOM     27  H   UNL A   1      34.306  30.799  28.989  1.00  0.00     0.163 HD
ATOM     28  O   UNL A   1      35.994  31.300  30.647  1.00  0.00    -0.269 OA
BRANCH  26  29
ATOM     29  C   UNL A   1      37.514  29.993  29.422  1.00  0.00     0.039 A 
ATOM     30  C   UNL A   1      37.983  29.916  28.107  1.00  0.00     0.014 A 
ATOM     31  C   UNL A   1      38.305  29.534  30.476  1.00  0.00     0.014 A 
ATOM     32  C   UNL A   1      39.278  29.450  27.857  1.00  0.00     0.010 A 
ATOM     33  C   UNL A   1      39.617  29.141  30.235  1.00  0.00     0.010 A 
ATOM     34  C   UNL A   1      40.119  29.098  28.923  1.00  0.00    -0.014 A 
BRANCH  34  35
ATOM     35  C   UNL A   1      41.529  28.678  28.718  1.00  0.00     0.031 A 
ATOM     36  C   UNL A   1      42.617  29.714  28.701  1.00  0.00     0.074 A 
ATOM     37  C   UNL A   1      41.814  27.396  28.420  1.00  0.00     0.049 A 
ATOM     38  N   UNL A   1      43.868  29.598  28.339  1.00  0.00    -0.248 NA
ATOM     39  C   UNL A   1      42.233  31.073  29.115  1.00  0.00     0.031 C 
ATOM     40  C   UNL A   1      40.843  26.303  28.371  1.00  0.00     0.029 A 
ATOM     41  N   UNL A   1      43.001  26.803  28.066  1.00  0.00    -0.354 N 
ATOM     42  C   UNL A   1      44.411  30.873  28.444  1.00  0.00     0.074 A 
ATOM     43  C   UNL A   1      43.342  31.752  28.868  1.00  0.00     0.031 C 
ATOM     44  C   UNL A   1      41.469  25.175  27.997  1.00  0.00     0.029 A 
ATOM     45  C   UNL A   1      42.874  25.473  27.735  1.00  0.00     0.049 A 
ATOM     46  H   UNL A   1      43.860  27.283  28.048  1.00  0.00     0.167 HD
ATOM     47  C   UNL A   1      45.686  31.272  28.217  1.00  0.00     0.037 A 
ATOM     48  C   UNL A   1      43.778  24.600  27.246  1.00  0.00     0.037 A 
ATOM     49  C   UNL A   1      46.746  30.385  27.818  1.00  0.00     0.049 A 
ATOM     50  C   UNL A   1      45.190  25.054  27.011  1.00  0.00     0.074 A 
ATOM     51  C   UNL A   1      48.083  30.678  27.618  1.00  0.00     0.029 A 
ATOM     52  N   UNL A   1      46.589  29.031  27.554  1.00  0.00    -0.354 N 
ATOM     53  N   UNL A   1      45.703  26.254  27.161  1.00  0.00    -0.248 NA
ATOM     54  C   UNL A   1      46.151  24.044  26.546  1.00  0.00     0.031 C 
ATOM     55  C   UNL A   1      48.727  29.510  27.196  1.00  0.00     0.029 A 
ATOM     56  C   UNL A   1      47.801  28.478  27.179  1.00  0.00     0.049 A 
ATOM     57  H   UNL A   1      45.740  28.538  27.623  1.00  0.00     0.167 HD
ATOM     58  C   UNL A   1      47.050  26.136  26.837  1.00  0.00     0.074 A 
ATOM     59  C   UNL A   1      47.274  24.750  26.481  1.00  0.00     0.031 C 
ATOM     60  C   UNL A   1      48.012  27.091  26.843  1.00  0.00     0.037 A 
BRANCH  47  61
ATOM     61  C   UNL A   1      45.987  32.737  28.381  1.00  0.00     0.058 A 
ATOM     62  C   UNL A   1      45.905  33.634  27.303  1.00  0.00     0.135 A 
ATOM     63  C   UNL A   1      46.384  33.247  29.628  1.00  0.00     0.135 A 
ATOM     64  F   UNL A   1      45.542  33.198  26.087  1.00  0.00    -0.206 F 
ATOM     65  C   UNL A   1      46.261  34.971  27.441  1.00  0.00     0.059 A 
ATOM     66  C   UNL A   1      46.714  34.588  29.797  1.00  0.00     0.059 A 
ATOM     67  F   UNL A   1      46.474  32.436  30.694  1.00  0.00    -0.206 F 
ATOM     68  C   UNL A   1      46.677  35.436  28.690  1.00  0.00     0.060 A 
BRANCH  68  69
ATOM     69  S   UNL A   1      47.186  37.161  28.845  1.00  0.00     0.124 S 
ATOM     70  O   UNL A   1      48.184  37.072  29.906  1.00  0.00    -0.237 OA
ATOM     71  O   UNL A   1      47.705  37.458  27.513  1.00  0.00    -0.237 OA
ATOM     72  O   UNL A   1      45.950  37.850  29.201  1.00  0.00    -0.744 OA
ENDBRANCH  68  69
ENDBRANCH  47  61
BRANCH  48  73
ATOM     73  C   UNL A   1      43.355  23.204  26.964  1.00  0.00     0.058 A 
ATOM     74  C   UNL A   1      43.251  22.736  25.647  1.00  0.00     0.135 A 
ATOM     75  C   UNL A   1      43.121  22.290  28.004  1.00  0.00     0.135 A 
ATOM     76  F   UNL A   1      43.457  23.574  24.619  1.00  0.00    -0.206 F 
ATOM     77  C   UNL A   1      42.941  21.408  25.368  1.00  0.00     0.059 A 
ATOM     78  C   UNL A   1      42.830  20.954  27.751  1.00  0.00     0.059 A 
ATOM     79  F   UNL A   1      43.225  22.687  29.282  1.00  0.00    -0.206 F 
ATOM     80  C   UNL A   1      42.744  20.522  26.429  1.00  0.00     0.060 A 
BRANCH  80  81
ATOM     81  S   UNL A   1      42.447  18.779  26.056  1.00  0.00     0.124 S 
ATOM     82  O   UNL A   1      41.044  18.797  25.661  1.00  0.00    -0.237 OA
ATOM     83  O   UNL A   1      43.407  18.528  24.986  1.00  0.00    -0.237 OA
ATOM     84  O   UNL A   1      42.741  18.111  27.320  1.00  0.00    -0.744 OA
ENDBRANCH  80  81
ENDBRANCH  48  73
BRANCH  60  85
ATOM     85  C   UNL A   1      49.416  26.676  26.500  1.00  0.00     0.058 A 
ATOM     86  C   UNL A   1      50.236  26.011  27.423  1.00  0.00     0.135 A 
ATOM     87  C   UNL A   1      49.902  26.850  25.194  1.00  0.00     0.135 A 
ATOM     88  F   UNL A   1      49.821  25.828  28.687  1.00  0.00    -0.206 F 
ATOM     89  C   UNL A   1      51.491  25.530  27.063  1.00  0.00     0.059 A 
ATOM     90  C   UNL A   1      51.144  26.358  24.806  1.00  0.00     0.059 A 
ATOM     91  F   UNL A   1      49.152  27.474  24.272  1.00  0.00    -0.206 F 
ATOM     92  C   UNL A   1      51.932  25.700  25.749  1.00  0.00     0.060 A 
BRANCH  92  93
ATOM     93  S   UNL A   1      53.526  24.998  25.271  1.00  0.00     0.124 S 
ATOM     94  O   UNL A   1      53.724  25.588  23.951  1.00  0.00    -0.237 OA
ATOM     95  O   UNL A   1      54.412  25.488  26.323  1.00  0.00    -0.237 OA
ATOM     96  O   UNL A   1      53.283  23.559  25.286  1.00  0.00    -0.744 OA
ENDBRANCH  92  93
ENDBRANCH  60  85
ENDBRANCH  34  35
ENDBRANCH  26  29
ENDBRANCH   1  25
TORSDOF 14
ENDMDL
MODEL 2
REMARK VINA RESULT:     -12.9      6.835     12.252
REMARK SMILES C[C@@H](C(=O)NCCCNC(=O)c1ccc(-c2c3nc(c(-c4c(F)cc(S(=O)(=O)[O-])cc4F)c4ccc([nH]4)c(-c4c(F)cc(S(=O)(=O)[O-])cc4F)c4nc(c(-c5c(F)cc(S(=O)(=O)[O-])cc5F)c5ccc2[nH]5)C=C4)C=C3)cc1)c1ccc2c(c1)[nH]c1ccc(Cl)cc12
REMARK SMILES IDX 8 1 7 2 6 3 5 4 3 5 4 6 2 8 1 9 78 10 79 11 83 12 80 13
REMARK SMILES IDX 82 14 81 15 84 16 91 17 85 18 90 20 86 21 88 22 87 23 89 24
REMARK SMILES IDX 9 25 10 26 11 28 12 29 13 30 77 31 14 32 76 33 15 34 16 35
REMARK SMILES IDX 17 36 70 37 18 38 75 39 69 40 71 41 19 42 74 43 68 44 67 45
REMARK SMILES IDX 20 47 54 48 33 49 53 50 34 51 37 52 52 53 72 54 35 55 36 56
REMARK SMILES IDX 51 58 73 59 38 60 21 61 22 62 31 63 23 64 24 65 30 66 32 67
REMARK SMILES IDX 25 68 26 69 27 70 28 71 29 72 55 73 56 74 65 75 57 76 58 77
REMARK SMILES IDX 64 78 66 79 59 80 60 81 61 82 62 83 63 84 39 85 40 86 49 87
REMARK SMILES IDX 41 88 42 89 48 90 50 91 43 92 44 93 45 94 46 95 47 96
REMARK H PARENT 5 7 84 19 9 27 71 46 37 57
REMARK Flexibility Score: inf
ROOT
ATOM      1  C   UNL A   1      38.152  24.104  26.372  1.00  0.00     0.118 C 
ENDROOT
BRANCH   1   2
ATOM      2  C   UNL A   1      37.238  23.530  25.296  1.00  0.00     0.042 C 
BRANCH   2   3
ATOM      3  C   UNL A   1      35.777  23.418  25.717  1.00  0.00     0.117 C 
BRANCH   3   4
ATOM      4  N   UNL A   1      34.932  22.928  24.642  1.00  0.00    -0.356 N 
ATOM      5  C   UNL A   1      33.573  22.957  24.502  1.00  0.00     0.227 C 
ATOM      6  O   UNL A   1      33.102  22.406  23.505  1.00  0.00    -0.274 OA
ATOM      7  H   UNL A   1      35.416  22.507  23.896  1.00  0.00     0.163 HD
BRANCH   5   8
ATOM      8  C   UNL A   1      32.713  23.648  25.567  1.00  0.00     0.105 C 
ATOM      9  C   UNL A   1      31.698  22.670  26.161  1.00  0.00     0.023 C 
BRANCH   8  10
ATOM     10  C   UNL A   1      32.039  24.919  25.055  1.00  0.00    -0.034 A 
ATOM     11  C   UNL A   1      32.755  26.109  24.867  1.00  0.00     0.005 A 
ATOM     12  C   UNL A   1      30.662  24.888  24.769  1.00  0.00     0.031 A 
ATOM     13  C   UNL A   1      32.134  27.264  24.374  1.00  0.00     0.011 A 
ATOM     14  C   UNL A   1      30.055  26.058  24.298  1.00  0.00     0.047 A 
ATOM     15  C   UNL A   1      30.757  27.240  24.081  1.00  0.00     0.007 A 
ATOM     16  N   UNL A   1      28.742  26.300  23.976  1.00  0.00    -0.355 N 
ATOM     17  C   UNL A   1      29.822  28.209  23.592  1.00  0.00     0.009 A 
ATOM     18  C   UNL A   1      28.565  27.603  23.576  1.00  0.00     0.047 A 
ATOM     19  H   UNL A   1      28.023  25.630  24.026  1.00  0.00     0.167 HD
ATOM     20  C   UNL A   1      29.928  29.554  23.180  1.00  0.00     0.031 A 
ATOM     21  C   UNL A   1      27.397  28.280  23.206  1.00  0.00     0.028 A 
ATOM     22  C   UNL A   1      28.771  30.237  22.797  1.00  0.00     0.041 A 
ATOM     23  C   UNL A   1      27.523  29.618  22.820  1.00  0.00     0.022 A 
ATOM     24  Cl  UNL A   1      28.888  31.880  22.289  1.00  0.00    -0.084 Cl
ENDBRANCH   8  10
ENDBRANCH   5   8
ENDBRANCH   3   4
ENDBRANCH   2   3
ENDBRANCH   1   2
BRANCH   1  25
ATOM     25  N   UNL A   1      39.557  23.800  26.139  1.00  0.00    -0.352 N 
ATOM     26  C   UNL A   1      40.680  24.486  26.548  1.00  0.00     0.251 C 
ATOM     27  H   UNL A   1      39.730  22.986  25.613  1.00  0.00     0.163 HD
ATOM     28  O   UNL A   1      41.780  24.167  26.114  1.00  0.00    -0.269 OA
BRANCH  26  29
ATOM     29  C   UNL A   1      40.547  25.622  27.488  1.00  0.00     0.039 A 
ATOM     30  C   UNL A   1      39.618  25.537  28.530  1.00  0.00     0.014 A 
ATOM     31  C   UNL A   1      41.343  26.760  27.349  1.00  0.00     0.014 A 
ATOM     32  C   UNL A   1      39.543  26.562  29.478  1.00  0.00     0.010 A 
ATOM     33  C   UNL A   1      41.319  27.743  28.332  1.00  0.00     0.010 A 
ATOM     34  C   UNL A   1      40.422  27.653  29.409  1.00  0.00    -0.014 A 
BRANCH  34  35
ATOM     35  C   UNL A   1      40.440  28.725  30.437  1.00  0.00     0.031 A 
ATOM     36  C   UNL A   1      41.341  28.592  31.633  1.00  0.00     0.074 A 
ATOM     37  C   UNL A   1      39.563  29.745  30.364  1.00  0.00     0.049 A 
ATOM     38  N   UNL A   1      41.366  29.294  32.735  1.00  0.00    -0.248 NA
ATOM     39  C   UNL A   1      42.321  27.495  31.594  1.00  0.00     0.031 C 
ATOM     40  C   UNL A   1      38.614  29.967  29.273  1.00  0.00     0.029 A 
ATOM     41  N   UNL A   1      39.303  30.765  31.246  1.00  0.00    -0.354 N 
ATOM     42  C   UNL A   1      42.335  28.704  33.536  1.00  0.00     0.074 A 
ATOM     43  C   UNL A   1      42.848  27.563  32.806  1.00  0.00     0.031 C 
ATOM     44  C   UNL A   1      37.868  31.048  29.554  1.00  0.00     0.029 A 
ATOM     45  C   UNL A   1      38.252  31.567  30.864  1.00  0.00     0.049 A 
ATOM     46  H   UNL A   1      39.817  30.908  32.073  1.00  0.00     0.167 HD
ATOM     47  C   UNL A   1      42.766  29.083  34.764  1.00  0.00     0.037 A 
ATOM     48  C   UNL A   1      37.645  32.584  31.507  1.00  0.00     0.037 A 
ATOM     49  C   UNL A   1      42.266  30.232  35.471  1.00  0.00     0.049 A 
ATOM     50  C   UNL A   1      38.141  33.000  32.863  1.00  0.00     0.074 A 
ATOM     51  C   UNL A   1      42.674  30.735  36.693  1.00  0.00     0.029 A 
ATOM     52  N   UNL A   1      41.243  31.055  35.021  1.00  0.00    -0.354 N 
ATOM     53  N   UNL A   1      39.093  32.462  33.590  1.00  0.00    -0.248 NA
ATOM     54  C   UNL A   1      37.490  34.161  33.488  1.00  0.00     0.031 C 
ATOM     55  C   UNL A   1      41.873  31.840  37.000  1.00  0.00     0.029 A 
ATOM     56  C   UNL A   1      40.997  32.054  35.947  1.00  0.00     0.049 A 
ATOM     57  H   UNL A   1      40.763  30.944  34.169  1.00  0.00     0.167 HD
ATOM     58  C   UNL A   1      39.175  33.235  34.743  1.00  0.00     0.074 A 
ATOM     59  C   UNL A   1      38.175  34.276  34.620  1.00  0.00     0.031 C 
ATOM     60  C   UNL A   1      40.008  33.095  35.803  1.00  0.00     0.037 A 
BRANCH  47  61
ATOM     61  C   UNL A   1      43.818  28.228  35.418  1.00  0.00     0.058 A 
ATOM     62  C   UNL A   1      43.483  27.196  36.310  1.00  0.00     0.135 A 
ATOM     63  C   UNL A   1      45.181  28.459  35.165  1.00  0.00     0.135 A 
ATOM     64  F   UNL A   1      42.197  26.941  36.596  1.00  0.00    -0.206 F 
ATOM     65  C   UNL A   1      44.461  26.462  36.972  1.00  0.00     0.059 A 
ATOM     66  C   UNL A   1      46.175  27.715  35.793  1.00  0.00     0.059 A 
ATOM     67  F   UNL A   1      45.557  29.428  34.317  1.00  0.00    -0.206 F 
ATOM     68  C   UNL A   1      45.805  26.738  36.716  1.00  0.00     0.060 A 
BRANCH  68  69
ATOM     69  S   UNL A   1      47.066  25.815  37.620  1.00  0.00     0.124 S 
ATOM     70  O   UNL A   1      46.560  25.899  38.987  1.00  0.00    -0.237 OA
ATOM     71  O   UNL A   1      46.996  24.495  37.000  1.00  0.00    -0.237 OA
ATOM     72  O   UNL A   1      48.290  26.564  37.356  1.00  0.00    -0.744 OA
ENDBRANCH  68  69
ENDBRANCH  47  61
BRANCH  48  73
ATOM     73  C   UNL A   1      36.505  33.277  30.852  1.00  0.00     0.058 A 
ATOM     74  C   UNL A   1      35.203  33.159  31.358  1.00  0.00     0.135 A 
ATOM     75  C   UNL A   1      36.707  34.131  29.755  1.00  0.00     0.135 A 
ATOM     76  F   UNL A   1      34.960  32.348  32.399  1.00  0.00    -0.206 F 
ATOM     77  C   UNL A   1      34.141  33.869  30.808  1.00  0.00     0.059 A 
ATOM     78  C   UNL A   1      35.665  34.867  29.202  1.00  0.00     0.059 A 
ATOM     79  F   UNL A   1      37.938  34.290  29.246  1.00  0.00    -0.206 F 
ATOM     80  C   UNL A   1      34.385  34.731  29.737  1.00  0.00     0.060 A 
BRANCH  80  81
ATOM     81  S   UNL A   1      33.019  35.728  29.101  1.00  0.00     0.124 S 
ATOM     82  O   UNL A   1      32.365  34.790  28.198  1.00  0.00    -0.237 OA
ATOM     83  O   UNL A   1      32.287  36.057  30.321  1.00  0.00    -0.237 OA
ATOM     84  O   UNL A   1      33.694  36.855  28.463  1.00  0.00    -0.744 OA
ENDBRANCH  80  81
ENDBRANCH  48  73
BRANCH  60  85
ATOM     85  C   UNL A   1      39.922  34.115  36.904  1.00  0.00     0.058 A 
ATOM     86  C   UNL A   1      40.495  35.389  36.777  1.00  0.00     0.135 A 
ATOM     87  C   UNL A   1      39.162  33.846  38.054  1.00  0.00     0.135 A 
ATOM     88  F   UNL A   1      41.238  35.692  35.702  1.00  0.00    -0.206 F 
ATOM     89  C   UNL A   1      40.315  36.365  37.753  1.00  0.00     0.059 A 
ATOM     90  C   UNL A   1      38.951  34.813  39.032  1.00  0.00     0.059 A 
ATOM     91  F   UNL A   1      38.588  32.644  38.218  1.00  0.00    -0.206 F 
ATOM     92  C   UNL A   1      39.532  36.070  38.872  1.00  0.00     0.060 A 
BRANCH  92  93
ATOM     93  S   UNL A   1      39.235  37.370  40.089  1.00  0.00     0.124 S 
ATOM     94  O   UNL A   1      38.369  38.279  39.346  1.00  0.00    -0.237 OA
ATOM     95  O   UNL A   1      38.598  36.639  41.180  1.00  0.00    -0.237 OA
ATOM     96  O   UNL A   1      40.574  37.876  40.381  1.00  0.00    -0.744 OA
ENDBRANCH  92  93
ENDBRANCH  60  85
ENDBRANCH  34  35
ENDBRANCH  26  29
ENDBRANCH   1  25
TORSDOF 14
ENDMDL
MODEL 3
REMARK VINA RESULT:     -12.9      2.215      2.926
REMARK SMILES C[C@@H](C(=O)NCCCNC(=O)c1ccc(-c2c3nc(c(-c4c(F)cc(S(=O)(=O)[O-])cc4F)c4ccc([nH]4)c(-c4c(F)cc(S(=O)(=O)[O-])cc4F)c4nc(c(-c5c(F)cc(S(=O)(=O)[O-])cc5F)c5ccc2[nH]5)C=C4)C=C3)cc1)c1ccc2c(c1)[nH]c1ccc(Cl)cc12
REMARK SMILES IDX 8 1 7 2 6 3 5 4 3 5 4 6 2 8 1 9 78 10 79 11 83 12 80 13
REMARK SMILES IDX 82 14 81 15 84 16 91 17 85 18 90 20 86 21 88 22 87 23 89 24
REMARK SMILES IDX 9 25 10 26 11 28 12 29 13 30 77 31 14 32 76 33 15 34 16 35
REMARK SMILES IDX 17 36 70 37 18 38 75 39 69 40 71 41 19 42 74 43 68 44 67 45
REMARK SMILES IDX 20 47 54 48 33 49 53 50 34 51 37 52 52 53 72 54 35 55 36 56
REMARK SMILES IDX 51 58 73 59 38 60 21 61 22 62 31 63 23 64 24 65 30 66 32 67
REMARK SMILES IDX 25 68 26 69 27 70 28 71 29 72 55 73 56 74 65 75 57 76 58 77
REMARK SMILES IDX 64 78 66 79 59 80 60 81 61 82 62 83 63 84 39 85 40 86 49 87
REMARK SMILES IDX 41 88 42 89 48 90 50 91 43 92 44 93 45 94 46 95 47 96
REMARK H PARENT 5 7 84 19 9 27 71 46 37 57
REMARK Flexibility Score: inf
ROOT
ATOM      1  C   UNL A   1      33.587  28.541  27.196  1.00  0.00     0.118 C 
ENDROOT
BRANCH   1   2
ATOM      2  C   UNL A   1      33.789  28.418  25.691  1.00  0.00     0.042 C 
BRANCH   2   3
ATOM      3  C   UNL A   1      32.652  29.005  24.862  1.00  0.00     0.117 C 
BRANCH   3   4
ATOM      4  N   UNL A   1      31.478  28.150  24.857  1.00  0.00    -0.356 N 
ATOM      5  C   UNL A   1      31.268  26.938  24.259  1.00  0.00     0.227 C 
ATOM      6  O   UNL A   1      30.140  26.451  24.363  1.00  0.00    -0.274 OA
ATOM      7  H   UNL A   1      30.711  28.499  25.364  1.00  0.00     0.163 HD
BRANCH   5   8
ATOM      8  C   UNL A   1      32.412  26.259  23.496  1.00  0.00     0.105 C 
ATOM      9  C   UNL A   1      32.302  26.538  21.996  1.00  0.00     0.023 C 
BRANCH   8  10
ATOM     10  C   UNL A   1      32.512  24.763  23.785  1.00  0.00    -0.034 A 
ATOM     11  C   UNL A   1      32.946  24.280  25.027  1.00  0.00     0.005 A 
ATOM     12  C   UNL A   1      32.164  23.851  22.772  1.00  0.00     0.031 A 
ATOM     13  C   UNL A   1      33.013  22.905  25.293  1.00  0.00     0.011 A 
ATOM     14  C   UNL A   1      32.258  22.482  23.049  1.00  0.00     0.047 A 
ATOM     15  C   UNL A   1      32.661  21.986  24.286  1.00  0.00     0.007 A 
ATOM     16  N   UNL A   1      32.009  21.401  22.240  1.00  0.00    -0.355 N 
ATOM     17  C   UNL A   1      32.626  20.557  24.205  1.00  0.00     0.009 A 
ATOM     18  C   UNL A   1      32.254  20.222  22.903  1.00  0.00     0.047 A 
ATOM     19  H   UNL A   1      31.697  21.462  21.309  1.00  0.00     0.167 HD
ATOM     20  C   UNL A   1      32.897  19.516  25.118  1.00  0.00     0.031 A 
ATOM     21  C   UNL A   1      32.174  18.901  22.448  1.00  0.00     0.028 A 
ATOM     22  C   UNL A   1      32.809  18.192  24.680  1.00  0.00     0.041 A 
ATOM     23  C   UNL A   1      32.465  17.886  23.365  1.00  0.00     0.022 A 
ATOM     24  Cl  UNL A   1      33.135  16.911  25.786  1.00  0.00    -0.084 Cl
ENDBRANCH   8  10
ENDBRANCH   5   8
ENDBRANCH   3   4
ENDBRANCH   2   3
ENDBRANCH   1   2
BRANCH   1  25
ATOM     25  N   UNL A   1      33.527  29.925  27.646  1.00  0.00    -0.352 N 
ATOM     26  C   UNL A   1      34.478  30.672  28.306  1.00  0.00     0.251 C 
ATOM     27  H   UNL A   1      32.685  30.396  27.449  1.00  0.00     0.163 HD
ATOM     28  O   UNL A   1      34.186  31.774  28.752  1.00  0.00    -0.269 OA
BRANCH  26  29
ATOM     29  C   UNL A   1      35.841  30.126  28.497  1.00  0.00     0.039 A 
ATOM     30  C   UNL A   1      36.724  30.107  27.412  1.00  0.00     0.014 A 
ATOM     31  C   UNL A   1      36.250  29.644  29.741  1.00  0.00     0.014 A 
ATOM     32  C   UNL A   1      38.042  29.678  27.597  1.00  0.00     0.010 A 
ATOM     33  C   UNL A   1      37.579  29.288  29.941  1.00  0.00     0.010 A 
ATOM     34  C   UNL A   1      38.490  29.304  28.872  1.00  0.00    -0.014 A 
BRANCH  34  35
ATOM     35  C   UNL A   1      39.901  28.921  29.138  1.00  0.00     0.031 A 
ATOM     36  C   UNL A   1      40.879  29.965  29.597  1.00  0.00     0.074 A 
ATOM     37  C   UNL A   1      40.328  27.678  28.847  1.00  0.00     0.049 A 
ATOM     38  N   UNL A   1      42.182  29.899  29.688  1.00  0.00    -0.248 NA
ATOM     39  C   UNL A   1      40.315  31.272  29.968  1.00  0.00     0.031 C 
ATOM     40  C   UNL A   1      39.485  26.585  28.362  1.00  0.00     0.029 A 
ATOM     41  N   UNL A   1      41.590  27.136  28.880  1.00  0.00    -0.354 N 
ATOM     42  C   UNL A   1      42.597  31.162  30.090  1.00  0.00     0.074 A 
ATOM     43  C   UNL A   1      41.409  31.984  30.189  1.00  0.00     0.031 C 
ATOM     44  C   UNL A   1      40.252  25.507  28.134  1.00  0.00     0.029 A 
ATOM     45  C   UNL A   1      41.645  25.844  28.409  1.00  0.00     0.049 A 
ATOM     46  H   UNL A   1      42.379  27.624  29.208  1.00  0.00     0.167 HD
ATOM     47  C   UNL A   1      43.852  31.595  30.362  1.00  0.00     0.037 A 
ATOM     48  C   UNL A   1      42.700  25.033  28.193  1.00  0.00     0.037 A 
ATOM     49  C   UNL A   1      45.023  30.764  30.283  1.00  0.00     0.049 A 
ATOM     50  C   UNL A   1      44.085  25.523  28.509  1.00  0.00     0.074 A 
ATOM     51  C   UNL A   1      46.332  31.089  30.591  1.00  0.00     0.029 A 
ATOM     52  N   UNL A   1      45.028  29.441  29.860  1.00  0.00    -0.354 N 
ATOM     53  N   UNL A   1      44.459  26.707  28.936  1.00  0.00    -0.248 NA
ATOM     54  C   UNL A   1      45.191  24.574  28.324  1.00  0.00     0.031 C 
ATOM     55  C   UNL A   1      47.134  29.975  30.320  1.00  0.00     0.029 A 
ATOM     56  C   UNL A   1      46.318  28.941  29.887  1.00  0.00     0.049 A 
ATOM     57  H   UNL A   1      44.231  28.935  29.583  1.00  0.00     0.167 HD
ATOM     58  C   UNL A   1      45.838  26.636  29.097  1.00  0.00     0.074 A 
ATOM     59  C   UNL A   1      46.234  25.295  28.719  1.00  0.00     0.031 C 
ATOM     60  C   UNL A   1      46.695  27.596  29.524  1.00  0.00     0.037 A 
BRANCH  47  61
ATOM     61  C   UNL A   1      44.012  33.040  30.750  1.00  0.00     0.058 A 
ATOM     62  C   UNL A   1      44.195  34.049  29.790  1.00  0.00     0.135 A 
ATOM     63  C   UNL A   1      44.002  33.419  32.103  1.00  0.00     0.135 A 
ATOM     64  F   UNL A   1      44.224  33.741  28.484  1.00  0.00    -0.206 F 
ATOM     65  C   UNL A   1      44.421  35.371  30.158  1.00  0.00     0.059 A 
ATOM     66  C   UNL A   1      44.195  34.741  32.493  1.00  0.00     0.059 A 
ATOM     67  F   UNL A   1      43.825  32.497  33.063  1.00  0.00    -0.206 F 
ATOM     68  C   UNL A   1      44.433  35.705  31.513  1.00  0.00     0.060 A 
BRANCH  68  69
ATOM     69  S   UNL A   1      44.779  37.413  31.981  1.00  0.00     0.124 S 
ATOM     70  O   UNL A   1      43.851  38.141  31.122  1.00  0.00    -0.237 OA
ATOM     71  O   UNL A   1      44.461  37.421  33.406  1.00  0.00    -0.237 OA
ATOM     72  O   UNL A   1      46.194  37.573  31.657  1.00  0.00    -0.744 OA
ENDBRANCH  68  69
ENDBRANCH  47  61
BRANCH  48  73
ATOM     73  C   UNL A   1      42.465  23.667  27.657  1.00  0.00     0.058 A 
ATOM     74  C   UNL A   1      42.451  23.429  26.276  1.00  0.00     0.135 A 
ATOM     75  C   UNL A   1      42.326  22.564  28.514  1.00  0.00     0.135 A 
ATOM     76  F   UNL A   1      42.571  24.452  25.417  1.00  0.00    -0.206 F 
ATOM     77  C   UNL A   1      42.318  22.143  25.760  1.00  0.00     0.059 A 
ATOM     78  C   UNL A   1      42.213  21.267  28.023  1.00  0.00     0.059 A 
ATOM     79  F   UNL A   1      42.351  22.739  29.844  1.00  0.00    -0.206 F 
ATOM     80  C   UNL A   1      42.212  21.067  26.643  1.00  0.00     0.060 A 
BRANCH  80  81
ATOM     81  S   UNL A   1      42.148  19.394  25.965  1.00  0.00     0.124 S 
ATOM     82  O   UNL A   1      40.731  19.257  25.651  1.00  0.00    -0.237 OA
ATOM     83  O   UNL A   1      43.048  19.494  24.820  1.00  0.00    -0.237 OA
ATOM     84  O   UNL A   1      42.636  18.566  27.064  1.00  0.00    -0.744 OA
ENDBRANCH  80  81
ENDBRANCH  48  73
BRANCH  60  85
ATOM     85  C   UNL A   1      48.147  27.231  29.660  1.00  0.00     0.058 A 
ATOM     86  C   UNL A   1      49.077  27.510  28.648  1.00  0.00     0.135 A 
ATOM     87  C   UNL A   1      48.628  26.695  30.866  1.00  0.00     0.135 A 
ATOM     88  F   UNL A   1      48.666  28.014  27.473  1.00  0.00    -0.206 F 
ATOM     89  C   UNL A   1      50.436  27.274  28.826  1.00  0.00     0.059 A 
ATOM     90  C   UNL A   1      49.986  26.471  31.075  1.00  0.00     0.059 A 
ATOM     91  F   UNL A   1      47.779  26.418  31.868  1.00  0.00    -0.206 F 
ATOM     92  C   UNL A   1      50.882  26.763  30.048  1.00  0.00     0.060 A 
BRANCH  92  93
ATOM     93  S   UNL A   1      52.656  26.539  30.299  1.00  0.00     0.124 S 
ATOM     94  O   UNL A   1      53.056  27.859  30.775  1.00  0.00    -0.237 OA
ATOM     95  O   UNL A   1      52.700  25.468  31.290  1.00  0.00    -0.237 OA
ATOM     96  O   UNL A   1      53.145  26.176  28.971  1.00  0.00    -0.744 OA
ENDBRANCH  92  93
ENDBRANCH  60  85
ENDBRANCH  34  35
ENDBRANCH  26  29
ENDBRANCH   1  25
TORSDOF 14
ENDMDL
