MODEL 1
REMARK VINA RESULT:     -12.3      0.000      0.000
REMARK SMILES O=C(NCCCNC(=O)C1(Cc2cccc(Cl)c2)CCCC1)c1ccc(-c2c3nc(c(-c4c(F)cc(S(=O)(=O)[O-])cc4F)c4ccc([nH]4)c(-c4c(F)cc(S(=O)(=O)[O-])cc4F)c4nc(c(-c5c(F)cc(S(=O)(=O)[O-])cc5F)c5ccc2[nH]5)C=C4)C=C3)cc1
REMARK SMILES IDX 4 1 3 2 1 3 2 4 23 6 24 7 88 8 25 9 87 10 26 11 27 12 28 13
REMARK SMILES IDX 81 14 29 15 86 16 80 17 82 18 30 19 85 20 79 21 78 22 31 24
REMARK SMILES IDX 65 25 44 26 64 27 45 28 48 29 63 30 83 31 46 32 47 33 62 35
REMARK SMILES IDX 84 36 49 37 32 38 33 39 42 40 34 41 35 42 41 43 43 44 36 45
REMARK SMILES IDX 37 46 38 47 39 48 40 49 66 50 67 51 76 52 68 53 69 54 75 55
REMARK SMILES IDX 77 56 70 57 71 58 72 59 73 60 74 61 50 62 51 63 60 64 52 65
REMARK SMILES IDX 53 66 59 67 61 68 54 69 55 70 56 71 57 72 58 73 5 74 6 75
REMARK SMILES IDX 7 76 8 77 9 79 10 80 19 81 22 82 20 83 21 84 11 85 12 86
REMARK SMILES IDX 13 87 18 88 14 89 16 90 15 91 17 92
REMARK H PARENT 3 5 82 23 48 34 7 78
REMARK Flexibility Score: inf
ROOT
ATOM      1  C   UNL A   1      38.585  24.250  26.504  1.00  0.00     0.118 C 
ENDROOT
BRANCH   1   2
ATOM      2  N   UNL A   1      39.974  24.136  26.091  1.00  0.00    -0.352 N 
ATOM      3  O   UNL A   1      42.116  24.793  25.863  1.00  0.00    -0.269 OA
ATOM      4  C   UNL A   1      41.056  24.893  26.475  1.00  0.00     0.251 C 
ATOM      5  H   UNL A   1      40.168  23.416  25.449  1.00  0.00     0.163 HD
BRANCH   4   6
ATOM      6  C   UNL A   1      40.932  25.835  27.609  1.00  0.00     0.039 A 
ATOM      7  C   UNL A   1      39.936  25.654  28.571  1.00  0.00     0.014 A 
ATOM      8  C   UNL A   1      41.831  26.900  27.725  1.00  0.00     0.014 A 
ATOM      9  C   UNL A   1      39.742  26.616  29.552  1.00  0.00     0.010 A 
ATOM     10  C   UNL A   1      41.699  27.810  28.781  1.00  0.00     0.010 A 
ATOM     11  C   UNL A   1      40.639  27.689  29.690  1.00  0.00    -0.014 A 
BRANCH  11  12
ATOM     12  C   UNL A   1      40.480  28.594  30.858  1.00  0.00     0.031 A 
ATOM     13  C   UNL A   1      41.379  28.499  32.059  1.00  0.00     0.074 A 
ATOM     14  C   UNL A   1      39.541  29.558  30.784  1.00  0.00     0.049 A 
ATOM     15  N   UNL A   1      41.413  29.268  33.119  1.00  0.00    -0.248 NA
ATOM     16  C   UNL A   1      42.358  27.402  32.086  1.00  0.00     0.031 C 
ATOM     17  C   UNL A   1      38.590  29.720  29.679  1.00  0.00     0.029 A 
ATOM     18  N   UNL A   1      39.248  30.601  31.624  1.00  0.00    -0.354 N 
ATOM     19  C   UNL A   1      42.408  28.750  33.939  1.00  0.00     0.074 A 
ATOM     20  C   UNL A   1      42.933  27.578  33.270  1.00  0.00     0.031 C 
ATOM     21  C   UNL A   1      37.868  30.831  29.875  1.00  0.00     0.029 A 
ATOM     22  C   UNL A   1      38.254  31.423  31.149  1.00  0.00     0.049 A 
ATOM     23  H   UNL A   1      39.705  30.746  32.484  1.00  0.00     0.167 HD
ATOM     24  C   UNL A   1      42.848  29.219  35.132  1.00  0.00     0.037 A 
ATOM     25  C   UNL A   1      37.700  32.527  31.682  1.00  0.00     0.037 A 
ATOM     26  C   UNL A   1      42.319  30.391  35.785  1.00  0.00     0.049 A 
ATOM     27  C   UNL A   1      38.214  33.026  33.001  1.00  0.00     0.074 A 
ATOM     28  C   UNL A   1      42.698  30.948  36.996  1.00  0.00     0.029 A 
ATOM     29  N   UNL A   1      41.300  31.188  35.285  1.00  0.00    -0.354 N 
ATOM     30  N   UNL A   1      39.167  32.528  33.752  1.00  0.00    -0.248 NA
ATOM     31  C   UNL A   1      37.579  34.232  33.546  1.00  0.00     0.031 C 
ATOM     32  C   UNL A   1      41.885  32.061  37.240  1.00  0.00     0.029 A 
ATOM     33  C   UNL A   1      41.030  32.226  36.163  1.00  0.00     0.049 A 
ATOM     34  H   UNL A   1      40.835  31.039  34.428  1.00  0.00     0.167 HD
ATOM     35  C   UNL A   1      39.247  33.361  34.861  1.00  0.00     0.074 A 
ATOM     36  C   UNL A   1      38.272  34.415  34.661  1.00  0.00     0.031 C 
ATOM     37  C   UNL A   1      40.045  33.257  35.952  1.00  0.00     0.037 A 
BRANCH  24  38
ATOM     38  C   UNL A   1      43.960  28.468  35.816  1.00  0.00     0.058 A 
ATOM     39  C   UNL A   1      45.307  28.808  35.614  1.00  0.00     0.135 A 
ATOM     40  C   UNL A   1      43.676  27.439  36.729  1.00  0.00     0.135 A 
ATOM     41  F   UNL A   1      45.639  29.771  34.741  1.00  0.00    -0.206 F 
ATOM     42  C   UNL A   1      46.333  28.145  36.283  1.00  0.00     0.059 A 
ATOM     43  C   UNL A   1      44.685  26.779  37.427  1.00  0.00     0.059 A 
ATOM     44  F   UNL A   1      42.405  27.073  36.960  1.00  0.00    -0.206 F 
ATOM     45  C   UNL A   1      46.012  27.133  37.189  1.00  0.00     0.060 A 
BRANCH  45  46
ATOM     46  S   UNL A   1      47.355  26.298  38.060  1.00  0.00     0.124 S 
ATOM     47  O   UNL A   1      46.621  25.526  39.058  1.00  0.00    -0.237 OA
ATOM     48  O   UNL A   1      47.982  25.521  36.996  1.00  0.00    -0.237 OA
ATOM     49  O   UNL A   1      48.158  27.398  38.585  1.00  0.00    -0.744 OA
ENDBRANCH  45  46
ENDBRANCH  24  38
BRANCH  25  50
ATOM     50  C   UNL A   1      36.586  33.212  30.975  1.00  0.00     0.058 A 
ATOM     51  C   UNL A   1      35.258  33.085  31.404  1.00  0.00     0.135 A 
ATOM     52  C   UNL A   1      36.839  34.030  29.861  1.00  0.00     0.135 A 
ATOM     53  F   UNL A   1      34.966  32.315  32.463  1.00  0.00    -0.206 F 
ATOM     54  C   UNL A   1      34.215  33.725  30.742  1.00  0.00     0.059 A 
ATOM     55  C   UNL A   1      35.818  34.705  29.203  1.00  0.00     0.059 A 
ATOM     56  F   UNL A   1      38.096  34.203  29.425  1.00  0.00    -0.206 F 
ATOM     57  C   UNL A   1      34.507  34.534  29.642  1.00  0.00     0.060 A 
BRANCH  57  58
ATOM     58  S   UNL A   1      33.156  35.393  28.808  1.00  0.00     0.124 S 
ATOM     59  O   UNL A   1      33.885  36.332  27.963  1.00  0.00    -0.237 OA
ATOM     60  O   UNL A   1      32.476  34.304  28.114  1.00  0.00    -0.237 OA
ATOM     61  O   UNL A   1      32.406  35.986  29.912  1.00  0.00    -0.744 OA
ENDBRANCH  57  58
ENDBRANCH  25  50
BRANCH  37  62
ATOM     62  C   UNL A   1      39.893  34.320  37.002  1.00  0.00     0.058 A 
ATOM     63  C   UNL A   1      39.077  34.125  38.129  1.00  0.00     0.135 A 
ATOM     64  C   UNL A   1      40.566  35.545  36.882  1.00  0.00     0.135 A 
ATOM     65  F   UNL A   1      38.406  32.973  38.287  1.00  0.00    -0.206 F 
ATOM     66  C   UNL A   1      38.902  35.125  39.079  1.00  0.00     0.059 A 
ATOM     67  C   UNL A   1      40.426  36.549  37.835  1.00  0.00     0.059 A 
ATOM     68  F   UNL A   1      41.365  35.778  35.829  1.00  0.00    -0.206 F 
ATOM     69  C   UNL A   1      39.577  36.337  38.920  1.00  0.00     0.060 A 
BRANCH  69  70
ATOM     70  S   UNL A   1      39.340  37.629  40.156  1.00  0.00     0.124 S 
ATOM     71  O   UNL A   1      40.648  38.277  40.158  1.00  0.00    -0.237 OA
ATOM     72  O   UNL A   1      38.247  38.412  39.587  1.00  0.00    -0.237 OA
ATOM     73  O   UNL A   1      39.006  36.885  41.366  1.00  0.00    -0.744 OA
ENDBRANCH  69  70
ENDBRANCH  37  62
ENDBRANCH  11  12
ENDBRANCH   4   6
ENDBRANCH   1   2
BRANCH   1  74
ATOM     74  C   UNL A   1      37.674  23.287  25.754  1.00  0.00     0.042 C 
BRANCH  74  75
ATOM     75  C   UNL A   1      36.185  23.530  25.996  1.00  0.00     0.117 C 
BRANCH  75  76
ATOM     76  N   UNL A   1      35.560  22.354  26.573  1.00  0.00    -0.356 N 
ATOM     77  C   UNL A   1      34.311  21.832  26.451  1.00  0.00     0.226 C 
ATOM     78  H   UNL A   1      36.153  21.836  27.164  1.00  0.00     0.163 HD
ATOM     79  O   UNL A   1      33.947  21.171  27.427  1.00  0.00    -0.274 OA
BRANCH  77  80
ATOM     80  C   UNL A   1      33.437  21.993  25.186  1.00  0.00     0.053 C 
ATOM     81  C   UNL A   1      32.672  23.334  25.145  1.00  0.00     0.017 C 
ATOM     82  C   UNL A   1      34.332  22.050  23.935  1.00  0.00     0.017 C 
ATOM     83  C   UNL A   1      32.632  23.786  23.689  1.00  0.00     0.001 C 
ATOM     84  C   UNL A   1      33.599  22.905  22.914  1.00  0.00     0.001 C 
BRANCH  80  85
ATOM     85  C   UNL A   1      32.341  20.872  25.115  1.00  0.00     0.052 C 
BRANCH  85  86
ATOM     86  C   UNL A   1      32.637  19.567  24.403  1.00  0.00    -0.045 A 
ATOM     87  C   UNL A   1      32.198  19.342  23.089  1.00  0.00     0.004 A 
ATOM     88  C   UNL A   1      33.431  18.587  25.015  1.00  0.00     0.024 A 
ATOM     89  C   UNL A   1      32.500  18.156  22.419  1.00  0.00     0.002 A 
ATOM     90  C   UNL A   1      33.749  17.410  24.333  1.00  0.00     0.041 A 
ATOM     91  C   UNL A   1      33.278  17.186  23.041  1.00  0.00     0.020 A 
ATOM     92  Cl  UNL A   1      34.749  16.229  25.090  1.00  0.00    -0.084 Cl
ENDBRANCH  85  86
ENDBRANCH  80  85
ENDBRANCH  77  80
ENDBRANCH  75  76
ENDBRANCH  74  75
ENDBRANCH   1  74
TORSDOF 15
ENDMDL
MODEL 2
REMARK VINA RESULT:     -12.2      1.698      2.761
REMARK SMILES O=C(NCCCNC(=O)C1(Cc2cccc(Cl)c2)CCCC1)c1ccc(-c2c3nc(c(-c4c(F)cc(S(=O)(=O)[O-])cc4F)c4ccc([nH]4)c(-c4c(F)cc(S(=O)(=O)[O-])cc4F)c4nc(c(-c5c(F)cc(S(=O)(=O)[O-])cc5F)c5ccc2[nH]5)C=C4)C=C3)cc1
REMARK SMILES IDX 4 1 3 2 1 3 2 4 23 6 24 7 88 8 25 9 87 10 26 11 27 12 28 13
REMARK SMILES IDX 81 14 29 15 86 16 80 17 82 18 30 19 85 20 79 21 78 22 31 24
REMARK SMILES IDX 65 25 44 26 64 27 45 28 48 29 63 30 83 31 46 32 47 33 62 35
REMARK SMILES IDX 84 36 49 37 32 38 33 39 42 40 34 41 35 42 41 43 43 44 36 45
REMARK SMILES IDX 37 46 38 47 39 48 40 49 66 50 67 51 76 52 68 53 69 54 75 55
REMARK SMILES IDX 77 56 70 57 71 58 72 59 73 60 74 61 50 62 51 63 60 64 52 65
REMARK SMILES IDX 53 66 59 67 61 68 54 69 55 70 56 71 57 72 58 73 5 74 6 75
REMARK SMILES IDX 7 76 8 77 9 79 10 80 19 81 22 82 20 83 21 84 11 85 12 86
REMARK SMILES IDX 13 87 18 88 14 89 16 90 15 91 17 92
REMARK H PARENT 3 5 82 23 48 34 7 78
REMARK Flexibility Score: inf
ROOT
ATOM      1  C   UNL A   1      40.167  23.419  26.969  1.00  0.00     0.118 C 
ENDROOT
BRANCH   1   2
ATOM      2  N   UNL A   1      40.971  24.148  26.002  1.00  0.00    -0.352 N 
ATOM      3  O   UNL A   1      41.842  25.968  25.001  1.00  0.00    -0.269 OA
ATOM      4  C   UNL A   1      41.342  25.472  26.008  1.00  0.00     0.251 C 
ATOM      5  H   UNL A   1      41.296  23.621  25.237  1.00  0.00     0.163 HD
BRANCH   4   6
ATOM      6  C   UNL A   1      41.122  26.294  27.218  1.00  0.00     0.039 A 
ATOM      7  C   UNL A   1      41.967  27.368  27.505  1.00  0.00     0.014 A 
ATOM      8  C   UNL A   1      40.050  26.002  28.067  1.00  0.00     0.014 A 
ATOM      9  C   UNL A   1      41.837  28.046  28.708  1.00  0.00     0.010 A 
ATOM     10  C   UNL A   1      39.855  26.760  29.228  1.00  0.00     0.010 A 
ATOM     11  C   UNL A   1      40.761  27.773  29.571  1.00  0.00    -0.014 A 
BRANCH  11  12
ATOM     12  C   UNL A   1      40.576  28.642  30.762  1.00  0.00     0.031 A 
ATOM     13  C   UNL A   1      41.460  28.525  31.971  1.00  0.00     0.074 A 
ATOM     14  C   UNL A   1      39.625  29.596  30.703  1.00  0.00     0.049 A 
ATOM     15  N   UNL A   1      41.470  29.264  33.053  1.00  0.00    -0.248 NA
ATOM     16  C   UNL A   1      42.453  27.440  31.981  1.00  0.00     0.031 C 
ATOM     17  C   UNL A   1      38.687  29.777  29.590  1.00  0.00     0.029 A 
ATOM     18  N   UNL A   1      39.307  30.611  31.568  1.00  0.00    -0.354 N 
ATOM     19  C   UNL A   1      42.461  28.736  33.871  1.00  0.00     0.074 A 
ATOM     20  C   UNL A   1      43.011  27.590  33.176  1.00  0.00     0.031 C 
ATOM     21  C   UNL A   1      37.947  30.873  29.808  1.00  0.00     0.029 A 
ATOM     22  C   UNL A   1      38.308  31.434  31.104  1.00  0.00     0.049 A 
ATOM     23  H   UNL A   1      39.751  30.737  32.437  1.00  0.00     0.167 HD
ATOM     24  C   UNL A   1      42.880  29.176  35.082  1.00  0.00     0.037 A 
ATOM     25  C   UNL A   1      37.733  32.515  31.660  1.00  0.00     0.037 A 
ATOM     26  C   UNL A   1      42.327  30.322  35.762  1.00  0.00     0.049 A 
ATOM     27  C   UNL A   1      38.224  32.982  33.000  1.00  0.00     0.074 A 
ATOM     28  C   UNL A   1      42.683  30.849  36.992  1.00  0.00     0.029 A 
ATOM     29  N   UNL A   1      41.304  31.120  35.270  1.00  0.00    -0.354 N 
ATOM     30  N   UNL A   1      39.174  32.475  33.749  1.00  0.00    -0.248 NA
ATOM     31  C   UNL A   1      37.566  34.164  33.570  1.00  0.00     0.031 C 
ATOM     32  C   UNL A   1      41.852  31.945  37.258  1.00  0.00     0.029 A 
ATOM     33  C   UNL A   1      41.009  32.129  36.175  1.00  0.00     0.049 A 
ATOM     34  H   UNL A   1      40.852  30.989  34.404  1.00  0.00     0.167 HD
ATOM     35  C   UNL A   1      39.228  33.277  34.881  1.00  0.00     0.074 A 
ATOM     36  C   UNL A   1      38.242  34.324  34.699  1.00  0.00     0.031 C 
ATOM     37  C   UNL A   1      40.014  33.152  35.980  1.00  0.00     0.037 A 
BRANCH  24  38
ATOM     38  C   UNL A   1      43.993  28.420  35.759  1.00  0.00     0.058 A 
ATOM     39  C   UNL A   1      45.341  28.751  35.546  1.00  0.00     0.135 A 
ATOM     40  C   UNL A   1      43.710  27.396  36.678  1.00  0.00     0.135 A 
ATOM     41  F   UNL A   1      45.671  29.711  34.668  1.00  0.00    -0.206 F 
ATOM     42  C   UNL A   1      46.368  28.084  36.208  1.00  0.00     0.059 A 
ATOM     43  C   UNL A   1      44.721  26.731  37.369  1.00  0.00     0.059 A 
ATOM     44  F   UNL A   1      42.439  27.038  36.920  1.00  0.00    -0.206 F 
ATOM     45  C   UNL A   1      46.048  27.077  37.120  1.00  0.00     0.060 A 
BRANCH  45  46
ATOM     46  S   UNL A   1      47.393  26.236  37.983  1.00  0.00     0.124 S 
ATOM     47  O   UNL A   1      48.059  27.353  38.644  1.00  0.00    -0.237 OA
ATOM     48  O   UNL A   1      46.675  25.317  38.861  1.00  0.00    -0.237 OA
ATOM     49  O   UNL A   1      48.148  25.605  36.904  1.00  0.00    -0.744 OA
ENDBRANCH  45  46
ENDBRANCH  24  38
BRANCH  25  50
ATOM     50  C   UNL A   1      36.620  33.205  30.958  1.00  0.00     0.058 A 
ATOM     51  C   UNL A   1      35.290  33.066  31.379  1.00  0.00     0.135 A 
ATOM     52  C   UNL A   1      36.874  34.040  29.858  1.00  0.00     0.135 A 
ATOM     53  F   UNL A   1      34.997  32.280  32.427  1.00  0.00    -0.206 F 
ATOM     54  C   UNL A   1      34.247  33.712  30.722  1.00  0.00     0.059 A 
ATOM     55  C   UNL A   1      35.853  34.720  29.205  1.00  0.00     0.059 A 
ATOM     56  F   UNL A   1      38.132  34.224  29.429  1.00  0.00    -0.206 F 
ATOM     57  C   UNL A   1      34.540  34.538  29.635  1.00  0.00     0.060 A 
BRANCH  57  58
ATOM     58  S   UNL A   1      33.190  35.403  28.808  1.00  0.00     0.124 S 
ATOM     59  O   UNL A   1      33.918  36.372  27.997  1.00  0.00    -0.237 OA
ATOM     60  O   UNL A   1      32.531  34.324  28.078  1.00  0.00    -0.237 OA
ATOM     61  O   UNL A   1      32.420  35.958  29.917  1.00  0.00    -0.744 OA
ENDBRANCH  57  58
ENDBRANCH  25  50
BRANCH  37  62
ATOM     62  C   UNL A   1      39.834  34.183  37.058  1.00  0.00     0.058 A 
ATOM     63  C   UNL A   1      39.039  33.930  38.188  1.00  0.00     0.135 A 
ATOM     64  C   UNL A   1      40.459  35.436  36.960  1.00  0.00     0.135 A 
ATOM     65  F   UNL A   1      38.413  32.750  38.324  1.00  0.00    -0.206 F 
ATOM     66  C   UNL A   1      38.837  34.899  39.164  1.00  0.00     0.059 A 
ATOM     67  C   UNL A   1      40.293  36.410  37.939  1.00  0.00     0.059 A 
ATOM     68  F   UNL A   1      41.237  35.724  35.905  1.00  0.00    -0.206 F 
ATOM     69  C   UNL A   1      39.464  36.139  39.028  1.00  0.00     0.060 A 
BRANCH  69  70
ATOM     70  S   UNL A   1      39.194  37.392  40.299  1.00  0.00     0.124 S 
ATOM     71  O   UNL A   1      38.316  38.328  39.604  1.00  0.00    -0.237 OA
ATOM     72  O   UNL A   1      38.574  36.621  41.373  1.00  0.00    -0.237 OA
ATOM     73  O   UNL A   1      40.538  37.883  40.582  1.00  0.00    -0.744 OA
ENDBRANCH  69  70
ENDBRANCH  37  62
ENDBRANCH  11  12
ENDBRANCH   4   6
ENDBRANCH   1   2
BRANCH   1  74
ATOM     74  C   UNL A   1      38.971  22.727  26.328  1.00  0.00     0.042 C 
BRANCH  74  75
ATOM     75  C   UNL A   1      37.744  23.626  26.181  1.00  0.00     0.117 C 
BRANCH  75  76
ATOM     76  N   UNL A   1      37.330  23.705  24.791  1.00  0.00    -0.356 N 
ATOM     77  C   UNL A   1      36.398  23.021  24.077  1.00  0.00     0.226 C 
ATOM     78  H   UNL A   1      37.817  24.382  24.268  1.00  0.00     0.163 HD
ATOM     79  O   UNL A   1      36.645  22.950  22.870  1.00  0.00    -0.274 OA
BRANCH  77  80
ATOM     80  C   UNL A   1      35.109  22.432  24.695  1.00  0.00     0.053 C 
ATOM     81  C   UNL A   1      33.912  22.437  23.720  1.00  0.00     0.017 C 
ATOM     82  C   UNL A   1      35.314  20.937  25.006  1.00  0.00     0.017 C 
ATOM     83  C   UNL A   1      33.107  21.170  23.987  1.00  0.00     0.001 C 
ATOM     84  C   UNL A   1      33.951  20.277  24.883  1.00  0.00     0.001 C 
BRANCH  80  85
ATOM     85  C   UNL A   1      34.652  23.268  25.941  1.00  0.00     0.052 C 
BRANCH  85  86
ATOM     86  C   UNL A   1      33.696  24.431  25.765  1.00  0.00    -0.045 A 
ATOM     87  C   UNL A   1      32.384  24.372  26.258  1.00  0.00     0.004 A 
ATOM     88  C   UNL A   1      34.131  25.627  25.178  1.00  0.00     0.024 A 
ATOM     89  C   UNL A   1      31.513  25.455  26.129  1.00  0.00     0.002 A 
ATOM     90  C   UNL A   1      33.263  26.717  25.070  1.00  0.00     0.041 A 
ATOM     91  C   UNL A   1      31.952  26.632  25.534  1.00  0.00     0.020 A 
ATOM     92  Cl  UNL A   1      33.824  28.188  24.371  1.00  0.00    -0.084 Cl
ENDBRANCH  85  86
ENDBRANCH  80  85
ENDBRANCH  77  80
ENDBRANCH  75  76
ENDBRANCH  74  75
ENDBRANCH   1  74
TORSDOF 15
ENDMDL
MODEL 3
REMARK VINA RESULT:     -12.2      5.204      9.848
REMARK SMILES O=C(NCCCNC(=O)C1(Cc2cccc(Cl)c2)CCCC1)c1ccc(-c2c3nc(c(-c4c(F)cc(S(=O)(=O)[O-])cc4F)c4ccc([nH]4)c(-c4c(F)cc(S(=O)(=O)[O-])cc4F)c4nc(c(-c5c(F)cc(S(=O)(=O)[O-])cc5F)c5ccc2[nH]5)C=C4)C=C3)cc1
REMARK SMILES IDX 4 1 3 2 1 3 2 4 23 6 24 7 88 8 25 9 87 10 26 11 27 12 28 13
REMARK SMILES IDX 81 14 29 15 86 16 80 17 82 18 30 19 85 20 79 21 78 22 31 24
REMARK SMILES IDX 65 25 44 26 64 27 45 28 48 29 63 30 83 31 46 32 47 33 62 35
REMARK SMILES IDX 84 36 49 37 32 38 33 39 42 40 34 41 35 42 41 43 43 44 36 45
REMARK SMILES IDX 37 46 38 47 39 48 40 49 66 50 67 51 76 52 68 53 69 54 75 55
REMARK SMILES IDX 77 56 70 57 71 58 72 59 73 60 74 61 50 62 51 63 60 64 52 65
REMARK SMILES IDX 53 66 59 67 61 68 54 69 55 70 56 71 57 72 58 73 5 74 6 75
REMARK SMILES IDX 7 76 8 77 9 79 10 80 19 81 22 82 20 83 21 84 11 85 12 86
REMARK SMILES IDX 13 87 18 88 14 89 16 90 15 91 17 92
REMARK H PARENT 3 5 82 23 48 34 7 78
REMARK Flexibility Score: inf
ROOT
ATOM      1  C   UNL A   1      34.084  28.078  26.644  1.00  0.00     0.118 C 
ENDROOT
BRANCH   1   2
ATOM      2  N   UNL A   1      33.789  29.435  27.072  1.00  0.00    -0.352 N 
ATOM      3  O   UNL A   1      34.044  31.312  28.290  1.00  0.00    -0.269 OA
ATOM      4  C   UNL A   1      34.545  30.281  27.850  1.00  0.00     0.251 C 
ATOM      5  H   UNL A   1      32.929  29.800  26.762  1.00  0.00     0.163 HD
BRANCH   4   6
ATOM      6  C   UNL A   1      35.948  29.935  28.166  1.00  0.00     0.039 A 
ATOM      7  C   UNL A   1      36.952  30.122  27.214  1.00  0.00     0.014 A 
ATOM      8  C   UNL A   1      36.270  29.435  29.432  1.00  0.00     0.014 A 
ATOM      9  C   UNL A   1      38.238  29.669  27.469  1.00  0.00     0.010 A 
ATOM     10  C   UNL A   1      37.591  29.080  29.725  1.00  0.00     0.010 A 
ATOM     11  C   UNL A   1      38.583  29.172  28.738  1.00  0.00    -0.014 A 
BRANCH  11  12
ATOM     12  C   UNL A   1      40.011  28.859  29.008  1.00  0.00     0.031 A 
ATOM     13  C   UNL A   1      40.612  27.532  28.638  1.00  0.00     0.074 A 
ATOM     14  C   UNL A   1      40.779  29.831  29.538  1.00  0.00     0.049 A 
ATOM     15  N   UNL A   1      41.858  27.142  28.738  1.00  0.00    -0.248 NA
ATOM     16  C   UNL A   1      39.708  26.507  28.095  1.00  0.00     0.031 C 
ATOM     17  C   UNL A   1      40.290  31.146  29.967  1.00  0.00     0.029 A 
ATOM     18  N   UNL A   1      42.127  29.889  29.777  1.00  0.00    -0.354 N 
ATOM     19  C   UNL A   1      41.890  25.831  28.279  1.00  0.00     0.074 A 
ATOM     20  C   UNL A   1      40.530  25.478  27.929  1.00  0.00     0.031 C 
ATOM     21  C   UNL A   1      41.328  31.901  30.352  1.00  0.00     0.029 A 
ATOM     22  C   UNL A   1      42.546  31.105  30.263  1.00  0.00     0.049 A 
ATOM     23  H   UNL A   1      42.737  29.133  29.615  1.00  0.00     0.167 HD
ATOM     24  C   UNL A   1      42.958  25.006  28.149  1.00  0.00     0.037 A 
ATOM     25  C   UNL A   1      43.772  31.535  30.612  1.00  0.00     0.037 A 
ATOM     26  C   UNL A   1      44.309  25.372  28.498  1.00  0.00     0.049 A 
ATOM     27  C   UNL A   1      44.936  30.601  30.451  1.00  0.00     0.074 A 
ATOM     28  C   UNL A   1      45.461  24.609  28.404  1.00  0.00     0.029 A 
ATOM     29  N   UNL A   1      44.693  26.606  29.005  1.00  0.00    -0.354 N 
ATOM     30  N   UNL A   1      44.943  29.370  29.999  1.00  0.00    -0.248 NA
ATOM     31  C   UNL A   1      46.254  31.111  30.847  1.00  0.00     0.031 C 
ATOM     32  C   UNL A   1      46.533  25.369  28.885  1.00  0.00     0.029 A 
ATOM     33  C   UNL A   1      46.059  26.622  29.237  1.00  0.00     0.049 A 
ATOM     34  H   UNL A   1      44.082  27.361  29.175  1.00  0.00     0.167 HD
ATOM     35  C   UNL A   1      46.268  28.956  30.057  1.00  0.00     0.074 A 
ATOM     36  C   UNL A   1      47.035  30.083  30.551  1.00  0.00     0.031 C 
ATOM     37  C   UNL A   1      46.801  27.750  29.742  1.00  0.00     0.037 A 
BRANCH  24  38
ATOM     38  C   UNL A   1      42.716  23.622  27.608  1.00  0.00     0.058 A 
ATOM     39  C   UNL A   1      42.795  23.348  26.233  1.00  0.00     0.135 A 
ATOM     40  C   UNL A   1      42.465  22.545  28.475  1.00  0.00     0.135 A 
ATOM     41  F   UNL A   1      43.015  24.340  25.357  1.00  0.00    -0.206 F 
ATOM     42  C   UNL A   1      42.619  22.059  25.736  1.00  0.00     0.059 A 
ATOM     43  C   UNL A   1      42.310  21.244  28.002  1.00  0.00     0.059 A 
ATOM     44  F   UNL A   1      42.380  22.750  29.799  1.00  0.00    -0.206 F 
ATOM     45  C   UNL A   1      42.378  21.014  26.629  1.00  0.00     0.060 A 
BRANCH  45  46
ATOM     46  S   UNL A   1      42.171  19.346  25.967  1.00  0.00     0.124 S 
ATOM     47  O   UNL A   1      42.649  18.529  27.079  1.00  0.00    -0.237 OA
ATOM     48  O   UNL A   1      40.735  19.288  25.711  1.00  0.00    -0.237 OA
ATOM     49  O   UNL A   1      43.017  19.343  24.778  1.00  0.00    -0.744 OA
ENDBRANCH  45  46
ENDBRANCH  24  38
BRANCH  25  50
ATOM     50  C   UNL A   1      43.946  32.903  31.166  1.00  0.00     0.058 A 
ATOM     51  C   UNL A   1      44.109  34.017  30.330  1.00  0.00     0.135 A 
ATOM     52  C   UNL A   1      43.932  33.122  32.553  1.00  0.00     0.135 A 
ATOM     53  F   UNL A   1      44.129  33.858  28.997  1.00  0.00    -0.206 F 
ATOM     54  C   UNL A   1      44.273  35.298  30.848  1.00  0.00     0.059 A 
ATOM     55  C   UNL A   1      44.061  34.396  33.093  1.00  0.00     0.059 A 
ATOM     56  F   UNL A   1      43.756  32.093  33.396  1.00  0.00    -0.206 F 
ATOM     57  C   UNL A   1      44.247  35.477  32.232  1.00  0.00     0.060 A 
BRANCH  57  58
ATOM     58  S   UNL A   1      44.423  37.144  32.900  1.00  0.00     0.124 S 
ATOM     59  O   UNL A   1      43.115  37.353  33.511  1.00  0.00    -0.237 OA
ATOM     60  O   UNL A   1      45.543  36.992  33.824  1.00  0.00    -0.237 OA
ATOM     61  O   UNL A   1      44.704  37.950  31.716  1.00  0.00    -0.744 OA
ENDBRANCH  57  58
ENDBRANCH  25  50
BRANCH  37  62
ATOM     62  C   UNL A   1      48.286  27.602  29.920  1.00  0.00     0.058 A 
ATOM     63  C   UNL A   1      49.185  27.958  28.901  1.00  0.00     0.135 A 
ATOM     64  C   UNL A   1      48.815  27.097  31.117  1.00  0.00     0.135 A 
ATOM     65  F   UNL A   1      48.727  28.438  27.734  1.00  0.00    -0.206 F 
ATOM     66  C   UNL A   1      50.555  27.781  29.049  1.00  0.00     0.059 A 
ATOM     67  C   UNL A   1      50.186  26.937  31.297  1.00  0.00     0.059 A 
ATOM     68  F   UNL A   1      47.999  26.751  32.126  1.00  0.00    -0.206 F 
ATOM     69  C   UNL A   1      51.047  27.264  30.249  1.00  0.00     0.060 A 
BRANCH  69  70
ATOM     70  S   UNL A   1      52.827  27.033  30.430  1.00  0.00     0.124 S 
ATOM     71  O   UNL A   1      53.166  26.375  29.172  1.00  0.00    -0.237 OA
ATOM     72  O   UNL A   1      53.308  28.403  30.577  1.00  0.00    -0.237 OA
ATOM     73  O   UNL A   1      52.942  26.203  31.625  1.00  0.00    -0.744 OA
ENDBRANCH  69  70
ENDBRANCH  37  62
ENDBRANCH  11  12
ENDBRANCH   4   6
ENDBRANCH   1   2
BRANCH   1  74
ATOM     74  C   UNL A   1      32.863  27.370  26.071  1.00  0.00     0.042 C 
BRANCH  74  75
ATOM     75  C   UNL A   1      33.020  25.854  25.966  1.00  0.00     0.117 C 
BRANCH  75  76
ATOM     76  N   UNL A   1      33.117  25.443  24.577  1.00  0.00    -0.356 N 
ATOM     77  C   UNL A   1      34.043  24.709  23.905  1.00  0.00     0.226 C 
ATOM     78  H   UNL A   1      32.371  25.756  24.015  1.00  0.00     0.163 HD
ATOM     79  O   UNL A   1      34.116  24.975  22.703  1.00  0.00    -0.274 OA
BRANCH  77  80
ATOM     80  C   UNL A   1      34.892  23.596  24.562  1.00  0.00     0.053 C 
ATOM     81  C   UNL A   1      35.703  22.770  23.539  1.00  0.00     0.017 C 
ATOM     82  C   UNL A   1      35.976  24.224  25.457  1.00  0.00     0.017 C 
ATOM     83  C   UNL A   1      37.034  22.422  24.196  1.00  0.00     0.001 C 
ATOM     84  C   UNL A   1      37.152  23.262  25.457  1.00  0.00     0.001 C 
BRANCH  80  85
ATOM     85  C   UNL A   1      33.981  22.568  25.319  1.00  0.00     0.052 C 
BRANCH  85  86
ATOM     86  C   UNL A   1      33.470  21.334  24.602  1.00  0.00    -0.045 A 
ATOM     87  C   UNL A   1      32.531  21.436  23.564  1.00  0.00     0.004 A 
ATOM     88  C   UNL A   1      33.991  20.069  24.904  1.00  0.00     0.024 A 
ATOM     89  C   UNL A   1      32.087  20.305  22.877  1.00  0.00     0.002 A 
ATOM     90  C   UNL A   1      33.560  18.941  24.201  1.00  0.00     0.041 A 
ATOM     91  C   UNL A   1      32.602  19.053  23.195  1.00  0.00     0.020 A 
ATOM     92  Cl  UNL A   1      34.232  17.399  24.567  1.00  0.00    -0.084 Cl
ENDBRANCH  85  86
ENDBRANCH  80  85
ENDBRANCH  77  80
ENDBRANCH  75  76
ENDBRANCH  74  75
ENDBRANCH   1  74
TORSDOF 15
ENDMDL
