MODEL 1
REMARK VINA RESULT:     -11.7      0.000      0.000
REMARK SMILES Cc1ccc(C#N)cc1S(=O)(=O)Nc1cccc(C(=O)NCCCNC(=O)c2ccc(-c3c4nc(c(-c5c(F)cc(S(=O)(=O)[O-])cc5F)c5ccc([nH]5)c(-c5c(F)cc(S(=O)(=O)[O-])cc5F)c5nc(c(-c6c(F)cc(S(=O)(=O)[O-])cc6F)c6ccc3[nH]6)C=C5)C=C4)cc2)c1
REMARK SMILES IDX 22 1 21 2 19 3 20 4 18 6 14 7 15 8 94 9 16 10 17 11 13 12
REMARK SMILES IDX 10 14 11 15 12 16 9 17 1 18 2 19 3 20 4 21 8 22 5 23 6 24
REMARK SMILES IDX 7 25 23 26 24 27 25 28 26 29 27 31 28 32 29 33 93 34 30 35
REMARK SMILES IDX 92 36 31 37 32 38 33 39 86 40 34 41 91 42 85 43 87 44 35 45
REMARK SMILES IDX 90 46 84 47 83 48 36 50 70 51 49 52 69 53 50 54 53 55 68 56
REMARK SMILES IDX 88 57 51 58 52 59 67 61 89 62 54 63 37 64 38 65 47 66 39 67
REMARK SMILES IDX 40 68 46 69 48 70 41 71 42 72 43 73 44 74 45 75 71 76 72 77
REMARK SMILES IDX 81 78 73 79 74 80 80 81 82 82 75 83 76 84 77 85 78 86 79 87
REMARK SMILES IDX 55 88 56 89 65 90 57 91 58 92 64 93 66 94 59 95 60 96 61 97
REMARK SMILES IDX 62 98 63 99
REMARK H PARENT 21 5 13 13 25 30 87 49 53 60
REMARK Flexibility Score: inf
ROOT
ATOM      1  C   UNL A   1      31.522  29.285  25.385  1.00  0.00     0.118 C 
ENDROOT
BRANCH   1   2
ATOM      2  N   UNL A   1      31.064  29.481  24.023  1.00  0.00    -0.352 N 
ATOM      3  C   UNL A   1      30.681  28.639  23.011  1.00  0.00     0.251 C 
ATOM      4  O   UNL A   1      30.231  29.190  22.001  1.00  0.00    -0.269 OA
ATOM      5  H   UNL A   1      31.017  30.431  23.768  1.00  0.00     0.163 HD
BRANCH   3   6
ATOM      6  C   UNL A   1      30.838  27.145  22.997  1.00  0.00     0.041 A 
ATOM      7  C   UNL A   1      30.797  24.941  24.027  1.00  0.00     0.050 A 
ATOM      8  C   UNL A   1      31.692  24.453  23.084  1.00  0.00     0.027 A 
ATOM      9  C   UNL A   1      30.293  26.243  23.920  1.00  0.00     0.040 A 
ATOM     10  C   UNL A   1      32.148  25.292  22.071  1.00  0.00     0.003 A 
ATOM     11  C   UNL A   1      31.753  26.634  22.052  1.00  0.00     0.014 A 
BRANCH   7  12
ATOM     12  N   UNL A   1      30.473  24.101  25.138  1.00  0.00    -0.280 N 
ATOM     13  H   UNL A   1      29.645  23.566  25.117  1.00  0.00     0.180 HD
BRANCH  12  14
ATOM     14  S   UNL A   1      31.505  24.012  26.507  1.00  0.00     0.262 S 
ATOM     15  O   UNL A   1      30.709  23.276  27.472  1.00  0.00    -0.201 OA
ATOM     16  O   UNL A   1      31.930  25.361  26.807  1.00  0.00    -0.201 OA
BRANCH  14  17
ATOM     17  C   UNL A   1      32.967  23.013  26.178  1.00  0.00     0.092 A 
ATOM     18  C   UNL A   1      31.721  21.056  25.049  1.00  0.00     0.046 C 
ATOM     19  C   UNL A   1      32.933  21.727  25.610  1.00  0.00    -0.030 A 
ATOM     20  C   UNL A   1      34.133  20.998  25.488  1.00  0.00     0.006 A 
ATOM     21  C   UNL A   1      35.365  21.606  25.697  1.00  0.00     0.020 A 
ATOM     22  C   UNL A   1      34.224  23.642  26.326  1.00  0.00     0.042 A 
ATOM     23  C   UNL A   1      35.414  22.954  26.039  1.00  0.00     0.053 A 
BRANCH  23  24
ATOM     24  C   UNL A   1      36.690  23.617  26.039  1.00  0.00     0.099 C 
ATOM     25  N   UNL A   1      37.685  24.205  26.052  1.00  0.00    -0.192 NA
ENDBRANCH  23  24
ENDBRANCH  14  17
ENDBRANCH  12  14
ENDBRANCH   7  12
ENDBRANCH   3   6
ENDBRANCH   1   2
BRANCH   1  26
ATOM     26  C   UNL A   1      32.888  28.633  25.496  1.00  0.00     0.042 C 
BRANCH  26  27
ATOM     27  C   UNL A   1      33.497  28.662  26.882  1.00  0.00     0.118 C 
BRANCH  27  28
ATOM     28  N   UNL A   1      33.503  29.991  27.487  1.00  0.00    -0.352 N 
ATOM     29  C   UNL A   1      34.483  30.656  28.191  1.00  0.00     0.251 C 
ATOM     30  H   UNL A   1      32.667  30.497  27.373  1.00  0.00     0.163 HD
ATOM     31  O   UNL A   1      34.217  31.718  28.748  1.00  0.00    -0.269 OA
BRANCH  29  32
ATOM     32  C   UNL A   1      35.836  30.069  28.317  1.00  0.00     0.039 A 
ATOM     33  C   UNL A   1      36.259  29.529  29.527  1.00  0.00     0.014 A 
ATOM     34  C   UNL A   1      36.712  30.099  27.228  1.00  0.00     0.014 A 
ATOM     35  C   UNL A   1      37.608  29.285  29.734  1.00  0.00     0.010 A 
ATOM     36  C   UNL A   1      38.042  29.698  27.397  1.00  0.00     0.010 A 
ATOM     37  C   UNL A   1      38.519  29.352  28.670  1.00  0.00    -0.014 A 
BRANCH  37  38
ATOM     38  C   UNL A   1      39.952  29.036  28.920  1.00  0.00     0.031 A 
ATOM     39  C   UNL A   1      40.857  30.025  29.606  1.00  0.00     0.074 A 
ATOM     40  C   UNL A   1      40.419  27.818  28.577  1.00  0.00     0.049 A 
ATOM     41  N   UNL A   1      42.130  29.913  29.893  1.00  0.00    -0.248 NA
ATOM     42  C   UNL A   1      40.266  31.307  30.022  1.00  0.00     0.031 C 
ATOM     43  C   UNL A   1      39.629  26.763  27.934  1.00  0.00     0.029 A 
ATOM     44  N   UNL A   1      41.653  27.246  28.744  1.00  0.00    -0.354 N 
ATOM     45  C   UNL A   1      42.492  31.106  30.510  1.00  0.00     0.074 A 
ATOM     46  C   UNL A   1      41.317  31.949  30.513  1.00  0.00     0.031 C 
ATOM     47  C   UNL A   1      40.374  25.655  27.828  1.00  0.00     0.029 A 
ATOM     48  C   UNL A   1      41.722  25.946  28.300  1.00  0.00     0.049 A 
ATOM     49  H   UNL A   1      42.418  27.721  29.144  1.00  0.00     0.167 HD
ATOM     50  C   UNL A   1      43.689  31.457  31.041  1.00  0.00     0.037 A 
ATOM     51  C   UNL A   1      42.756  25.087  28.251  1.00  0.00     0.037 A 
ATOM     52  C   UNL A   1      44.853  30.606  31.034  1.00  0.00     0.049 A 
ATOM     53  C   UNL A   1      44.095  25.536  28.759  1.00  0.00     0.074 A 
ATOM     54  C   UNL A   1      46.115  30.872  31.536  1.00  0.00     0.029 A 
ATOM     55  N   UNL A   1      44.901  29.324  30.501  1.00  0.00    -0.354 N 
ATOM     56  N   UNL A   1      44.422  26.673  29.324  1.00  0.00    -0.248 NA
ATOM     57  C   UNL A   1      45.208  24.589  28.615  1.00  0.00     0.031 C 
ATOM     58  C   UNL A   1      46.939  29.779  31.254  1.00  0.00     0.029 A 
ATOM     59  C   UNL A   1      46.175  28.799  30.640  1.00  0.00     0.049 A 
ATOM     60  H   UNL A   1      44.140  28.857  30.086  1.00  0.00     0.167 HD
ATOM     61  C   UNL A   1      45.774  26.569  29.629  1.00  0.00     0.074 A 
ATOM     62  C   UNL A   1      46.197  25.252  29.199  1.00  0.00     0.031 C 
ATOM     63  C   UNL A   1      46.587  27.483  30.214  1.00  0.00     0.037 A 
BRANCH  50  64
ATOM     64  C   UNL A   1      43.811  32.824  31.666  1.00  0.00     0.058 A 
ATOM     65  C   UNL A   1      43.588  33.032  33.037  1.00  0.00     0.135 A 
ATOM     66  C   UNL A   1      44.208  33.932  30.897  1.00  0.00     0.135 A 
ATOM     67  F   UNL A   1      43.195  32.015  33.821  1.00  0.00    -0.206 F 
ATOM     68  C   UNL A   1      43.723  34.290  33.616  1.00  0.00     0.059 A 
ATOM     69  C   UNL A   1      44.384  35.192  31.461  1.00  0.00     0.059 A 
ATOM     70  F   UNL A   1      44.439  33.794  29.581  1.00  0.00    -0.206 F 
ATOM     71  C   UNL A   1      44.125  35.365  32.819  1.00  0.00     0.060 A 
BRANCH  71  72
ATOM     72  S   UNL A   1      44.292  36.989  33.590  1.00  0.00     0.124 S 
ATOM     73  O   UNL A   1      42.973  37.162  34.193  1.00  0.00    -0.237 OA
ATOM     74  O   UNL A   1      45.393  36.776  34.522  1.00  0.00    -0.237 OA
ATOM     75  O   UNL A   1      44.585  37.873  32.465  1.00  0.00    -0.744 OA
ENDBRANCH  71  72
ENDBRANCH  50  64
BRANCH  51  76
ATOM     76  C   UNL A   1      42.549  23.717  27.708  1.00  0.00     0.058 A 
ATOM     77  C   UNL A   1      42.608  23.477  26.328  1.00  0.00     0.135 A 
ATOM     78  C   UNL A   1      42.340  22.616  28.556  1.00  0.00     0.135 A 
ATOM     79  F   UNL A   1      42.799  24.497  25.478  1.00  0.00    -0.206 F 
ATOM     80  C   UNL A   1      42.463  22.197  25.805  1.00  0.00     0.059 A 
ATOM     81  C   UNL A   1      42.227  21.322  28.059  1.00  0.00     0.059 A 
ATOM     82  F   UNL A   1      42.293  22.790  29.886  1.00  0.00    -0.206 F 
ATOM     83  C   UNL A   1      42.284  21.124  26.681  1.00  0.00     0.060 A 
BRANCH  83  84
ATOM     84  S   UNL A   1      42.162  19.462  25.989  1.00  0.00     0.124 S 
ATOM     85  O   UNL A   1      42.674  18.648  27.085  1.00  0.00    -0.237 OA
ATOM     86  O   UNL A   1      40.731  19.351  25.724  1.00  0.00    -0.237 OA
ATOM     87  O   UNL A   1      43.010  19.527  24.803  1.00  0.00    -0.744 OA
ENDBRANCH  83  84
ENDBRANCH  51  76
BRANCH  63  88
ATOM     88  C   UNL A   1      48.017  27.086  30.459  1.00  0.00     0.058 A 
ATOM     89  C   UNL A   1      49.014  27.270  29.489  1.00  0.00     0.135 A 
ATOM     90  C   UNL A   1      48.407  26.575  31.709  1.00  0.00     0.135 A 
ATOM     91  F   UNL A   1      48.697  27.747  28.275  1.00  0.00    -0.206 F 
ATOM     92  C   UNL A   1      50.343  26.944  29.741  1.00  0.00     0.059 A 
ATOM     93  C   UNL A   1      49.735  26.276  31.995  1.00  0.00     0.059 A 
ATOM     94  F   UNL A   1      47.496  26.387  32.677  1.00  0.00    -0.206 F 
ATOM     95  C   UNL A   1      50.695  26.454  31.000  1.00  0.00     0.060 A 
BRANCH  95  96
ATOM     96  S   UNL A   1      52.429  26.072  31.320  1.00  0.00     0.124 S 
ATOM     97  O   UNL A   1      52.806  27.147  32.231  1.00  0.00    -0.237 OA
ATOM     98  O   UNL A   1      52.347  24.739  31.908  1.00  0.00    -0.237 OA
ATOM     99  O   UNL A   1      53.042  26.131  29.995  1.00  0.00    -0.744 OA
ENDBRANCH  95  96
ENDBRANCH  63  88
ENDBRANCH  37  38
ENDBRANCH  29  32
ENDBRANCH  27  28
ENDBRANCH  26  27
ENDBRANCH   1  26
TORSDOF 17
ENDMDL
MODEL 2
REMARK VINA RESULT:     -11.6      2.918      9.433
REMARK SMILES Cc1ccc(C#N)cc1S(=O)(=O)Nc1cccc(C(=O)NCCCNC(=O)c2ccc(-c3c4nc(c(-c5c(F)cc(S(=O)(=O)[O-])cc5F)c5ccc([nH]5)c(-c5c(F)cc(S(=O)(=O)[O-])cc5F)c5nc(c(-c6c(F)cc(S(=O)(=O)[O-])cc6F)c6ccc3[nH]6)C=C5)C=C4)cc2)c1
REMARK SMILES IDX 22 1 21 2 19 3 20 4 18 6 14 7 15 8 94 9 16 10 17 11 13 12
REMARK SMILES IDX 10 14 11 15 12 16 9 17 1 18 2 19 3 20 4 21 8 22 5 23 6 24
REMARK SMILES IDX 7 25 23 26 24 27 25 28 26 29 27 31 28 32 29 33 93 34 30 35
REMARK SMILES IDX 92 36 31 37 32 38 33 39 86 40 34 41 91 42 85 43 87 44 35 45
REMARK SMILES IDX 90 46 84 47 83 48 36 50 70 51 49 52 69 53 50 54 53 55 68 56
REMARK SMILES IDX 88 57 51 58 52 59 67 61 89 62 54 63 37 64 38 65 47 66 39 67
REMARK SMILES IDX 40 68 46 69 48 70 41 71 42 72 43 73 44 74 45 75 71 76 72 77
REMARK SMILES IDX 81 78 73 79 74 80 80 81 82 82 75 83 76 84 77 85 78 86 79 87
REMARK SMILES IDX 55 88 56 89 65 90 57 91 58 92 64 93 66 94 59 95 60 96 61 97
REMARK SMILES IDX 62 98 63 99
REMARK H PARENT 21 5 13 13 25 30 87 49 53 60
REMARK Flexibility Score: inf
ROOT
ATOM      1  C   UNL A   1      35.620  21.834  26.122  1.00  0.00     0.118 C 
ENDROOT
BRANCH   1   2
ATOM      2  N   UNL A   1      35.039  20.650  25.518  1.00  0.00    -0.352 N 
ATOM      3  C   UNL A   1      33.945  20.419  24.724  1.00  0.00     0.251 C 
ATOM      4  O   UNL A   1      33.830  19.265  24.298  1.00  0.00    -0.269 OA
ATOM      5  H   UNL A   1      35.541  19.829  25.723  1.00  0.00     0.163 HD
BRANCH   3   6
ATOM      6  C   UNL A   1      32.859  21.406  24.407  1.00  0.00     0.041 A 
ATOM      7  C   UNL A   1      31.886  23.241  23.139  1.00  0.00     0.050 A 
ATOM      8  C   UNL A   1      31.078  23.591  24.213  1.00  0.00     0.027 A 
ATOM      9  C   UNL A   1      32.689  22.096  23.199  1.00  0.00     0.040 A 
ATOM     10  C   UNL A   1      31.126  22.840  25.383  1.00  0.00     0.003 A 
ATOM     11  C   UNL A   1      32.036  21.781  25.490  1.00  0.00     0.014 A 
BRANCH   7  12
ATOM     12  N   UNL A   1      31.924  24.125  22.015  1.00  0.00    -0.280 N 
ATOM     13  H   UNL A   1      31.333  23.957  21.245  1.00  0.00     0.180 HD
BRANCH  12  14
ATOM     14  S   UNL A   1      32.987  25.474  21.989  1.00  0.00     0.262 S 
ATOM     15  O   UNL A   1      33.153  25.735  20.571  1.00  0.00    -0.201 OA
ATOM     16  O   UNL A   1      34.136  25.125  22.794  1.00  0.00    -0.201 OA
BRANCH  14  17
ATOM     17  C   UNL A   1      32.220  26.943  22.695  1.00  0.00     0.092 A 
ATOM     18  C   UNL A   1      34.341  28.412  22.657  1.00  0.00     0.046 C 
ATOM     19  C   UNL A   1      32.915  28.125  23.004  1.00  0.00    -0.030 A 
ATOM     20  C   UNL A   1      32.229  29.178  23.643  1.00  0.00     0.006 A 
ATOM     21  C   UNL A   1      30.845  29.164  23.762  1.00  0.00     0.020 A 
ATOM     22  C   UNL A   1      30.808  26.965  22.760  1.00  0.00     0.042 A 
ATOM     23  C   UNL A   1      30.125  28.091  23.246  1.00  0.00     0.053 A 
BRANCH  23  24
ATOM     24  C   UNL A   1      28.692  28.192  23.182  1.00  0.00     0.099 C 
ATOM     25  N   UNL A   1      27.539  28.284  23.194  1.00  0.00    -0.192 NA
ENDBRANCH  23  24
ENDBRANCH  14  17
ENDBRANCH  12  14
ENDBRANCH   7  12
ENDBRANCH   3   6
ENDBRANCH   1   2
BRANCH   1  26
ATOM     26  C   UNL A   1      35.643  23.049  25.213  1.00  0.00     0.042 C 
BRANCH  26  27
ATOM     27  C   UNL A   1      37.013  23.663  25.006  1.00  0.00     0.118 C 
BRANCH  27  28
ATOM     28  N   UNL A   1      38.110  22.775  25.377  1.00  0.00    -0.352 N 
ATOM     29  C   UNL A   1      39.232  23.002  26.145  1.00  0.00     0.251 C 
ATOM     30  H   UNL A   1      38.037  21.862  25.019  1.00  0.00     0.163 HD
ATOM     31  O   UNL A   1      40.112  22.147  26.201  1.00  0.00    -0.269 OA
BRANCH  29  32
ATOM     32  C   UNL A   1      39.397  24.288  26.859  1.00  0.00     0.039 A 
ATOM     33  C   UNL A   1      40.084  25.340  26.263  1.00  0.00     0.014 A 
ATOM     34  C   UNL A   1      38.901  24.432  28.157  1.00  0.00     0.014 A 
ATOM     35  C   UNL A   1      40.516  26.404  27.039  1.00  0.00     0.010 A 
ATOM     36  C   UNL A   1      39.203  25.585  28.891  1.00  0.00     0.010 A 
ATOM     37  C   UNL A   1      40.071  26.552  28.361  1.00  0.00    -0.014 A 
BRANCH  37  38
ATOM     38  C   UNL A   1      40.516  27.733  29.150  1.00  0.00     0.031 A 
ATOM     39  C   UNL A   1      41.910  27.808  29.716  1.00  0.00     0.074 A 
ATOM     40  C   UNL A   1      39.670  28.772  29.299  1.00  0.00     0.049 A 
ATOM     41  N   UNL A   1      42.456  28.759  30.432  1.00  0.00    -0.248 NA
ATOM     42  C   UNL A   1      42.808  26.672  29.453  1.00  0.00     0.031 C 
ATOM     43  C   UNL A   1      38.304  28.830  28.768  1.00  0.00     0.029 A 
ATOM     44  N   UNL A   1      39.834  29.988  29.909  1.00  0.00    -0.354 N 
ATOM     45  C   UNL A   1      43.751  28.335  30.712  1.00  0.00     0.074 A 
ATOM     46  C   UNL A   1      43.894  27.018  30.130  1.00  0.00     0.031 C 
ATOM     47  C   UNL A   1      37.785  30.039  29.013  1.00  0.00     0.029 A 
ATOM     48  C   UNL A   1      38.737  30.810  29.803  1.00  0.00     0.049 A 
ATOM     49  H   UNL A   1      40.660  30.249  30.379  1.00  0.00     0.167 HD
ATOM     50  C   UNL A   1      44.733  28.991  31.377  1.00  0.00     0.037 A 
ATOM     51  C   UNL A   1      38.504  32.037  30.304  1.00  0.00     0.037 A 
ATOM     52  C   UNL A   1      44.578  30.305  31.950  1.00  0.00     0.049 A 
ATOM     53  C   UNL A   1      39.576  32.701  31.118  1.00  0.00     0.074 A 
ATOM     54  C   UNL A   1      45.509  31.052  32.651  1.00  0.00     0.029 A 
ATOM     55  N   UNL A   1      43.421  31.070  31.888  1.00  0.00    -0.354 N 
ATOM     56  N   UNL A   1      40.788  32.277  31.386  1.00  0.00    -0.248 NA
ATOM     57  C   UNL A   1      39.247  34.006  31.706  1.00  0.00     0.031 C 
ATOM     58  C   UNL A   1      44.898  32.239  33.065  1.00  0.00     0.029 A 
ATOM     59  C   UNL A   1      43.607  32.267  32.560  1.00  0.00     0.049 A 
ATOM     60  H   UNL A   1      42.590  30.801  31.433  1.00  0.00     0.167 HD
ATOM     61  C   UNL A   1      41.378  33.277  32.150  1.00  0.00     0.074 A 
ATOM     62  C   UNL A   1      40.393  34.331  32.289  1.00  0.00     0.031 C 
ATOM     63  C   UNL A   1      42.622  33.315  32.687  1.00  0.00     0.037 A 
BRANCH  50  64
ATOM     64  C   UNL A   1      46.064  28.299  31.534  1.00  0.00     0.058 A 
ATOM     65  C   UNL A   1      46.331  27.449  32.620  1.00  0.00     0.135 A 
ATOM     66  C   UNL A   1      47.068  28.443  30.562  1.00  0.00     0.135 A 
ATOM     67  F   UNL A   1      45.415  27.279  33.588  1.00  0.00    -0.206 F 
ATOM     68  C   UNL A   1      47.551  26.793  32.751  1.00  0.00     0.059 A 
ATOM     69  C   UNL A   1      48.283  27.770  30.654  1.00  0.00     0.059 A 
ATOM     70  F   UNL A   1      46.870  29.241  29.499  1.00  0.00    -0.206 F 
ATOM     71  C   UNL A   1      48.521  26.958  31.760  1.00  0.00     0.060 A 
BRANCH  71  72
ATOM     72  S   UNL A   1      50.098  26.100  31.951  1.00  0.00     0.124 S 
ATOM     73  O   UNL A   1      50.118  25.843  33.388  1.00  0.00    -0.237 OA
ATOM     74  O   UNL A   1      49.918  24.930  31.100  1.00  0.00    -0.237 OA
ATOM     75  O   UNL A   1      51.077  27.075  31.478  1.00  0.00    -0.744 OA
ENDBRANCH  71  72
ENDBRANCH  50  64
BRANCH  51  76
ATOM     76  C   UNL A   1      37.204  32.707  30.035  1.00  0.00     0.058 A 
ATOM     77  C   UNL A   1      36.114  32.530  30.898  1.00  0.00     0.135 A 
ATOM     78  C   UNL A   1      37.039  33.576  28.942  1.00  0.00     0.135 A 
ATOM     79  F   UNL A   1      36.220  31.707  31.952  1.00  0.00    -0.206 F 
ATOM     80  C   UNL A   1      34.905  33.185  30.688  1.00  0.00     0.059 A 
ATOM     81  C   UNL A   1      35.852  34.268  28.731  1.00  0.00     0.059 A 
ATOM     82  F   UNL A   1      38.057  33.793  28.095  1.00  0.00    -0.206 F 
ATOM     83  C   UNL A   1      34.788  34.061  29.607  1.00  0.00     0.060 A 
BRANCH  83  84
ATOM     84  S   UNL A   1      33.233  34.950  29.387  1.00  0.00     0.124 S 
ATOM     85  O   UNL A   1      32.655  34.867  30.723  1.00  0.00    -0.237 OA
ATOM     86  O   UNL A   1      33.697  36.270  28.973  1.00  0.00    -0.237 OA
ATOM     87  O   UNL A   1      32.548  34.181  28.354  1.00  0.00    -0.744 OA
ENDBRANCH  83  84
ENDBRANCH  51  76
BRANCH  63  88
ATOM     88  C   UNL A   1      43.014  34.551  33.450  1.00  0.00     0.058 A 
ATOM     89  C   UNL A   1      42.940  34.613  34.850  1.00  0.00     0.135 A 
ATOM     90  C   UNL A   1      43.534  35.668  32.773  1.00  0.00     0.135 A 
ATOM     91  F   UNL A   1      42.443  33.578  35.548  1.00  0.00    -0.206 F 
ATOM     92  C   UNL A   1      43.348  35.743  35.551  1.00  0.00     0.059 A 
ATOM     93  C   UNL A   1      43.981  36.794  33.455  1.00  0.00     0.059 A 
ATOM     94  F   UNL A   1      43.635  35.660  31.434  1.00  0.00    -0.206 F 
ATOM     95  C   UNL A   1      43.874  36.826  34.845  1.00  0.00     0.060 A 
BRANCH  95  96
ATOM     96  S   UNL A   1      44.433  38.268  35.774  1.00  0.00     0.124 S 
ATOM     97  O   UNL A   1      45.879  38.070  35.788  1.00  0.00    -0.237 OA
ATOM     98  O   UNL A   1      43.951  39.372  34.950  1.00  0.00    -0.237 OA
ATOM     99  O   UNL A   1      43.769  38.121  37.066  1.00  0.00    -0.744 OA
ENDBRANCH  95  96
ENDBRANCH  63  88
ENDBRANCH  37  38
ENDBRANCH  29  32
ENDBRANCH  27  28
ENDBRANCH  26  27
ENDBRANCH   1  26
TORSDOF 17
ENDMDL
MODEL 3
REMARK VINA RESULT:     -11.5      3.111      8.615
REMARK SMILES Cc1ccc(C#N)cc1S(=O)(=O)Nc1cccc(C(=O)NCCCNC(=O)c2ccc(-c3c4nc(c(-c5c(F)cc(S(=O)(=O)[O-])cc5F)c5ccc([nH]5)c(-c5c(F)cc(S(=O)(=O)[O-])cc5F)c5nc(c(-c6c(F)cc(S(=O)(=O)[O-])cc6F)c6ccc3[nH]6)C=C5)C=C4)cc2)c1
REMARK SMILES IDX 22 1 21 2 19 3 20 4 18 6 14 7 15 8 94 9 16 10 17 11 13 12
REMARK SMILES IDX 10 14 11 15 12 16 9 17 1 18 2 19 3 20 4 21 8 22 5 23 6 24
REMARK SMILES IDX 7 25 23 26 24 27 25 28 26 29 27 31 28 32 29 33 93 34 30 35
REMARK SMILES IDX 92 36 31 37 32 38 33 39 86 40 34 41 91 42 85 43 87 44 35 45
REMARK SMILES IDX 90 46 84 47 83 48 36 50 70 51 49 52 69 53 50 54 53 55 68 56
REMARK SMILES IDX 88 57 51 58 52 59 67 61 89 62 54 63 37 64 38 65 47 66 39 67
REMARK SMILES IDX 40 68 46 69 48 70 41 71 42 72 43 73 44 74 45 75 71 76 72 77
REMARK SMILES IDX 81 78 73 79 74 80 80 81 82 82 75 83 76 84 77 85 78 86 79 87
REMARK SMILES IDX 55 88 56 89 65 90 57 91 58 92 64 93 66 94 59 95 60 96 61 97
REMARK SMILES IDX 62 98 63 99
REMARK H PARENT 21 5 13 13 25 30 87 49 53 60
REMARK Flexibility Score: inf
ROOT
ATOM      1  C   UNL A   1      35.606  21.784  26.077  1.00  0.00     0.118 C 
ENDROOT
BRANCH   1   2
ATOM      2  N   UNL A   1      34.987  20.611  25.489  1.00  0.00    -0.352 N 
ATOM      3  C   UNL A   1      33.871  20.401  24.722  1.00  0.00     0.251 C 
ATOM      4  O   UNL A   1      33.723  19.249  24.300  1.00  0.00    -0.269 OA
ATOM      5  H   UNL A   1      35.478  19.781  25.683  1.00  0.00     0.163 HD
BRANCH   3   6
ATOM      6  C   UNL A   1      32.797  21.409  24.429  1.00  0.00     0.041 A 
ATOM      7  C   UNL A   1      31.853  23.297  23.218  1.00  0.00     0.050 A 
ATOM      8  C   UNL A   1      31.037  23.616  24.295  1.00  0.00     0.027 A 
ATOM      9  C   UNL A   1      32.645  22.143  23.245  1.00  0.00     0.040 A 
ATOM     10  C   UNL A   1      31.066  22.822  25.438  1.00  0.00     0.003 A 
ATOM     11  C   UNL A   1      31.966  21.752  25.516  1.00  0.00     0.014 A 
BRANCH   7  12
ATOM     12  N   UNL A   1      31.911  24.221  22.127  1.00  0.00    -0.280 N 
ATOM     13  H   UNL A   1      31.344  24.073  21.335  1.00  0.00     0.180 HD
BRANCH  12  14
ATOM     14  S   UNL A   1      32.956  25.583  22.178  1.00  0.00     0.262 S 
ATOM     15  O   UNL A   1      33.189  25.872  20.776  1.00  0.00    -0.201 OA
ATOM     16  O   UNL A   1      34.068  25.232  23.034  1.00  0.00    -0.201 OA
BRANCH  14  17
ATOM     17  C   UNL A   1      32.136  27.028  22.872  1.00  0.00     0.092 A 
ATOM     18  C   UNL A   1      34.239  28.519  22.980  1.00  0.00     0.046 C 
ATOM     19  C   UNL A   1      32.799  28.211  23.243  1.00  0.00    -0.030 A 
ATOM     20  C   UNL A   1      32.069  29.243  23.865  1.00  0.00     0.006 A 
ATOM     21  C   UNL A   1      30.680  29.213  23.908  1.00  0.00     0.020 A 
ATOM     22  C   UNL A   1      30.722  27.035  22.860  1.00  0.00     0.042 A 
ATOM     23  C   UNL A   1      30.001  28.143  23.332  1.00  0.00     0.053 A 
BRANCH  23  24
ATOM     24  C   UNL A   1      28.573  28.231  23.193  1.00  0.00     0.099 C 
ATOM     25  N   UNL A   1      27.427  28.362  23.102  1.00  0.00    -0.192 NA
ENDBRANCH  23  24
ENDBRANCH  14  17
ENDBRANCH  12  14
ENDBRANCH   7  12
ENDBRANCH   3   6
ENDBRANCH   1   2
BRANCH   1  26
ATOM     26  C   UNL A   1      35.796  22.938  25.111  1.00  0.00     0.042 C 
BRANCH  26  27
ATOM     27  C   UNL A   1      37.052  23.756  25.335  1.00  0.00     0.118 C 
BRANCH  27  28
ATOM     28  N   UNL A   1      38.239  22.942  25.580  1.00  0.00    -0.352 N 
ATOM     29  C   UNL A   1      39.411  23.235  26.244  1.00  0.00     0.251 C 
ATOM     30  H   UNL A   1      38.196  22.032  25.209  1.00  0.00     0.163 HD
ATOM     31  O   UNL A   1      40.349  22.444  26.197  1.00  0.00    -0.269 OA
BRANCH  29  32
ATOM     32  C   UNL A   1      39.554  24.518  26.969  1.00  0.00     0.039 A 
ATOM     33  C   UNL A   1      40.278  25.565  26.409  1.00  0.00     0.014 A 
ATOM     34  C   UNL A   1      38.999  24.663  28.243  1.00  0.00     0.014 A 
ATOM     35  C   UNL A   1      40.682  26.623  27.208  1.00  0.00     0.010 A 
ATOM     36  C   UNL A   1      39.277  25.811  28.993  1.00  0.00     0.010 A 
ATOM     37  C   UNL A   1      40.178  26.771  28.508  1.00  0.00    -0.014 A 
BRANCH  37  38
ATOM     38  C   UNL A   1      40.596  27.946  29.320  1.00  0.00     0.031 A 
ATOM     39  C   UNL A   1      39.693  29.141  29.478  1.00  0.00     0.074 A 
ATOM     40  C   UNL A   1      41.777  27.901  29.970  1.00  0.00     0.049 A 
ATOM     41  N   UNL A   1      39.906  30.250  30.142  1.00  0.00    -0.248 NA
ATOM     42  C   UNL A   1      38.386  29.095  28.804  1.00  0.00     0.031 C 
ATOM     43  C   UNL A   1      42.725  26.783  29.920  1.00  0.00     0.029 A 
ATOM     44  N   UNL A   1      42.373  28.795  30.821  1.00  0.00    -0.354 N 
ATOM     45  C   UNL A   1      38.771  31.033  29.959  1.00  0.00     0.074 A 
ATOM     46  C   UNL A   1      37.891  30.293  29.080  1.00  0.00     0.031 C 
ATOM     47  C   UNL A   1      43.741  27.026  30.757  1.00  0.00     0.029 A 
ATOM     48  C   UNL A   1      43.573  28.357  31.328  1.00  0.00     0.049 A 
ATOM     49  H   UNL A   1      41.978  29.668  31.048  1.00  0.00     0.167 HD
ATOM     50  C   UNL A   1      38.483  32.247  30.489  1.00  0.00     0.037 A 
ATOM     51  C   UNL A   1      44.459  28.962  32.139  1.00  0.00     0.037 A 
ATOM     52  C   UNL A   1      39.368  32.972  31.366  1.00  0.00     0.049 A 
ATOM     53  C   UNL A   1      44.159  30.346  32.635  1.00  0.00     0.074 A 
ATOM     54  C   UNL A   1      39.174  34.213  31.948  1.00  0.00     0.029 A 
ATOM     55  N   UNL A   1      40.613  32.526  31.790  1.00  0.00    -0.354 N 
ATOM     56  N   UNL A   1      43.088  31.077  32.437  1.00  0.00    -0.248 NA
ATOM     57  C   UNL A   1      45.189  30.993  33.457  1.00  0.00     0.031 C 
ATOM     58  C   UNL A   1      40.323  34.543  32.672  1.00  0.00     0.029 A 
ATOM     59  C   UNL A   1      41.206  33.477  32.604  1.00  0.00     0.049 A 
ATOM     60  H   UNL A   1      41.014  31.660  31.548  1.00  0.00     0.167 HD
ATOM     61  C   UNL A   1      43.303  32.260  33.134  1.00  0.00     0.074 A 
ATOM     62  C   UNL A   1      44.600  32.139  33.769  1.00  0.00     0.031 C 
ATOM     63  C   UNL A   1      42.497  33.345  33.237  1.00  0.00     0.037 A 
BRANCH  50  64
ATOM     64  C   UNL A   1      37.162  32.879  30.130  1.00  0.00     0.058 A 
ATOM     65  C   UNL A   1      36.009  32.674  30.906  1.00  0.00     0.135 A 
ATOM     66  C   UNL A   1      37.056  33.744  29.027  1.00  0.00     0.135 A 
ATOM     67  F   UNL A   1      36.045  31.849  31.965  1.00  0.00    -0.206 F 
ATOM     68  C   UNL A   1      34.796  33.276  30.586  1.00  0.00     0.059 A 
ATOM     69  C   UNL A   1      35.862  34.385  28.708  1.00  0.00     0.059 A 
ATOM     70  F   UNL A   1      38.125  33.981  28.249  1.00  0.00    -0.206 F 
ATOM     71  C   UNL A   1      34.734  34.134  29.485  1.00  0.00     0.060 A 
BRANCH  71  72
ATOM     72  S   UNL A   1      33.150  34.903  29.086  1.00  0.00     0.124 S 
ATOM     73  O   UNL A   1      32.492  34.908  30.389  1.00  0.00    -0.237 OA
ATOM     74  O   UNL A   1      33.560  36.207  28.577  1.00  0.00    -0.237 OA
ATOM     75  O   UNL A   1      32.570  33.998  28.097  1.00  0.00    -0.744 OA
ENDBRANCH  71  72
ENDBRANCH  50  64
BRANCH  51  76
ATOM     76  C   UNL A   1      45.703  28.248  32.533  1.00  0.00     0.058 A 
ATOM     77  C   UNL A   1      45.755  27.497  33.716  1.00  0.00     0.135 A 
ATOM     78  C   UNL A   1      46.846  28.259  31.715  1.00  0.00     0.135 A 
ATOM     79  F   UNL A   1      44.691  27.460  34.534  1.00  0.00    -0.206 F 
ATOM     80  C   UNL A   1      46.894  26.786  34.078  1.00  0.00     0.059 A 
ATOM     81  C   UNL A   1      47.984  27.528  32.038  1.00  0.00     0.059 A 
ATOM     82  F   UNL A   1      46.843  28.948  30.563  1.00  0.00    -0.206 F 
ATOM     83  C   UNL A   1      48.000  26.799  33.226  1.00  0.00     0.060 A 
BRANCH  83  84
ATOM     84  S   UNL A   1      49.445  25.819  33.680  1.00  0.00     0.124 S 
ATOM     85  O   UNL A   1      49.537  26.076  35.112  1.00  0.00    -0.237 OA
ATOM     86  O   UNL A   1      49.030  24.474  33.296  1.00  0.00    -0.237 OA
ATOM     87  O   UNL A   1      50.512  26.395  32.866  1.00  0.00    -0.744 OA
ENDBRANCH  83  84
ENDBRANCH  51  76
BRANCH  63  88
ATOM     88  C   UNL A   1      42.972  34.486  34.096  1.00  0.00     0.058 A 
ATOM     89  C   UNL A   1      42.711  34.534  35.474  1.00  0.00     0.135 A 
ATOM     90  C   UNL A   1      43.757  35.512  33.542  1.00  0.00     0.135 A 
ATOM     91  F   UNL A   1      41.959  33.585  36.054  1.00  0.00    -0.206 F 
ATOM     92  C   UNL A   1      43.192  35.569  36.269  1.00  0.00     0.059 A 
ATOM     93  C   UNL A   1      44.279  36.536  34.325  1.00  0.00     0.059 A 
ATOM     94  F   UNL A   1      44.045  35.511  32.231  1.00  0.00    -0.206 F 
ATOM     95  C   UNL A   1      43.983  36.561  35.687  1.00  0.00     0.060 A 
BRANCH  95  96
ATOM     96  S   UNL A   1      44.630  37.873  36.742  1.00  0.00     0.124 S 
ATOM     97  O   UNL A   1      46.013  37.447  36.932  1.00  0.00    -0.237 OA
ATOM     98  O   UNL A   1      44.440  39.059  35.912  1.00  0.00    -0.237 OA
ATOM     99  O   UNL A   1      43.785  37.805  37.932  1.00  0.00    -0.744 OA
ENDBRANCH  95  96
ENDBRANCH  63  88
ENDBRANCH  37  38
ENDBRANCH  29  32
ENDBRANCH  27  28
ENDBRANCH  26  27
ENDBRANCH   1  26
TORSDOF 17
ENDMDL
