MODEL 1
REMARK VINA RESULT:     -10.8      0.000      0.000
REMARK SMILES CN(C)c1ccc(CNc2cc(C(=O)NCCCNC(=O)c3ccc(-c4c5nc(c(-c6c(F)cc(S(=O)(=O)[O-])cc6F)c6ccc([nH]6)c(-c6c(F)cc(S(=O)(=O)[O-])cc6F)c6nc(c(-c7c(F)cc(S(=O)(=O)[O-])cc7F)c7ccc4[nH]7)C=C6)C=C5)cc3)[nH]n2)cc1
REMARK SMILES IDX 16 1 15 2 13 3 14 4 12 6 10 7 11 8 89 9 88 10 9 12 8 14 7 15
REMARK SMILES IDX 4 16 5 17 91 18 6 19 90 20 2 21 1 22 3 23 17 24 18 25 19 26
REMARK SMILES IDX 20 27 21 29 22 30 23 31 87 32 24 33 86 34 25 35 26 36 27 37
REMARK SMILES IDX 80 38 28 39 85 40 79 41 81 42 29 43 84 44 78 45 77 46 30 48
REMARK SMILES IDX 64 49 43 50 63 51 44 52 47 53 62 54 82 55 45 56 46 57 61 59
REMARK SMILES IDX 83 60 48 61 31 62 32 63 41 64 33 65 34 66 40 67 42 68 35 69
REMARK SMILES IDX 36 70 37 71 38 72 39 73 65 74 66 75 75 76 67 77 68 78 74 79
REMARK SMILES IDX 76 80 69 81 70 82 71 83 72 84 73 85 49 86 50 87 59 88 51 89
REMARK SMILES IDX 52 90 58 91 60 92 53 93 54 94 55 95 56 96 57 97
REMARK H PARENT 15 5 88 11 9 13 19 28 81 47 47 58
REMARK Flexibility Score: inf
ROOT
ATOM      1  C   UNL A   1      31.940  29.483  24.935  1.00  0.00     0.118 C 
ENDROOT
BRANCH   1   2
ATOM      2  N   UNL A   1      31.406  29.716  23.606  1.00  0.00    -0.351 N 
ATOM      3  C   UNL A   1      30.661  28.924  22.774  1.00  0.00     0.269 C 
ATOM      4  O   UNL A   1      30.273  29.431  21.722  1.00  0.00    -0.268 OA
ATOM      5  H   UNL A   1      31.619  30.604  23.236  1.00  0.00     0.163 HD
BRANCH   3   6
ATOM      6  C   UNL A   1      30.295  27.582  23.130  1.00  0.00     0.125 A 
ATOM      7  C   UNL A   1      30.013  25.468  23.768  1.00  0.00     0.148 A 
ATOM      8  C   UNL A   1      30.917  26.351  23.142  1.00  0.00     0.082 A 
ATOM      9  N   UNL A   1      28.836  26.045  23.983  1.00  0.00    -0.157 NA
ATOM     10  N   UNL A   1      29.025  27.310  23.575  1.00  0.00    -0.271 N 
ATOM     11  H   UNL A   1      28.312  27.988  23.595  1.00  0.00     0.190 HD
BRANCH   7  12
ATOM     12  N   UNL A   1      30.293  24.209  24.134  1.00  0.00    -0.365 N 
ATOM     13  H   UNL A   1      30.113  23.480  23.496  1.00  0.00     0.162 HD
BRANCH  12  14
ATOM     14  C   UNL A   1      30.849  23.878  25.432  1.00  0.00     0.150 C 
BRANCH  14  15
ATOM     15  C   UNL A   1      32.342  23.661  25.322  1.00  0.00    -0.029 A 
ATOM     16  C   UNL A   1      35.156  23.260  25.100  1.00  0.00     0.036 A 
ATOM     17  C   UNL A   1      34.626  24.419  25.683  1.00  0.00     0.026 A 
ATOM     18  C   UNL A   1      34.239  22.320  24.608  1.00  0.00     0.026 A 
ATOM     19  C   UNL A   1      33.246  24.629  25.775  1.00  0.00     0.008 A 
ATOM     20  C   UNL A   1      32.854  22.508  24.722  1.00  0.00     0.008 A 
BRANCH  16  21
ATOM     21  N   UNL A   1      36.526  23.061  25.020  1.00  0.00    -0.378 N 
ATOM     22  C   UNL A   1      37.067  21.972  24.226  1.00  0.00     0.143 C 
ATOM     23  C   UNL A   1      37.411  23.846  25.866  1.00  0.00     0.143 C 
ENDBRANCH  16  21
ENDBRANCH  14  15
ENDBRANCH  12  14
ENDBRANCH   7  12
ENDBRANCH   3   6
ENDBRANCH   1   2
BRANCH   1  24
ATOM     24  C   UNL A   1      33.250  28.701  24.886  1.00  0.00     0.042 C 
BRANCH  24  25
ATOM     25  C   UNL A   1      34.009  28.734  26.212  1.00  0.00     0.118 C 
BRANCH  25  26
ATOM     26  N   UNL A   1      33.814  29.994  26.921  1.00  0.00    -0.352 N 
ATOM     27  C   UNL A   1      34.566  30.591  27.901  1.00  0.00     0.251 C 
ATOM     28  H   UNL A   1      33.012  30.499  26.651  1.00  0.00     0.163 HD
ATOM     29  O   UNL A   1      34.088  31.528  28.537  1.00  0.00    -0.269 OA
BRANCH  27  30
ATOM     30  C   UNL A   1      35.932  30.113  28.198  1.00  0.00     0.039 A 
ATOM     31  C   UNL A   1      36.901  30.170  27.192  1.00  0.00     0.014 A 
ATOM     32  C   UNL A   1      36.251  29.577  29.447  1.00  0.00     0.014 A 
ATOM     33  C   UNL A   1      38.205  29.754  27.464  1.00  0.00     0.010 A 
ATOM     34  C   UNL A   1      37.567  29.236  29.740  1.00  0.00     0.010 A 
ATOM     35  C   UNL A   1      38.560  29.324  28.753  1.00  0.00    -0.014 A 
BRANCH  35  36
ATOM     36  C   UNL A   1      39.966  28.991  29.096  1.00  0.00     0.031 A 
ATOM     37  C   UNL A   1      40.864  30.023  29.721  1.00  0.00     0.074 A 
ATOM     38  C   UNL A   1      40.451  27.775  28.773  1.00  0.00     0.049 A 
ATOM     39  N   UNL A   1      42.135  29.939  30.018  1.00  0.00    -0.248 NA
ATOM     40  C   UNL A   1      40.261  31.330  30.029  1.00  0.00     0.031 C 
ATOM     41  C   UNL A   1      39.688  26.707  28.121  1.00  0.00     0.029 A 
ATOM     42  N   UNL A   1      41.702  27.233  28.935  1.00  0.00    -0.354 N 
ATOM     43  C   UNL A   1      42.487  31.179  30.537  1.00  0.00     0.074 A 
ATOM     44  C   UNL A   1      41.309  32.015  30.465  1.00  0.00     0.031 C 
ATOM     45  C   UNL A   1      40.479  25.635  27.959  1.00  0.00     0.029 A 
ATOM     46  C   UNL A   1      41.816  25.951  28.451  1.00  0.00     0.049 A 
ATOM     47  H   UNL A   1      42.447  27.718  29.360  1.00  0.00     0.167 HD
ATOM     48  C   UNL A   1      43.678  31.576  31.046  1.00  0.00     0.037 A 
ATOM     49  C   UNL A   1      42.881  25.128  28.393  1.00  0.00     0.037 A 
ATOM     50  C   UNL A   1      44.842  30.729  31.125  1.00  0.00     0.049 A 
ATOM     51  C   UNL A   1      44.199  25.601  28.944  1.00  0.00     0.074 A 
ATOM     52  C   UNL A   1      46.078  31.016  31.675  1.00  0.00     0.029 A 
ATOM     53  N   UNL A   1      44.916  29.434  30.631  1.00  0.00    -0.354 N 
ATOM     54  N   UNL A   1      44.495  26.753  29.498  1.00  0.00    -0.248 NA
ATOM     55  C   UNL A   1      45.326  24.662  28.869  1.00  0.00     0.031 C 
ATOM     56  C   UNL A   1      46.917  29.918  31.463  1.00  0.00     0.029 A 
ATOM     57  C   UNL A   1      46.187  28.921  30.836  1.00  0.00     0.049 A 
ATOM     58  H   UNL A   1      44.176  28.951  30.198  1.00  0.00     0.167 HD
ATOM     59  C   UNL A   1      45.835  26.668  29.857  1.00  0.00     0.074 A 
ATOM     60  C   UNL A   1      46.286  25.346  29.475  1.00  0.00     0.031 C 
ATOM     61  C   UNL A   1      46.621  27.600  30.451  1.00  0.00     0.037 A 
BRANCH  48  62
ATOM     62  C   UNL A   1      43.788  32.988  31.557  1.00  0.00     0.058 A 
ATOM     63  C   UNL A   1      43.578  33.303  32.910  1.00  0.00     0.135 A 
ATOM     64  C   UNL A   1      44.151  34.034  30.694  1.00  0.00     0.135 A 
ATOM     65  F   UNL A   1      43.216  32.346  33.779  1.00  0.00    -0.206 F 
ATOM     66  C   UNL A   1      43.695  34.606  33.381  1.00  0.00     0.059 A 
ATOM     67  C   UNL A   1      44.305  35.341  31.150  1.00  0.00     0.059 A 
ATOM     68  F   UNL A   1      44.365  33.793  29.390  1.00  0.00    -0.206 F 
ATOM     69  C   UNL A   1      44.061  35.619  32.493  1.00  0.00     0.060 A 
BRANCH  69  70
ATOM     70  S   UNL A   1      44.215  37.303  33.126  1.00  0.00     0.124 S 
ATOM     71  O   UNL A   1      42.995  37.430  33.916  1.00  0.00    -0.237 OA
ATOM     72  O   UNL A   1      45.459  37.236  33.887  1.00  0.00    -0.237 OA
ATOM     73  O   UNL A   1      44.267  38.118  31.917  1.00  0.00    -0.744 OA
ENDBRANCH  69  70
ENDBRANCH  48  62
BRANCH  49  74
ATOM     74  C   UNL A   1      42.740  23.772  27.799  1.00  0.00     0.058 A 
ATOM     75  C   UNL A   1      42.511  22.649  28.608  1.00  0.00     0.135 A 
ATOM     76  C   UNL A   1      42.814  23.571  26.411  1.00  0.00     0.135 A 
ATOM     77  F   UNL A   1      42.439  22.787  29.941  1.00  0.00    -0.206 F 
ATOM     78  C   UNL A   1      42.380  21.374  28.067  1.00  0.00     0.059 A 
ATOM     79  C   UNL A   1      42.657  22.310  25.844  1.00  0.00     0.059 A 
ATOM     80  F   UNL A   1      43.014  24.614  25.590  1.00  0.00    -0.206 F 
ATOM     81  C   UNL A   1      42.449  21.216  26.682  1.00  0.00     0.060 A 
BRANCH  81  82
ATOM     82  S   UNL A   1      42.228  19.563  25.988  1.00  0.00     0.124 S 
ATOM     83  O   UNL A   1      43.091  19.620  24.813  1.00  0.00    -0.237 OA
ATOM     84  O   UNL A   1      42.688  18.711  27.079  1.00  0.00    -0.237 OA
ATOM     85  O   UNL A   1      40.795  19.503  25.717  1.00  0.00    -0.744 OA
ENDBRANCH  81  82
ENDBRANCH  49  74
BRANCH  61  86
ATOM     86  C   UNL A   1      48.046  27.219  30.749  1.00  0.00     0.058 A 
ATOM     87  C   UNL A   1      48.395  26.510  31.909  1.00  0.00     0.135 A 
ATOM     88  C   UNL A   1      49.068  27.522  29.834  1.00  0.00     0.135 A 
ATOM     89  F   UNL A   1      47.460  26.203  32.821  1.00  0.00    -0.206 F 
ATOM     90  C   UNL A   1      49.710  26.132  32.160  1.00  0.00     0.059 A 
ATOM     91  C   UNL A   1      50.384  27.125  30.050  1.00  0.00     0.059 A 
ATOM     92  F   UNL A   1      48.788  28.191  28.704  1.00  0.00    -0.206 F 
ATOM     93  C   UNL A   1      50.697  26.440  31.222  1.00  0.00     0.060 A 
BRANCH  93  94
ATOM     94  S   UNL A   1      52.391  25.905  31.543  1.00  0.00     0.124 S 
ATOM     95  O   UNL A   1      52.842  26.914  32.497  1.00  0.00    -0.237 OA
ATOM     96  O   UNL A   1      52.197  24.563  32.084  1.00  0.00    -0.237 OA
ATOM     97  O   UNL A   1      53.021  25.959  30.228  1.00  0.00    -0.744 OA
ENDBRANCH  93  94
ENDBRANCH  61  86
ENDBRANCH  35  36
ENDBRANCH  27  30
ENDBRANCH  25  26
ENDBRANCH  24  25
ENDBRANCH   1  24
TORSDOF 17
ENDMDL
MODEL 2
REMARK VINA RESULT:     -10.8      3.036      9.222
REMARK SMILES CN(C)c1ccc(CNc2cc(C(=O)NCCCNC(=O)c3ccc(-c4c5nc(c(-c6c(F)cc(S(=O)(=O)[O-])cc6F)c6ccc([nH]6)c(-c6c(F)cc(S(=O)(=O)[O-])cc6F)c6nc(c(-c7c(F)cc(S(=O)(=O)[O-])cc7F)c7ccc4[nH]7)C=C6)C=C5)cc3)[nH]n2)cc1
REMARK SMILES IDX 16 1 15 2 13 3 14 4 12 6 10 7 11 8 89 9 88 10 9 12 8 14 7 15
REMARK SMILES IDX 4 16 5 17 91 18 6 19 90 20 2 21 1 22 3 23 17 24 18 25 19 26
REMARK SMILES IDX 20 27 21 29 22 30 23 31 87 32 24 33 86 34 25 35 26 36 27 37
REMARK SMILES IDX 80 38 28 39 85 40 79 41 81 42 29 43 84 44 78 45 77 46 30 48
REMARK SMILES IDX 64 49 43 50 63 51 44 52 47 53 62 54 82 55 45 56 46 57 61 59
REMARK SMILES IDX 83 60 48 61 31 62 32 63 41 64 33 65 34 66 40 67 42 68 35 69
REMARK SMILES IDX 36 70 37 71 38 72 39 73 65 74 66 75 75 76 67 77 68 78 74 79
REMARK SMILES IDX 76 80 69 81 70 82 71 83 72 84 73 85 49 86 50 87 59 88 51 89
REMARK SMILES IDX 52 90 58 91 60 92 53 93 54 94 55 95 56 96 57 97
REMARK H PARENT 15 5 88 11 9 13 19 28 81 47 47 58
REMARK Flexibility Score: inf
ROOT
ATOM      1  C   UNL A   1      34.906  21.959  26.292  1.00  0.00     0.118 C 
ENDROOT
BRANCH   1   2
ATOM      2  N   UNL A   1      33.959  21.005  25.746  1.00  0.00    -0.351 N 
ATOM      3  C   UNL A   1      32.610  21.090  25.523  1.00  0.00     0.269 C 
ATOM      4  O   UNL A   1      32.078  20.134  24.959  1.00  0.00    -0.268 OA
ATOM      5  H   UNL A   1      34.357  20.141  25.492  1.00  0.00     0.163 HD
BRANCH   3   6
ATOM      6  C   UNL A   1      31.854  22.259  25.874  1.00  0.00     0.125 A 
ATOM      7  C   UNL A   1      30.608  24.085  26.129  1.00  0.00     0.148 A 
ATOM      8  C   UNL A   1      31.517  23.447  25.261  1.00  0.00     0.082 A 
ATOM      9  N   UNL A   1      30.504  23.442  27.286  1.00  0.00    -0.157 NA
ATOM     10  N   UNL A   1      31.276  22.357  27.115  1.00  0.00    -0.271 N 
ATOM     11  H   UNL A   1      31.415  21.686  27.822  1.00  0.00     0.190 HD
BRANCH   7  12
ATOM     12  N   UNL A   1      29.904  25.188  25.835  1.00  0.00    -0.365 N 
ATOM     13  H   UNL A   1      29.055  25.348  26.308  1.00  0.00     0.162 HD
BRANCH  12  14
ATOM     14  C   UNL A   1      30.345  26.156  24.849  1.00  0.00     0.150 C 
BRANCH  14  15
ATOM     15  C   UNL A   1      31.328  27.124  25.469  1.00  0.00    -0.029 A 
ATOM     16  C   UNL A   1      33.192  28.936  26.642  1.00  0.00     0.036 A 
ATOM     17  C   UNL A   1      33.343  28.481  25.325  1.00  0.00     0.026 A 
ATOM     18  C   UNL A   1      32.096  28.439  27.363  1.00  0.00     0.026 A 
ATOM     19  C   UNL A   1      32.443  27.577  24.752  1.00  0.00     0.008 A 
ATOM     20  C   UNL A   1      31.173  27.554  26.789  1.00  0.00     0.008 A 
BRANCH  16  21
ATOM     21  N   UNL A   1      34.088  29.838  27.196  1.00  0.00    -0.378 N 
ATOM     22  C   UNL A   1      35.429  29.416  27.559  1.00  0.00     0.143 C 
ATOM     23  C   UNL A   1      33.625  31.166  27.564  1.00  0.00     0.143 C 
ENDBRANCH  16  21
ENDBRANCH  14  15
ENDBRANCH  12  14
ENDBRANCH   7  12
ENDBRANCH   3   6
ENDBRANCH   1   2
BRANCH   1  24
ATOM     24  C   UNL A   1      35.289  23.022  25.266  1.00  0.00     0.042 C 
BRANCH  24  25
ATOM     25  C   UNL A   1      36.684  23.599  25.502  1.00  0.00     0.118 C 
BRANCH  25  26
ATOM     26  N   UNL A   1      37.623  22.582  25.965  1.00  0.00    -0.352 N 
ATOM     27  C   UNL A   1      38.898  22.705  26.456  1.00  0.00     0.251 C 
ATOM     28  H   UNL A   1      37.286  21.658  25.918  1.00  0.00     0.163 HD
ATOM     29  O   UNL A   1      39.602  21.703  26.551  1.00  0.00    -0.269 OA
BRANCH  27  30
ATOM     30  C   UNL A   1      39.425  24.024  26.860  1.00  0.00     0.039 A 
ATOM     31  C   UNL A   1      39.309  24.418  28.197  1.00  0.00     0.014 A 
ATOM     32  C   UNL A   1      40.000  24.886  25.924  1.00  0.00     0.014 A 
ATOM     33  C   UNL A   1      39.831  25.647  28.603  1.00  0.00     0.010 A 
ATOM     34  C   UNL A   1      40.589  26.074  26.344  1.00  0.00     0.010 A 
ATOM     35  C   UNL A   1      40.514  26.466  27.689  1.00  0.00    -0.014 A 
BRANCH  35  36
ATOM     36  C   UNL A   1      41.180  27.720  28.126  1.00  0.00     0.031 A 
ATOM     37  C   UNL A   1      42.677  27.851  28.059  1.00  0.00     0.074 A 
ATOM     38  C   UNL A   1      40.435  28.712  28.652  1.00  0.00     0.049 A 
ATOM     39  N   UNL A   1      43.438  28.835  28.464  1.00  0.00    -0.248 NA
ATOM     40  C   UNL A   1      43.419  26.718  27.483  1.00  0.00     0.031 C 
ATOM     41  C   UNL A   1      38.979  28.680  28.812  1.00  0.00     0.029 A 
ATOM     42  N   UNL A   1      40.795  29.934  29.161  1.00  0.00    -0.354 N 
ATOM     43  C   UNL A   1      44.744  28.438  28.204  1.00  0.00     0.074 A 
ATOM     44  C   UNL A   1      44.676  27.101  27.655  1.00  0.00     0.031 C 
ATOM     45  C   UNL A   1      38.569  29.835  29.360  1.00  0.00     0.029 A 
ATOM     46  C   UNL A   1      39.733  30.670  29.633  1.00  0.00     0.049 A 
ATOM     47  H   UNL A   1      41.726  30.254  29.185  1.00  0.00     0.167 HD
ATOM     48  C   UNL A   1      45.892  29.134  28.387  1.00  0.00     0.037 A 
ATOM     49  C   UNL A   1      39.702  31.876  30.235  1.00  0.00     0.037 A 
ATOM     50  C   UNL A   1      45.945  30.471  28.923  1.00  0.00     0.049 A 
ATOM     51  C   UNL A   1      40.993  32.619  30.447  1.00  0.00     0.074 A 
ATOM     52  C   UNL A   1      47.051  31.284  29.095  1.00  0.00     0.029 A 
ATOM     53  N   UNL A   1      44.848  31.187  29.382  1.00  0.00    -0.354 N 
ATOM     54  N   UNL A   1      42.214  32.258  30.129  1.00  0.00    -0.248 NA
ATOM     55  C   UNL A   1      40.904  33.934  31.096  1.00  0.00     0.031 C 
ATOM     56  C   UNL A   1      46.632  32.468  29.710  1.00  0.00     0.029 A 
ATOM     57  C   UNL A   1      45.256  32.420  29.866  1.00  0.00     0.049 A 
ATOM     58  H   UNL A   1      43.918  30.866  29.367  1.00  0.00     0.167 HD
ATOM     59  C   UNL A   1      43.034  33.311  30.518  1.00  0.00     0.074 A 
ATOM     60  C   UNL A   1      42.169  34.329  31.077  1.00  0.00     0.031 C 
ATOM     61  C   UNL A   1      44.382  33.425  30.419  1.00  0.00     0.037 A 
BRANCH  48  62
ATOM     62  C   UNL A   1      47.186  28.464  28.009  1.00  0.00     0.058 A 
ATOM     63  C   UNL A   1      47.920  27.699  28.931  1.00  0.00     0.135 A 
ATOM     64  C   UNL A   1      47.679  28.551  26.697  1.00  0.00     0.135 A 
ATOM     65  F   UNL A   1      47.504  27.591  30.203  1.00  0.00    -0.206 F 
ATOM     66  C   UNL A   1      49.108  27.070  28.574  1.00  0.00     0.059 A 
ATOM     67  C   UNL A   1      48.850  27.903  26.309  1.00  0.00     0.059 A 
ATOM     68  F   UNL A   1      47.020  29.268  25.773  1.00  0.00    -0.206 F 
ATOM     69  C   UNL A   1      49.563  27.176  27.259  1.00  0.00     0.060 A 
BRANCH  69  70
ATOM     70  S   UNL A   1      51.104  26.346  26.813  1.00  0.00     0.124 S 
ATOM     71  O   UNL A   1      51.024  26.350  25.355  1.00  0.00    -0.237 OA
ATOM     72  O   UNL A   1      52.111  27.226  27.395  1.00  0.00    -0.237 OA
ATOM     73  O   UNL A   1      50.980  25.036  27.443  1.00  0.00    -0.744 OA
ENDBRANCH  69  70
ENDBRANCH  48  62
BRANCH  49  74
ATOM     74  C   UNL A   1      38.402  32.456  30.668  1.00  0.00     0.058 A 
ATOM     75  C   UNL A   1      37.643  33.255  29.800  1.00  0.00     0.135 A 
ATOM     76  C   UNL A   1      37.885  32.211  31.950  1.00  0.00     0.135 A 
ATOM     77  F   UNL A   1      38.097  33.524  28.567  1.00  0.00    -0.206 F 
ATOM     78  C   UNL A   1      36.427  33.807  30.192  1.00  0.00     0.059 A 
ATOM     79  C   UNL A   1      36.657  32.727  32.354  1.00  0.00     0.059 A 
ATOM     80  F   UNL A   1      38.562  31.438  32.813  1.00  0.00    -0.206 F 
ATOM     81  C   UNL A   1      35.940  33.532  31.471  1.00  0.00     0.060 A 
BRANCH  81  82
ATOM     82  S   UNL A   1      34.338  34.213  31.951  1.00  0.00     0.124 S 
ATOM     83  O   UNL A   1      34.734  35.423  32.661  1.00  0.00    -0.237 OA
ATOM     84  O   UNL A   1      33.692  34.413  30.657  1.00  0.00    -0.237 OA
ATOM     85  O   UNL A   1      33.758  33.157  32.776  1.00  0.00    -0.744 OA
ENDBRANCH  81  82
ENDBRANCH  49  74
BRANCH  61  86
ATOM     86  C   UNL A   1      45.008  34.705  30.903  1.00  0.00     0.058 A 
ATOM     87  C   UNL A   1      45.151  35.822  30.065  1.00  0.00     0.135 A 
ATOM     88  C   UNL A   1      45.420  34.832  32.240  1.00  0.00     0.135 A 
ATOM     89  F   UNL A   1      44.782  35.752  28.777  1.00  0.00    -0.206 F 
ATOM     90  C   UNL A   1      45.700  37.013  30.530  1.00  0.00     0.059 A 
ATOM     91  C   UNL A   1      45.942  36.024  32.734  1.00  0.00     0.059 A 
ATOM     92  F   UNL A   1      45.298  33.798  33.087  1.00  0.00    -0.206 F 
ATOM     93  C   UNL A   1      46.087  37.105  31.868  1.00  0.00     0.060 A 
BRANCH  93  94
ATOM     94  S   UNL A   1      46.759  38.671  32.466  1.00  0.00     0.124 S 
ATOM     95  O   UNL A   1      46.727  39.486  31.256  1.00  0.00    -0.237 OA
ATOM     96  O   UNL A   1      45.803  39.042  33.506  1.00  0.00    -0.237 OA
ATOM     97  O   UNL A   1      48.088  38.310  32.946  1.00  0.00    -0.744 OA
ENDBRANCH  93  94
ENDBRANCH  61  86
ENDBRANCH  35  36
ENDBRANCH  27  30
ENDBRANCH  25  26
ENDBRANCH  24  25
ENDBRANCH   1  24
TORSDOF 17
ENDMDL
MODEL 3
REMARK VINA RESULT:     -10.7      4.960     11.278
REMARK SMILES CN(C)c1ccc(CNc2cc(C(=O)NCCCNC(=O)c3ccc(-c4c5nc(c(-c6c(F)cc(S(=O)(=O)[O-])cc6F)c6ccc([nH]6)c(-c6c(F)cc(S(=O)(=O)[O-])cc6F)c6nc(c(-c7c(F)cc(S(=O)(=O)[O-])cc7F)c7ccc4[nH]7)C=C6)C=C5)cc3)[nH]n2)cc1
REMARK SMILES IDX 16 1 15 2 13 3 14 4 12 6 10 7 11 8 89 9 88 10 9 12 8 14 7 15
REMARK SMILES IDX 4 16 5 17 91 18 6 19 90 20 2 21 1 22 3 23 17 24 18 25 19 26
REMARK SMILES IDX 20 27 21 29 22 30 23 31 87 32 24 33 86 34 25 35 26 36 27 37
REMARK SMILES IDX 80 38 28 39 85 40 79 41 81 42 29 43 84 44 78 45 77 46 30 48
REMARK SMILES IDX 64 49 43 50 63 51 44 52 47 53 62 54 82 55 45 56 46 57 61 59
REMARK SMILES IDX 83 60 48 61 31 62 32 63 41 64 33 65 34 66 40 67 42 68 35 69
REMARK SMILES IDX 36 70 37 71 38 72 39 73 65 74 66 75 75 76 67 77 68 78 74 79
REMARK SMILES IDX 76 80 69 81 70 82 71 83 72 84 73 85 49 86 50 87 59 88 51 89
REMARK SMILES IDX 52 90 58 91 60 92 53 93 54 94 55 95 56 96 57 97
REMARK H PARENT 15 5 88 11 9 13 19 28 81 47 47 58
REMARK Flexibility Score: inf
ROOT
ATOM      1  C   UNL A   1      45.221  22.614  26.943  1.00  0.00     0.118 C 
ENDROOT
BRANCH   1   2
ATOM      2  N   UNL A   1      45.000  21.596  25.934  1.00  0.00    -0.351 N 
ATOM      3  C   UNL A   1      43.868  20.926  25.552  1.00  0.00     0.269 C 
ATOM      4  O   UNL A   1      43.969  20.167  24.589  1.00  0.00    -0.268 OA
ATOM      5  H   UNL A   1      45.809  21.342  25.434  1.00  0.00     0.163 HD
BRANCH   3   6
ATOM      6  C   UNL A   1      42.605  21.138  26.201  1.00  0.00     0.125 A 
ATOM      7  C   UNL A   1      40.549  21.565  26.941  1.00  0.00     0.148 A 
ATOM      8  C   UNL A   1      41.567  22.040  26.089  1.00  0.00     0.082 A 
ATOM      9  N   UNL A   1      40.966  20.539  27.674  1.00  0.00    -0.157 NA
ATOM     10  N   UNL A   1      42.210  20.312  27.224  1.00  0.00    -0.271 N 
ATOM     11  H   UNL A   1      42.791  19.610  27.596  1.00  0.00     0.190 HD
BRANCH   7  12
ATOM     12  N   UNL A   1      39.303  22.055  27.002  1.00  0.00    -0.365 N 
ATOM     13  H   UNL A   1      38.664  21.644  27.630  1.00  0.00     0.162 HD
BRANCH  12  14
ATOM     14  C   UNL A   1      38.859  23.165  26.182  1.00  0.00     0.150 C 
BRANCH  14  15
ATOM     15  C   UNL A   1      37.458  22.912  25.672  1.00  0.00    -0.029 A 
ATOM     16  C   UNL A   1      34.821  22.439  24.695  1.00  0.00     0.036 A 
ATOM     17  C   UNL A   1      35.801  21.437  24.671  1.00  0.00     0.026 A 
ATOM     18  C   UNL A   1      35.205  23.691  25.197  1.00  0.00     0.026 A 
ATOM     19  C   UNL A   1      37.101  21.671  25.130  1.00  0.00     0.008 A 
ATOM     20  C   UNL A   1      36.497  23.927  25.686  1.00  0.00     0.008 A 
BRANCH  16  21
ATOM     21  N   UNL A   1      33.533  22.193  24.242  1.00  0.00    -0.378 N 
ATOM     22  C   UNL A   1      33.009  22.902  23.089  1.00  0.00     0.143 C 
ATOM     23  C   UNL A   1      32.654  21.341  25.026  1.00  0.00     0.143 C 
ENDBRANCH  16  21
ENDBRANCH  14  15
ENDBRANCH  12  14
ENDBRANCH   7  12
ENDBRANCH   3   6
ENDBRANCH   1   2
BRANCH   1  24
ATOM     24  C   UNL A   1      45.517  23.974  26.317  1.00  0.00     0.042 C 
BRANCH  24  25
ATOM     25  C   UNL A   1      44.485  25.037  26.692  1.00  0.00     0.118 C 
BRANCH  25  26
ATOM     26  N   UNL A   1      43.412  25.126  25.707  1.00  0.00    -0.352 N 
ATOM     27  C   UNL A   1      42.165  25.692  25.797  1.00  0.00     0.251 C 
ATOM     28  H   UNL A   1      43.616  24.713  24.836  1.00  0.00     0.163 HD
ATOM     29  O   UNL A   1      41.327  25.435  24.936  1.00  0.00    -0.269 OA
BRANCH  27  30
ATOM     30  C   UNL A   1      41.827  26.595  26.916  1.00  0.00     0.039 A 
ATOM     31  C   UNL A   1      40.981  26.130  27.928  1.00  0.00     0.014 A 
ATOM     32  C   UNL A   1      42.310  27.905  26.953  1.00  0.00     0.014 A 
ATOM     33  C   UNL A   1      40.678  26.959  29.009  1.00  0.00     0.010 A 
ATOM     34  C   UNL A   1      42.070  28.701  28.069  1.00  0.00     0.010 A 
ATOM     35  C   UNL A   1      41.254  28.236  29.111  1.00  0.00    -0.014 A 
BRANCH  35  36
ATOM     36  C   UNL A   1      41.040  29.085  30.310  1.00  0.00     0.031 A 
ATOM     37  C   UNL A   1      41.868  28.879  31.549  1.00  0.00     0.074 A 
ATOM     38  C   UNL A   1      40.046  29.995  30.303  1.00  0.00     0.049 A 
ATOM     39  N   UNL A   1      41.774  29.470  32.711  1.00  0.00    -0.248 NA
ATOM     40  C   UNL A   1      42.925  27.857  31.480  1.00  0.00     0.031 C 
ATOM     41  C   UNL A   1      39.145  30.252  29.175  1.00  0.00     0.029 A 
ATOM     42  N   UNL A   1      39.613  30.864  31.273  1.00  0.00    -0.354 N 
ATOM     43  C   UNL A   1      42.747  28.887  33.514  1.00  0.00     0.074 A 
ATOM     44  C   UNL A   1      43.386  27.859  32.722  1.00  0.00     0.031 C 
ATOM     45  C   UNL A   1      38.285  31.226  29.511  1.00  0.00     0.029 A 
ATOM     46  C   UNL A   1      38.538  31.630  30.889  1.00  0.00     0.049 A 
ATOM     47  H   UNL A   1      40.035  30.932  32.160  1.00  0.00     0.167 HD
ATOM     48  C   UNL A   1      43.090  29.197  34.788  1.00  0.00     0.037 A 
ATOM     49  C   UNL A   1      37.825  32.545  31.575  1.00  0.00     0.037 A 
ATOM     50  C   UNL A   1      42.455  30.233  35.563  1.00  0.00     0.049 A 
ATOM     51  C   UNL A   1      38.211  32.855  32.996  1.00  0.00     0.074 A 
ATOM     52  C   UNL A   1      42.766  30.665  36.840  1.00  0.00     0.029 A 
ATOM     53  N   UNL A   1      41.375  30.995  35.137  1.00  0.00    -0.354 N 
ATOM     54  N   UNL A   1      39.182  32.344  33.717  1.00  0.00    -0.248 NA
ATOM     55  C   UNL A   1      37.410  33.867  33.697  1.00  0.00     0.031 C 
ATOM     56  C   UNL A   1      41.839  31.645  37.209  1.00  0.00     0.029 A 
ATOM     57  C   UNL A   1      40.987  31.870  36.139  1.00  0.00     0.049 A 
ATOM     58  H   UNL A   1      40.946  30.922  34.254  1.00  0.00     0.167 HD
ATOM     59  C   UNL A   1      39.122  32.990  34.946  1.00  0.00     0.074 A 
ATOM     60  C   UNL A   1      38.032  33.941  34.865  1.00  0.00     0.031 C 
ATOM     61  C   UNL A   1      39.900  32.813  36.043  1.00  0.00     0.037 A 
BRANCH  48  62
ATOM     62  C   UNL A   1      44.200  28.407  35.428  1.00  0.00     0.058 A 
ATOM     63  C   UNL A   1      45.548  28.777  35.287  1.00  0.00     0.135 A 
ATOM     64  C   UNL A   1      43.912  27.291  36.231  1.00  0.00     0.135 A 
ATOM     65  F   UNL A   1      45.884  29.827  34.521  1.00  0.00    -0.206 F 
ATOM     66  C   UNL A   1      46.570  28.053  35.892  1.00  0.00     0.059 A 
ATOM     67  C   UNL A   1      44.917  26.570  36.872  1.00  0.00     0.059 A 
ATOM     68  F   UNL A   1      42.642  26.891  36.403  1.00  0.00    -0.206 F 
ATOM     69  C   UNL A   1      46.244  26.952  36.685  1.00  0.00     0.060 A 
BRANCH  69  70
ATOM     70  S   UNL A   1      47.584  26.030  37.469  1.00  0.00     0.124 S 
ATOM     71  O   UNL A   1      48.731  26.448  36.669  1.00  0.00    -0.237 OA
ATOM     72  O   UNL A   1      47.548  26.534  38.838  1.00  0.00    -0.237 OA
ATOM     73  O   UNL A   1      47.180  24.637  37.307  1.00  0.00    -0.744 OA
ENDBRANCH  69  70
ENDBRANCH  48  62
BRANCH  49  74
ATOM     74  C   UNL A   1      36.681  33.236  30.923  1.00  0.00     0.058 A 
ATOM     75  C   UNL A   1      36.894  34.220  29.946  1.00  0.00     0.135 A 
ATOM     76  C   UNL A   1      35.353  32.919  31.250  1.00  0.00     0.135 A 
ATOM     77  F   UNL A   1      38.145  34.565  29.603  1.00  0.00    -0.206 F 
ATOM     78  C   UNL A   1      35.834  34.878  29.329  1.00  0.00     0.059 A 
ATOM     79  C   UNL A   1      34.276  33.541  30.625  1.00  0.00     0.059 A 
ATOM     80  F   UNL A   1      35.093  31.972  32.165  1.00  0.00    -0.206 F 
ATOM     81  C   UNL A   1      34.528  34.527  29.672  1.00  0.00     0.060 A 
BRANCH  81  82
ATOM     82  S   UNL A   1      33.161  35.352  28.829  1.00  0.00     0.124 S 
ATOM     83  O   UNL A   1      33.868  36.333  28.014  1.00  0.00    -0.237 OA
ATOM     84  O   UNL A   1      32.538  34.248  28.105  1.00  0.00    -0.237 OA
ATOM     85  O   UNL A   1      32.368  35.896  29.928  1.00  0.00    -0.744 OA
ENDBRANCH  81  82
ENDBRANCH  49  74
BRANCH  61  86
ATOM     86  C   UNL A   1      39.621  33.681  37.240  1.00  0.00     0.058 A 
ATOM     87  C   UNL A   1      38.755  33.269  38.265  1.00  0.00     0.135 A 
ATOM     88  C   UNL A   1      40.271  34.917  37.388  1.00  0.00     0.135 A 
ATOM     89  F   UNL A   1      38.101  32.102  38.170  1.00  0.00    -0.206 F 
ATOM     90  C   UNL A   1      38.528  34.063  39.385  1.00  0.00     0.059 A 
ATOM     91  C   UNL A   1      40.083  35.712  38.515  1.00  0.00     0.059 A 
ATOM     92  F   UNL A   1      41.116  35.355  36.441  1.00  0.00    -0.206 F 
ATOM     93  C   UNL A   1      39.201  35.280  39.503  1.00  0.00     0.060 A 
BRANCH  93  94
ATOM     94  S   UNL A   1      38.927  36.279  40.982  1.00  0.00     0.124 S 
ATOM     95  O   UNL A   1      38.525  37.557  40.404  1.00  0.00    -0.237 OA
ATOM     96  O   UNL A   1      37.875  35.535  41.670  1.00  0.00    -0.237 OA
ATOM     97  O   UNL A   1      40.227  36.271  41.644  1.00  0.00    -0.744 OA
ENDBRANCH  93  94
ENDBRANCH  61  86
ENDBRANCH  35  36
ENDBRANCH  27  30
ENDBRANCH  25  26
ENDBRANCH  24  25
ENDBRANCH   1  24
TORSDOF 17
ENDMDL
