MODEL 1
REMARK VINA RESULT:     -12.2      0.000      0.000
REMARK SMILES C[C@@H](C(=O)NCCCNC(=O)c1ccc(-c2c3nc(c(-c4c(F)cc(S(=O)(=O)[O-])cc4F)c4ccc([nH]4)c(-c4c(F)cc(S(=O)(=O)[O-])cc4F)c4nc(c(-c5c(F)cc(S(=O)(=O)[O-])cc5F)c5ccc2[nH]5)C=C4)C=C3)cc1)c1ccc(N[C@H]2CCC[C@@H]2O)cc1F
REMARK SMILES IDX 6 1 5 2 3 3 4 4 2 6 1 7 78 8 79 9 90 10 80 11 89 12 91 13
REMARK SMILES IDX 81 14 82 15 83 17 84 18 87 19 85 20 86 21 88 22 7 24 8 25
REMARK SMILES IDX 9 26 10 27 11 29 12 30 13 31 77 32 14 33 76 34 15 35 16 36
REMARK SMILES IDX 17 37 70 38 18 39 75 40 69 41 71 42 19 43 74 44 68 45 67 46
REMARK SMILES IDX 20 48 54 49 33 50 53 51 34 52 37 53 52 54 72 55 35 56 36 57
REMARK SMILES IDX 51 59 73 60 38 61 21 62 22 63 31 64 23 65 24 66 30 67 32 68
REMARK SMILES IDX 25 69 26 70 27 71 28 72 29 73 55 74 56 75 65 76 57 77 58 78
REMARK SMILES IDX 64 79 66 80 59 81 60 82 61 83 62 84 63 85 39 86 40 87 49 88
REMARK SMILES IDX 41 89 42 90 48 91 50 92 43 93 44 94 45 95 46 96 47 97
REMARK H PARENT 5 5 82 16 88 23 9 28 71 47 37 58
REMARK Flexibility Score: inf
ROOT
ATOM      1  C   UNL A   1      37.620  23.325  25.762  1.00  0.00     0.117 C 
ENDROOT
BRANCH   1   2
ATOM      2  N   UNL A   1      37.416  23.277  24.329  1.00  0.00    -0.356 N 
ATOM      3  C   UNL A   1      36.281  23.067  23.607  1.00  0.00     0.227 C 
ATOM      4  O   UNL A   1      36.423  22.950  22.387  1.00  0.00    -0.274 OA
ATOM      5  H   UNL A   1      38.229  23.418  23.791  1.00  0.00     0.163 HD
BRANCH   3   6
ATOM      6  C   UNL A   1      34.910  23.021  24.302  1.00  0.00     0.108 C 
ATOM      7  C   UNL A   1      34.102  21.770  23.935  1.00  0.00     0.023 C 
BRANCH   6   8
ATOM      8  C   UNL A   1      34.115  24.278  23.986  1.00  0.00     0.000 A 
ATOM      9  C   UNL A   1      33.342  24.377  22.826  1.00  0.00     0.009 A 
ATOM     10  C   UNL A   1      34.192  25.401  24.808  1.00  0.00     0.129 A 
ATOM     11  C   UNL A   1      32.643  25.550  22.533  1.00  0.00     0.026 A 
ATOM     12  C   UNL A   1      33.487  26.570  24.513  1.00  0.00     0.065 A 
ATOM     13  F   UNL A   1      34.954  25.371  25.912  1.00  0.00    -0.207 F 
ATOM     14  C   UNL A   1      32.674  26.661  23.376  1.00  0.00     0.037 A 
BRANCH  14  15
ATOM     15  N   UNL A   1      31.988  27.832  23.132  1.00  0.00    -0.380 N 
ATOM     16  H   UNL A   1      32.434  28.657  23.432  1.00  0.00     0.160 HD
BRANCH  15  17
ATOM     17  C   UNL A   1      30.688  28.016  22.487  1.00  0.00     0.107 C 
ATOM     18  C   UNL A   1      29.542  27.257  23.169  1.00  0.00     0.027 C 
ATOM     19  C   UNL A   1      30.236  29.485  22.375  1.00  0.00     0.136 C 
ATOM     20  C   UNL A   1      28.403  28.264  23.329  1.00  0.00     0.005 C 
ATOM     21  C   UNL A   1      28.717  29.384  22.350  1.00  0.00     0.034 C 
BRANCH  19  22
ATOM     22  O   UNL A   1      30.712  30.097  21.182  1.00  0.00    -0.391 OA
ATOM     23  H   UNL A   1      31.420  30.723  21.399  1.00  0.00     0.211 HD
ENDBRANCH  19  22
ENDBRANCH  15  17
ENDBRANCH  14  15
ENDBRANCH   6   8
ENDBRANCH   3   6
ENDBRANCH   1   2
BRANCH   1  24
ATOM     24  C   UNL A   1      38.808  22.462  26.183  1.00  0.00     0.042 C 
BRANCH  24  25
ATOM     25  C   UNL A   1      39.867  23.213  26.986  1.00  0.00     0.118 C 
BRANCH  25  26
ATOM     26  N   UNL A   1      40.997  23.625  26.167  1.00  0.00    -0.352 N 
ATOM     27  C   UNL A   1      41.688  24.809  26.151  1.00  0.00     0.251 C 
ATOM     28  H   UNL A   1      41.314  22.948  25.525  1.00  0.00     0.163 HD
ATOM     29  O   UNL A   1      42.474  25.033  25.231  1.00  0.00    -0.269 OA
BRANCH  27  30
ATOM     30  C   UNL A   1      41.487  25.817  27.214  1.00  0.00     0.039 A 
ATOM     31  C   UNL A   1      40.439  25.640  28.121  1.00  0.00     0.014 A 
ATOM     32  C   UNL A   1      42.298  26.952  27.298  1.00  0.00     0.014 A 
ATOM     33  C   UNL A   1      40.239  26.570  29.143  1.00  0.00     0.010 A 
ATOM     34  C   UNL A   1      42.143  27.841  28.360  1.00  0.00     0.010 A 
ATOM     35  C   UNL A   1      41.110  27.662  29.291  1.00  0.00    -0.014 A 
BRANCH  35  36
ATOM     36  C   UNL A   1      40.953  28.624  30.413  1.00  0.00     0.031 A 
ATOM     37  C   UNL A   1      41.820  28.509  31.638  1.00  0.00     0.074 A 
ATOM     38  C   UNL A   1      39.987  29.561  30.354  1.00  0.00     0.049 A 
ATOM     39  N   UNL A   1      41.783  29.208  32.743  1.00  0.00    -0.248 NA
ATOM     40  C   UNL A   1      42.846  27.455  31.630  1.00  0.00     0.031 C 
ATOM     41  C   UNL A   1      39.054  29.744  29.240  1.00  0.00     0.029 A 
ATOM     42  N   UNL A   1      39.621  30.530  31.254  1.00  0.00    -0.354 N 
ATOM     43  C   UNL A   1      42.767  28.671  33.566  1.00  0.00     0.074 A 
ATOM     44  C   UNL A   1      43.351  27.557  32.851  1.00  0.00     0.031 C 
ATOM     45  C   UNL A   1      38.236  30.773  29.515  1.00  0.00     0.029 A 
ATOM     46  C   UNL A   1      38.559  31.299  30.837  1.00  0.00     0.049 A 
ATOM     47  H   UNL A   1      40.075  30.663  32.117  1.00  0.00     0.167 HD
ATOM     48  C   UNL A   1      43.162  29.083  34.796  1.00  0.00     0.037 A 
ATOM     49  C   UNL A   1      37.912  32.305  31.454  1.00  0.00     0.037 A 
ATOM     50  C   UNL A   1      42.593  30.209  35.490  1.00  0.00     0.049 A 
ATOM     51  C   UNL A   1      38.368  32.745  32.818  1.00  0.00     0.074 A 
ATOM     52  C   UNL A   1      42.964  30.742  36.713  1.00  0.00     0.029 A 
ATOM     53  N   UNL A   1      41.533  30.974  35.026  1.00  0.00    -0.354 N 
ATOM     54  N   UNL A   1      39.341  32.265  33.556  1.00  0.00    -0.248 NA
ATOM     55  C   UNL A   1      37.644  33.866  33.433  1.00  0.00     0.031 C 
ATOM     56  C   UNL A   1      42.100  31.803  37.008  1.00  0.00     0.029 A 
ATOM     57  C   UNL A   1      41.222  31.961  35.948  1.00  0.00     0.049 A 
ATOM     58  H   UNL A   1      41.069  30.836  34.169  1.00  0.00     0.167 HD
ATOM     59  C   UNL A   1      39.362  33.040  34.709  1.00  0.00     0.074 A 
ATOM     60  C   UNL A   1      38.313  34.028  34.567  1.00  0.00     0.031 C 
ATOM     61  C   UNL A   1      40.177  32.942  35.789  1.00  0.00     0.037 A 
BRANCH  48  62
ATOM     62  C   UNL A   1      44.267  28.312  35.467  1.00  0.00     0.058 A 
ATOM     63  C   UNL A   1      43.998  27.228  36.317  1.00  0.00     0.135 A 
ATOM     64  C   UNL A   1      45.612  28.639  35.230  1.00  0.00     0.135 A 
ATOM     65  F   UNL A   1      42.730  26.881  36.591  1.00  0.00    -0.206 F 
ATOM     66  C   UNL A   1      45.021  26.516  36.934  1.00  0.00     0.059 A 
ATOM     67  C   UNL A   1      46.652  27.922  35.813  1.00  0.00     0.059 A 
ATOM     68  F   UNL A   1      45.927  29.665  34.424  1.00  0.00    -0.206 F 
ATOM     69  C   UNL A   1      46.346  26.871  36.676  1.00  0.00     0.060 A 
BRANCH  69  70
ATOM     70  S   UNL A   1      47.662  25.934  37.483  1.00  0.00     0.124 S 
ATOM     71  O   UNL A   1      48.518  27.006  37.981  1.00  0.00    -0.237 OA
ATOM     72  O   UNL A   1      46.934  25.182  38.499  1.00  0.00    -0.237 OA
ATOM     73  O   UNL A   1      48.224  25.135  36.398  1.00  0.00    -0.744 OA
ENDBRANCH  69  70
ENDBRANCH  48  62
BRANCH  49  74
ATOM     74  C   UNL A   1      36.773  32.980  30.775  1.00  0.00     0.058 A 
ATOM     75  C   UNL A   1      35.451  32.745  31.179  1.00  0.00     0.135 A 
ATOM     76  C   UNL A   1      36.984  33.885  29.724  1.00  0.00     0.135 A 
ATOM     77  F   UNL A   1      35.198  31.882  32.176  1.00  0.00    -0.206 F 
ATOM     78  C   UNL A   1      34.376  33.371  30.557  1.00  0.00     0.059 A 
ATOM     79  C   UNL A   1      35.928  34.543  29.102  1.00  0.00     0.059 A 
ATOM     80  F   UNL A   1      38.232  34.158  29.312  1.00  0.00    -0.206 F 
ATOM     81  C   UNL A   1      34.625  34.272  29.520  1.00  0.00     0.060 A 
BRANCH  81  82
ATOM     82  S   UNL A   1      33.228  35.119  28.753  1.00  0.00     0.124 S 
ATOM     83  O   UNL A   1      32.444  35.508  29.919  1.00  0.00    -0.237 OA
ATOM     84  O   UNL A   1      33.886  36.207  28.035  1.00  0.00    -0.237 OA
ATOM     85  O   UNL A   1      32.635  34.089  27.906  1.00  0.00    -0.744 OA
ENDBRANCH  81  82
ENDBRANCH  49  74
BRANCH  61  86
ATOM     86  C   UNL A   1      39.988  33.947  36.891  1.00  0.00     0.058 A 
ATOM     87  C   UNL A   1      40.622  35.199  36.864  1.00  0.00     0.135 A 
ATOM     88  C   UNL A   1      39.121  33.673  37.962  1.00  0.00     0.135 A 
ATOM     89  F   UNL A   1      41.465  35.508  35.867  1.00  0.00    -0.206 F 
ATOM     90  C   UNL A   1      40.421  36.136  37.873  1.00  0.00     0.059 A 
ATOM     91  C   UNL A   1      38.886  34.605  38.967  1.00  0.00     0.059 A 
ATOM     92  F   UNL A   1      38.481  32.494  38.031  1.00  0.00    -0.206 F 
ATOM     93  C   UNL A   1      39.549  35.831  38.920  1.00  0.00     0.060 A 
BRANCH  93  94
ATOM     94  S   UNL A   1      39.272  37.068  40.204  1.00  0.00     0.124 S 
ATOM     95  O   UNL A   1      40.639  37.416  40.578  1.00  0.00    -0.237 OA
ATOM     96  O   UNL A   1      38.528  38.100  39.490  1.00  0.00    -0.237 OA
ATOM     97  O   UNL A   1      38.510  36.343  41.216  1.00  0.00    -0.744 OA
ENDBRANCH  93  94
ENDBRANCH  61  86
ENDBRANCH  35  36
ENDBRANCH  27  30
ENDBRANCH  25  26
ENDBRANCH  24  25
ENDBRANCH   1  24
TORSDOF 17
ENDMDL
MODEL 2
REMARK VINA RESULT:     -12.0      4.826     10.683
REMARK SMILES C[C@@H](C(=O)NCCCNC(=O)c1ccc(-c2c3nc(c(-c4c(F)cc(S(=O)(=O)[O-])cc4F)c4ccc([nH]4)c(-c4c(F)cc(S(=O)(=O)[O-])cc4F)c4nc(c(-c5c(F)cc(S(=O)(=O)[O-])cc5F)c5ccc2[nH]5)C=C4)C=C3)cc1)c1ccc(N[C@H]2CCC[C@@H]2O)cc1F
REMARK SMILES IDX 6 1 5 2 3 3 4 4 2 6 1 7 78 8 79 9 90 10 80 11 89 12 91 13
REMARK SMILES IDX 81 14 82 15 83 17 84 18 87 19 85 20 86 21 88 22 7 24 8 25
REMARK SMILES IDX 9 26 10 27 11 29 12 30 13 31 77 32 14 33 76 34 15 35 16 36
REMARK SMILES IDX 17 37 70 38 18 39 75 40 69 41 71 42 19 43 74 44 68 45 67 46
REMARK SMILES IDX 20 48 54 49 33 50 53 51 34 52 37 53 52 54 72 55 35 56 36 57
REMARK SMILES IDX 51 59 73 60 38 61 21 62 22 63 31 64 23 65 24 66 30 67 32 68
REMARK SMILES IDX 25 69 26 70 27 71 28 72 29 73 55 74 56 75 65 76 57 77 58 78
REMARK SMILES IDX 64 79 66 80 59 81 60 82 61 83 62 84 63 85 39 86 40 87 49 88
REMARK SMILES IDX 41 89 42 90 48 91 50 92 43 93 44 94 45 95 46 96 47 97
REMARK H PARENT 5 5 82 16 88 23 9 28 71 47 37 58
REMARK Flexibility Score: inf
ROOT
ATOM      1  C   UNL A   1      32.027  27.737  25.225  1.00  0.00     0.117 C 
ENDROOT
BRANCH   1   2
ATOM      2  N   UNL A   1      31.380  26.676  25.968  1.00  0.00    -0.356 N 
ATOM      3  C   UNL A   1      31.197  25.364  25.654  1.00  0.00     0.227 C 
ATOM      4  O   UNL A   1      30.490  24.710  26.426  1.00  0.00    -0.274 OA
ATOM      5  H   UNL A   1      31.011  26.948  26.840  1.00  0.00     0.163 HD
BRANCH   3   6
ATOM      6  C   UNL A   1      31.879  24.755  24.418  1.00  0.00     0.108 C 
ATOM      7  C   UNL A   1      30.972  24.754  23.181  1.00  0.00     0.023 C 
BRANCH   6   8
ATOM      8  C   UNL A   1      32.362  23.345  24.723  1.00  0.00     0.000 A 
ATOM      9  C   UNL A   1      31.748  22.227  24.153  1.00  0.00     0.009 A 
ATOM     10  C   UNL A   1      33.387  23.121  25.641  1.00  0.00     0.129 A 
ATOM     11  C   UNL A   1      32.181  20.938  24.467  1.00  0.00     0.026 A 
ATOM     12  C   UNL A   1      33.821  21.829  25.947  1.00  0.00     0.065 A 
ATOM     13  F   UNL A   1      33.981  24.160  26.247  1.00  0.00    -0.207 F 
ATOM     14  C   UNL A   1      33.241  20.706  25.345  1.00  0.00     0.037 A 
BRANCH  14  15
ATOM     15  N   UNL A   1      33.709  19.451  25.672  1.00  0.00    -0.380 N 
ATOM     16  H   UNL A   1      34.085  19.359  26.578  1.00  0.00     0.160 HD
BRANCH  15  17
ATOM     17  C   UNL A   1      33.725  18.237  24.857  1.00  0.00     0.107 C 
ATOM     18  C   UNL A   1      35.133  17.705  24.558  1.00  0.00     0.027 C 
ATOM     19  C   UNL A   1      32.928  17.059  25.454  1.00  0.00     0.136 C 
ATOM     20  C   UNL A   1      35.095  16.209  24.868  1.00  0.00     0.005 C 
ATOM     21  C   UNL A   1      33.621  15.835  24.870  1.00  0.00     0.034 C 
BRANCH  19  22
ATOM     22  O   UNL A   1      31.561  17.091  25.060  1.00  0.00    -0.391 OA
ATOM     23  H   UNL A   1      30.996  17.008  25.844  1.00  0.00     0.211 HD
ENDBRANCH  19  22
ENDBRANCH  15  17
ENDBRANCH  14  15
ENDBRANCH   6   8
ENDBRANCH   3   6
ENDBRANCH   1   2
BRANCH   1  24
ATOM     24  C   UNL A   1      33.480  27.915  25.663  1.00  0.00     0.042 C 
BRANCH  24  25
ATOM     25  C   UNL A   1      33.644  28.245  27.145  1.00  0.00     0.118 C 
BRANCH  25  26
ATOM     26  N   UNL A   1      33.517  29.670  27.414  1.00  0.00    -0.352 N 
ATOM     27  C   UNL A   1      34.393  30.532  28.022  1.00  0.00     0.251 C 
ATOM     28  H   UNL A   1      32.673  30.077  27.113  1.00  0.00     0.163 HD
ATOM     29  O   UNL A   1      34.003  31.654  28.346  1.00  0.00    -0.269 OA
BRANCH  27  30
ATOM     30  C   UNL A   1      35.785  30.123  28.305  1.00  0.00     0.039 A 
ATOM     31  C   UNL A   1      36.717  30.141  27.263  1.00  0.00     0.014 A 
ATOM     32  C   UNL A   1      36.169  29.687  29.576  1.00  0.00     0.014 A 
ATOM     33  C   UNL A   1      38.042  29.775  27.509  1.00  0.00     0.010 A 
ATOM     34  C   UNL A   1      37.505  29.392  29.836  1.00  0.00     0.010 A 
ATOM     35  C   UNL A   1      38.455  29.428  28.805  1.00  0.00    -0.014 A 
BRANCH  35  36
ATOM     36  C   UNL A   1      39.875  29.102  29.098  1.00  0.00     0.031 A 
ATOM     37  C   UNL A   1      40.787  30.143  29.691  1.00  0.00     0.074 A 
ATOM     38  C   UNL A   1      40.358  27.888  28.771  1.00  0.00     0.049 A 
ATOM     39  N   UNL A   1      42.067  30.068  29.949  1.00  0.00    -0.248 NA
ATOM     40  C   UNL A   1      40.186  31.447  30.012  1.00  0.00     0.031 C 
ATOM     41  C   UNL A   1      39.586  26.810  28.149  1.00  0.00     0.029 A 
ATOM     42  N   UNL A   1      41.617  27.357  28.904  1.00  0.00    -0.354 N 
ATOM     43  C   UNL A   1      42.428  31.315  30.448  1.00  0.00     0.074 A 
ATOM     44  C   UNL A   1      41.242  32.142  30.411  1.00  0.00     0.031 C 
ATOM     45  C   UNL A   1      40.381  25.743  27.973  1.00  0.00     0.029 A 
ATOM     46  C   UNL A   1      41.727  26.070  28.432  1.00  0.00     0.049 A 
ATOM     47  H   UNL A   1      42.370  27.851  29.301  1.00  0.00     0.167 HD
ATOM     48  C   UNL A   1      43.633  31.724  30.915  1.00  0.00     0.037 A 
ATOM     49  C   UNL A   1      42.793  25.250  28.366  1.00  0.00     0.037 A 
ATOM     50  C   UNL A   1      44.803  30.887  30.973  1.00  0.00     0.049 A 
ATOM     51  C   UNL A   1      44.120  25.727  28.890  1.00  0.00     0.074 A 
ATOM     52  C   UNL A   1      46.053  31.190  31.483  1.00  0.00     0.029 A 
ATOM     53  N   UNL A   1      44.869  29.583  30.503  1.00  0.00    -0.354 N 
ATOM     54  N   UNL A   1      44.428  26.889  29.416  1.00  0.00    -0.248 NA
ATOM     55  C   UNL A   1      45.243  24.782  28.819  1.00  0.00     0.031 C 
ATOM     56  C   UNL A   1      46.888  30.084  31.283  1.00  0.00     0.029 A 
ATOM     57  C   UNL A   1      46.144  29.076  30.692  1.00  0.00     0.049 A 
ATOM     58  H   UNL A   1      44.120  29.091  30.095  1.00  0.00     0.167 HD
ATOM     59  C   UNL A   1      45.773  26.806  29.760  1.00  0.00     0.074 A 
ATOM     60  C   UNL A   1      46.215  25.476  29.395  1.00  0.00     0.031 C 
ATOM     61  C   UNL A   1      46.569  27.746  30.327  1.00  0.00     0.037 A 
BRANCH  48  62
ATOM     62  C   UNL A   1      43.744  33.143  31.406  1.00  0.00     0.058 A 
ATOM     63  C   UNL A   1      43.994  34.209  30.527  1.00  0.00     0.135 A 
ATOM     64  C   UNL A   1      43.563  33.445  32.766  1.00  0.00     0.135 A 
ATOM     65  F   UNL A   1      44.189  33.976  29.220  1.00  0.00    -0.206 F 
ATOM     66  C   UNL A   1      44.094  35.519  30.983  1.00  0.00     0.059 A 
ATOM     67  C   UNL A   1      43.630  34.752  33.239  1.00  0.00     0.059 A 
ATOM     68  F   UNL A   1      43.320  32.465  33.650  1.00  0.00    -0.206 F 
ATOM     69  C   UNL A   1      43.910  35.781  32.342  1.00  0.00     0.060 A 
BRANCH  69  70
ATOM     70  S   UNL A   1      44.040  37.488  32.916  1.00  0.00     0.124 S 
ATOM     71  O   UNL A   1      42.924  37.565  33.852  1.00  0.00    -0.237 OA
ATOM     72  O   UNL A   1      45.371  37.518  33.513  1.00  0.00    -0.237 OA
ATOM     73  O   UNL A   1      43.888  38.270  31.692  1.00  0.00    -0.744 OA
ENDBRANCH  69  70
ENDBRANCH  48  62
BRANCH  49  74
ATOM     74  C   UNL A   1      42.643  23.884  27.797  1.00  0.00     0.058 A 
ATOM     75  C   UNL A   1      42.498  22.768  28.633  1.00  0.00     0.135 A 
ATOM     76  C   UNL A   1      42.625  23.669  26.411  1.00  0.00     0.135 A 
ATOM     77  F   UNL A   1      42.516  22.922  29.966  1.00  0.00    -0.206 F 
ATOM     78  C   UNL A   1      42.353  21.484  28.117  1.00  0.00     0.059 A 
ATOM     79  C   UNL A   1      42.456  22.399  25.870  1.00  0.00     0.059 A 
ATOM     80  F   UNL A   1      42.742  24.707  25.568  1.00  0.00    -0.206 F 
ATOM     81  C   UNL A   1      42.330  21.310  26.732  1.00  0.00     0.060 A 
BRANCH  81  82
ATOM     82  S   UNL A   1      42.089  19.648  26.071  1.00  0.00     0.124 S 
ATOM     83  O   UNL A   1      40.669  19.665  25.744  1.00  0.00    -0.237 OA
ATOM     84  O   UNL A   1      43.006  19.634  24.934  1.00  0.00    -0.237 OA
ATOM     85  O   UNL A   1      42.473  18.785  27.184  1.00  0.00    -0.744 OA
ENDBRANCH  81  82
ENDBRANCH  49  74
BRANCH  61  86
ATOM     86  C   UNL A   1      47.994  27.363  30.617  1.00  0.00     0.058 A 
ATOM     87  C   UNL A   1      48.360  26.747  31.823  1.00  0.00     0.135 A 
ATOM     88  C   UNL A   1      48.994  27.569  29.652  1.00  0.00     0.135 A 
ATOM     89  F   UNL A   1      47.443  26.534  32.780  1.00  0.00    -0.206 F 
ATOM     90  C   UNL A   1      49.676  26.369  32.074  1.00  0.00     0.059 A 
ATOM     91  C   UNL A   1      50.310  27.175  29.872  1.00  0.00     0.059 A 
ATOM     92  F   UNL A   1      48.694  28.145  28.477  1.00  0.00    -0.206 F 
ATOM     93  C   UNL A   1      50.644  26.585  31.091  1.00  0.00     0.060 A 
BRANCH  93  94
ATOM     94  S   UNL A   1      52.340  26.059  31.416  1.00  0.00     0.124 S 
ATOM     95  O   UNL A   1      52.790  27.082  32.355  1.00  0.00    -0.237 OA
ATOM     96  O   UNL A   1      52.153  24.724  31.973  1.00  0.00    -0.237 OA
ATOM     97  O   UNL A   1      52.966  26.099  30.098  1.00  0.00    -0.744 OA
ENDBRANCH  93  94
ENDBRANCH  61  86
ENDBRANCH  35  36
ENDBRANCH  27  30
ENDBRANCH  25  26
ENDBRANCH  24  25
ENDBRANCH   1  24
TORSDOF 17
ENDMDL
MODEL 3
REMARK VINA RESULT:     -11.9      3.064      9.643
REMARK SMILES C[C@@H](C(=O)NCCCNC(=O)c1ccc(-c2c3nc(c(-c4c(F)cc(S(=O)(=O)[O-])cc4F)c4ccc([nH]4)c(-c4c(F)cc(S(=O)(=O)[O-])cc4F)c4nc(c(-c5c(F)cc(S(=O)(=O)[O-])cc5F)c5ccc2[nH]5)C=C4)C=C3)cc1)c1ccc(N[C@H]2CCC[C@@H]2O)cc1F
REMARK SMILES IDX 6 1 5 2 3 3 4 4 2 6 1 7 78 8 79 9 90 10 80 11 89 12 91 13
REMARK SMILES IDX 81 14 82 15 83 17 84 18 87 19 85 20 86 21 88 22 7 24 8 25
REMARK SMILES IDX 9 26 10 27 11 29 12 30 13 31 77 32 14 33 76 34 15 35 16 36
REMARK SMILES IDX 17 37 70 38 18 39 75 40 69 41 71 42 19 43 74 44 68 45 67 46
REMARK SMILES IDX 20 48 54 49 33 50 53 51 34 52 37 53 52 54 72 55 35 56 36 57
REMARK SMILES IDX 51 59 73 60 38 61 21 62 22 63 31 64 23 65 24 66 30 67 32 68
REMARK SMILES IDX 25 69 26 70 27 71 28 72 29 73 55 74 56 75 65 76 57 77 58 78
REMARK SMILES IDX 64 79 66 80 59 81 60 82 61 83 62 84 63 85 39 86 40 87 49 88
REMARK SMILES IDX 41 89 42 90 48 91 50 92 43 93 44 94 45 95 46 96 47 97
REMARK H PARENT 5 5 82 16 88 23 9 28 71 47 37 58
REMARK Flexibility Score: inf
ROOT
ATOM      1  C   UNL A   1      32.384  28.379  24.222  1.00  0.00     0.117 C 
ENDROOT
BRANCH   1   2
ATOM      2  N   UNL A   1      31.410  27.674  25.029  1.00  0.00    -0.356 N 
ATOM      3  C   UNL A   1      30.938  26.401  24.928  1.00  0.00     0.227 C 
ATOM      4  O   UNL A   1      30.006  26.102  25.681  1.00  0.00    -0.274 OA
ATOM      5  H   UNL A   1      31.026  28.201  25.768  1.00  0.00     0.163 HD
BRANCH   3   6
ATOM      6  C   UNL A   1      31.578  25.406  23.947  1.00  0.00     0.108 C 
ATOM      7  C   UNL A   1      30.584  24.355  23.435  1.00  0.00     0.023 C 
BRANCH   6   8
ATOM      8  C   UNL A   1      32.780  24.730  24.588  1.00  0.00     0.000 A 
ATOM      9  C   UNL A   1      32.736  24.265  25.906  1.00  0.00     0.009 A 
ATOM     10  C   UNL A   1      33.991  24.621  23.906  1.00  0.00     0.129 A 
ATOM     11  C   UNL A   1      33.858  23.676  26.492  1.00  0.00     0.026 A 
ATOM     12  C   UNL A   1      35.109  24.026  24.495  1.00  0.00     0.065 A 
ATOM     13  F   UNL A   1      34.097  25.090  22.653  1.00  0.00    -0.207 F 
ATOM     14  C   UNL A   1      35.058  23.516  25.798  1.00  0.00     0.037 A 
BRANCH  14  15
ATOM     15  N   UNL A   1      36.184  22.928  26.334  1.00  0.00    -0.380 N 
ATOM     16  H   UNL A   1      36.049  22.441  27.179  1.00  0.00     0.160 HD
BRANCH  15  17
ATOM     17  C   UNL A   1      37.553  22.929  25.818  1.00  0.00     0.107 C 
ATOM     18  C   UNL A   1      38.462  23.980  26.468  1.00  0.00     0.027 C 
ATOM     19  C   UNL A   1      38.282  21.577  25.947  1.00  0.00     0.136 C 
ATOM     20  C   UNL A   1      39.749  23.248  26.850  1.00  0.00     0.005 C 
ATOM     21  C   UNL A   1      39.750  21.975  26.018  1.00  0.00     0.034 C 
BRANCH  19  22
ATOM     22  O   UNL A   1      38.049  20.739  24.820  1.00  0.00    -0.391 OA
ATOM     23  H   UNL A   1      38.712  20.031  24.801  1.00  0.00     0.211 HD
ENDBRANCH  19  22
ENDBRANCH  15  17
ENDBRANCH  14  15
ENDBRANCH   6   8
ENDBRANCH   3   6
ENDBRANCH   1   2
BRANCH   1  24
ATOM     24  C   UNL A   1      33.799  28.183  24.764  1.00  0.00     0.042 C 
BRANCH  24  25
ATOM     25  C   UNL A   1      33.946  28.509  26.248  1.00  0.00     0.118 C 
BRANCH  25  26
ATOM     26  N   UNL A   1      33.754  29.924  26.527  1.00  0.00    -0.352 N 
ATOM     27  C   UNL A   1      34.413  30.746  27.404  1.00  0.00     0.251 C 
ATOM     28  H   UNL A   1      33.040  30.358  26.006  1.00  0.00     0.163 HD
ATOM     29  O   UNL A   1      33.952  31.862  27.644  1.00  0.00    -0.269 OA
BRANCH  27  30
ATOM     30  C   UNL A   1      35.656  30.301  28.070  1.00  0.00     0.039 A 
ATOM     31  C   UNL A   1      36.877  30.495  27.417  1.00  0.00     0.014 A 
ATOM     32  C   UNL A   1      35.623  29.662  29.313  1.00  0.00     0.014 A 
ATOM     33  C   UNL A   1      38.066  30.098  28.034  1.00  0.00     0.010 A 
ATOM     34  C   UNL A   1      36.814  29.332  29.957  1.00  0.00     0.010 A 
ATOM     35  C   UNL A   1      38.047  29.543  29.323  1.00  0.00    -0.014 A 
BRANCH  35  36
ATOM     36  C   UNL A   1      39.307  29.178  30.021  1.00  0.00     0.031 A 
ATOM     37  C   UNL A   1      39.749  29.941  31.241  1.00  0.00     0.074 A 
ATOM     38  C   UNL A   1      40.085  28.199  29.518  1.00  0.00     0.049 A 
ATOM     39  N   UNL A   1      40.847  29.816  31.939  1.00  0.00    -0.248 NA
ATOM     40  C   UNL A   1      38.849  31.001  31.723  1.00  0.00     0.031 C 
ATOM     41  C   UNL A   1      39.788  27.417  28.316  1.00  0.00     0.029 A 
ATOM     42  N   UNL A   1      41.290  27.701  29.946  1.00  0.00    -0.354 N 
ATOM     43  C   UNL A   1      40.779  30.787  32.933  1.00  0.00     0.074 A 
ATOM     44  C   UNL A   1      39.553  31.524  32.716  1.00  0.00     0.031 C 
ATOM     45  C   UNL A   1      40.773  26.527  28.115  1.00  0.00     0.029 A 
ATOM     46  C   UNL A   1      41.789  26.699  29.148  1.00  0.00     0.049 A 
ATOM     47  H   UNL A   1      41.753  28.030  30.750  1.00  0.00     0.167 HD
ATOM     48  C   UNL A   1      41.647  31.027  33.945  1.00  0.00     0.037 A 
ATOM     49  C   UNL A   1      42.940  26.004  29.231  1.00  0.00     0.037 A 
ATOM     50  C   UNL A   1      42.853  30.271  34.170  1.00  0.00     0.049 A 
ATOM     51  C   UNL A   1      43.888  26.288  30.364  1.00  0.00     0.074 A 
ATOM     52  C   UNL A   1      43.768  30.398  35.201  1.00  0.00     0.029 A 
ATOM     53  N   UNL A   1      43.313  29.251  33.350  1.00  0.00    -0.354 N 
ATOM     54  N   UNL A   1      43.777  27.168  31.330  1.00  0.00    -0.248 NA
ATOM     55  C   UNL A   1      45.115  25.481  30.423  1.00  0.00     0.031 C 
ATOM     56  C   UNL A   1      44.803  29.483  34.982  1.00  0.00     0.029 A 
ATOM     57  C   UNL A   1      44.510  28.754  33.841  1.00  0.00     0.049 A 
ATOM     58  H   UNL A   1      42.858  28.928  32.540  1.00  0.00     0.167 HD
ATOM     59  C   UNL A   1      44.906  27.005  32.125  1.00  0.00     0.074 A 
ATOM     60  C   UNL A   1      45.680  25.933  31.534  1.00  0.00     0.031 C 
ATOM     61  C   UNL A   1      45.268  27.682  33.243  1.00  0.00     0.037 A 
BRANCH  48  62
ATOM     62  C   UNL A   1      41.322  32.151  34.891  1.00  0.00     0.058 A 
ATOM     63  C   UNL A   1      40.524  31.950  36.029  1.00  0.00     0.135 A 
ATOM     64  C   UNL A   1      41.842  33.438  34.678  1.00  0.00     0.135 A 
ATOM     65  F   UNL A   1      39.988  30.743  36.274  1.00  0.00    -0.206 F 
ATOM     66  C   UNL A   1      40.227  32.989  36.903  1.00  0.00     0.059 A 
ATOM     67  C   UNL A   1      41.582  34.486  35.555  1.00  0.00     0.059 A 
ATOM     68  F   UNL A   1      42.613  33.687  33.608  1.00  0.00    -0.206 F 
ATOM     69  C   UNL A   1      40.761  34.256  36.657  1.00  0.00     0.060 A 
BRANCH  69  70
ATOM     70  S   UNL A   1      40.367  35.594  37.804  1.00  0.00     0.124 S 
ATOM     71  O   UNL A   1      39.913  36.636  36.889  1.00  0.00    -0.237 OA
ATOM     72  O   UNL A   1      39.335  34.994  38.643  1.00  0.00    -0.237 OA
ATOM     73  O   UNL A   1      41.640  35.855  38.471  1.00  0.00    -0.744 OA
ENDBRANCH  69  70
ENDBRANCH  48  62
BRANCH  49  74
ATOM     74  C   UNL A   1      43.248  24.957  28.221  1.00  0.00     0.058 A 
ATOM     75  C   UNL A   1      42.969  23.606  28.475  1.00  0.00     0.135 A 
ATOM     76  C   UNL A   1      43.810  25.285  26.978  1.00  0.00     0.135 A 
ATOM     77  F   UNL A   1      42.438  23.241  29.652  1.00  0.00    -0.206 F 
ATOM     78  C   UNL A   1      43.248  22.616  27.540  1.00  0.00     0.059 A 
ATOM     79  C   UNL A   1      44.075  24.316  26.016  1.00  0.00     0.059 A 
ATOM     80  F   UNL A   1      44.079  26.566  26.680  1.00  0.00    -0.206 F 
ATOM     81  C   UNL A   1      43.799  22.981  26.311  1.00  0.00     0.060 A 
BRANCH  81  82
ATOM     82  S   UNL A   1      44.110  21.695  25.082  1.00  0.00     0.124 S 
ATOM     83  O   UNL A   1      43.113  20.695  25.445  1.00  0.00    -0.237 OA
ATOM     84  O   UNL A   1      43.874  22.406  23.828  1.00  0.00    -0.237 OA
ATOM     85  O   UNL A   1      45.499  21.323  25.330  1.00  0.00    -0.744 OA
ENDBRANCH  81  82
ENDBRANCH  49  74
BRANCH  61  86
ATOM     86  C   UNL A   1      46.544  27.265  33.920  1.00  0.00     0.058 A 
ATOM     87  C   UNL A   1      46.573  26.228  34.866  1.00  0.00     0.135 A 
ATOM     88  C   UNL A   1      47.762  27.878  33.580  1.00  0.00     0.135 A 
ATOM     89  F   UNL A   1      45.436  25.615  35.231  1.00  0.00    -0.206 F 
ATOM     90  C   UNL A   1      47.762  25.829  35.469  1.00  0.00     0.059 A 
ATOM     91  C   UNL A   1      48.965  27.476  34.151  1.00  0.00     0.059 A 
ATOM     92  F   UNL A   1      47.792  28.868  32.674  1.00  0.00    -0.206 F 
ATOM     93  C   UNL A   1      48.954  26.458  35.103  1.00  0.00     0.060 A 
BRANCH  93  94
ATOM     94  S   UNL A   1      50.492  25.906  35.868  1.00  0.00     0.124 S 
ATOM     95  O   UNL A   1      51.461  26.819  35.271  1.00  0.00    -0.237 OA
ATOM     96  O   UNL A   1      50.225  26.105  37.289  1.00  0.00    -0.237 OA
ATOM     97  O   UNL A   1      50.601  24.512  35.447  1.00  0.00    -0.744 OA
ENDBRANCH  93  94
ENDBRANCH  61  86
ENDBRANCH  35  36
ENDBRANCH  27  30
ENDBRANCH  25  26
ENDBRANCH  24  25
ENDBRANCH   1  24
TORSDOF 17
ENDMDL
