MODEL 1
REMARK VINA RESULT:     -11.9      0.000      0.000
REMARK SMILES CC[C@H](C)N1C(=O)c2ccccc2[C@@H](C(=O)NCCCNC(=O)c2ccc(-c3c4nc(c(-c5c(F)cc(S(=O)(=O)[O-])cc5F)c5ccc([nH]5)c(-c5c(F)cc(S(=O)(=O)[O-])cc5F)c5nc(c(-c6c(F)cc(S(=O)(=O)[O-])cc6F)c6ccc3[nH]6)C=C5)C=C4)cc2)C12CCCCC2
REMARK SMILES IDX 19 1 18 2 17 3 15 4 16 5 14 7 5 8 6 9 90 10 7 11 8 12 91 13
REMARK SMILES IDX 95 14 9 15 13 16 92 17 94 18 10 19 12 20 93 21 11 22 3 23
REMARK SMILES IDX 4 24 2 25 1 26 20 27 21 28 22 29 23 31 24 32 25 33 89 34
REMARK SMILES IDX 26 35 88 36 27 37 28 38 29 39 82 40 30 41 87 42 81 43 83 44
REMARK SMILES IDX 31 45 86 46 80 47 79 48 32 50 66 51 45 52 65 53 46 54 49 55
REMARK SMILES IDX 64 56 84 57 47 58 48 59 63 61 85 62 50 63 33 64 34 65 43 66
REMARK SMILES IDX 35 67 36 68 42 69 44 70 37 71 38 72 39 73 40 74 41 75 67 76
REMARK SMILES IDX 68 77 77 78 69 79 70 80 76 81 78 82 71 83 72 84 73 85 74 86
REMARK SMILES IDX 75 87 51 88 52 89 61 90 53 91 54 92 60 93 62 94 55 95 56 96
REMARK SMILES IDX 57 97 58 98 59 99
REMARK H PARENT 17 6 21 30 83 49 49 60
REMARK Flexibility Score: inf
ROOT
ATOM      1  C   UNL A   1      35.945  23.636  26.119  1.00  0.00     0.042 C 
ENDROOT
BRANCH   1   2
ATOM      2  C   UNL A   1      34.527  23.361  25.605  1.00  0.00     0.117 C 
BRANCH   2   3
ATOM      3  N   UNL A   1      33.445  23.748  26.512  1.00  0.00    -0.355 N 
ATOM      4  C   UNL A   1      32.226  24.342  26.354  1.00  0.00     0.229 C 
ATOM      5  O   UNL A   1      31.524  24.400  27.373  1.00  0.00    -0.274 OA
ATOM      6  H   UNL A   1      33.642  23.531  27.452  1.00  0.00     0.163 HD
BRANCH   4   7
ATOM      7  C   UNL A   1      31.675  24.877  25.009  1.00  0.00     0.135 C 
ATOM      8  N   UNL A   1      32.172  26.471  23.056  1.00  0.00    -0.329 N 
ATOM      9  C   UNL A   1      32.814  25.445  22.350  1.00  0.00     0.254 C 
ATOM     10  C   UNL A   1      32.100  26.358  24.590  1.00  0.00     0.059 C 
ATOM     11  O   UNL A   1      33.509  25.605  21.350  1.00  0.00    -0.269 OA
ATOM     12  C   UNL A   1      32.509  24.054  22.770  1.00  0.00     0.044 A 
ATOM     13  C   UNL A   1      33.499  26.749  25.131  1.00  0.00     0.030 C 
ATOM     14  C   UNL A   1      31.071  27.374  25.185  1.00  0.00     0.030 C 
ATOM     15  C   UNL A   1      32.858  22.982  21.932  1.00  0.00     0.014 A 
ATOM     16  C   UNL A   1      31.844  23.796  23.964  1.00  0.00    -0.020 A 
ATOM     17  C   UNL A   1      33.631  27.062  26.624  1.00  0.00     0.002 C 
ATOM     18  C   UNL A   1      31.150  27.562  26.699  1.00  0.00     0.002 C 
ATOM     19  C   UNL A   1      32.519  21.668  22.271  1.00  0.00     0.001 A 
ATOM     20  C   UNL A   1      31.435  22.475  24.257  1.00  0.00     0.005 A 
ATOM     21  C   UNL A   1      32.543  27.991  27.139  1.00  0.00     0.000 C 
ATOM     22  C   UNL A   1      31.786  21.417  23.424  1.00  0.00     0.000 A 
BRANCH   8  23
ATOM     23  C   UNL A   1      31.780  27.731  22.323  1.00  0.00     0.082 C 
ATOM     24  C   UNL A   1      30.287  28.094  22.350  1.00  0.00     0.031 C 
BRANCH  23  25
ATOM     25  C   UNL A   1      32.606  28.993  22.709  1.00  0.00     0.021 C 
ATOM     26  C   UNL A   1      34.112  28.825  22.538  1.00  0.00     0.006 C 
ENDBRANCH  23  25
ENDBRANCH   8  23
ENDBRANCH   4   7
ENDBRANCH   2   3
ENDBRANCH   1   2
BRANCH   1  27
ATOM     27  C   UNL A   1      37.026  23.689  25.054  1.00  0.00     0.118 C 
BRANCH  27  28
ATOM     28  N   UNL A   1      38.054  22.697  25.296  1.00  0.00    -0.352 N 
ATOM     29  C   UNL A   1      39.276  22.871  25.903  1.00  0.00     0.251 C 
ATOM     30  H   UNL A   1      37.853  21.784  24.988  1.00  0.00     0.163 HD
ATOM     31  O   UNL A   1      40.146  22.016  25.774  1.00  0.00    -0.269 OA
BRANCH  29  32
ATOM     32  C   UNL A   1      39.543  24.101  26.686  1.00  0.00     0.039 A 
ATOM     33  C   UNL A   1      40.315  25.139  26.155  1.00  0.00     0.014 A 
ATOM     34  C   UNL A   1      39.012  24.216  27.973  1.00  0.00     0.014 A 
ATOM     35  C   UNL A   1      40.675  26.221  26.957  1.00  0.00     0.010 A 
ATOM     36  C   UNL A   1      39.305  25.343  28.746  1.00  0.00     0.010 A 
ATOM     37  C   UNL A   1      40.171  26.338  28.261  1.00  0.00    -0.014 A 
BRANCH  37  38
ATOM     38  C   UNL A   1      40.554  27.492  29.119  1.00  0.00     0.031 A 
ATOM     39  C   UNL A   1      41.859  27.482  29.871  1.00  0.00     0.074 A 
ATOM     40  C   UNL A   1      39.730  28.553  29.224  1.00  0.00     0.049 A 
ATOM     41  N   UNL A   1      42.318  28.341  30.746  1.00  0.00    -0.248 NA
ATOM     42  C   UNL A   1      42.766  26.353  29.608  1.00  0.00     0.031 C 
ATOM     43  C   UNL A   1      38.453  28.704  28.525  1.00  0.00     0.029 A 
ATOM     44  N   UNL A   1      39.845  29.707  29.958  1.00  0.00    -0.354 N 
ATOM     45  C   UNL A   1      43.552  27.847  31.156  1.00  0.00     0.074 A 
ATOM     46  C   UNL A   1      43.755  26.596  30.457  1.00  0.00     0.031 C 
ATOM     47  C   UNL A   1      37.916  29.891  28.842  1.00  0.00     0.029 A 
ATOM     48  C   UNL A   1      38.772  30.555  29.819  1.00  0.00     0.049 A 
ATOM     49  H   UNL A   1      40.621  29.909  30.530  1.00  0.00     0.167 HD
ATOM     50  C   UNL A   1      44.437  28.391  32.027  1.00  0.00     0.037 A 
ATOM     51  C   UNL A   1      38.490  31.722  30.432  1.00  0.00     0.037 A 
ATOM     52  C   UNL A   1      44.234  29.644  32.711  1.00  0.00     0.049 A 
ATOM     53  C   UNL A   1      39.452  32.270  31.446  1.00  0.00     0.074 A 
ATOM     54  C   UNL A   1      45.078  30.286  33.601  1.00  0.00     0.029 A 
ATOM     55  N   UNL A   1      43.108  30.445  32.585  1.00  0.00    -0.354 N 
ATOM     56  N   UNL A   1      40.606  31.784  31.835  1.00  0.00    -0.248 NA
ATOM     57  C   UNL A   1      39.066  33.520  32.114  1.00  0.00     0.031 C 
ATOM     58  C   UNL A   1      44.441  31.448  34.050  1.00  0.00     0.029 A 
ATOM     59  C   UNL A   1      43.222  31.560  33.402  1.00  0.00     0.049 A 
ATOM     60  H   UNL A   1      42.339  30.250  32.000  1.00  0.00     0.167 HD
ATOM     61  C   UNL A   1      41.090  32.672  32.791  1.00  0.00     0.074 A 
ATOM     62  C   UNL A   1      40.115  33.739  32.897  1.00  0.00     0.031 C 
ATOM     63  C   UNL A   1      42.233  32.605  33.518  1.00  0.00     0.037 A 
BRANCH  50  64
ATOM     64  C   UNL A   1      45.700  27.620  32.308  1.00  0.00     0.058 A 
ATOM     65  C   UNL A   1      45.776  26.673  33.343  1.00  0.00     0.135 A 
ATOM     66  C   UNL A   1      46.845  27.811  31.516  1.00  0.00     0.135 A 
ATOM     67  F   UNL A   1      44.719  26.458  34.142  1.00  0.00    -0.206 F 
ATOM     68  C   UNL A   1      46.949  25.971  33.604  1.00  0.00     0.059 A 
ATOM     69  C   UNL A   1      48.020  27.098  31.740  1.00  0.00     0.059 A 
ATOM     70  F   UNL A   1      46.831  28.702  30.512  1.00  0.00    -0.206 F 
ATOM     71  C   UNL A   1      48.066  26.191  32.798  1.00  0.00     0.060 A 
BRANCH  71  72
ATOM     72  S   UNL A   1      49.581  25.278  33.157  1.00  0.00     0.124 S 
ATOM     73  O   UNL A   1      50.069  24.982  31.813  1.00  0.00    -0.237 OA
ATOM     74  O   UNL A   1      50.359  26.255  33.913  1.00  0.00    -0.237 OA
ATOM     75  O   UNL A   1      49.114  24.125  33.921  1.00  0.00    -0.744 OA
ENDBRANCH  71  72
ENDBRANCH  50  64
BRANCH  51  76
ATOM     76  C   UNL A   1      37.231  32.438  30.095  1.00  0.00     0.058 A 
ATOM     77  C   UNL A   1      36.036  32.143  30.766  1.00  0.00     0.135 A 
ATOM     78  C   UNL A   1      37.208  33.467  29.141  1.00  0.00     0.135 A 
ATOM     79  F   UNL A   1      36.004  31.158  31.677  1.00  0.00    -0.206 F 
ATOM     80  C   UNL A   1      34.865  32.848  30.512  1.00  0.00     0.059 A 
ATOM     81  C   UNL A   1      36.057  34.206  28.888  1.00  0.00     0.059 A 
ATOM     82  F   UNL A   1      38.328  33.795  28.476  1.00  0.00    -0.206 F 
ATOM     83  C   UNL A   1      34.890  33.889  29.581  1.00  0.00     0.060 A 
BRANCH  83  84
ATOM     84  S   UNL A   1      33.386  34.858  29.334  1.00  0.00     0.124 S 
ATOM     85  O   UNL A   1      32.671  34.050  28.352  1.00  0.00    -0.237 OA
ATOM     86  O   UNL A   1      32.817  34.880  30.678  1.00  0.00    -0.237 OA
ATOM     87  O   UNL A   1      33.887  36.141  28.851  1.00  0.00    -0.744 OA
ENDBRANCH  83  84
ENDBRANCH  51  76
BRANCH  63  88
ATOM     88  C   UNL A   1      42.488  33.718  34.500  1.00  0.00     0.058 A 
ATOM     89  C   UNL A   1      42.029  33.646  35.826  1.00  0.00     0.135 A 
ATOM     90  C   UNL A   1      43.214  34.859  34.121  1.00  0.00     0.135 A 
ATOM     91  F   UNL A   1      41.325  32.581  36.240  1.00  0.00    -0.206 F 
ATOM     92  C   UNL A   1      42.248  34.681  36.728  1.00  0.00     0.059 A 
ATOM     93  C   UNL A   1      43.473  35.893  35.017  1.00  0.00     0.059 A 
ATOM     94  F   UNL A   1      43.688  34.975  32.870  1.00  0.00    -0.206 F 
ATOM     95  C   UNL A   1      42.969  35.802  36.314  1.00  0.00     0.060 A 
BRANCH  95  96
ATOM     96  S   UNL A   1      43.244  37.138  37.497  1.00  0.00     0.124 S 
ATOM     97  O   UNL A   1      43.674  38.222  36.621  1.00  0.00    -0.237 OA
ATOM     98  O   UNL A   1      41.924  37.295  38.099  1.00  0.00    -0.237 OA
ATOM     99  O   UNL A   1      44.272  36.603  38.383  1.00  0.00    -0.744 OA
ENDBRANCH  95  96
ENDBRANCH  63  88
ENDBRANCH  37  38
ENDBRANCH  29  32
ENDBRANCH  27  28
ENDBRANCH   1  27
TORSDOF 15
ENDMDL
MODEL 2
REMARK VINA RESULT:     -11.9      1.176      2.785
REMARK SMILES CC[C@H](C)N1C(=O)c2ccccc2[C@@H](C(=O)NCCCNC(=O)c2ccc(-c3c4nc(c(-c5c(F)cc(S(=O)(=O)[O-])cc5F)c5ccc([nH]5)c(-c5c(F)cc(S(=O)(=O)[O-])cc5F)c5nc(c(-c6c(F)cc(S(=O)(=O)[O-])cc6F)c6ccc3[nH]6)C=C5)C=C4)cc2)C12CCCCC2
REMARK SMILES IDX 19 1 18 2 17 3 15 4 16 5 14 7 5 8 6 9 90 10 7 11 8 12 91 13
REMARK SMILES IDX 95 14 9 15 13 16 92 17 94 18 10 19 12 20 93 21 11 22 3 23
REMARK SMILES IDX 4 24 2 25 1 26 20 27 21 28 22 29 23 31 24 32 25 33 89 34
REMARK SMILES IDX 26 35 88 36 27 37 28 38 29 39 82 40 30 41 87 42 81 43 83 44
REMARK SMILES IDX 31 45 86 46 80 47 79 48 32 50 66 51 45 52 65 53 46 54 49 55
REMARK SMILES IDX 64 56 84 57 47 58 48 59 63 61 85 62 50 63 33 64 34 65 43 66
REMARK SMILES IDX 35 67 36 68 42 69 44 70 37 71 38 72 39 73 40 74 41 75 67 76
REMARK SMILES IDX 68 77 77 78 69 79 70 80 76 81 78 82 71 83 72 84 73 85 74 86
REMARK SMILES IDX 75 87 51 88 52 89 61 90 53 91 54 92 60 93 62 94 55 95 56 96
REMARK SMILES IDX 57 97 58 98 59 99
REMARK H PARENT 17 6 21 30 83 49 49 60
REMARK Flexibility Score: inf
ROOT
ATOM      1  C   UNL A   1      35.715  23.600  25.461  1.00  0.00     0.042 C 
ENDROOT
BRANCH   1   2
ATOM      2  C   UNL A   1      34.632  24.578  24.989  1.00  0.00     0.117 C 
BRANCH   2   3
ATOM      3  N   UNL A   1      33.728  25.064  26.033  1.00  0.00    -0.355 N 
ATOM      4  C   UNL A   1      32.851  26.106  26.134  1.00  0.00     0.229 C 
ATOM      5  O   UNL A   1      32.160  26.123  27.162  1.00  0.00    -0.274 OA
ATOM      6  H   UNL A   1      33.760  24.514  26.848  1.00  0.00     0.163 HD
BRANCH   4   7
ATOM      7  C   UNL A   1      32.646  27.193  25.051  1.00  0.00     0.135 C 
ATOM      8  N   UNL A   1      30.864  28.547  23.788  1.00  0.00    -0.329 N 
ATOM      9  C   UNL A   1      30.915  29.561  24.754  1.00  0.00     0.254 C 
ATOM     10  C   UNL A   1      31.293  27.128  24.206  1.00  0.00     0.059 C 
ATOM     11  O   UNL A   1      30.102  30.476  24.859  1.00  0.00    -0.269 OA
ATOM     12  C   UNL A   1      32.122  29.600  25.618  1.00  0.00     0.044 A 
ATOM     13  C   UNL A   1      30.115  26.529  25.017  1.00  0.00     0.030 C 
ATOM     14  C   UNL A   1      31.512  26.213  22.958  1.00  0.00     0.030 C 
ATOM     15  C   UNL A   1      32.392  30.746  26.384  1.00  0.00     0.014 A 
ATOM     16  C   UNL A   1      33.014  28.534  25.650  1.00  0.00    -0.020 A 
ATOM     17  C   UNL A   1      30.110  25.019  25.267  1.00  0.00     0.002 C 
ATOM     18  C   UNL A   1      31.631  24.720  23.264  1.00  0.00     0.002 C 
ATOM     19  C   UNL A   1      33.558  30.837  27.151  1.00  0.00     0.001 A 
ATOM     20  C   UNL A   1      34.227  28.668  26.363  1.00  0.00     0.005 A 
ATOM     21  C   UNL A   1      30.413  24.204  24.020  1.00  0.00     0.000 C 
ATOM     22  C   UNL A   1      34.488  29.804  27.122  1.00  0.00     0.000 A 
BRANCH   8  23
ATOM     23  C   UNL A   1      30.194  28.828  22.465  1.00  0.00     0.082 C 
ATOM     24  C   UNL A   1      28.681  28.562  22.402  1.00  0.00     0.031 C 
BRANCH  23  25
ATOM     25  C   UNL A   1      30.475  30.242  21.879  1.00  0.00     0.021 C 
ATOM     26  C   UNL A   1      29.216  31.027  21.523  1.00  0.00     0.006 C 
ENDBRANCH  23  25
ENDBRANCH   8  23
ENDBRANCH   4   7
ENDBRANCH   2   3
ENDBRANCH   1   2
BRANCH   1  27
ATOM     27  C   UNL A   1      37.047  23.703  24.739  1.00  0.00     0.118 C 
BRANCH  27  28
ATOM     28  N   UNL A   1      37.946  22.640  25.138  1.00  0.00    -0.352 N 
ATOM     29  C   UNL A   1      39.107  22.739  25.869  1.00  0.00     0.251 C 
ATOM     30  H   UNL A   1      37.695  21.732  24.851  1.00  0.00     0.163 HD
ATOM     31  O   UNL A   1      39.903  21.804  25.877  1.00  0.00    -0.269 OA
BRANCH  29  32
ATOM     32  C   UNL A   1      39.402  23.981  26.622  1.00  0.00     0.039 A 
ATOM     33  C   UNL A   1      40.180  24.997  26.058  1.00  0.00     0.014 A 
ATOM     34  C   UNL A   1      38.892  24.131  27.914  1.00  0.00     0.014 A 
ATOM     35  C   UNL A   1      40.567  26.091  26.831  1.00  0.00     0.010 A 
ATOM     36  C   UNL A   1      39.212  25.270  28.658  1.00  0.00     0.010 A 
ATOM     37  C   UNL A   1      40.084  26.243  28.139  1.00  0.00    -0.014 A 
BRANCH  37  38
ATOM     38  C   UNL A   1      40.495  27.410  28.966  1.00  0.00     0.031 A 
ATOM     39  C   UNL A   1      41.816  27.404  29.688  1.00  0.00     0.074 A 
ATOM     40  C   UNL A   1      39.681  28.479  29.069  1.00  0.00     0.049 A 
ATOM     41  N   UNL A   1      42.301  28.275  30.537  1.00  0.00    -0.248 NA
ATOM     42  C   UNL A   1      42.708  26.262  29.427  1.00  0.00     0.031 C 
ATOM     43  C   UNL A   1      38.390  28.627  28.396  1.00  0.00     0.029 A 
ATOM     44  N   UNL A   1      39.821  29.646  29.778  1.00  0.00    -0.354 N 
ATOM     45  C   UNL A   1      43.540  27.779  30.928  1.00  0.00     0.074 A 
ATOM     46  C   UNL A   1      43.718  26.513  30.248  1.00  0.00     0.031 C 
ATOM     47  C   UNL A   1      37.870  29.824  28.702  1.00  0.00     0.029 A 
ATOM     48  C   UNL A   1      38.753  30.500  29.647  1.00  0.00     0.049 A 
ATOM     49  H   UNL A   1      40.612  29.852  30.329  1.00  0.00     0.167 HD
ATOM     50  C   UNL A   1      44.449  28.332  31.768  1.00  0.00     0.037 A 
ATOM     51  C   UNL A   1      38.493  31.680  30.243  1.00  0.00     0.037 A 
ATOM     52  C   UNL A   1      44.270  29.599  32.434  1.00  0.00     0.049 A 
ATOM     53  C   UNL A   1      39.482  32.239  31.226  1.00  0.00     0.074 A 
ATOM     54  C   UNL A   1      45.139  30.251  33.292  1.00  0.00     0.029 A 
ATOM     55  N   UNL A   1      43.148  30.406  32.317  1.00  0.00    -0.354 N 
ATOM     56  N   UNL A   1      40.640  31.752  31.598  1.00  0.00    -0.248 NA
ATOM     57  C   UNL A   1      39.121  33.505  31.878  1.00  0.00     0.031 C 
ATOM     58  C   UNL A   1      44.521  31.426  33.733  1.00  0.00     0.029 A 
ATOM     59  C   UNL A   1      43.289  31.535  33.110  1.00  0.00     0.049 A 
ATOM     60  H   UNL A   1      42.365  30.207  31.754  1.00  0.00     0.167 HD
ATOM     61  C   UNL A   1      41.152  32.653  32.526  1.00  0.00     0.074 A 
ATOM     62  C   UNL A   1      40.188  33.730  32.633  1.00  0.00     0.031 C 
ATOM     63  C   UNL A   1      42.311  32.591  33.229  1.00  0.00     0.037 A 
BRANCH  50  64
ATOM     64  C   UNL A   1      45.712  27.555  32.036  1.00  0.00     0.058 A 
ATOM     65  C   UNL A   1      45.810  26.642  33.099  1.00  0.00     0.135 A 
ATOM     66  C   UNL A   1      46.834  27.708  31.204  1.00  0.00     0.135 A 
ATOM     67  F   UNL A   1      44.775  26.465  33.936  1.00  0.00    -0.206 F 
ATOM     68  C   UNL A   1      46.983  25.935  33.347  1.00  0.00     0.059 A 
ATOM     69  C   UNL A   1      48.007  26.989  31.416  1.00  0.00     0.059 A 
ATOM     70  F   UNL A   1      46.798  28.566  30.173  1.00  0.00    -0.206 F 
ATOM     71  C   UNL A   1      48.077  26.116  32.500  1.00  0.00     0.060 A 
BRANCH  71  72
ATOM     72  S   UNL A   1      49.592  25.198  32.843  1.00  0.00     0.124 S 
ATOM     73  O   UNL A   1      50.024  24.836  31.496  1.00  0.00    -0.237 OA
ATOM     74  O   UNL A   1      50.412  26.197  33.523  1.00  0.00    -0.237 OA
ATOM     75  O   UNL A   1      49.140  24.088  33.675  1.00  0.00    -0.744 OA
ENDBRANCH  71  72
ENDBRANCH  50  64
BRANCH  51  76
ATOM     76  C   UNL A   1      37.232  32.400  29.922  1.00  0.00     0.058 A 
ATOM     77  C   UNL A   1      36.031  32.067  30.564  1.00  0.00     0.135 A 
ATOM     78  C   UNL A   1      37.213  33.469  29.012  1.00  0.00     0.135 A 
ATOM     79  F   UNL A   1      35.996  31.043  31.430  1.00  0.00    -0.206 F 
ATOM     80  C   UNL A   1      34.858  32.773  30.324  1.00  0.00     0.059 A 
ATOM     81  C   UNL A   1      36.059  34.209  28.776  1.00  0.00     0.059 A 
ATOM     82  F   UNL A   1      38.338  33.834  28.377  1.00  0.00    -0.206 F 
ATOM     83  C   UNL A   1      34.885  33.853  29.440  1.00  0.00     0.060 A 
BRANCH  83  84
ATOM     84  S   UNL A   1      33.377  34.820  29.214  1.00  0.00     0.124 S 
ATOM     85  O   UNL A   1      33.911  36.101  28.766  1.00  0.00    -0.237 OA
ATOM     86  O   UNL A   1      32.665  34.037  28.208  1.00  0.00    -0.237 OA
ATOM     87  O   UNL A   1      32.773  34.817  30.543  1.00  0.00    -0.744 OA
ENDBRANCH  83  84
ENDBRANCH  51  76
BRANCH  63  88
ATOM     88  C   UNL A   1      42.597  33.720  34.183  1.00  0.00     0.058 A 
ATOM     89  C   UNL A   1      43.239  34.895  33.757  1.00  0.00     0.135 A 
ATOM     90  C   UNL A   1      42.208  33.640  35.529  1.00  0.00     0.135 A 
ATOM     91  F   UNL A   1      43.637  35.022  32.481  1.00  0.00    -0.206 F 
ATOM     92  C   UNL A   1      43.520  35.931  34.640  1.00  0.00     0.059 A 
ATOM     93  C   UNL A   1      42.450  34.679  36.424  1.00  0.00     0.059 A 
ATOM     94  F   UNL A   1      41.578  32.546  35.989  1.00  0.00    -0.206 F 
ATOM     95  C   UNL A   1      43.123  35.814  35.973  1.00  0.00     0.060 A 
BRANCH  95  96
ATOM     96  S   UNL A   1      43.497  37.167  37.108  1.00  0.00     0.124 S 
ATOM     97  O   UNL A   1      42.273  37.231  37.901  1.00  0.00    -0.237 OA
ATOM     98  O   UNL A   1      44.679  36.671  37.805  1.00  0.00    -0.237 OA
ATOM     99  O   UNL A   1      43.728  38.302  36.220  1.00  0.00    -0.744 OA
ENDBRANCH  95  96
ENDBRANCH  63  88
ENDBRANCH  37  38
ENDBRANCH  29  32
ENDBRANCH  27  28
ENDBRANCH   1  27
TORSDOF 15
ENDMDL
MODEL 3
REMARK VINA RESULT:     -11.6      5.713     12.414
REMARK SMILES CC[C@H](C)N1C(=O)c2ccccc2[C@@H](C(=O)NCCCNC(=O)c2ccc(-c3c4nc(c(-c5c(F)cc(S(=O)(=O)[O-])cc5F)c5ccc([nH]5)c(-c5c(F)cc(S(=O)(=O)[O-])cc5F)c5nc(c(-c6c(F)cc(S(=O)(=O)[O-])cc6F)c6ccc3[nH]6)C=C5)C=C4)cc2)C12CCCCC2
REMARK SMILES IDX 19 1 18 2 17 3 15 4 16 5 14 7 5 8 6 9 90 10 7 11 8 12 91 13
REMARK SMILES IDX 95 14 9 15 13 16 92 17 94 18 10 19 12 20 93 21 11 22 3 23
REMARK SMILES IDX 4 24 2 25 1 26 20 27 21 28 22 29 23 31 24 32 25 33 89 34
REMARK SMILES IDX 26 35 88 36 27 37 28 38 29 39 82 40 30 41 87 42 81 43 83 44
REMARK SMILES IDX 31 45 86 46 80 47 79 48 32 50 66 51 45 52 65 53 46 54 49 55
REMARK SMILES IDX 64 56 84 57 47 58 48 59 63 61 85 62 50 63 33 64 34 65 43 66
REMARK SMILES IDX 35 67 36 68 42 69 44 70 37 71 38 72 39 73 40 74 41 75 67 76
REMARK SMILES IDX 68 77 77 78 69 79 70 80 76 81 78 82 71 83 72 84 73 85 74 86
REMARK SMILES IDX 75 87 51 88 52 89 61 90 53 91 54 92 60 93 62 94 55 95 56 96
REMARK SMILES IDX 57 97 58 98 59 99
REMARK H PARENT 17 6 21 30 83 49 49 60
REMARK Flexibility Score: inf
ROOT
ATOM      1  C   UNL A   1      36.705  30.893  32.514  1.00  0.00     0.042 C 
ENDROOT
BRANCH   1   2
ATOM      2  C   UNL A   1      37.114  31.781  33.694  1.00  0.00     0.117 C 
BRANCH   2   3
ATOM      3  N   UNL A   1      38.234  31.284  34.496  1.00  0.00    -0.355 N 
ATOM      4  C   UNL A   1      39.594  31.348  34.390  1.00  0.00     0.229 C 
ATOM      5  O   UNL A   1      40.227  30.895  35.353  1.00  0.00    -0.274 OA
ATOM      6  H   UNL A   1      37.938  30.789  35.294  1.00  0.00     0.163 HD
BRANCH   4   7
ATOM      7  C   UNL A   1      40.355  31.982  33.199  1.00  0.00     0.135 C 
ATOM      8  N   UNL A   1      42.191  33.668  32.578  1.00  0.00    -0.329 N 
ATOM      9  C   UNL A   1      43.166  32.663  32.628  1.00  0.00     0.254 C 
ATOM     10  C   UNL A   1      40.903  33.468  33.398  1.00  0.00     0.059 C 
ATOM     11  O   UNL A   1      44.379  32.857  32.627  1.00  0.00    -0.269 OA
ATOM     12  C   UNL A   1      42.685  31.262  32.533  1.00  0.00     0.044 A 
ATOM     13  C   UNL A   1      41.263  33.775  34.875  1.00  0.00     0.030 C 
ATOM     14  C   UNL A   1      39.795  34.484  32.968  1.00  0.00     0.030 C 
ATOM     15  C   UNL A   1      43.598  30.229  32.264  1.00  0.00     0.014 A 
ATOM     16  C   UNL A   1      41.334  30.959  32.664  1.00  0.00    -0.020 A 
ATOM     17  C   UNL A   1      40.116  33.994  35.863  1.00  0.00     0.002 C 
ATOM     18  C   UNL A   1      38.602  34.580  33.919  1.00  0.00     0.002 C 
ATOM     19  C   UNL A   1      43.161  28.911  32.100  1.00  0.00     0.001 A 
ATOM     20  C   UNL A   1      40.894  29.638  32.416  1.00  0.00     0.005 A 
ATOM     21  C   UNL A   1      39.041  34.930  35.335  1.00  0.00     0.000 C 
ATOM     22  C   UNL A   1      41.804  28.619  32.153  1.00  0.00     0.000 A 
BRANCH   8  23
ATOM     23  C   UNL A   1      42.527  34.983  31.917  1.00  0.00     0.082 C 
ATOM     24  C   UNL A   1      43.547  35.869  32.650  1.00  0.00     0.031 C 
BRANCH  23  25
ATOM     25  C   UNL A   1      42.949  34.873  30.423  1.00  0.00     0.021 C 
ATOM     26  C   UNL A   1      41.776  34.852  29.448  1.00  0.00     0.006 C 
ENDBRANCH  23  25
ENDBRANCH   8  23
ENDBRANCH   4   7
ENDBRANCH   2   3
ENDBRANCH   1   2
BRANCH   1  27
ATOM     27  C   UNL A   1      36.587  31.599  31.175  1.00  0.00     0.118 C 
BRANCH  27  28
ATOM     28  N   UNL A   1      35.627  30.939  30.314  1.00  0.00    -0.352 N 
ATOM     29  C   UNL A   1      35.874  30.157  29.210  1.00  0.00     0.251 C 
ATOM     30  H   UNL A   1      34.679  31.066  30.548  1.00  0.00     0.163 HD
ATOM     31  O   UNL A   1      34.965  29.913  28.422  1.00  0.00    -0.269 OA
BRANCH  29  32
ATOM     32  C   UNL A   1      37.240  29.636  28.964  1.00  0.00     0.039 A 
ATOM     33  C   UNL A   1      37.908  28.881  29.934  1.00  0.00     0.014 A 
ATOM     34  C   UNL A   1      37.861  29.907  27.743  1.00  0.00     0.014 A 
ATOM     35  C   UNL A   1      39.242  28.524  29.743  1.00  0.00     0.010 A 
ATOM     36  C   UNL A   1      39.171  29.473  27.520  1.00  0.00     0.010 A 
ATOM     37  C   UNL A   1      39.888  28.812  28.532  1.00  0.00    -0.014 A 
BRANCH  37  38
ATOM     38  C   UNL A   1      41.312  28.431  28.326  1.00  0.00     0.031 A 
ATOM     39  C   UNL A   1      42.401  29.465  28.438  1.00  0.00     0.074 A 
ATOM     40  C   UNL A   1      41.630  27.154  28.039  1.00  0.00     0.049 A 
ATOM     41  N   UNL A   1      43.681  29.351  28.190  1.00  0.00    -0.248 NA
ATOM     42  C   UNL A   1      41.995  30.809  28.881  1.00  0.00     0.031 C 
ATOM     43  C   UNL A   1      40.677  26.048  27.933  1.00  0.00     0.029 A 
ATOM     44  N   UNL A   1      42.846  26.568  27.784  1.00  0.00    -0.354 N 
ATOM     45  C   UNL A   1      44.230  30.608  28.423  1.00  0.00     0.074 A 
ATOM     46  C   UNL A   1      43.136  31.478  28.801  1.00  0.00     0.031 C 
ATOM     47  C   UNL A   1      41.344  24.917  27.664  1.00  0.00     0.029 A 
ATOM     48  C   UNL A   1      42.761  25.226  27.506  1.00  0.00     0.049 A 
ATOM     49  H   UNL A   1      43.697  27.064  27.799  1.00  0.00     0.167 HD
ATOM     50  C   UNL A   1      45.525  30.997  28.339  1.00  0.00     0.037 A 
ATOM     51  C   UNL A   1      43.710  24.344  27.134  1.00  0.00     0.037 A 
ATOM     52  C   UNL A   1      46.612  30.123  27.973  1.00  0.00     0.049 A 
ATOM     53  C   UNL A   1      45.128  24.815  26.978  1.00  0.00     0.074 A 
ATOM     54  C   UNL A   1      47.961  30.419  27.874  1.00  0.00     0.029 A 
ATOM     55  N   UNL A   1      46.476  28.781  27.644  1.00  0.00    -0.354 N 
ATOM     56  N   UNL A   1      45.629  26.009  27.186  1.00  0.00    -0.248 NA
ATOM     57  C   UNL A   1      46.108  23.819  26.525  1.00  0.00     0.031 C 
ATOM     58  C   UNL A   1      48.631  29.271  27.437  1.00  0.00     0.029 A 
ATOM     59  C   UNL A   1      47.711  28.244  27.314  1.00  0.00     0.049 A 
ATOM     60  H   UNL A   1      45.626  28.283  27.645  1.00  0.00     0.167 HD
ATOM     61  C   UNL A   1      46.985  25.908  26.894  1.00  0.00     0.074 A 
ATOM     62  C   UNL A   1      47.229  24.528  26.525  1.00  0.00     0.031 C 
ATOM     63  C   UNL A   1      47.939  26.873  26.923  1.00  0.00     0.037 A 
BRANCH  50  64
ATOM     64  C   UNL A   1      45.837  32.443  28.625  1.00  0.00     0.058 A 
ATOM     65  C   UNL A   1      46.357  32.859  29.862  1.00  0.00     0.135 A 
ATOM     66  C   UNL A   1      45.636  33.425  27.641  1.00  0.00     0.135 A 
ATOM     67  F   UNL A   1      46.556  31.967  30.846  1.00  0.00    -0.206 F 
ATOM     68  C   UNL A   1      46.634  34.197  30.124  1.00  0.00     0.059 A 
ATOM     69  C   UNL A   1      45.934  34.766  27.870  1.00  0.00     0.059 A 
ATOM     70  F   UNL A   1      45.142  33.087  26.439  1.00  0.00    -0.206 F 
ATOM     71  C   UNL A   1      46.418  35.144  29.122  1.00  0.00     0.060 A 
BRANCH  71  72
ATOM     72  S   UNL A   1      46.774  36.876  29.483  1.00  0.00     0.124 S 
ATOM     73  O   UNL A   1      48.109  37.025  28.910  1.00  0.00    -0.237 OA
ATOM     74  O   UNL A   1      45.701  37.567  28.774  1.00  0.00    -0.237 OA
ATOM     75  O   UNL A   1      46.707  36.944  30.939  1.00  0.00    -0.744 OA
ENDBRANCH  71  72
ENDBRANCH  50  64
BRANCH  51  76
ATOM     76  C   UNL A   1      43.334  22.928  26.882  1.00  0.00     0.058 A 
ATOM     77  C   UNL A   1      43.286  22.421  25.575  1.00  0.00     0.135 A 
ATOM     78  C   UNL A   1      43.073  22.041  27.937  1.00  0.00     0.135 A 
ATOM     79  F   UNL A   1      43.514  23.233  24.532  1.00  0.00    -0.206 F 
ATOM     80  C   UNL A   1      43.002  21.083  25.324  1.00  0.00     0.059 A 
ATOM     81  C   UNL A   1      42.813  20.693  27.714  1.00  0.00     0.059 A 
ATOM     82  F   UNL A   1      43.115  22.474  29.207  1.00  0.00    -0.206 F 
ATOM     83  C   UNL A   1      42.782  20.223  26.402  1.00  0.00     0.060 A 
BRANCH  83  84
ATOM     84  S   UNL A   1      42.510  18.470  26.063  1.00  0.00     0.124 S 
ATOM     85  O   UNL A   1      42.888  17.861  27.333  1.00  0.00    -0.237 OA
ATOM     86  O   UNL A   1      41.087  18.443  25.740  1.00  0.00    -0.237 OA
ATOM     87  O   UNL A   1      43.406  18.201  24.942  1.00  0.00    -0.744 OA
ENDBRANCH  83  84
ENDBRANCH  51  76
BRANCH  63  88
ATOM     88  C   UNL A   1      49.337  26.467  26.538  1.00  0.00     0.058 A 
ATOM     89  C   UNL A   1      49.841  26.706  25.248  1.00  0.00     0.135 A 
ATOM     90  C   UNL A   1      50.189  25.852  27.469  1.00  0.00     0.135 A 
ATOM     91  F   UNL A   1      49.067  27.286  24.318  1.00  0.00    -0.206 F 
ATOM     92  C   UNL A   1      51.125  26.316  24.886  1.00  0.00     0.059 A 
ATOM     93  C   UNL A   1      51.490  25.482  27.137  1.00  0.00     0.059 A 
ATOM     94  F   UNL A   1      49.765  25.611  28.720  1.00  0.00    -0.206 F 
ATOM     95  C   UNL A   1      51.943  25.703  25.836  1.00  0.00     0.060 A 
BRANCH  95  96
ATOM     96  S   UNL A   1      53.607  25.200  25.349  1.00  0.00     0.124 S 
ATOM     97  O   UNL A   1      53.675  25.700  23.980  1.00  0.00    -0.237 OA
ATOM     98  O   UNL A   1      54.439  25.901  26.322  1.00  0.00    -0.237 OA
ATOM     99  O   UNL A   1      53.579  23.748  25.486  1.00  0.00    -0.744 OA
ENDBRANCH  95  96
ENDBRANCH  63  88
ENDBRANCH  37  38
ENDBRANCH  29  32
ENDBRANCH  27  28
ENDBRANCH   1  27
TORSDOF 15
ENDMDL
