MODEL 1
REMARK VINA RESULT:     -12.5      0.000      0.000
REMARK SMILES O=C(CCCCCN1C(=O)/C(=C2\C(=O)Nc3ccccc32)SC1=S)NCCCNC(=O)c1ccc(-c2c3nc(c(-c4c(F)cc(S(=O)(=O)[O-])cc4F)c4ccc([nH]4)c(-c4c(F)cc(S(=O)(=O)[O-])cc4F)c4nc(c(-c5c(F)cc(S(=O)(=O)[O-])cc5F)c5ccc2[nH]5)C=C4)C=C3)cc1
REMARK SMILES IDX 26 1 25 2 1 3 2 4 3 6 4 7 5 8 6 9 7 10 8 11 9 12 23 13 10 14
REMARK SMILES IDX 11 15 22 16 24 17 12 18 13 19 21 20 14 21 15 22 16 23 20 24
REMARK SMILES IDX 17 26 19 27 18 28 27 29 28 30 29 31 30 32 31 34 32 35 33 36
REMARK SMILES IDX 97 37 34 38 96 39 35 40 36 41 37 42 90 43 38 44 95 45 89 46
REMARK SMILES IDX 91 47 39 48 94 49 88 50 87 51 40 53 74 54 53 55 73 56 54 57
REMARK SMILES IDX 57 58 72 59 92 60 55 61 56 62 71 64 93 65 58 66 41 67 42 68
REMARK SMILES IDX 51 69 43 70 44 71 50 72 52 73 45 74 46 75 47 76 48 77 49 78
REMARK SMILES IDX 75 79 76 80 85 81 77 82 78 83 84 84 86 85 79 86 80 87 81 88
REMARK SMILES IDX 82 89 83 90 59 91 60 92 69 93 61 94 62 95 68 96 70 97 63 98
REMARK SMILES IDX 64 99 65 100 66 101 67 102
REMARK H PARENT 25 5 15 25 29 33 91 52 57 63
REMARK Flexibility Score: inf
ROOT
ATOM      1  C   UNL A   1      39.725  21.546  26.159  1.00  0.00     0.117 C 
ENDROOT
BRANCH   1   2
ATOM      2  N   UNL A   1      38.464  22.179  25.842  1.00  0.00    -0.356 N 
ATOM      3  O   UNL A   1      37.542  20.389  24.735  1.00  0.00    -0.275 OA
ATOM      4  C   UNL A   1      37.434  21.497  25.244  1.00  0.00     0.219 C 
ATOM      5  H   UNL A   1      38.339  23.130  26.063  1.00  0.00     0.163 HD
BRANCH   4   6
ATOM      6  C   UNL A   1      36.106  22.201  25.394  1.00  0.00     0.100 C 
BRANCH   6   7
ATOM      7  C   UNL A   1      36.169  23.551  24.679  1.00  0.00     0.010 C 
BRANCH   7   8
ATOM      8  C   UNL A   1      34.962  23.892  23.789  1.00  0.00     0.002 C 
BRANCH   8   9
ATOM      9  C   UNL A   1      34.179  22.683  23.258  1.00  0.00     0.022 C 
BRANCH   9  10
ATOM     10  C   UNL A   1      32.752  22.978  22.744  1.00  0.00     0.127 C 
BRANCH  10  11
ATOM     11  N   UNL A   1      32.031  23.899  23.630  1.00  0.00    -0.293 N 
ATOM     12  C   UNL A   1      31.734  25.173  23.159  1.00  0.00     0.267 C 
ATOM     13  C   UNL A   1      31.657  23.635  24.926  1.00  0.00     0.148 C 
ATOM     14  O   UNL A   1      31.829  25.509  21.990  1.00  0.00    -0.268 OA
ATOM     15  C   UNL A   1      31.416  26.082  24.301  1.00  0.00     0.093 C 
ATOM     16  S   UNL A   1      31.387  25.148  25.757  1.00  0.00    -0.053 SA
ATOM     17  S   UNL A   1      31.448  22.172  25.693  1.00  0.00    -0.052 S 
ATOM     18  C   UNL A   1      31.278  27.414  24.240  1.00  0.00     0.069 C 
ATOM     19  C   UNL A   1      30.866  28.202  23.017  1.00  0.00     0.257 C 
ATOM     20  C   UNL A   1      31.459  28.400  25.326  1.00  0.00     0.012 A 
ATOM     21  O   UNL A   1      30.507  27.803  21.929  1.00  0.00    -0.269 OA
ATOM     22  N   UNL A   1      30.813  29.522  23.438  1.00  0.00    -0.321 N 
ATOM     23  C   UNL A   1      31.165  29.649  24.775  1.00  0.00     0.049 A 
ATOM     24  C   UNL A   1      31.989  28.330  26.606  1.00  0.00     0.011 A 
ATOM     25  H   UNL A   1      30.557  30.276  22.860  1.00  0.00     0.170 HD
ATOM     26  C   UNL A   1      31.292  30.830  25.480  1.00  0.00     0.027 A 
ATOM     27  C   UNL A   1      32.151  29.513  27.333  1.00  0.00     0.001 A 
ATOM     28  C   UNL A   1      31.792  30.752  26.780  1.00  0.00     0.002 A 
ENDBRANCH  10  11
ENDBRANCH   9  10
ENDBRANCH   8   9
ENDBRANCH   7   8
ENDBRANCH   6   7
ENDBRANCH   4   6
ENDBRANCH   1   2
BRANCH   1  29
ATOM     29  C   UNL A   1      40.407  22.201  27.347  1.00  0.00     0.042 C 
BRANCH  29  30
ATOM     30  C   UNL A   1      41.696  22.937  26.998  1.00  0.00     0.118 C 
BRANCH  30  31
ATOM     31  N   UNL A   1      41.554  23.912  25.926  1.00  0.00    -0.352 N 
ATOM     32  C   UNL A   1      41.370  25.276  26.020  1.00  0.00     0.251 C 
ATOM     33  H   UNL A   1      41.594  23.550  25.011  1.00  0.00     0.163 HD
ATOM     34  O   UNL A   1      41.190  25.952  25.013  1.00  0.00    -0.269 OA
BRANCH  32  35
ATOM     35  C   UNL A   1      41.339  25.903  27.360  1.00  0.00     0.039 A 
ATOM     36  C   UNL A   1      40.176  25.862  28.130  1.00  0.00     0.014 A 
ATOM     37  C   UNL A   1      42.447  26.636  27.790  1.00  0.00     0.014 A 
ATOM     38  C   UNL A   1      40.043  26.727  29.209  1.00  0.00     0.010 A 
ATOM     39  C   UNL A   1      42.343  27.428  28.936  1.00  0.00     0.010 A 
ATOM     40  C   UNL A   1      41.118  27.536  29.616  1.00  0.00    -0.014 A 
BRANCH  40  41
ATOM     41  C   UNL A   1      40.940  28.508  30.728  1.00  0.00     0.031 A 
ATOM     42  C   UNL A   1      41.840  28.465  31.939  1.00  0.00     0.074 A 
ATOM     43  C   UNL A   1      39.992  29.460  30.630  1.00  0.00     0.049 A 
ATOM     44  N   UNL A   1      41.794  29.191  33.027  1.00  0.00    -0.248 NA
ATOM     45  C   UNL A   1      42.931  27.477  31.929  1.00  0.00     0.031 C 
ATOM     46  C   UNL A   1      39.083  29.631  29.495  1.00  0.00     0.029 A 
ATOM     47  N   UNL A   1      39.641  30.468  31.491  1.00  0.00    -0.354 N 
ATOM     48  C   UNL A   1      42.832  28.740  33.836  1.00  0.00     0.074 A 
ATOM     49  C   UNL A   1      43.475  27.654  33.126  1.00  0.00     0.031 C 
ATOM     50  C   UNL A   1      38.307  30.703  29.711  1.00  0.00     0.029 A 
ATOM     51  C   UNL A   1      38.606  31.247  31.031  1.00  0.00     0.049 A 
ATOM     52  H   UNL A   1      40.087  30.620  32.356  1.00  0.00     0.167 HD
ATOM     53  C   UNL A   1      43.221  29.195  35.052  1.00  0.00     0.037 A 
ATOM     54  C   UNL A   1      37.948  32.267  31.614  1.00  0.00     0.037 A 
ATOM     55  C   UNL A   1      42.587  30.288  35.747  1.00  0.00     0.049 A 
ATOM     56  C   UNL A   1      38.351  32.705  32.992  1.00  0.00     0.074 A 
ATOM     57  C   UNL A   1      42.909  30.826  36.981  1.00  0.00     0.029 A 
ATOM     58  N   UNL A   1      41.505  31.013  35.270  1.00  0.00    -0.354 N 
ATOM     59  N   UNL A   1      39.319  32.251  33.752  1.00  0.00    -0.248 NA
ATOM     60  C   UNL A   1      37.569  33.791  33.597  1.00  0.00     0.031 C 
ATOM     61  C   UNL A   1      41.993  31.841  37.272  1.00  0.00     0.029 A 
ATOM     62  C   UNL A   1      41.134  31.977  36.194  1.00  0.00     0.049 A 
ATOM     63  H   UNL A   1      41.064  30.864  34.402  1.00  0.00     0.167 HD
ATOM     64  C   UNL A   1      39.276  33.009  34.917  1.00  0.00     0.074 A 
ATOM     65  C   UNL A   1      38.198  33.963  34.752  1.00  0.00     0.031 C 
ATOM     66  C   UNL A   1      40.056  32.921  36.022  1.00  0.00     0.037 A 
BRANCH  53  67
ATOM     67  C   UNL A   1      44.381  28.511  35.727  1.00  0.00     0.058 A 
ATOM     68  C   UNL A   1      44.197  27.422  36.594  1.00  0.00     0.135 A 
ATOM     69  C   UNL A   1      45.701  28.907  35.451  1.00  0.00     0.135 A 
ATOM     70  F   UNL A   1      42.958  27.011  36.909  1.00  0.00    -0.206 F 
ATOM     71  C   UNL A   1      45.276  26.761  37.174  1.00  0.00     0.059 A 
ATOM     72  C   UNL A   1      46.796  28.243  35.997  1.00  0.00     0.059 A 
ATOM     73  F   UNL A   1      45.938  29.942  34.629  1.00  0.00    -0.206 F 
ATOM     74  C   UNL A   1      46.574  27.176  36.865  1.00  0.00     0.060 A 
BRANCH  74  75
ATOM     75  S   UNL A   1      47.959  26.294  37.614  1.00  0.00     0.124 S 
ATOM     76  O   UNL A   1      47.268  25.267  38.388  1.00  0.00    -0.237 OA
ATOM     77  O   UNL A   1      48.693  25.820  36.445  1.00  0.00    -0.237 OA
ATOM     78  O   UNL A   1      48.634  27.322  38.400  1.00  0.00    -0.744 OA
ENDBRANCH  74  75
ENDBRANCH  53  67
BRANCH  54  79
ATOM     79  C   UNL A   1      36.831  32.931  30.890  1.00  0.00     0.058 A 
ATOM     80  C   UNL A   1      35.496  32.639  31.201  1.00  0.00     0.135 A 
ATOM     81  C   UNL A   1      37.078  33.896  29.900  1.00  0.00     0.135 A 
ATOM     82  F   UNL A   1      35.211  31.718  32.133  1.00  0.00    -0.206 F 
ATOM     83  C   UNL A   1      34.444  33.276  30.555  1.00  0.00     0.059 A 
ATOM     84  C   UNL A   1      36.043  34.569  29.261  1.00  0.00     0.059 A 
ATOM     85  F   UNL A   1      38.340  34.221  29.575  1.00  0.00    -0.206 F 
ATOM     86  C   UNL A   1      34.727  34.247  29.591  1.00  0.00     0.060 A 
BRANCH  86  87
ATOM     87  S   UNL A   1      33.352  35.113  28.808  1.00  0.00     0.124 S 
ATOM     88  O   UNL A   1      34.048  36.147  28.050  1.00  0.00    -0.237 OA
ATOM     89  O   UNL A   1      32.734  34.050  28.020  1.00  0.00    -0.237 OA
ATOM     90  O   UNL A   1      32.560  35.583  29.940  1.00  0.00    -0.744 OA
ENDBRANCH  86  87
ENDBRANCH  54  79
BRANCH  66  91
ATOM     91  C   UNL A   1      39.793  33.900  37.133  1.00  0.00     0.058 A 
ATOM     92  C   UNL A   1      38.986  33.570  38.233  1.00  0.00     0.135 A 
ATOM     93  C   UNL A   1      40.383  35.175  37.114  1.00  0.00     0.135 A 
ATOM     94  F   UNL A   1      38.392  32.367  38.299  1.00  0.00    -0.206 F 
ATOM     95  C   UNL A   1      38.747  34.479  39.259  1.00  0.00     0.059 A 
ATOM     96  C   UNL A   1      40.184  36.088  38.145  1.00  0.00     0.059 A 
ATOM     97  F   UNL A   1      41.174  35.539  36.092  1.00  0.00    -0.206 F 
ATOM     98  C   UNL A   1      39.351  35.736  39.205  1.00  0.00     0.060 A 
BRANCH  98  99
ATOM     99  S   UNL A   1      39.041  36.900  40.549  1.00  0.00     0.124 S 
ATOM    100  O   UNL A   1      38.314  37.961  39.858  1.00  0.00    -0.237 OA
ATOM    101  O   UNL A   1      38.256  36.097  41.482  1.00  0.00    -0.237 OA
ATOM    102  O   UNL A   1      40.380  37.255  41.010  1.00  0.00    -0.744 OA
ENDBRANCH  98  99
ENDBRANCH  66  91
ENDBRANCH  40  41
ENDBRANCH  32  35
ENDBRANCH  30  31
ENDBRANCH  29  30
ENDBRANCH   1  29
TORSDOF 18
ENDMDL
MODEL 2
REMARK VINA RESULT:     -12.4      1.157      8.133
REMARK SMILES O=C(CCCCCN1C(=O)/C(=C2\C(=O)Nc3ccccc32)SC1=S)NCCCNC(=O)c1ccc(-c2c3nc(c(-c4c(F)cc(S(=O)(=O)[O-])cc4F)c4ccc([nH]4)c(-c4c(F)cc(S(=O)(=O)[O-])cc4F)c4nc(c(-c5c(F)cc(S(=O)(=O)[O-])cc5F)c5ccc2[nH]5)C=C4)C=C3)cc1
REMARK SMILES IDX 26 1 25 2 1 3 2 4 3 6 4 7 5 8 6 9 7 10 8 11 9 12 23 13 10 14
REMARK SMILES IDX 11 15 22 16 24 17 12 18 13 19 21 20 14 21 15 22 16 23 20 24
REMARK SMILES IDX 17 26 19 27 18 28 27 29 28 30 29 31 30 32 31 34 32 35 33 36
REMARK SMILES IDX 97 37 34 38 96 39 35 40 36 41 37 42 90 43 38 44 95 45 89 46
REMARK SMILES IDX 91 47 39 48 94 49 88 50 87 51 40 53 74 54 53 55 73 56 54 57
REMARK SMILES IDX 57 58 72 59 92 60 55 61 56 62 71 64 93 65 58 66 41 67 42 68
REMARK SMILES IDX 51 69 43 70 44 71 50 72 52 73 45 74 46 75 47 76 48 77 49 78
REMARK SMILES IDX 75 79 76 80 85 81 77 82 78 83 84 84 86 85 79 86 80 87 81 88
REMARK SMILES IDX 82 89 83 90 59 91 60 92 69 93 61 94 62 95 68 96 70 97 63 98
REMARK SMILES IDX 64 99 65 100 66 101 67 102
REMARK H PARENT 25 5 15 25 29 33 91 52 57 63
REMARK Flexibility Score: inf
ROOT
ATOM      1  C   UNL A   1      39.808  21.531  26.025  1.00  0.00     0.117 C 
ENDROOT
BRANCH   1   2
ATOM      2  N   UNL A   1      38.534  21.917  25.457  1.00  0.00    -0.356 N 
ATOM      3  O   UNL A   1      37.889  19.810  24.802  1.00  0.00    -0.275 OA
ATOM      4  C   UNL A   1      37.634  20.994  24.987  1.00  0.00     0.219 C 
ATOM      5  H   UNL A   1      38.305  22.873  25.406  1.00  0.00     0.163 HD
BRANCH   4   6
ATOM      6  C   UNL A   1      36.241  21.560  24.844  1.00  0.00     0.100 C 
BRANCH   6   7
ATOM      7  C   UNL A   1      36.313  22.884  24.081  1.00  0.00     0.010 C 
BRANCH   7   8
ATOM      8  C   UNL A   1      35.573  24.068  24.728  1.00  0.00     0.002 C 
BRANCH   8   9
ATOM      9  C   UNL A   1      34.954  23.779  26.102  1.00  0.00     0.022 C 
BRANCH   9  10
ATOM     10  C   UNL A   1      33.412  23.861  26.176  1.00  0.00     0.127 C 
BRANCH  10  11
ATOM     11  N   UNL A   1      32.854  24.663  25.080  1.00  0.00    -0.293 N 
ATOM     12  C   UNL A   1      32.817  26.046  25.226  1.00  0.00     0.267 C 
ATOM     13  C   UNL A   1      32.309  24.165  23.922  1.00  0.00     0.148 C 
ATOM     14  O   UNL A   1      33.413  26.658  26.096  1.00  0.00    -0.268 OA
ATOM     15  C   UNL A   1      31.848  26.638  24.255  1.00  0.00     0.093 C 
ATOM     16  S   UNL A   1      31.269  25.380  23.217  1.00  0.00    -0.053 SA
ATOM     17  S   UNL A   1      32.529  22.682  23.197  1.00  0.00    -0.052 S 
ATOM     18  C   UNL A   1      31.411  27.905  24.243  1.00  0.00     0.069 C 
ATOM     19  C   UNL A   1      32.158  29.099  24.793  1.00  0.00     0.257 C 
ATOM     20  C   UNL A   1      30.149  28.429  23.681  1.00  0.00     0.012 A 
ATOM     21  O   UNL A   1      33.281  29.163  25.246  1.00  0.00    -0.269 OA
ATOM     22  N   UNL A   1      31.348  30.190  24.518  1.00  0.00    -0.321 N 
ATOM     23  C   UNL A   1      30.174  29.811  23.881  1.00  0.00     0.049 A 
ATOM     24  C   UNL A   1      28.990  27.832  23.207  1.00  0.00     0.011 A 
ATOM     25  H   UNL A   1      31.576  31.120  24.746  1.00  0.00     0.170 HD
ATOM     26  C   UNL A   1      29.121  30.638  23.543  1.00  0.00     0.027 A 
ATOM     27  C   UNL A   1      27.899  28.644  22.879  1.00  0.00     0.001 A 
ATOM     28  C   UNL A   1      27.970  30.037  23.032  1.00  0.00     0.002 A 
ENDBRANCH  10  11
ENDBRANCH   9  10
ENDBRANCH   8   9
ENDBRANCH   7   8
ENDBRANCH   6   7
ENDBRANCH   4   6
ENDBRANCH   1   2
BRANCH   1  29
ATOM     29  C   UNL A   1      40.146  22.340  27.264  1.00  0.00     0.042 C 
BRANCH  29  30
ATOM     30  C   UNL A   1      41.423  23.163  27.141  1.00  0.00     0.118 C 
BRANCH  30  31
ATOM     31  N   UNL A   1      41.389  24.165  26.085  1.00  0.00    -0.352 N 
ATOM     32  C   UNL A   1      41.313  25.537  26.200  1.00  0.00     0.251 C 
ATOM     33  H   UNL A   1      41.425  23.816  25.165  1.00  0.00     0.163 HD
ATOM     34  O   UNL A   1      41.215  26.242  25.202  1.00  0.00    -0.269 OA
BRANCH  32  35
ATOM     35  C   UNL A   1      41.297  26.141  27.550  1.00  0.00     0.039 A 
ATOM     36  C   UNL A   1      40.169  26.018  28.364  1.00  0.00     0.014 A 
ATOM     37  C   UNL A   1      42.374  26.935  27.951  1.00  0.00     0.014 A 
ATOM     38  C   UNL A   1      40.026  26.858  29.461  1.00  0.00     0.010 A 
ATOM     39  C   UNL A   1      42.267  27.703  29.112  1.00  0.00     0.010 A 
ATOM     40  C   UNL A   1      41.066  27.725  29.840  1.00  0.00    -0.014 A 
BRANCH  40  41
ATOM     41  C   UNL A   1      40.873  28.668  30.974  1.00  0.00     0.031 A 
ATOM     42  C   UNL A   1      39.800  29.730  30.918  1.00  0.00     0.074 A 
ATOM     43  C   UNL A   1      41.637  28.544  32.077  1.00  0.00     0.049 A 
ATOM     44  N   UNL A   1      39.526  30.673  31.784  1.00  0.00    -0.248 NA
ATOM     45  C   UNL A   1      38.922  29.733  29.737  1.00  0.00     0.031 C 
ATOM     46  C   UNL A   1      42.681  27.537  32.270  1.00  0.00     0.029 A 
ATOM     47  N   UNL A   1      41.647  29.261  33.246  1.00  0.00    -0.354 N 
ATOM     48  C   UNL A   1      38.462  31.391  31.248  1.00  0.00     0.074 A 
ATOM     49  C   UNL A   1      38.158  30.794  29.965  1.00  0.00     0.031 C 
ATOM     50  C   UNL A   1      43.203  27.674  33.497  1.00  0.00     0.029 A 
ATOM     51  C   UNL A   1      42.588  28.826  34.148  1.00  0.00     0.049 A 
ATOM     52  H   UNL A   1      41.038  30.015  33.424  1.00  0.00     0.167 HD
ATOM     53  C   UNL A   1      37.795  32.444  31.780  1.00  0.00     0.037 A 
ATOM     54  C   UNL A   1      42.942  29.313  35.352  1.00  0.00     0.037 A 
ATOM     55  C   UNL A   1      38.093  33.024  33.066  1.00  0.00     0.049 A 
ATOM     56  C   UNL A   1      42.236  30.525  35.888  1.00  0.00     0.074 A 
ATOM     57  C   UNL A   1      37.471  34.090  33.694  1.00  0.00     0.029 A 
ATOM     58  N   UNL A   1      39.093  32.588  33.923  1.00  0.00    -0.354 N 
ATOM     59  N   UNL A   1      41.249  31.206  35.356  1.00  0.00    -0.248 NA
ATOM     60  C   UNL A   1      42.694  31.040  37.184  1.00  0.00     0.031 C 
ATOM     61  C   UNL A   1      38.126  34.329  34.906  1.00  0.00     0.029 A 
ATOM     62  C   UNL A   1      39.119  33.376  35.063  1.00  0.00     0.049 A 
ATOM     63  H   UNL A   1      39.696  31.830  33.747  1.00  0.00     0.167 HD
ATOM     64  C   UNL A   1      40.954  32.218  36.263  1.00  0.00     0.074 A 
ATOM     65  C   UNL A   1      41.855  32.047  37.384  1.00  0.00     0.031 C 
ATOM     66  C   UNL A   1      40.024  33.200  36.173  1.00  0.00     0.037 A 
BRANCH  53  67
ATOM     67  C   UNL A   1      36.677  33.055  30.975  1.00  0.00     0.058 A 
ATOM     68  C   UNL A   1      35.328  32.827  31.289  1.00  0.00     0.135 A 
ATOM     69  C   UNL A   1      36.960  33.934  29.916  1.00  0.00     0.135 A 
ATOM     70  F   UNL A   1      34.997  31.983  32.280  1.00  0.00    -0.206 F 
ATOM     71  C   UNL A   1      34.300  33.436  30.574  1.00  0.00     0.059 A 
ATOM     72  C   UNL A   1      35.949  34.575  29.205  1.00  0.00     0.059 A 
ATOM     73  F   UNL A   1      38.232  34.189  29.570  1.00  0.00    -0.206 F 
ATOM     74  C   UNL A   1      34.621  34.313  29.536  1.00  0.00     0.060 A 
BRANCH  74  75
ATOM     75  S   UNL A   1      33.274  35.106  28.633  1.00  0.00     0.124 S 
ATOM     76  O   UNL A   1      32.471  35.651  29.724  1.00  0.00    -0.237 OA
ATOM     77  O   UNL A   1      33.982  36.086  27.816  1.00  0.00    -0.237 OA
ATOM     78  O   UNL A   1      32.662  34.004  27.896  1.00  0.00    -0.744 OA
ENDBRANCH  74  75
ENDBRANCH  53  67
BRANCH  54  79
ATOM     79  C   UNL A   1      44.029  28.651  36.122  1.00  0.00     0.058 A 
ATOM     80  C   UNL A   1      43.759  27.556  36.953  1.00  0.00     0.135 A 
ATOM     81  C   UNL A   1      45.363  29.078  36.013  1.00  0.00     0.135 A 
ATOM     82  F   UNL A   1      42.500  27.117  37.097  1.00  0.00    -0.206 F 
ATOM     83  C   UNL A   1      44.771  26.907  37.653  1.00  0.00     0.059 A 
ATOM     84  C   UNL A   1      46.395  28.427  36.678  1.00  0.00     0.059 A 
ATOM     85  F   UNL A   1      45.675  30.115  35.219  1.00  0.00    -0.206 F 
ATOM     86  C   UNL A   1      46.088  27.345  37.501  1.00  0.00     0.060 A 
BRANCH  86  87
ATOM     87  S   UNL A   1      47.398  26.454  38.364  1.00  0.00     0.124 S 
ATOM     88  O   UNL A   1      48.525  26.634  37.455  1.00  0.00    -0.237 OA
ATOM     89  O   UNL A   1      47.475  27.178  39.630  1.00  0.00    -0.237 OA
ATOM     90  O   UNL A   1      46.875  25.095  38.460  1.00  0.00    -0.744 OA
ENDBRANCH  86  87
ENDBRANCH  54  79
BRANCH  66  91
ATOM     91  C   UNL A   1      39.911  34.153  37.332  1.00  0.00     0.058 A 
ATOM     92  C   UNL A   1      40.627  35.360  37.368  1.00  0.00     0.135 A 
ATOM     93  C   UNL A   1      39.049  33.871  38.405  1.00  0.00     0.135 A 
ATOM     94  F   UNL A   1      41.470  35.676  36.371  1.00  0.00    -0.206 F 
ATOM     95  C   UNL A   1      40.519  36.238  38.441  1.00  0.00     0.059 A 
ATOM     96  C   UNL A   1      38.901  34.750  39.473  1.00  0.00     0.059 A 
ATOM     97  F   UNL A   1      38.331  32.737  38.416  1.00  0.00    -0.206 F 
ATOM     98  C   UNL A   1      39.652  35.924  39.489  1.00  0.00     0.060 A 
BRANCH  98  99
ATOM     99  S   UNL A   1      39.513  37.080  40.868  1.00  0.00     0.124 S 
ATOM    100  O   UNL A   1      38.517  38.021  40.364  1.00  0.00    -0.237 OA
ATOM    101  O   UNL A   1      39.072  36.213  41.957  1.00  0.00    -0.237 OA
ATOM    102  O   UNL A   1      40.865  37.612  41.007  1.00  0.00    -0.744 OA
ENDBRANCH  98  99
ENDBRANCH  66  91
ENDBRANCH  40  41
ENDBRANCH  32  35
ENDBRANCH  30  31
ENDBRANCH  29  30
ENDBRANCH   1  29
TORSDOF 18
ENDMDL
MODEL 3
REMARK VINA RESULT:     -12.4      6.416     12.194
REMARK SMILES O=C(CCCCCN1C(=O)/C(=C2\C(=O)Nc3ccccc32)SC1=S)NCCCNC(=O)c1ccc(-c2c3nc(c(-c4c(F)cc(S(=O)(=O)[O-])cc4F)c4ccc([nH]4)c(-c4c(F)cc(S(=O)(=O)[O-])cc4F)c4nc(c(-c5c(F)cc(S(=O)(=O)[O-])cc5F)c5ccc2[nH]5)C=C4)C=C3)cc1
REMARK SMILES IDX 26 1 25 2 1 3 2 4 3 6 4 7 5 8 6 9 7 10 8 11 9 12 23 13 10 14
REMARK SMILES IDX 11 15 22 16 24 17 12 18 13 19 21 20 14 21 15 22 16 23 20 24
REMARK SMILES IDX 17 26 19 27 18 28 27 29 28 30 29 31 30 32 31 34 32 35 33 36
REMARK SMILES IDX 97 37 34 38 96 39 35 40 36 41 37 42 90 43 38 44 95 45 89 46
REMARK SMILES IDX 91 47 39 48 94 49 88 50 87 51 40 53 74 54 53 55 73 56 54 57
REMARK SMILES IDX 57 58 72 59 92 60 55 61 56 62 71 64 93 65 58 66 41 67 42 68
REMARK SMILES IDX 51 69 43 70 44 71 50 72 52 73 45 74 46 75 47 76 48 77 49 78
REMARK SMILES IDX 75 79 76 80 85 81 77 82 78 83 84 84 86 85 79 86 80 87 81 88
REMARK SMILES IDX 82 89 83 90 59 91 60 92 69 93 61 94 62 95 68 96 70 97 63 98
REMARK SMILES IDX 64 99 65 100 66 101 67 102
REMARK H PARENT 25 5 15 25 29 33 91 52 57 63
REMARK Flexibility Score: inf
ROOT
ATOM      1  C   UNL A   1      32.687  30.117  26.397  1.00  0.00     0.117 C 
ENDROOT
BRANCH   1   2
ATOM      2  N   UNL A   1      32.659  29.747  24.998  1.00  0.00    -0.356 N 
ATOM      3  O   UNL A   1      30.964  28.205  25.167  1.00  0.00    -0.275 OA
ATOM      4  C   UNL A   1      31.716  28.891  24.488  1.00  0.00     0.219 C 
ATOM      5  H   UNL A   1      33.339  30.122  24.392  1.00  0.00     0.163 HD
BRANCH   4   6
ATOM      6  C   UNL A   1      31.605  28.979  22.983  1.00  0.00     0.100 C 
BRANCH   6   7
ATOM      7  C   UNL A   1      31.940  27.617  22.375  1.00  0.00     0.010 C 
BRANCH   7   8
ATOM      8  C   UNL A   1      33.400  27.158  22.529  1.00  0.00     0.002 C 
BRANCH   8   9
ATOM      9  C   UNL A   1      33.583  25.745  23.099  1.00  0.00     0.022 C 
BRANCH   9  10
ATOM     10  C   UNL A   1      33.572  25.634  24.640  1.00  0.00     0.127 C 
BRANCH  10  11
ATOM     11  N   UNL A   1      33.244  24.275  25.088  1.00  0.00    -0.293 N 
ATOM     12  C   UNL A   1      34.257  23.321  25.103  1.00  0.00     0.267 C 
ATOM     13  C   UNL A   1      31.997  23.833  25.456  1.00  0.00     0.148 C 
ATOM     14  O   UNL A   1      35.443  23.581  24.984  1.00  0.00    -0.268 OA
ATOM     15  C   UNL A   1      33.669  21.949  25.152  1.00  0.00     0.093 C 
ATOM     16  S   UNL A   1      31.954  22.090  25.332  1.00  0.00    -0.053 SA
ATOM     17  S   UNL A   1      30.670  24.702  25.964  1.00  0.00    -0.052 S 
ATOM     18  C   UNL A   1      34.331  20.796  24.979  1.00  0.00     0.069 C 
ATOM     19  C   UNL A   1      35.801  20.576  25.251  1.00  0.00     0.257 C 
ATOM     20  C   UNL A   1      33.794  19.495  24.527  1.00  0.00     0.012 A 
ATOM     21  O   UNL A   1      36.615  21.331  25.740  1.00  0.00    -0.269 OA
ATOM     22  N   UNL A   1      36.023  19.235  24.979  1.00  0.00    -0.321 N 
ATOM     23  C   UNL A   1      34.865  18.600  24.548  1.00  0.00     0.049 A 
ATOM     24  C   UNL A   1      32.587  19.097  23.972  1.00  0.00     0.011 A 
ATOM     25  H   UNL A   1      36.893  18.787  25.078  1.00  0.00     0.170 HD
ATOM     26  C   UNL A   1      34.759  17.291  24.121  1.00  0.00     0.027 A 
ATOM     27  C   UNL A   1      32.459  17.784  23.509  1.00  0.00     0.001 A 
ATOM     28  C   UNL A   1      33.532  16.884  23.596  1.00  0.00     0.002 A 
ENDBRANCH  10  11
ENDBRANCH   9  10
ENDBRANCH   8   9
ENDBRANCH   7   8
ENDBRANCH   6   7
ENDBRANCH   4   6
ENDBRANCH   1   2
BRANCH   1  29
ATOM     29  C   UNL A   1      33.477  29.125  27.232  1.00  0.00     0.042 C 
BRANCH  29  30
ATOM     30  C   UNL A   1      34.922  29.538  27.488  1.00  0.00     0.118 C 
BRANCH  30  31
ATOM     31  N   UNL A   1      35.103  30.375  28.666  1.00  0.00    -0.352 N 
ATOM     32  C   UNL A   1      36.224  30.518  29.458  1.00  0.00     0.251 C 
ATOM     33  H   UNL A   1      34.322  30.911  28.934  1.00  0.00     0.163 HD
ATOM     34  O   UNL A   1      36.189  31.211  30.469  1.00  0.00    -0.269 OA
BRANCH  32  35
ATOM     35  C   UNL A   1      37.452  29.776  29.099  1.00  0.00     0.039 A 
ATOM     36  C   UNL A   1      38.206  29.141  30.086  1.00  0.00     0.014 A 
ATOM     37  C   UNL A   1      37.910  29.823  27.780  1.00  0.00     0.014 A 
ATOM     38  C   UNL A   1      39.510  28.751  29.803  1.00  0.00     0.010 A 
ATOM     39  C   UNL A   1      39.184  29.337  27.478  1.00  0.00     0.010 A 
ATOM     40  C   UNL A   1      40.023  28.861  28.499  1.00  0.00    -0.014 A 
BRANCH  40  41
ATOM     41  C   UNL A   1      41.441  28.506  28.225  1.00  0.00     0.031 A 
ATOM     42  C   UNL A   1      42.527  29.552  28.311  1.00  0.00     0.074 A 
ATOM     43  C   UNL A   1      41.762  27.229  27.938  1.00  0.00     0.049 A 
ATOM     44  N   UNL A   1      43.804  29.439  28.049  1.00  0.00    -0.248 NA
ATOM     45  C   UNL A   1      42.126  30.900  28.746  1.00  0.00     0.031 C 
ATOM     46  C   UNL A   1      40.811  26.119  27.862  1.00  0.00     0.029 A 
ATOM     47  N   UNL A   1      42.974  26.648  27.669  1.00  0.00    -0.354 N 
ATOM     48  C   UNL A   1      44.355  30.698  28.268  1.00  0.00     0.074 A 
ATOM     49  C   UNL A   1      43.267  31.570  28.656  1.00  0.00     0.031 C 
ATOM     50  C   UNL A   1      41.479  24.985  27.604  1.00  0.00     0.029 A 
ATOM     51  C   UNL A   1      42.892  25.299  27.420  1.00  0.00     0.049 A 
ATOM     52  H   UNL A   1      43.823  27.148  27.655  1.00  0.00     0.167 HD
ATOM     53  C   UNL A   1      45.650  31.088  28.165  1.00  0.00     0.037 A 
ATOM     54  C   UNL A   1      43.839  24.414  27.053  1.00  0.00     0.037 A 
ATOM     55  C   UNL A   1      46.732  30.210  27.793  1.00  0.00     0.049 A 
ATOM     56  C   UNL A   1      45.253  24.886  26.876  1.00  0.00     0.074 A 
ATOM     57  C   UNL A   1      48.077  30.510  27.665  1.00  0.00     0.029 A 
ATOM     58  N   UNL A   1      46.595  28.863  27.493  1.00  0.00    -0.354 N 
ATOM     59  N   UNL A   1      45.750  26.086  27.063  1.00  0.00    -0.248 NA
ATOM     60  C   UNL A   1      46.234  23.888  26.431  1.00  0.00     0.031 C 
ATOM     61  C   UNL A   1      48.746  29.358  27.240  1.00  0.00     0.029 A 
ATOM     62  C   UNL A   1      47.828  28.323  27.160  1.00  0.00     0.049 A 
ATOM     63  H   UNL A   1      45.748  28.363  27.514  1.00  0.00     0.167 HD
ATOM     64  C   UNL A   1      47.108  25.981  26.778  1.00  0.00     0.074 A 
ATOM     65  C   UNL A   1      47.353  24.598  26.425  1.00  0.00     0.031 C 
ATOM     66  C   UNL A   1      48.062  26.944  26.805  1.00  0.00     0.037 A 
BRANCH  53  67
ATOM     67  C   UNL A   1      45.979  32.531  28.446  1.00  0.00     0.058 A 
ATOM     68  C   UNL A   1      45.929  33.512  27.442  1.00  0.00     0.135 A 
ATOM     69  C   UNL A   1      46.284  32.952  29.752  1.00  0.00     0.135 A 
ATOM     70  F   UNL A   1      45.660  33.166  26.172  1.00  0.00    -0.206 F 
ATOM     71  C   UNL A   1      46.184  34.852  27.718  1.00  0.00     0.059 A 
ATOM     72  C   UNL A   1      46.515  34.290  30.056  1.00  0.00     0.059 A 
ATOM     73  F   UNL A   1      46.346  32.058  30.751  1.00  0.00    -0.206 F 
ATOM     74  C   UNL A   1      46.471  35.233  29.031  1.00  0.00     0.060 A 
BRANCH  74  75
ATOM     75  S   UNL A   1      46.781  36.978  29.371  1.00  0.00     0.124 S 
ATOM     76  O   UNL A   1      46.627  37.025  30.822  1.00  0.00    -0.237 OA
ATOM     77  O   UNL A   1      48.141  37.154  28.872  1.00  0.00    -0.237 OA
ATOM     78  O   UNL A   1      45.742  37.664  28.609  1.00  0.00    -0.744 OA
ENDBRANCH  74  75
ENDBRANCH  53  67
BRANCH  54  79
ATOM     79  C   UNL A   1      43.466  22.993  26.822  1.00  0.00     0.058 A 
ATOM     80  C   UNL A   1      43.462  22.450  25.529  1.00  0.00     0.135 A 
ATOM     81  C   UNL A   1      43.143  22.141  27.891  1.00  0.00     0.135 A 
ATOM     82  F   UNL A   1      43.755  23.226  24.476  1.00  0.00    -0.206 F 
ATOM     83  C   UNL A   1      43.148  21.115  25.303  1.00  0.00     0.059 A 
ATOM     84  C   UNL A   1      42.856  20.796  27.692  1.00  0.00     0.059 A 
ATOM     85  F   UNL A   1      43.146  22.610  29.150  1.00  0.00    -0.206 F 
ATOM     86  C   UNL A   1      42.854  20.293  26.393  1.00  0.00     0.060 A 
BRANCH  86  87
ATOM     87  S   UNL A   1      42.512  18.547  26.090  1.00  0.00     0.124 S 
ATOM     88  O   UNL A   1      42.832  17.956  27.384  1.00  0.00    -0.237 OA
ATOM     89  O   UNL A   1      41.097  18.574  25.730  1.00  0.00    -0.237 OA
ATOM     90  O   UNL A   1      43.421  18.210  24.999  1.00  0.00    -0.744 OA
ENDBRANCH  86  87
ENDBRANCH  54  79
BRANCH  66  91
ATOM     91  C   UNL A   1      49.469  26.532  26.470  1.00  0.00     0.058 A 
ATOM     92  C   UNL A   1      50.018  26.748  25.196  1.00  0.00     0.135 A 
ATOM     93  C   UNL A   1      50.291  25.943  27.445  1.00  0.00     0.135 A 
ATOM     94  F   UNL A   1      49.275  27.301  24.224  1.00  0.00    -0.206 F 
ATOM     95  C   UNL A   1      51.321  26.366  24.891  1.00  0.00     0.059 A 
ATOM     96  C   UNL A   1      51.607  25.583  27.172  1.00  0.00     0.059 A 
ATOM     97  F   UNL A   1      49.821  25.725  28.684  1.00  0.00    -0.206 F 
ATOM     98  C   UNL A   1      52.107  25.784  25.887  1.00  0.00     0.060 A 
BRANCH  98  99
ATOM     99  S   UNL A   1      53.799  25.305  25.480  1.00  0.00     0.124 S 
ATOM    100  O   UNL A   1      54.571  26.172  26.366  1.00  0.00    -0.237 OA
ATOM    101  O   UNL A   1      53.810  23.885  25.815  1.00  0.00    -0.237 OA
ATOM    102  O   UNL A   1      53.907  25.608  24.056  1.00  0.00    -0.744 OA
ENDBRANCH  98  99
ENDBRANCH  66  91
ENDBRANCH  40  41
ENDBRANCH  32  35
ENDBRANCH  30  31
ENDBRANCH  29  30
ENDBRANCH   1  29
TORSDOF 18
ENDMDL
